#------------------------------------------------------------------------------
#$Date: 2017-10-05 10:23:37 +0300 (Thu, 05 Oct 2017) $
#$Revision: 201738 $
#$URL: file:///home/coder/svn-repositories/cod/cif/1/54/75/1547587.cif $
#------------------------------------------------------------------------------
#
# This file is available in the Crystallography Open Database (COD),
# http://www.crystallography.net/
#
# All data on this site have been placed in the public domain by the
# contributors.
#
data_1547587
loop_
_publ_author_name
'Mwenda, Edward T.'
'Nguyen, Hien M.'
_publ_section_title
;
 Enantioselective Synthesis of 1,2-Diamines Containing Tertiary and
 Quaternary Centers through Rhodium-Catalyzed DYKAT of Racemic Allylic
 Trichloroacetimidates.
;
_journal_issue                   18
_journal_name_full               'Organic letters'
_journal_page_first              4814
_journal_page_last               4817
_journal_paper_doi               10.1021/acs.orglett.7b02256
_journal_volume                  19
_journal_year                    2017
_chemical_absolute_configuration ad
_chemical_formula_moiety         'C21 H26 N2 O3 S'
_chemical_formula_sum            'C21 H26 N2 O3 S'
_chemical_formula_weight         386.50
_space_group_crystal_system      monoclinic
_space_group_IT_number           4
_space_group_name_Hall           'P 2yb'
_space_group_name_H-M_alt        'P 1 21 1'
_symmetry_space_group_name_Hall  'P 2yb'
_symmetry_space_group_name_H-M   'P 1 21 1'
_atom_sites_solution_hydrogens   geom
_audit_creation_method           SHELXL-2014/7
_cell_angle_alpha                90
_cell_angle_beta                 100.037(5)
_cell_angle_gamma                90
_cell_formula_units_Z            2
_cell_length_a                   6.3959(7)
_cell_length_b                   8.7834(10)
_cell_length_c                   17.916(2)
_cell_measurement_reflns_used    6945
_cell_measurement_temperature    170(2)
_cell_measurement_theta_max      26.95
_cell_measurement_theta_min      2.31
_cell_volume                     991.08(19)
_computing_cell_refinement       'ApexII (Bruker-AXS, 2015)'
_computing_data_collection       'ApexII (Bruker-AXS, 2015)'
_computing_data_reduction        'ApexII (Bruker-AXS, 2015)'
_computing_structure_refinement  'SHELXL-2014/7 (Sheldrick, 2014)'
_computing_structure_solution    'Shelxt, ApexII (Bruker-AXS, 2015)'
_diffrn_ambient_temperature      170(2)
_diffrn_measured_fraction_theta_full 0.991
_diffrn_measured_fraction_theta_max 0.969
_diffrn_measurement_device_type  'Bruker Nonius KappaCCD APEX-II'
_diffrn_measurement_method       'CCD phi and omega scans'
_diffrn_radiation_type           MoK\a
_diffrn_radiation_wavelength     0.71073
_diffrn_reflns_av_R_equivalents  0.0222
_diffrn_reflns_av_unetI/netI     0.0276
_diffrn_reflns_Laue_measured_fraction_full 0.991
_diffrn_reflns_Laue_measured_fraction_max 0.969
_diffrn_reflns_limit_h_max       7
_diffrn_reflns_limit_h_min       -8
_diffrn_reflns_limit_k_max       11
_diffrn_reflns_limit_k_min       -11
_diffrn_reflns_limit_l_max       23
_diffrn_reflns_limit_l_min       -21
_diffrn_reflns_number            11381
_diffrn_reflns_point_group_measured_fraction_full 0.989
_diffrn_reflns_point_group_measured_fraction_max 0.948
_diffrn_reflns_theta_full        25.242
_diffrn_reflns_theta_max         27.210
_diffrn_reflns_theta_min         1.154
_exptl_absorpt_coefficient_mu    0.187
_exptl_absorpt_correction_T_max  0.7045
_exptl_absorpt_correction_T_min  0.7018
_exptl_absorpt_correction_type   multi-scan
_exptl_absorpt_process_details   'SADABS ApexII (Bruker-AXS, 2015)'
_exptl_crystal_colour            colorless
_exptl_crystal_density_diffrn    1.295
_exptl_crystal_description       plate
_exptl_crystal_F_000             412
_exptl_crystal_size_max          0.310
_exptl_crystal_size_mid          0.260
_exptl_crystal_size_min          0.060
_refine_diff_density_max         0.278
_refine_diff_density_min         -0.267
_refine_diff_density_rms         0.036
_refine_ls_abs_structure_details
;
 Flack x determined using 1705 quotients [(I+)-(I-)]/[(I+)+(I-)]
 (Parsons, Flack and Wagner, Acta Cryst. B69 (2013) 249-259).
;
_refine_ls_abs_structure_Flack   -0.02(3)
_refine_ls_extinction_method     none
_refine_ls_goodness_of_fit_ref   1.048
_refine_ls_hydrogen_treatment    mixed
_refine_ls_matrix_type           full
_refine_ls_number_parameters     276
_refine_ls_number_reflns         4175
_refine_ls_number_restraints     9
_refine_ls_restrained_S_all      1.047
_refine_ls_R_factor_all          0.0352
_refine_ls_R_factor_gt           0.0322
_refine_ls_shift/su_max          0.000
_refine_ls_shift/su_mean         0.000
_refine_ls_structure_factor_coef Fsqd
_refine_ls_weighting_details
'w=1/[\s^2^(Fo^2^)+(0.0398P)^2^+0.2167P] where P=(Fo^2^+2Fc^2^)/3'
_refine_ls_weighting_scheme      calc
_refine_ls_wR_factor_gt          0.0760
_refine_ls_wR_factor_ref         0.0779
_reflns_Friedel_coverage         0.834
_reflns_Friedel_fraction_full    0.987
_reflns_Friedel_fraction_max     0.924
_reflns_number_gt                3937
_reflns_number_total             4175
_reflns_threshold_expression     'I > 2\s(I)'
_cod_data_source_file            ol7b02256_si_004.cif
_cod_data_source_block           ngu176
_cod_original_cell_volume        991.09(19)
_cod_database_code               1547587
_shelx_shelxl_version_number     2014/7
_shelx_space_group_comment
;
The symmetry employed for this shelxl refinement is uniquely defined
by the following loop, which should always be used as a source of
symmetry information in preference to the above space-group names.
They are only intended as comments.
;
_shelx_estimated_absorpt_t_min   0.944
_shelx_estimated_absorpt_t_max   0.989
_shelx_res_file
;

    ngu176.res created by SHELXL-2014/7


TITL ngu176_a.res in P2(1)
REM Old TITL Ngu17_6 in P2(1)   sample #17086  edo-13-127

REM SHELXT solution in P2(1)
REM R1 0.091,  Rweak 0.041,  Alpha 0.013,  Orientation as input
REM Flack x =  0.013 ( 0.024 ) from Parsons' quotients
REM Formula found by SHELXT:  C20 N2 O4 S

CELL  0.71073   6.3959   8.7834  17.9162   90.000  100.037   90.000
ZERR    2.000   0.0007   0.0010   0.0020    0.000    0.005    0.000
LATT -1
SYMM -X, 1/2+Y, -Z
SFAC C H N O S
UNIT 42 52 4 6 2
TEMP -103
SIZE 0.06 0.26 0.31
L.S. 10
BOND $H
REM Instructions for potential hydrogen bonds
HTAB N9 O1
conf
acta
LIST 6
FMAP 2
PLAN -20
WGHT    0.039800    0.216700
FVAR       1.94848   0.84856
S1    5    0.763401    0.410979    0.830184    11.00000    0.02262    0.02479 =
         0.02711    0.00070    0.00266   -0.00214
O1    4    0.641347    0.348841    0.761801    11.00000    0.02756    0.02871 =
         0.03217    0.00086   -0.00360   -0.00497
O2    4    0.665359    0.435365    0.895236    11.00000    0.03492    0.03739 =
         0.03578    0.00094    0.01264   -0.00020
eadp  c2 c2'
eadp  c5 c5'
eadp  c6 c6'
sadi  0.01 n1 c2 n1 c2'
sadi  0.01 n1 c5 n1 c5'
sadi  0.01 c2 c3 c2' c3'
sadi  0.01 c3 c4 c3' c4'
sadi  0.01 c4 c5 c4' c5'
sadi  0.01 c5 c5 c5' c6'
sadi  0.01 c6 c7 c6' c7'
sadi  0.01 c7 c8 c7' c8'
sadi  0.01 n9 c6 n9 c6'

N1    3    0.851083    0.576810    0.807413    11.00000    0.02556    0.02463 =
         0.02634    0.00001    0.00173   -0.00048
part 1
C2    1    0.991195    0.661619    0.868941    21.00000    0.03402    0.02766 =
         0.03261   -0.00522   -0.00197   -0.00332
AFIX  23
H2A   2    1.000101    0.608951    0.918248    21.00000   -1.20000
H2B   2    0.938758    0.766611    0.873691    21.00000   -1.20000
AFIX   0
C3    1    1.206206    0.662238    0.842890    21.00000    0.02457    0.03778 =
         0.04440   -0.00023   -0.00759   -0.00453
AFIX  23
H3A   2    1.298119    0.745465    0.867173    21.00000   -1.20000
H3B   2    1.280718    0.563789    0.853680    21.00000   -1.20000
AFIX   0
C4    1    1.141140    0.688373    0.758163    21.00000    0.02139    0.03643 =
         0.04316   -0.00240    0.00609   -0.00534
AFIX  23
H4B   2    1.250423    0.647889    0.730558    21.00000   -1.20000
H4A   2    1.122665    0.798448    0.747063    21.00000   -1.20000
AFIX   0
C5    1    0.929142    0.603053    0.734362    21.00000    0.02160    0.02109 =
         0.02920    0.00182    0.00438   -0.00050
AFIX  13
H5    2    0.957887    0.502447    0.712055    21.00000   -1.20000
AFIX   0
part 2
C2'   1    1.010903    0.652613    0.866592   -21.00000    0.03402    0.02766 =
         0.03261   -0.00522   -0.00197   -0.00332
AFIX  23
H2'1  2    1.070838    0.579689    0.906809   -21.00000   -1.20000
H2'2  2    0.946639    0.739052    0.889930   -21.00000   -1.20000
AFIX   0
C3'   1    1.181279    0.707916    0.822928   -21.00000    0.04006
AFIX  23
H3'1  2    1.162638    0.818182    0.812376   -21.00000   -1.20000
H3'2  2    1.323563    0.692260    0.853980   -21.00000   -1.20000
AFIX   0
C4'   1    1.165554    0.621258    0.748830   -21.00000    0.02832
AFIX  23
H4'1  2    1.264129    0.533475    0.754208   -21.00000   -1.20000
H4'2  2    1.196843    0.688252    0.707722   -21.00000   -1.20000
AFIX   0
C5'   1    0.931786    0.567935    0.733342   -21.00000    0.02160    0.02109 =
         0.02920    0.00182    0.00438   -0.00050
AFIX  13
H5'   2    0.919229    0.462154    0.712398   -21.00000   -1.20000
AFIX   0
part  1
C6    1    0.769249    0.693560    0.675468    21.00000    0.02916    0.01974 =
         0.02245    0.00657   -0.00016   -0.00315
AFIX  13
H6    2    0.840671    0.728720    0.633137    21.00000   -1.20000
AFIX   0
C7    1    0.685405    0.830431    0.713654    21.00000    0.01954    0.02611 =
         0.02933   -0.00095    0.00235   -0.00141
AFIX  43
H7    2    0.606621    0.812174    0.753075    21.00000   -1.20000
AFIX   0
C8    1    0.716310    0.971585    0.694960    21.00000    0.03552    0.02682 =
         0.04684   -0.00156    0.00299   -0.00025
AFIX  93
H8A   2    0.794550    0.993044    0.655731    21.00000   -1.20000
H8B   2    0.660514    1.052629    0.720614    21.00000   -1.20000
AFIX   0
part  2
C6'   1    0.780133    0.672406    0.686592   -21.00000    0.02916    0.01974 =
         0.02245    0.00657   -0.00016   -0.00315
AFIX  13
H6'   2    0.856875    0.668196    0.642547   -21.00000   -1.20000
AFIX   0
C7'   1    0.806465    0.844329    0.695632   -21.00000    0.03327
AFIX  43
H7'   2    0.928672    0.894963    0.684529   -21.00000   -1.20000
AFIX   0
C8'   1    0.654645    0.918696    0.719171   -21.00000    0.04476
AFIX  93
H8'1  2    0.533827    0.865766    0.729944   -21.00000   -1.20000
H8'2  2    0.664523    1.025969    0.725600   -21.00000   -1.20000
AFIX   0
part  0
rem dfix  0.86 n9 h9
rem sadi  c6 h9 c6' h9 c10 h9
N9    3    0.594856    0.593431    0.646283    11.00000    0.03180    0.03145 =
         0.03409    0.01010   -0.00449   -0.00719
H9    2    0.566130    0.524599    0.676474    11.00000    0.03099
C10   1    0.436574    0.631052    0.584887    11.00000    0.02506    0.02209 =
         0.02541   -0.00193    0.00237    0.00230
C11   1    0.456924    0.749708    0.534084    11.00000    0.02452    0.02578 =
         0.02897   -0.00044    0.00462   -0.00400
AFIX  43
H11   2    0.578564    0.813623    0.542832    11.00000   -1.20000
AFIX   0
C12   1    0.300027    0.774127    0.471069    11.00000    0.02995    0.02868 =
         0.02621    0.00384    0.00651    0.00136
AFIX  43
H12   2    0.316204    0.853800    0.436669    11.00000   -1.20000
AFIX   0
C13   1    0.119516    0.682887    0.457948    11.00000    0.02335    0.02925 =
         0.02474   -0.00484    0.00288    0.00457
C14   1    0.096128    0.566530    0.508030    11.00000    0.02706    0.02861 =
         0.03663   -0.00413    0.00269   -0.00520
AFIX  43
H14   2   -0.026579    0.503654    0.499476    11.00000   -1.20000
AFIX   0
C15   1    0.253713    0.542457    0.570952    11.00000    0.03378    0.02552 =
         0.03269    0.00320    0.00539   -0.00375
AFIX  43
H15   2    0.235897    0.463223    0.605389    11.00000   -1.20000
AFIX   0
O16   4   -0.026543    0.715793    0.393091    11.00000    0.02663    0.03933 =
         0.03153   -0.00020   -0.00274    0.00163
C16   1   -0.221499    0.632265    0.382555    11.00000    0.02554    0.05198 =
         0.03821   -0.00857    0.00061    0.00123
AFIX 137
H16A  2   -0.317703    0.672149    0.338281    11.00000   -1.50000
H16B  2   -0.287584    0.642956    0.427687    11.00000   -1.50000
H16C  2   -0.192759    0.524472    0.374481    11.00000   -1.50000
AFIX   0
C17   1    0.985855    0.291066    0.858869    11.00000    0.02428    0.02236 =
         0.02818    0.00303    0.00187   -0.00433
C18   1    1.068233    0.277218    0.935827    11.00000    0.03832    0.02777 =
         0.02572    0.00083    0.00396   -0.00205
AFIX  43
H18   2    1.001971    0.327125    0.972575    11.00000   -1.20000
AFIX   0
C19   1    1.248708    0.189312    0.957935    11.00000    0.03697    0.03353 =
         0.02712    0.00597   -0.00586   -0.00583
AFIX  43
H19   2    1.304952    0.178827    1.010366    11.00000   -1.20000
AFIX   0
C20   1    1.348870    0.116360    0.905131    11.00000    0.02900    0.02160 =
         0.04090    0.00514   -0.00262   -0.00551
C21   1    1.262206    0.130550    0.828682    11.00000    0.03234    0.02858 =
         0.03572   -0.00035    0.00530    0.00085
AFIX  43
H21   2    1.328303    0.080127    0.792043    11.00000   -1.20000
AFIX   0
C22   1    1.080463    0.217187    0.804732    11.00000    0.03137    0.02679 =
         0.02595    0.00009   -0.00006   -0.00070
AFIX  43
H22   2    1.022247    0.225629    0.752369    11.00000   -1.20000
AFIX   0
C23   1    1.551771    0.026965    0.930330    11.00000    0.03319    0.03889 =
         0.05880    0.01037   -0.00652    0.00217
AFIX 137
H23A  2    1.535580   -0.037941    0.973449    21.00000   -1.50000
H23B  2    1.670055    0.097706    0.945459    21.00000   -1.50000
H23C  2    1.580784   -0.036634    0.888365    21.00000   -1.50000
AFIX 137
H23D  2    1.521251   -0.082266    0.925393   -21.00000   -1.50000
H23E  2    1.609112    0.050992    0.983364   -21.00000   -1.50000
H23F  2    1.656057    0.054406    0.898516   -21.00000   -1.50000
AFIX   0
HKLF 4

REM  ngu176_a.res in P2(1)
REM R1 =  0.0322 for    3937 Fo > 4sig(Fo)  and  0.0352 for all    4175 data
REM    276 parameters refined using      9 restraints

END

WGHT      0.0397      0.2170

REM Highest difference peak  0.278,  deepest hole -0.267,  1-sigma level  0.036
Q1    1   0.7452  0.4060  0.7724  11.00000  0.05    0.28
Q2    1   0.8899  0.3464  0.8482  11.00000  0.05    0.26
Q3    1   0.7767  0.4150  0.8864  11.00000  0.05    0.25
Q4    1   0.8252  0.5025  0.8192  11.00000  0.05    0.17
Q5    1   1.0138  0.2737  0.8921  11.00000  0.05    0.17
Q6    1   0.8955  0.5827  0.7701  11.00000  0.05    0.16
Q7    1   0.0790  0.6522  0.4999  11.00000  0.05    0.15
Q8    1   0.6455  0.5155  0.8979  11.00000  0.05    0.15
Q9    1   1.2042  0.6473  0.8001  11.00000  0.05    0.15
Q10   1   1.0343  0.3026  0.8244  11.00000  0.05    0.15
Q11   1   0.4644  0.6618  0.5408  11.00000  0.05    0.14
Q12   1   1.2816  0.1089  0.8718  11.00000  0.05    0.14
Q13   1   1.2874  0.1820  0.9206  11.00000  0.05    0.14
Q14   1   0.9756  0.2111  0.8348  11.00000  0.05    0.14
Q15   1  -0.0085  0.7323  0.4470  11.00000  0.05    0.13
Q16   1   1.2177  0.2129  0.8183  11.00000  0.05    0.13
Q17   1   0.0987  0.5809  0.4621  11.00000  0.05    0.13
Q18   1   0.2211  0.5543  0.5246  11.00000  0.05    0.13
Q19   1   1.0648  0.1998  0.8533  11.00000  0.05    0.13
Q20   1   0.7549  0.4121  0.7246  11.00000  0.05    0.13
;
_shelx_res_checksum              66722
_shelx_hkl_file
;
   1   0   0 3834.62   79.69
  -1   0   0 4149.88   79.39
  -1   0   0 3983.10   80.19
  -2   0   0 5905.31  122.19
  -2   0   0 6185.58  122.29
   2   0   0 5867.81  121.39
  -2   0   0 6184.78  120.59
  -3   0   0 2788.72   57.89
  -3   0   0 2699.23   60.39
   3   0   0 2654.93   59.09
  -3   0   0 2817.22   60.49
   4   0   0 1531.25   37.40
  -4   0   0 1479.45   38.60
  -4   0   0 1527.65   35.50
  -4   0   0 1510.15   38.60
   5   0   0   45.90    7.90
  -5   0   0   35.50    8.10
  -5   0   0   44.50    8.00
  -6   0   0  500.95   24.00
  -6   0   0  536.65   24.20
  -7   0   0   39.50   11.60
  -7   0   0   56.39   12.30
   0  -1   0   10.30    1.70
   0  -1   0   10.10    1.70
   0   1   0   10.10    1.20
   0   1   0    9.10    1.50
   0   1   0    5.70    1.10
  -1  -1   0 6670.43  132.99
  -2  -1   0 1057.99   26.20
  -2  -1   0 1029.80   23.60
   2  -1   0 1198.58   24.00
   2  -1   0 1199.58   26.40
  -2  -1   0 1060.69   26.00
  -2   1   0 1237.28   28.30
   2   1   0 1126.09   26.90
  -2   1   0 1272.07   28.70
  -3  -1   0  450.05   11.40
  -3  -1   0  443.76   15.80
  -3  -1   0  490.55   15.30
   3  -1   0  503.05   15.60
  -3   1   0  552.94   17.30
  -3   1   0  547.45   17.40
   3   1   0  525.45   15.90
  -4  -1   0  942.81   28.20
   4  -1   0 1039.30   27.60
  -4  -1   0 1006.30   27.00
  -4   1   0 1069.79   29.50
   4   1   0  996.80   27.40
  -4   1   0 1052.79   29.20
  -5  -1   0  242.18   14.90
  -5  -1   0  226.58   14.70
  -5  -1   0  224.78   13.30
   5   1   0  253.27   14.00
  -5   1   0  257.87   14.90
  -5   1   0  259.67   14.50
  -6  -1   0 1070.89   36.00
  -6  -1   0 1109.69   36.30
  -6   1   0 1135.49   36.80
  -6   1   0 1106.79   36.00
  -7  -1   0  100.79   15.20
  -7  -1   0   91.09   14.30
  -7   1   0  136.49   16.20
  -7   1   0  108.39   15.20
  -2  -2   0 3103.39   65.79
   2  -2   0 3365.36   66.19
  -2  -2   0 3121.69   67.99
  -2  -2   0 3182.18   67.49
   2   2   0 3289.77   69.19
  -2   2   0 3615.14   72.09
   2   2   0 3201.18   71.39
  -2   2   0 3483.55   71.19
  -3  -2   0 1792.52   40.50
  -3  -2   0 1842.12   44.20
   3  -2   0 2050.29   41.20
  -3  -2   0 1899.81   44.40
  -3   2   0 2100.89   47.20
  -3   2   0 2177.08   47.90
   3   2   0 1891.81   44.70
  -4  -2   0  160.78   11.50
  -4  -2   0  158.58   11.10
  -4   2   0  190.28   11.80
   4   2   0  161.18    9.90
  -4   2   0  184.78   11.00
  -5  -2   0   37.80    8.80
  -5  -2   0   14.30    7.00
   5   2   0   23.50    6.80
  -5   2   0   26.70    7.60
  -5   2   0   18.50    7.00
  -6  -2   0  248.38   18.10
  -6  -2   0  289.77   19.70
  -6   2   0  341.07   19.30
   6   2   0  305.57   17.10
  -6   2   0  313.37   19.10
  -7  -2   0  146.29   16.80
  -7  -2   0  152.38   18.10
  -7   2   0  164.48   16.70
  -7   2   0  156.88   17.00
   0  -3   0   -0.90    3.00
   0  -3   0    0.40    3.70
   0   3   0    1.40    2.30
   0   3   0    1.80    3.00
   0   3   0    2.00    2.60
  -1  -3   0 4915.21  102.69
   1  -3   0 4869.71   99.79
   1  -3   0 5137.99  102.59
  -1  -3   0 4964.90  102.29
  -1   3   0 4935.31  100.19
   1   3   0 4809.52   99.99
  -1   3   0 4836.12   98.79
   2  -3   0 1182.88   28.20
  -2  -3   0 1146.39   28.00
  -2  -3   0 1150.08   29.90
   2   3   0 1173.78   29.70
   2   3   0 1155.68   26.50
  -2   3   0 1213.98   29.00
  -2   3   0 1256.67   30.10
   3  -3   0 1428.16   32.20
  -3  -3   0 1312.77   31.70
  -3  -3   0 1299.47   34.80
  -3  -3   0 1352.16   34.20
   3   3   0 1315.27   30.50
  -3   3   0 1336.07   33.30
  -4  -3   0  407.56   16.70
   4  -3   0  462.95   14.30
  -4  -3   0  421.16   17.70
  -4  -3   0  444.46   18.50
  -4   3   0  471.55   18.60
   4   3   0  449.86   15.50
  -4   3   0  472.95   17.70
  -5  -3   0 1517.15   41.90
  -5  -3   0 1545.55   43.20
  -5   3   0 1629.44   43.70
   5   3   0 1576.84   40.20
  -5   3   0 1649.13   44.80
  -6  -3   0  499.45   23.50
  -6  -3   0  529.65   25.20
  -6   3   0  499.55   24.00
  -6   3   0  578.74   24.60
  -7  -3   0  269.77   22.30
  -7  -3   0  244.48   21.40
  -7   3   0  270.57   21.70
  -7   3   0  281.57   21.20
   0  -4   0 2882.01   63.09
   0  -4   0 2844.12   61.59
   0   4   0 2824.02   58.69
   0   4   0 2800.12   59.49
   1  -4   0 1139.69   26.60
  -1  -4   0 1136.99   29.50
   1  -4   0 1169.48   29.50
  -1  -4   0 1109.69   29.10
  -1   4   0 1120.79   27.00
   1   4   0 1103.49   28.30
  -1   4   0 1143.89   27.00
   1   4   0 1108.69   24.90
  -1   4   0 1100.49   28.30
  -2  -4   0 4551.54   95.69
   2  -4   0 4529.45   95.79
  -2  -4   0 4518.35   97.39
  -2   4   0 4382.46   93.89
  -2   4   0 4369.46   92.19
   2   4   0 4475.85   89.29
   2   4   0 4392.76   93.69
  -3  -4   0  322.07   14.20
  -3  -4   0  276.47   12.30
  -3   4   0  176.78   10.20
  -3   4   0  173.08   11.10
  -4  -4   0 1383.86   37.70
  -4  -4   0 1323.47   34.50
  -4  -4   0 1385.06   38.80
   4  -4   0 1404.36   34.50
  -4   4   0 1410.46   38.70
  -4   4   0 1389.16   37.30
  -5  -4   0  457.05   21.60
  -5  -4   0  464.45   21.90
  -5   4   0  468.85   21.60
  -5   4   0  458.95   20.30
  -6  -4   0  199.98   18.30
  -6  -4   0  181.88   16.60
  -6   4   0  140.19   14.40
  -6   4   0  142.89   14.90
  -7  -4   0  294.87   23.50
  -7   4   0  246.98   20.60
  -7   4   0  235.48   20.60
   1  -5   0 3809.12   81.29
  -1  -5   0 3938.61   84.69
  -1  -5   0 3805.32   84.19
   1  -5   0 3937.71   84.79
  -1   5   0 3679.43   81.39
   1   5   0 3758.02   77.19
  -1   5   0 3808.52   79.59
   1   5   0 3725.63   81.59
  -1   5   0 3817.72   79.59
  -2  -5   0  581.14   20.70
   2  -5   0  516.65   19.00
  -2  -5   0  613.54   19.80
  -2   5   0  489.35   18.50
  -2   5   0  497.25   17.10
   2   5   0  580.74   19.20
   2   5   0  580.24   14.60
  -3  -5   0 1244.58   36.30
   3  -5   0 1304.57   34.10
  -3  -5   0 1293.67   34.50
  -3  -5   0 1276.77   33.90
  -3   5   0 1352.26   36.50
   3   5   0 1292.17   35.80
  -3   5   0 1318.37   34.50
  -4  -5   0  195.78   15.90
   4  -5   0  199.78   12.00
  -4  -5   0  187.98   12.60
  -4  -5   0  186.78   14.40
  -4   5   0  210.28   13.20
  -4   5   0  173.58   13.50
  -5  -5   0  285.57   18.80
  -5  -5   0  297.07   19.70
  -5   5   0  266.87   16.60
  -5   5   0  295.07   17.70
  -6  -5   0   76.59   13.00
  -6  -5   0   83.99   14.00
  -6   5   0   49.50   11.50
  -6   5   0   51.89   11.10
  -7  -5   0  191.28   20.30
  -7  -5   0  152.88   18.80
  -7   5   0  134.79   16.50
   0  -6   0  629.54   20.50
   0  -6   0  625.44   21.80
   0   6   0  618.94   18.70
   0   6   0  622.94   21.00
   0   6   0  629.74   17.70
   1  -6   0  382.56   16.90
  -1  -6   0  371.66   16.80
   1  -6   0  394.26   14.30
  -1  -6   0  405.76   16.90
   1   6   0  360.16   11.80
   1   6   0  396.36   16.20
  -1   6   0  392.56   16.30
  -1   6   0  366.86   13.90
  -1   6   0  390.96   14.20
  -2  -6   0   46.00    8.10
  -2  -6   0   38.80    7.90
   2   6   0   24.90    6.30
  -3  -6   0  615.84   23.90
  -3  -6   0  580.24   21.40
   3  -6   0  493.15   20.40
  -3   6   0  465.25   20.50
   3   6   0  527.75   20.70
  -3   6   0  485.05   18.70
   4  -6   0   25.80    7.00
  -4  -6   0   50.39   10.10
  -4  -6   0   54.39   11.20
   4   6   0   47.00    9.50
  -4   6   0   28.30    8.50
  -4   6   0   23.80    7.40
  -5  -6   0   18.60    9.90
  -5  -6   0   16.10    9.30
  -5   6   0    2.90    8.10
  -5   6   0   13.00    8.10
  -6  -6   0  317.67   24.60
  -6  -6   0  307.57   22.50
  -6   6   0  296.07   21.90
  -6   6   0  297.27   20.30
   1  -7   0  665.33   24.50
   1  -7   0  676.73   21.50
  -1  -7   0  668.73   24.60
  -1  -7   0  656.83   24.00
  -1   7   0  660.93   23.80
  -1   7   0  647.14   20.40
  -1   7   0  651.43   21.00
   1   7   0  683.33   23.90
   2  -7   0  117.59   11.90
  -2   7   0  124.59   10.10
  -2   7   0  102.69   11.10
  -2   7   0   98.09    9.70
  -3  -7   0 1061.39   35.70
  -3  -7   0 1018.80   32.60
   3  -7   0 1050.49   33.20
  -3   7   0 1041.70   31.00
   3   7   0  976.40   32.70
  -3   7   0 1046.70   34.00
  -3   7   0 1030.20   31.50
   4  -7   0   85.49   11.10
  -4  -7   0  113.29   14.50
  -4  -7   0  106.99   12.70
  -4   7   0   95.89   13.50
   4   7   0  110.99   13.10
  -4   7   0   76.99   10.80
  -5  -7   0  524.45   25.60
  -5  -7   0  529.75   28.60
  -5   7   0  449.95   22.90
  -5   7   0  496.05   26.00
  -6  -7   0    2.10   11.10
  -6  -7   0   21.10   12.50
   0  -8   0  450.35   21.40
   0  -8   0  449.26   19.70
   0   8   0  433.36   16.90
   0   8   0  421.96   20.50
  -1  -8   0  479.75   22.70
  -1  -8   0  507.95   22.70
   1  -8   0  561.84   23.40
  -1   8   0  510.75   18.70
  -1   8   0  532.45   21.80
   1   8   0  499.15   22.40
  -1   8   0  553.44   23.30
   2  -8   0  478.75   22.60
  -2  -8   0  513.35   24.20
  -2  -8   0  521.95   23.90
  -2   8   0  497.55   23.00
   2   8   0  494.45   22.30
  -2   8   0  486.55   19.70
  -3  -8   0  103.09   14.50
   3  -8   0  109.79   12.90
  -3  -8   0   97.19   12.90
  -3   8   0   78.39   12.70
   3   8   0   82.69   12.10
  -3   8   0   97.79   11.50
   4  -8   0  953.90   33.70
  -4  -8   0 1050.59   39.30
  -4  -8   0  971.80   34.00
  -4   8   0  972.30   36.00
   4   8   0  938.01   34.70
  -4   8   0  940.51   33.00
  -5  -8   0  149.19   16.80
  -5  -8   0  131.59   18.10
  -5   8   0   81.89   13.30
  -5   8   0  116.29   16.50
   0  -9   0    3.50    7.50
   0  -9   0   12.90    7.50
   0   9   0    2.70    8.00
  -1  -9   0  440.56   23.80
  -1  -9   0  471.25   23.50
   1  -9   0  444.46   23.40
  -1   9   0  387.86   22.10
   1   9   0  432.76   22.00
  -2  -9   0  207.78   17.90
  -2  -9   0  234.98   19.80
   2  -9   0  186.48   17.70
  -2   9   0  231.78   19.80
   2   9   0  223.28   18.40
  -3  -9   0  472.05   27.30
  -3  -9   0  422.26   24.70
   3  -9   0  428.86   23.60
  -3   9   0  464.55   21.70
  -3   9   0  442.36   25.00
   3   9   0  437.16   24.30
  -4  -9   0  142.99   18.30
   4  -9   0  109.89   15.00
   4   9   0  113.79   15.90
  -4   9   0   86.29   12.50
  -4   9   0   88.29   15.00
   0 -10   0  184.38   18.60
   0  10   0  191.68   18.60
  -1 -10   0  408.26   24.20
  -1 -10   0  360.76   23.80
   1 -10   0  406.56   24.20
  -1  10   0  348.17   22.80
   1  10   0  370.56   23.30
   2 -10   0   84.79   14.40
  -2 -10   0   88.69   14.90
  -2 -10   0   61.09   13.80
   2  10   0   55.59   13.30
  -2  10   0   86.79   15.00
   3 -10   0   34.20   11.40
  -3 -10   0   33.80   12.50
  -3 -10   0   36.00   13.20
  -3  10   0   29.50   13.20
   3  10   0   58.49   13.20
  -1 -11   0  262.87   27.70
  -7   0   1  368.46   23.30
  -7   0   1  377.56   22.50
  -6   0   1  248.68   17.60
  -6   0   1  250.97   16.90
  -5   0   1   54.89    8.70
  -5   0   1   55.19    7.20
  -5   0   1   76.49    9.70
  -4   0   1  236.08   12.40
  -4   0   1  251.17    7.70
  -4   0   1  240.88   10.30
  -4   0   1  238.18   12.30
  -3   0   1  655.23   17.10
  -3   0   1  633.84   19.00
  -3   0   1  621.04   15.10
  -3   0   1  673.23   19.10
   3   0  -1  624.54   17.90
  -2   0   1 6301.17  124.39
  -2   0   1 6374.86  124.49
   2   0  -1 5717.13  123.19
  -2   0   1 6225.58  122.99
   0   0   1   -3.40    0.30
   0   0   1   -3.60    0.40
   0   0  -1   -3.60    0.40
   0   0  -1   -3.80    0.40
  -1   0  -1 3727.13   74.49
  -1   0  -1 3585.44   74.49
  -1   0  -1 3771.02   73.69
  -2   0  -1 1657.33   34.70
  -2   0  -1 1598.34   36.20
  -2   0  -1 1576.44   36.40
   2   0   1 1655.13   35.90
  -3   0  -1  750.72   19.00
  -3   0  -1  747.03   21.20
   3   0   1  746.43   20.60
  -3   0  -1  716.73   21.20
   4   0   1   22.30    5.80
  -4   0  -1   17.60    5.80
  -4   0  -1   18.70    5.90
  -4   0  -1   21.70    4.70
  -5   0  -1  155.08   13.40
   5   0   1  142.89   12.10
  -5   0  -1  143.49   12.50
  -6   0  -1   -1.20    7.70
   6   0   1    8.90    7.30
  -6   0  -1    1.40    8.10
  -7   0  -1   32.10   11.40
  -7   0  -1   34.30   11.40
  -7  -1   1  188.48   19.10
  -7  -1   1  161.08   17.20
  -7   1   1  177.88   18.30
  -7   1   1  228.38   18.90
  -6  -1   1  985.60   33.50
  -6  -1   1  986.70   33.80
  -6   1   1 1010.40   33.80
  -6   1   1 1056.39   34.30
  -5  -1   1  361.16   15.70
  -5  -1   1  366.76   17.80
  -5  -1   1  368.76   17.40
  -5   1   1  393.16   17.90
   5   1  -1  369.56   15.90
  -5   1   1  433.36   18.80
  -4  -1   1 1244.18   33.10
  -4  -1   1 1166.38   26.80
  -4  -1   1 1261.27   31.50
  -4   1   1 1359.16   35.00
  -4   1   1 1399.96   30.50
   4   1  -1 1254.77   32.50
  -4   1   1 1255.37   29.20
  -4   1   1 1350.16   34.80
  -3  -1   1 5766.12  119.79
  -3  -1   1 6266.37  123.29
  -3  -1   1 5996.90  124.19
  -3   1   1 6903.61  135.79
   3   1  -1 6068.39  133.29
  -3   1   1 6860.71  135.99
  -2  -1   1  282.27    8.10
  -2  -1   1  260.47   10.00
  -2  -1   1  272.27   10.10
  -2   1   1  336.47   11.00
   2   1  -1  294.27    9.40
  -2   1   1  323.37   10.60
  -1  -1   1 3624.84   74.89
   1  -1  -1 3821.52   74.19
  -1  -1   1 3624.04   74.09
   2  -1   1   24.30    4.20
  -2  -1  -1   32.80    4.80
  -2  -1  -1   27.20    4.30
  -2  -1  -1   25.40    2.60
   2  -1   1   32.00    2.80
  -2   1  -1   29.00    4.50
  -2   1  -1   29.90    4.90
   2   1   1   26.10    4.10
  -3  -1  -1 1365.66   34.90
   3  -1   1 1466.15   34.50
  -3  -1  -1 1443.66   33.80
  -3   1  -1 1500.75   36.00
  -3   1  -1 1498.55   35.90
   3   1   1 1421.16   34.20
  -4  -1  -1  313.17   14.70
  -4  -1  -1  335.77   13.60
   4  -1   1  358.06   14.80
  -4  -1  -1  330.07   15.10
   4   1   1  341.57   14.10
  -4   1  -1  383.66   15.70
  -4   1  -1  359.16   15.40
  -5  -1  -1  309.47   16.70
  -5  -1  -1  305.37   14.80
   5  -1   1  308.57   15.80
  -5  -1  -1  300.37   17.10
  -5   1  -1  340.87   17.30
   5   1   1  330.27   15.80
  -5   1  -1  340.47   17.10
  -6  -1  -1  433.76   22.60
  -6  -1  -1  451.85   22.40
  -6   1  -1  474.65   23.20
  -6   1  -1  467.15   23.20
   6   1   1  506.15   21.70
  -7  -1  -1  423.66   24.60
  -7  -1  -1  406.26   24.30
  -7   1  -1  446.36   24.90
  -7   1  -1  405.16   24.30
  -7  -2   1  125.29   16.20
  -7  -2   1  124.89   15.90
  -7   2   1   92.49   14.60
  -7   2   1  131.59   15.70
  -6  -2   1  118.89   14.10
  -6  -2   1  136.79   14.90
  -6  -2   1  139.09   13.20
  -6   2   1  163.38   16.30
  -6   2   1  167.58   15.40
  -5  -2   1  306.77   16.80
  -5  -2   1  305.67   15.80
   5   2  -1  323.87   14.80
  -5   2   1  334.37   16.80
  -5   2   1  355.96   17.30
  -4  -2   1  103.39    9.80
  -4  -2   1   63.59    5.50
  -4  -2   1   90.69    8.90
  -4   2   1  101.39    9.40
   4   2  -1  104.39    8.10
  -4   2   1   95.89    9.30
   3  -2  -1 4475.95   85.99
  -3  -2   1 4019.50   88.49
  -3  -2   1 4129.69   88.59
  -3  -2   1 4046.10   85.39
  -3   2   1 4614.04   94.99
  -3   2   1 4526.25   94.09
   3   2  -1 4302.77   91.59
  -2  -2   1 1870.11   41.30
   2  -2  -1 1995.30   41.60
  -2  -2   1 1872.11   43.10
   2   2  -1 1902.21   40.00
  -2   2   1 1980.10   43.10
  -2   2   1 1937.61   42.00
   2   2  -1 1863.81   42.70
   0  -2   1 3972.00   80.59
   0  -2  -1 3900.21   80.49
   0  -2  -1 3953.70   80.19
   2  -2   1 3023.70   60.09
  -2  -2  -1 2844.32   59.79
  -2  -2  -1 2861.21   62.29
   2  -2   1 2913.21   61.59
  -2  -2  -1 2801.22   61.39
  -2   2  -1 3227.78   66.19
   2   2   1 2954.50   65.49
  -2   2  -1 3205.48   65.89
   2   2   1 2982.80   63.89
  -3  -2  -1 1991.30   43.50
   3  -2   1 2099.19   47.40
  -3  -2  -1 2040.90   47.70
  -3  -2  -1 1989.20   47.40
   3  -2   1 2171.38   44.00
   3   2   1 2002.80   46.40
  -3   2  -1 2162.28   48.90
  -3   2  -1 2200.78   49.30
  -4  -2  -1   34.00    7.20
  -4  -2  -1   31.70    6.60
   4   2   1   40.50    6.60
  -4   2  -1   39.60    7.20
  -4   2  -1   35.10    6.70
  -5  -2  -1  234.88   15.90
  -5  -2  -1  225.08   14.30
   5   2   1  258.47   14.10
  -5   2  -1  236.68   15.30
  -5   2  -1  256.27   15.30
  -6  -2  -1  893.11   32.80
  -6  -2  -1  933.51   33.70
  -6   2  -1  945.41   32.80
   6   2   1  860.41   29.10
  -6   2  -1  957.70   32.90
  -7  -2  -1   82.89   14.50
  -7  -2  -1   69.99   14.40
  -7   2  -1   66.99   13.40
  -7   2  -1   61.49   12.60
  -7  -3   1  106.99   16.10
  -7  -3   1  157.78   18.30
  -7   3   1  122.99   15.60
  -7   3   1  169.28   17.50
  -6  -3   1  220.68   17.50
  -6  -3   1  224.78   19.00
  -6   3   1  236.48   17.40
  -6   3   1  219.88   16.80
  -5  -3   1  312.27   17.50
  -5  -3   1  290.37   17.20
  -5   3   1  337.77   17.80
  -5   3   1  306.17   16.40
  -4  -3   1  613.64   18.00
  -4  -3   1  661.63   22.20
  -4  -3   1  631.64   22.10
  -4   3   1  692.93   22.00
   4   3  -1  654.23   19.10
  -4   3   1  681.03   22.90
  -3  -3   1  766.62   22.80
   3  -3  -1  844.02   21.50
  -3  -3   1  774.32   21.00
  -3  -3   1  760.92   23.70
   3   3  -1  827.12   20.50
  -3   3   1  822.82   22.90
  -3   3   1  848.12   24.20
   2  -3  -1 3074.89   65.19
  -2  -3   1 3014.40   66.69
  -2  -3   1 3055.69   65.09
  -2   3   1 3126.89   65.99
  -2   3   1 3157.38   67.29
   2   3  -1 3078.19   67.29
  -1  -3   1 8449.46  169.88
  -1  -3   1 8385.56  169.38
  -1   3   1 8358.16  167.28
   0  -3   1 1541.75   35.00
   0  -3   1 1513.15   34.00
   0  -3  -1 1517.05   35.10
   0  -3  -1 1495.85   34.20
   0   3   1 1421.36   32.60
   0   3   1 1410.36   31.10
   0   3   1 1432.76   30.90
   0   3  -1 1391.76   30.50
   0   3  -1 1444.56   32.00
   0   3  -1 1476.55   32.90
   1  -3   1  190.08    6.70
   1  -3   1  195.58    9.10
  -1  -3  -1  177.48    9.40
  -1  -3  -1  177.08    8.90
  -1   3  -1  213.18    8.60
   1   3   1  198.78    8.70
   1   3   1  195.58    7.10
  -1   3  -1  199.58    9.00
  -2  -3  -1 9345.17  192.98
   2  -3   1 9999.00  191.28
  -2  -3  -1 9496.15  190.98
  -2  -3  -1 9267.47  191.28
  -2   3  -1 9669.63  192.98
  -2   3  -1 9647.93  192.38
   2   3   1 9350.56  189.78
  -3  -3  -1  504.25   17.30
  -3  -3  -1  486.65   15.10
  -3  -3  -1  510.55   18.40
   3  -3   1  519.55   15.10
   3   3   1  525.95   15.50
  -3   3  -1  528.05   17.50
  -4  -3  -1  337.57   16.00
  -4  -3  -1  336.17   16.20
   4   3   1  371.06   14.40
  -4   3  -1  360.76   16.00
  -4   3  -1  371.66   16.60
  -5  -3  -1  670.43   26.20
  -5  -3  -1  671.33   25.10
   5   3   1  638.24   21.60
  -5   3  -1  606.54   24.30
  -5   3  -1  624.94   23.80
  -6  -3  -1  117.79   13.40
  -6  -3  -1  132.99   15.10
  -6   3  -1  103.69   13.30
  -6   3  -1  120.59   15.00
  -7  -3  -1  201.08   20.10
  -7  -3  -1  175.28   18.50
  -7   3  -1  180.28   18.30
  -7   3  -1  241.48   20.10
  -7  -4   1  503.65   28.30
  -7   4   1  467.95   26.10
  -7   4   1  498.75   26.10
  -6  -4   1  367.66   22.70
  -6  -4   1  413.86   22.40
  -6   4   1  328.97   20.30
  -6   4   1  347.47   20.00
  -5  -4   1  210.68   16.00
  -5  -4   1  228.28   16.90
  -5   4   1  236.18   15.00
  -5   4   1  255.97   16.20
  -4  -4   1  660.43   24.20
   4  -4  -1  666.73   20.30
  -4  -4   1  656.93   20.30
  -4  -4   1  651.73   23.40
  -4   4   1  639.04   21.40
  -4   4   1  650.93   23.00
  -3  -4   1 2384.76   56.19
  -3  -4   1 2302.07   53.09
   3  -4  -1 2450.35   53.69
  -3  -4   1 2251.37   54.29
   3   4  -1 2346.57   56.09
  -3   4   1 2352.36   55.99
  -3   4   1 2461.25   54.69
   3   4  -1 2470.45   50.89
  -2  -4   1 3129.69   66.89
   2  -4  -1 2907.81   66.69
  -2  -4   1 3108.59   68.29
  -2   4   1 3170.38   68.79
  -2   4   1 3096.69   66.79
   2   4  -1 3111.79   68.69
  -1  -4   1 1079.79   28.40
   1  -4  -1 1107.69   26.20
   1  -4  -1 1115.29   28.50
  -1  -4   1 1102.39   28.50
   1   4  -1 1050.69   27.30
  -1   4   1 1078.29   26.10
   1   4  -1 1037.40   26.30
  -1   4   1 1076.29   25.40
  -1   4   1 1081.49   27.40
   0  -4  -1 1493.05   36.50
   0  -4  -1 1480.15   35.40
   0  -4   1 1509.45   35.10
   0  -4   1 1536.35   36.60
   0   4  -1 1464.15   32.70
   0   4   1 1501.75   35.50
   0   4  -1 1500.55   35.60
   0   4   1 1471.05   33.20
   0   4  -1 1534.45   34.50
   0   4   1 1488.45   33.40
   1  -4   1  535.55   17.20
   1  -4   1  516.45   14.40
  -1  -4  -1  524.75   17.10
  -1  -4  -1  526.35   17.40
   1   4   1  542.05   16.50
   1   4   1  518.65   13.80
  -1   4  -1  524.65   15.70
  -1   4  -1  486.45   16.40
  -2  -4  -1 2420.96   55.19
  -2  -4  -1 2576.14   57.39
   2  -4   1 2434.66   55.39
   2   4   1 2333.37   53.49
  -2   4  -1 2367.56   53.99
   2   4   1 2350.86   50.09
  -2   4  -1 2376.36   52.79
  -3  -4  -1 2650.23   60.99
   3  -4   1 2853.41   60.29
  -3  -4  -1 2633.94   62.69
  -3  -4  -1 2634.24   59.49
  -3   4  -1 2779.72   61.99
   3   4   1 2680.63   62.39
  -3   4  -1 2716.53   62.69
   3   4   1 2742.03   58.59
   4  -4   1  245.98   13.20
  -4  -4  -1  329.57   17.30
  -4   4  -1  227.78   14.30
   4   4   1  276.07   12.20
  -4   4  -1  229.18   13.90
  -5  -4  -1  480.75   22.50
  -5  -4  -1  487.75   22.40
  -5   4  -1  491.75   22.40
  -5   4  -1  489.15   21.50
  -6  -4  -1  240.88   19.80
  -6  -4  -1  227.78   19.40
  -6   4  -1  231.48   18.00
  -6   4  -1  209.98   18.20
  -7  -4  -1   67.99   14.60
  -7  -4  -1   71.49   14.50
  -7   4  -1   78.89   14.40
  -7   4  -1  122.39   16.90
  -7  -5   1   92.49   16.00
  -7  -5   1   96.19   15.50
  -7   5   1   76.99   14.30
  -6  -5   1  484.35   25.70
  -6  -5   1  496.05   26.00
  -6   5   1  436.66   23.60
  -6   5   1  429.66   22.40
  -5  -5   1  193.88   17.30
  -5  -5   1  205.08   16.80
  -5   5   1  156.38   14.80
  -5   5   1  182.58   14.00
  -4  -5   1  217.08   15.00
   4  -5  -1  162.18   11.60
  -4  -5   1  199.58   12.20
  -4  -5   1  181.18   15.30
  -4   5   1  168.08   13.60
   4   5  -1  174.58   13.50
  -4   5   1  162.18   11.70
  -3   5   1    6.90    4.60
  -3   5   1   25.20    6.20
  -2  -5   1 1235.58   32.40
  -2  -5   1 1243.48   33.50
   2  -5  -1 1160.58   32.00
   2  -5  -1 1121.89   27.60
  -2   5   1 1072.19   30.10
  -2   5   1 1078.19   27.90
  -2   5   1 1051.49   28.70
   2   5  -1 1154.08   30.40
   1  -5  -1  971.50   26.70
   1  -5  -1  996.40   24.20
  -1  -5   1  841.12   25.90
  -1  -5   1  838.92   26.00
  -1   5   1  861.51   22.80
   1   5  -1  812.02   19.80
  -1   5   1  925.81   24.70
   1   5  -1  821.12   24.30
   1   5  -1  791.92   22.70
  -1   5   1  870.71   22.10
   0  -5  -1 1889.61   47.90
   0  -5   1 2167.38   48.40
   0  -5  -1 2182.68   50.19
   0  -5   1 2182.08   50.19
   0   5  -1 2136.99   48.00
   0   5  -1 2148.58   49.80
   0   5  -1 2103.39   46.00
   0   5   1 2178.48   49.70
   0   5   1 2124.59   46.90
   0   5   1 2104.79   46.70
   1  -5   1  807.02   22.60
  -1  -5  -1  975.70   26.40
   1  -5   1  817.32   25.50
  -1  -5  -1  968.30   26.20
   1   5   1  893.21   24.50
  -1   5  -1  800.62   22.70
  -1   5  -1  814.72   22.10
   1   5   1  853.11   20.90
  -1   5  -1  822.12   24.10
  -2  -5  -1  163.58   11.60
   2  -5   1  131.59   10.00
  -2  -5  -1  148.79   10.60
  -2   5  -1  135.49    9.30
   2   5   1  139.49    7.60
  -2   5  -1  150.48   10.40
   2   5   1  146.49   10.00
   3  -5   1   34.00    6.30
  -3   5  -1   22.20    6.20
  -3   5  -1   17.00    6.40
  -4  -5  -1  276.87   16.10
   4  -5   1  292.77   14.30
  -4  -5  -1  305.07   18.30
  -4   5  -1  240.08   14.70
  -4   5  -1  268.77   16.00
  -5  -5  -1   40.30   10.20
  -5  -5  -1   40.80   10.20
  -5   5  -1   27.90    8.60
  -5   5  -1   47.10   10.00
  -6  -5  -1  139.49   16.90
  -6  -5  -1  154.28   16.90
  -6   5  -1  164.78   17.50
  -6   5  -1  171.58   17.00
  -7  -5  -1   15.00   12.50
  -7  -5  -1   34.40   18.30
  -7   5  -1    4.90   10.20
  -6  -6   1   25.80   11.40
  -6  -6   1   37.30   12.20
  -6   6   1   33.10   11.10
  -6   6   1    3.90    8.40
  -5  -6   1  107.59   13.70
  -5  -6   1  104.29   14.80
  -5   6   1  103.89   13.50
  -5   6   1   87.99   11.50
   4  -6  -1  504.55   20.80
  -4  -6   1  528.95   22.60
  -4  -6   1  584.44   25.10
  -4  -6   1  533.55   21.20
  -4   6   1  522.85   22.90
  -4   6   1  496.75   20.20
   4   6  -1  544.35   23.20
  -3  -6   1 1098.29   34.80
  -3  -6   1 1124.69   32.90
   3  -6  -1 1147.69   32.90
  -3   6   1 1089.59   31.60
  -3   6   1 1085.89   33.10
  -3   6   1 1071.39   30.20
   3   6  -1 1066.59   32.50
   2  -6  -1  331.37   16.10
  -2  -6   1  356.96   17.10
  -2  -6   1  342.47   16.40
   2   6  -1  315.57   15.40
  -2   6   1  302.97   12.90
  -2   6   1  281.17   14.80
  -2   6   1  319.47   13.80
   1  -6  -1 1385.46   36.70
  -1  -6   1 1308.77   36.30
  -1  -6   1 1317.27   35.90
   1  -6  -1 1341.47   33.60
   1   6  -1 1296.47   29.90
  -1   6   1 1260.17   34.90
   1   6  -1 1327.27   33.40
   1   6  -1 1332.07   35.50
  -1   6   1 1309.07   32.20
  -1   6   1 1330.47   32.90
   0  -6  -1  294.77   13.20
   0  -6  -1  281.47   14.10
   0  -6   1  246.88   13.60
   0  -6   1  236.38   12.10
   0   6  -1  235.98    9.80
   0   6  -1  231.78   12.60
   0   6   1  269.87   10.60
   0   6   1  262.37   10.50
   0   6   1  283.47   13.50
   0   6  -1  248.58   11.30
   1  -6   1 1764.12   44.40
  -1  -6  -1 1695.33   43.90
  -1  -6  -1 1661.83   44.00
   1  -6   1 1768.42   40.80
  -1   6  -1 1677.83   39.60
   1   6   1 1534.05   36.50
  -1   6  -1 1605.04   41.30
   1   6   1 1548.84   40.70
  -1   6  -1 1667.33   38.50
  -2  -6  -1 1521.55   41.70
   2  -6   1 1583.04   41.00
  -2  -6  -1 1508.25   40.60
   2   6   1 1420.86   38.50
  -2   6  -1 1439.76   39.20
  -2   6  -1 1481.65   37.30
  -3  -6  -1  214.28   16.30
  -3  -6  -1  245.48   14.50
  -3  -6  -1  215.98   14.40
   3  -6   1  234.68   13.80
  -3   6  -1  207.58   13.00
   3   6   1  212.68   13.70
  -3   6  -1  218.58   14.90
  -4  -6  -1  486.75   21.10
  -4  -6  -1  433.46   22.80
   4  -6   1  467.55   19.30
   4   6   1  400.66   20.20
  -4   6  -1  408.96   19.00
  -4   6  -1  412.66   20.30
  -5  -6  -1  195.58   17.30
  -5  -6  -1  188.18   17.80
  -5   6  -1  150.28   15.20
  -5   6  -1  148.19   15.50
  -6  -6  -1  178.28   19.00
  -6  -6  -1  190.48   18.70
  -6   6  -1  131.69   16.10
  -6   6  -1  159.58   18.30
  -6  -7   1   97.79   15.90
  -6  -7   1  129.69   17.80
  -6   7   1  103.49   20.40
  -5  -7   1    1.30   10.00
  -5  -7   1    1.50    9.70
  -5   7   1   13.30    9.80
  -5   7   1    2.50    7.60
   4  -7  -1  661.03   25.10
  -4  -7   1  647.74   29.00
  -4  -7   1  671.83   25.60
  -4  -7   1  603.84   25.60
  -4   7   1  695.53   27.70
  -4   7   1  630.34   32.60
   4   7  -1  628.14   26.70
  -4   7   1  631.94   25.30
  -3  -7   1  151.18   13.90
  -3  -7   1  170.78   15.70
   3  -7  -1  222.28   15.00
   3   7  -1  138.49   13.50
  -3   7   1  175.68   13.20
  -3   7   1  203.08   15.80
  -3   7   1  201.18   13.10
  -2  -7   1 3824.82   87.39
   2  -7  -1 3793.62   87.29
  -2  -7   1 3734.93   87.29
  -2   7   1 3643.74   84.49
  -2   7   1 3655.63   80.79
   2   7  -1 3626.44   84.49
  -2   7   1 3810.62   82.59
  -1  -7   1   98.09   10.50
   1  -7  -1  124.49   10.10
   1  -7  -1  130.69   12.50
  -1  -7   1   85.29   10.70
  -1   7   1   93.69   10.00
  -1   7   1  102.29    8.50
  -1   7   1   95.59    8.80
   1   7  -1  114.69   11.50
   0  -7   1 1141.89   34.70
   0  -7   1 1231.58   33.10
   0  -7  -1 1148.39   33.00
   0  -7  -1 1143.39   34.80
   0   7  -1 1162.58   31.30
   0   7  -1 1182.18   31.10
   0   7  -1 1178.88   33.70
   0   7   1 1087.09   29.30
   0   7   1 1149.98   29.40
   0   7   1 1093.49   32.90
   1  -7   1  223.18   14.80
  -1  -7  -1  318.97   16.30
   1  -7   1  245.68   12.50
  -1  -7  -1  271.57   16.20
  -1   7  -1  250.17   12.30
  -1   7  -1  267.77   13.00
  -1   7  -1  255.07   14.80
   1   7   1  261.07   14.60
  -2  -7  -1  598.64   23.80
   2  -7   1  656.93   23.70
  -2  -7  -1  574.44   24.30
  -2   7  -1  641.64   21.80
   2   7   1  578.94   22.90
  -2   7  -1  636.04   21.50
  -2   7  -1  629.84   24.00
  -3  -7  -1  529.95   21.00
   3  -7   1  426.66   20.40
  -3  -7  -1  533.65   22.30
  -3  -7  -1  512.05   24.40
   3   7   1  510.05   21.90
  -3   7  -1  421.36   19.20
  -3   7  -1  457.95   22.00
  -4  -7  -1  450.15   22.40
  -4  -7  -1  544.65   26.80
   4  -7   1  485.75   22.50
  -4   7  -1  461.25   23.90
  -4   7  -1  459.95   21.20
   4   7   1  467.35   23.20
  -5  -7  -1   89.09   15.10
  -5  -7  -1   67.19   12.40
  -5   7  -1   38.80   11.70
  -5   7  -1   42.70   11.10
  -6  -7  -1    2.00   11.30
  -6  -7  -1   14.30   12.00
  -6   7  -1   13.70   10.50
  -5  -8   1  596.14   28.50
  -5  -8   1  644.24   33.10
  -5   8   1  581.24   29.90
  -5   8   1  559.04   26.70
  -4  -8   1  183.08   17.70
   4  -8  -1  215.98   17.40
  -4  -8   1  197.98   20.10
  -4  -8   1  218.38   19.00
  -4   8   1  196.98   16.20
  -4   8   1  187.68   17.80
   4   8  -1  235.28   19.30
  -3  -8   1  117.69   13.70
   3  -8  -1  104.49   13.30
  -3  -8   1   97.49   14.20
  -3   8   1   76.89   11.80
  -3   8   1  100.69   11.60
   3   8  -1   75.09   12.10
   2  -8  -1  350.56   19.80
  -2  -8   1  314.67   20.20
  -2  -8   1  312.87   19.50
  -2   8   1  325.77   15.90
   2   8  -1  283.77   18.10
  -2   8   1  322.67   18.80
  -1  -8   1   83.89   11.50
   1  -8  -1   74.19   14.10
   1  -8  -1   77.49   11.30
  -1  -8   1   95.39   11.50
  -1   8   1   91.29    9.00
  -1   8   1   77.79   11.40
   1   8  -1  120.49   13.20
   0  -8   1  420.16   21.20
   0  -8   1  400.16   18.70
   0  -8  -1  405.76   20.80
   0  -8  -1  439.26   19.30
   0   8  -1  408.66   20.10
   0   8   1  403.56   19.60
   0   8  -1  392.76   16.60
  -1  -8  -1  934.31   31.90
   1  -8   1  967.00   32.40
  -1  -8  -1  938.41   32.30
  -1   8  -1  998.80   32.80
   1   8   1  981.20   32.10
  -1   8  -1  961.50   29.20
  -2  -8  -1   55.69   10.50
   2  -8   1   43.50    9.70
  -2  -8  -1   65.79   11.20
  -2   8  -1   37.90   10.10
  -2   8  -1   16.40    6.40
   2   8   1   46.40    9.70
  -2   8  -1   37.40    7.90
  -3  -8  -1  229.38   19.40
   3  -8   1  214.58   16.90
  -3  -8  -1  210.38   17.60
   3   8   1  168.88   15.80
  -3   8  -1  211.28   17.70
  -3   8  -1  205.78   14.80
  -3   8  -1  189.38   14.50
   4  -8   1  320.77   30.50
  -4  -8  -1  433.76   26.20
  -4   8  -1  345.07   20.30
   4   8   1  399.26   23.00
  -4   8  -1  345.57   23.10
  -5  -8  -1   33.50   12.90
  -5   8  -1   37.50   12.40
  -4  -9   1  674.93   33.70
   4  -9  -1  623.24   28.80
  -4   9   1  630.34   27.10
   4   9  -1  604.84   29.30
  -4   9   1  607.34   29.40
  -3  -9   1   46.00   12.90
   3  -9  -1   69.99   12.50
  -3  -9   1   76.49   13.20
   3   9  -1   62.99   12.50
  -3   9   1   60.39   10.60
  -3   9   1   58.79   12.20
   2  -9  -1   53.59   11.50
  -2  -9   1   70.99   13.00
  -2  -9   1   45.60   11.50
  -2   9   1   57.39    9.80
   2   9  -1   63.69   11.80
  -2   9   1   81.69   12.70
   1  -9  -1   62.69   11.40
  -1  -9   1   81.69   12.20
  -1  -9   1   76.09   12.30
   1   9  -1  111.99   14.00
  -1   9   1   77.99   12.30
   0  -9  -1   32.00   10.10
   0  -9   1   20.30    9.10
   0  -9  -1   29.90    9.00
   0  -9   1   24.90    8.40
   0   9   1   38.60   10.40
   0   9  -1   47.00   11.20
  -1  -9  -1  281.37   20.30
   1  -9   1  206.48   17.20
  -1  -9  -1  292.17   19.50
  -1   9  -1  222.58   18.20
   1   9   1  248.88   18.50
   2  -9   1  272.67   19.30
  -2  -9  -1  314.37   21.30
  -2  -9  -1  291.47   21.50
  -2   9  -1  259.47   19.60
   2   9   1  295.87   19.90
   3  -9   1   85.29   13.30
  -3  -9  -1   71.39   13.00
  -3  -9  -1  109.89   15.90
  -3   9  -1   76.09   13.70
  -3   9  -1   59.29   10.60
   3   9   1   76.39   12.80
  -4  -9  -1  340.67   26.10
   4   9   1  282.87   22.70
  -4   9  -1  281.37   19.10
  -4   9  -1  269.77   22.30
  -3 -10   1  227.38   20.90
  -3 -10   1  202.88   20.50
   3 -10  -1  238.08   22.00
  -3  10   1  207.28   20.60
   3  10  -1  178.78   20.20
  -2 -10   1  211.38   20.00
  -2 -10   1  193.48   19.60
   2 -10  -1  187.98   19.00
   2  10  -1  191.18   19.30
  -2  10   1  178.98   18.90
  -1 -10   1  134.69   16.70
   1 -10  -1  158.78   17.80
  -1 -10   1  158.28   17.30
  -1  10   1  141.49   16.80
   1  10  -1  133.79   16.30
   0 -10   1  161.28   17.20
   0 -10  -1  188.68   18.80
   0  10   1  164.58   17.70
   0  10  -1  182.28   18.80
   1 -10   1  185.38   18.50
  -1 -10  -1  187.58   18.90
  -1 -10  -1  193.78   18.70
   1  10   1  169.38   17.30
  -1  10  -1  187.98   18.10
   2 -10   1  175.28   18.40
  -2 -10  -1  151.88   17.50
  -2 -10  -1  194.58   19.10
   2  10   1  182.18   18.30
  -2  10  -1  205.48   20.30
   3 -10   1   74.99   14.10
  -3 -10  -1  102.39   16.70
  -3 -10  -1  107.89   16.00
   3  10   1   96.69   15.10
  -1 -11  -1  210.78   20.30
  -7   0   2  215.88   19.80
  -7   0   2  244.18   21.00
  -6   0   2   45.90   10.20
  -6   0   2   35.00    9.70
  -5   0   2  105.99   11.20
  -5   0   2   91.79    8.40
  -5   0   2   95.69   10.80
  -4   0   2  150.88   10.10
  -4   0   2  145.79   10.20
  -4   0   2  139.19    6.60
  -4   0   2  143.59    8.40
  -3   0   2  199.78   10.10
  -3   0   2  189.18    7.40
  -3   0   2  219.18   10.40
  -3   0   2  224.98    8.90
  -2   0   2 3850.91   79.59
  -2   0   2 3898.11   78.69
  -2   0   2 3775.72   78.09
  -2   0   2 3903.31   79.59
  -1   0   2 1141.19   25.00
  -1   0   2 1184.18   25.00
   0   0  -2 2392.66   49.40
   0   0   2 2552.34   49.40
   0   0  -2 2395.56   48.90
  -1   0  -2 1877.11   40.30
  -1   0  -2 1934.51   39.60
  -1   0  -2 1947.11   40.00
  -2   0  -2 3757.62   78.49
  -2   0  -2 3770.82   78.99
  -2   0  -2 3797.22   76.99
   2   0   2 3816.22   78.39
  -3   0  -2  101.79    8.40
  -3   0  -2   78.79    6.60
  -3   0  -2   75.29    7.50
   3   0   2   89.99    7.60
  -4   0  -2  580.24   21.00
  -4   0  -2  634.34   18.20
  -4   0  -2  660.73   21.30
   4   0   2  597.24   20.00
   5   0   2 1415.56   37.90
  -5   0  -2 1322.37   38.90
  -5   0  -2 1429.46   39.30
  -6   0  -2   92.59   13.30
  -6   0  -2   77.49   12.70
   6   0   2   90.29   11.60
  -7   0  -2   36.80   12.00
  -7   0  -2   19.30   10.80
  -7  -1   2  657.93   29.40
  -7  -1   2  640.64   29.70
  -7   1   2  684.43   29.40
  -7   1   2  676.43   29.60
  -6  -1   2  149.29   14.90
  -6  -1   2  126.29   13.50
  -6   1   2  164.08   15.90
  -6   1   2  187.28   15.70
  -5  -1   2  714.03   24.90
  -5  -1   2  730.33   25.40
  -5  -1   2  718.23   23.10
  -5   1   2  842.12   27.30
  -5   1   2  821.02   26.90
  -4  -1   2  100.49    8.80
  -4  -1   2  132.69    6.40
  -4  -1   2  111.19    9.50
  -4   1   2  143.69    9.90
  -4   1   2  124.19    6.60
  -4   1   2  152.58    7.90
  -4   1   2  131.19    9.60
  -3  -1   2 1576.74   37.30
  -3  -1   2 1536.65   34.10
  -3  -1   2 1566.74   36.60
  -3   1   2 1697.73   37.10
  -3   1   2 1725.23   40.30
  -3   1   2 1715.83   39.80
  -2  -1   2  784.92   18.60
  -2  -1   2  760.82   20.00
  -2  -1   2  798.52   20.20
  -2   1   2  808.02   20.60
  -2   1   2  804.62   20.10
  -2   1   2  844.42   18.90
   1  -1   2 2353.66   46.40
  -1  -1  -2 2180.78   47.50
  -1  -1  -2 2194.68   46.10
  -1  -1  -2 2243.88   47.00
   1  -1   2 2321.17   47.40
   1   1   2 2232.08   46.60
  -1   1  -2 2192.38   46.80
  -1   1  -2 2291.47   47.30
   2  -1   2 6092.59  120.39
  -2  -1  -2 5756.92  120.19
   2  -1   2 5909.21  116.99
  -2  -1  -2 5885.11  119.89
  -2   1  -2 6084.79  120.99
   2   1   2 5805.52  119.99
  -3  -1  -2 1145.79   30.90
  -3  -1  -2 1215.78   29.90
   3  -1   2 1289.27   31.00
   3   1   2 1163.88   28.90
  -3   1  -2 1145.99   29.80
  -3   1  -2 1200.08   30.30
  -4  -1  -2  857.91   26.60
   4  -1   2  930.11   26.20
  -4  -1  -2  901.91   24.80
  -4  -1  -2  832.02   26.00
  -4   1  -2  924.41   27.10
   4   1   2  919.01   26.00
  -4   1  -2  905.61   27.10
  -5  -1  -2  186.18   12.30
  -5  -1  -2  148.59   13.30
   5  -1   2  156.08   13.00
  -5  -1  -2  173.48   14.40
   5   1   2  183.48   13.00
  -5   1  -2  189.58   14.40
  -5   1  -2  153.48   13.20
  -6  -1  -2 1644.94   47.40
   6  -1   2 1658.53   45.60
  -6  -1  -2 1660.93   48.40
  -6   1  -2 1674.33   48.10
  -6   1  -2 1683.33   48.40
   6   1   2 1713.43   45.90
  -7  -1  -2   39.20   12.40
  -7  -1  -2   59.89   12.90
  -7   1  -2   36.30   11.90
   7   1   2   43.10   10.70
  -7   1  -2   29.10   11.60
  -7  -2   2  367.36   23.40
  -7  -2   2  361.46   23.50
  -7   2   2  340.27   22.60
  -7   2   2  397.46   23.30
  -6  -2   2  418.76   21.40
  -6  -2   2  430.16   22.40
  -6  -2   2  408.96   20.30
  -6   2   2  471.15   22.30
  -6   2   2  454.45   22.00
  -5  -2   2   53.59    9.20
  -5  -2   2   62.29    9.00
  -5   2   2   49.20    8.30
  -5   2   2   62.59    9.30
  -4  -2   2  337.87   15.10
  -4  -2   2  364.46   15.70
  -4  -2   2  347.87   11.60
  -4   2   2  434.36   16.70
  -4   2   2  408.06   15.70
   4   2  -2  371.26   13.70
  -3  -2   2 2506.05   56.39
  -3  -2   2 2507.75   56.59
  -3  -2   2 2527.85   53.79
   3   2  -2 2600.64   56.19
  -3   2   2 2783.12   59.99
  -3   2   2 2668.03   58.69
  -2  -2   2  575.64   15.70
  -2  -2   2  566.34   17.30
   2  -2  -2  578.64   15.70
  -2   2   2  601.34   17.10
  -2   2   2  596.64   15.90
   2   2  -2  609.64   17.00
   0  -2   2 1686.43   36.60
   0  -2   2 1652.23   35.70
   0  -2  -2 1644.74   36.30
   0  -2  -2 1687.63   36.60
   0   2   2 1666.53   35.70
   0   2   2 1663.23   34.20
   0   2  -2 1729.83   36.50
   0   2  -2 1676.53   36.30
   0   2   2 1656.93   35.80
   1  -2   2 5185.68  106.59
  -1  -2  -2 5304.37  107.89
  -1  -2  -2 5331.67  106.69
  -1  -2  -2 5113.39  105.99
   1  -2   2 5507.65  106.89
   1   2   2 5340.37  109.99
  -1   2  -2 5548.04  111.29
  -1   2  -2 5588.24  111.29
   2  -2   2 1729.23   35.90
   2  -2   2 1695.73   37.70
  -2  -2  -2 1605.14   38.10
  -2  -2  -2 1561.74   35.20
  -2  -2  -2 1609.14   37.30
   2   2   2 1630.84   36.90
  -2   2  -2 1691.83   38.50
  -2   2  -2 1701.73   38.50
   3  -2   2  598.64   14.90
   3  -2   2  592.04   18.50
  -3  -2  -2  576.14   18.60
  -3  -2  -2  585.84   18.70
  -3  -2  -2  549.54   14.40
   3   2   2  628.74   18.70
  -3   2  -2  671.83   20.30
  -3   2  -2  682.33   20.60
  -4  -2  -2  114.49    9.90
  -4  -2  -2  128.79   11.20
   4  -2   2  124.79   10.10
  -4   2  -2  127.59   10.70
   4   2   2  133.59    9.80
  -4   2  -2  129.89   10.30
   5  -2   2   38.80    8.40
  -5  -2  -2   47.00    8.70
  -5  -2  -2   45.30    9.50
   5   2   2   38.00    7.90
  -5   2  -2   42.60    9.00
  -5   2  -2   42.20    8.70
  -6  -2  -2  138.59   15.40
  -6  -2  -2  130.69   14.70
  -6   2  -2  149.49   15.70
   6   2   2  144.39   13.40
  -6   2  -2  151.78   15.80
  -7  -2  -2  446.66   26.10
  -7  -2  -2  485.05   25.90
  -7   2  -2  462.05   25.20
  -7   2  -2  503.05   27.10
  -7   3   2   74.79   12.50
  -7   3   2   20.80   11.20
  -6  -3   2  331.17   20.90
  -6  -3   2  300.37   19.70
  -6   3   2  337.87   20.50
  -6   3   2  356.46   19.20
  -5  -3   2  404.36   19.70
  -5  -3   2  397.26   19.00
  -5   3   2  425.96   18.70
  -5   3   2  455.25   20.00
  -4  -3   2  550.14   17.20
  -4  -3   2  585.14   21.20
  -4  -3   2  551.84   20.50
  -4   3   2  543.25   18.90
   4   3  -2  564.64   16.50
  -4   3   2  547.85   20.00
   3  -3  -2  545.05   16.50
  -3  -3   2  542.25   18.10
  -3  -3   2  532.45   16.40
  -3  -3   2  522.95   18.60
  -3   3   2  603.34   19.10
   3   3  -2  584.14   15.00
  -3   3   2  551.04   17.30
  -2  -3   2 5210.88  107.79
  -2  -3   2 5159.68  109.39
   2  -3  -2 5222.88  104.89
   2  -3  -2 5317.67  108.09
  -2   3   2 5274.17  108.19
   2   3  -2 5230.78  108.49
  -2   3   2 5167.78  106.39
   1  -3  -2 5098.79  104.99
   1  -3  -2 5264.47  107.09
  -1  -3   2 5240.38  106.99
  -1  -3   2 5172.28  107.09
   1   3  -2 4947.50  103.79
  -1   3   2 5112.09  101.89
  -1   3   2 5063.09  103.59
  -1   3   2 5185.18  104.19
   1   3  -2 5073.89  104.29
   0  -3  -2 7794.82  157.18
   0  -3  -2 7820.12  157.68
  -1  -3  -2 4194.58   87.69
   1  -3   2 4293.87   85.29
  -1  -3  -2 4089.99   88.49
   1  -3   2 4320.17   87.99
  -1   3  -2 4297.97   88.39
   1   3   2 4254.47   88.09
  -1   3  -2 4299.27   88.69
   1   3   2 4180.58   86.59
  -2  -3  -2 1235.68   31.90
   2  -3   2 1316.77   30.20
  -2  -3  -2 1199.38   29.40
  -2  -3  -2 1266.77   30.30
  -2   3  -2 1249.07   31.80
   2   3   2 1321.47   29.90
   2   3   2 1304.97   31.70
  -2   3  -2 1316.17   31.90
   3  -3   2 3361.46   69.29
  -3  -3  -2 3178.78   68.69
  -3  -3  -2 3300.77   72.09
  -3  -3  -2 3259.57   72.89
  -3   3  -2 3469.75   74.79
  -3   3  -2 3405.26   74.89
   3   3   2 3290.27   71.79
  -4  -3  -2  486.45   19.60
  -4  -3  -2  505.45   19.60
  -4   3  -2  473.65   18.70
   4   3   2  472.35   16.70
  -4   3  -2  479.45   18.60
  -5  -3  -2  198.78   16.00
  -5  -3  -2  235.68   16.20
   5   3   2  222.08   14.30
  -5   3  -2  243.48   16.30
  -5   3  -2  228.78   16.00
  -6  -3  -2  259.47   19.80
  -6  -3  -2  255.27   18.50
  -6   3  -2  288.37   19.90
  -6   3  -2  321.97   20.30
  -7  -3  -2   54.99   13.70
  -7  -3  -2   58.89   13.80
  -7   3  -2   80.49   14.70
  -7   3  -2   29.90   12.00
  -7  -4   2   47.80   13.60
  -7  -4   2   59.29   21.00
  -7   4   2   56.79   12.20
  -7   4   2   38.80   11.70
  -6  -4   2  578.94   27.50
  -6  -4   2  644.04   27.70
  -6   4   2  704.33   27.40
  -6   4   2  721.53   28.90
  -5   4   2   79.69   10.90
  -5   4   2   65.89    9.60
   4  -4  -2  249.38   12.20
  -4  -4   2  254.67   14.50
  -4  -4   2  282.37   13.00
  -4  -4   2  245.28   15.30
  -4   4   2  232.88   12.10
  -4   4   2  213.78   13.40
  -3  -4   2  535.95   17.80
   3  -4  -2  574.84   18.50
  -3  -4   2  522.35   20.00
   3   4  -2  483.65   17.90
  -3   4   2  504.95   18.00
  -3   4   2  491.05   16.20
  -2  -4   2 1570.04   38.10
   2  -4  -2 1565.24   34.80
   2  -4  -2 1590.94   38.50
  -2   4   2 1521.45   36.80
  -2   4   2 1504.75   35.00
  -2   4   2 1567.64   37.60
   2   4  -2 1526.75   37.50
  -1  -4   2  618.14   18.90
  -1  -4   2  586.94   18.60
   1  -4  -2  615.34   19.10
   1  -4  -2  605.04   17.00
  -1   4   2  547.85   16.90
   1   4  -2  556.64   16.40
   1   4  -2  501.45   16.60
  -1   4   2  544.75   16.10
  -1   4   2  544.25   14.50
   0  -4   2 3912.31   83.39
   0  -4  -2 3924.81   82.59
   0  -4   2 3944.11   81.99
   0  -4  -2 3841.12   83.29
   0   4   2 3759.82   77.39
   0   4  -2 3773.32   80.59
   0   4  -2 3801.02   79.69
   0   4   2 3818.62   80.29
   0   4  -2 3773.82   77.29
   0   4   2 3805.02   78.59
  -1  -4  -2  503.75   16.90
   1  -4   2  564.54   17.50
  -1  -4  -2  516.95   17.50
   1  -4   2  529.85   14.60
  -1   4  -2  545.75   16.80
  -1   4  -2  532.75   17.30
   1   4   2  553.14   16.90
   1   4   2  553.44   15.10
  -2  -4  -2 2154.28   49.10
  -2  -4  -2 2159.98   51.29
  -2  -4  -2 2186.28   48.70
   2  -4   2 2142.29   49.40
  -2   4  -2 2087.19   48.30
  -2   4  -2 2079.39   48.90
   2   4   2 2097.89   48.40
   2   4   2 2095.49   45.60
  -3  -4  -2  465.05   18.90
   3  -4   2  444.86   15.90
  -3  -4  -2  529.55   16.60
  -3   4  -2  401.96   16.40
   3   4   2  417.16   13.90
   3   4   2  416.86   16.20
  -3   4  -2  406.86   16.20
  -4  -4  -2  922.91   29.80
  -4  -4  -2  879.21   28.20
  -4   4  -2  846.62   27.70
   4   4   2  904.91   25.40
  -4   4  -2  942.51   29.10
  -5  -4  -2  163.98   15.40
  -5  -4  -2  200.38   16.70
  -5   4  -2  153.68   14.50
  -5   4  -2  148.79   15.10
  -6  -4  -2   47.40   11.70
  -6  -4  -2   39.10   11.00
  -6   4  -2   46.20   11.30
  -6   4  -2   48.50   11.30
  -7  -4  -2  130.29   17.70
  -7  -4  -2  153.58   18.30
  -7   4  -2  117.79   16.50
  -7   4  -2  144.49   18.00
  -7  -5   2  299.57   24.70
  -7  -5   2  325.47   24.50
  -7   5   2  330.47   29.20
  -7   5   2  369.96   23.30
  -6  -5   2  298.57   22.10
  -6  -5   2  279.97   21.50
  -6   5   2  275.37   18.80
  -6   5   2  273.27   19.80
  -5  -5   2  224.48   18.50
  -5  -5   2  209.58   16.90
  -5   5   2  164.88   15.50
  -5   5   2  134.89   12.70
   4  -5  -2  364.96   16.30
  -4  -5   2  390.46   16.50
  -4  -5   2  387.76   18.80
  -4  -5   2  379.86   19.70
  -4   5   2  342.87   15.60
   4   5  -2  358.36   17.80
  -4   5   2  366.16   18.00
  -3  -5   2 2040.60   49.50
  -3  -5   2 2113.39   52.09
   3  -5  -2 2021.30   49.80
  -3   5   2 1930.81   45.90
  -3   5   2 1873.11   48.20
  -3   5   2 1988.20   48.00
   3   5  -2 2015.70   48.80
  -2  -5   2 2096.19   50.49
   2  -5  -2 2127.39   50.79
   2  -5  -2 2154.18   46.90
  -2  -5   2 2127.79   51.69
  -2   5   2 2149.39   49.50
   2   5  -2 2081.89   50.49
  -2   5   2 2141.69   50.69
  -2   5   2 2118.99   47.60
  -1  -5   2 1150.78   30.90
   1  -5  -2 1182.08   29.00
   1  -5  -2 1140.59   31.10
  -1  -5   2 1121.89   30.90
  -1   5   2 1138.89   29.90
  -1   5   2 1145.19   27.10
   1   5  -2 1112.99   29.00
   1   5  -2 1123.89   30.40
  -1   5   2 1132.09   28.50
   0  -5  -2 1058.59   28.70
   0  -5   2  995.90   28.40
   0  -5   2  988.20   26.80
   0  -5  -2 1047.90   27.70
   0   5   2 1052.39   25.60
   0   5  -2 1008.00   27.80
   0   5  -2 1017.00   26.70
   0   5   2 1012.80   24.40
   0   5  -2  998.80   24.10
   0   5   2 1028.60   27.50
  -1  -5  -2 2998.20   68.69
   1  -5   2 3042.60   65.09
  -1  -5  -2 3024.50   68.39
   1  -5   2 3133.39   68.79
   1   5   2 2844.12   61.29
  -1   5  -2 2968.90   63.99
  -1   5  -2 2869.81   64.69
   1   5   2 2860.21   64.29
   2  -5   2 2817.72   63.39
  -2  -5  -2 2813.72   63.19
  -2  -5  -2 2723.03   64.89
  -2   5  -2 2780.82   61.79
   2   5   2 2670.93   61.99
   2   5   2 2714.63   58.39
  -2   5  -2 2708.13   62.79
   3  -5   2  247.48   12.60
  -3  -5  -2  240.28   13.10
  -3  -5  -2  222.48   14.90
  -3  -5  -2  243.78   13.70
  -3   5  -2  230.08   13.10
   3   5   2  244.28   10.90
  -3   5  -2  243.98   14.00
   3   5   2  200.18   12.60
  -4  -5  -2  473.15   20.60
  -4  -5  -2  463.95   22.30
  -4   5  -2  433.96   20.20
  -4   5  -2  429.06   19.50
  -5  -5  -2  108.79   13.50
  -5  -5  -2  138.99   14.70
  -5   5  -2  109.79   13.40
  -5   5  -2  112.19   13.30
  -6  -5  -2  258.87   20.90
  -6  -5  -2  270.77   21.10
  -6   5  -2  243.38   20.10
  -6   5  -2  258.47   19.90
  -7  -5  -2   58.99   16.60
  -7   5  -2   50.19   16.80
  -6  -6   2  293.07   22.70
  -6  -6   2  228.58   20.30
  -6   6   2  235.38   20.00
  -5  -6   2   12.50    9.50
  -5  -6   2    5.90    9.00
  -5   6   2    7.60    7.10
  -5   6   2   10.20    8.70
  -4  -6   2  549.15   24.90
  -4  -6   2  505.65   20.70
  -4  -6   2  513.95   22.70
   4  -6  -2  515.35   21.10
  -4   6   2  544.55   23.00
  -4   6   2  500.55   19.80
  -4   6   2  508.65   21.60
   4   6  -2  486.65   22.20
  -3  -6   2  411.06   19.90
  -3  -6   2  384.26   17.90
   3  -6  -2  389.76   17.90
  -3   6   2  344.67   16.50
  -3   6   2  378.16   15.50
  -3   6   2  368.96   17.70
   3   6  -2  449.36   18.80
   2  -6  -2  313.57   15.40
  -2  -6   2  292.67   15.10
   2  -6  -2  327.17   12.30
  -2  -6   2  305.77   16.10
  -2   6   2  308.47   12.50
   2   6  -2  302.27   15.40
  -2   6   2  305.27   15.10
  -2   6   2  321.87   14.10
   1  -6  -2  682.63   22.90
  -1  -6   2  642.84   22.10
  -1  -6   2  616.74   22.40
   1  -6  -2  693.13   20.70
   1   6  -2  599.14   21.50
  -1   6   2  652.53   18.20
  -1   6   2  661.03   21.50
   1   6  -2  633.64   20.00
  -1   6   2  592.04   19.20
   0  -6  -2   61.59    8.20
   0  -6  -2   65.99    8.20
   0  -6   2   71.19    8.70
   0  -6   2   65.69    7.60
   0   6   2   42.50    6.90
   0   6   2   53.39    5.50
   0   6   2   59.59    6.20
   1  -6   2 2528.55   57.39
  -1  -6  -2 2616.74   61.39
   1  -6   2 2585.44   61.49
  -1  -6  -2 2623.24   61.39
  -1   6  -2 2450.05   58.79
   1   6   2 2461.45   54.39
   1   6   2 2504.45   58.29
  -1   6  -2 2525.85   57.39
  -1   6  -2 2483.15   55.49
  -2  -6  -2  211.78   13.80
   2  -6   2  146.99   11.90
  -2   6  -2  168.58   11.20
   2   6   2  166.98   12.00
  -2   6  -2  171.78   12.20
   2   6   2  183.28    9.50
  -3  -6  -2 1779.02   45.30
   3  -6   2 1852.81   46.60
  -3  -6  -2 1800.22   49.20
  -3  -6  -2 1814.12   46.20
   3   6   2 1785.12   47.10
  -3   6  -2 1774.12   46.10
  -3   6  -2 1843.12   48.10
  -4  -6  -2   31.10    8.60
  -4   6  -2   12.30    8.10
   4   6   2   19.40    7.90
  -4   6  -2    6.70    7.50
  -5  -6  -2  216.08   17.80
  -5  -6  -2  249.58   21.20
  -5   6  -2  226.68   17.70
  -5   6  -2  245.18   19.30
  -6  -6  -2  128.69   16.70
  -6  -6  -2  111.39   16.40
  -6   6  -2  136.19   16.40
  -6   6  -2  124.89   16.90
  -6  -7   2   65.79   14.10
  -6  -7   2   48.20   13.20
  -6   7   2   43.40   12.90
  -6   7   2   40.80   13.60
  -5  -7   2  209.48   19.80
  -5  -7   2  215.58   19.00
  -5   7   2  170.08   16.50
  -5   7   2  199.28   19.30
  -4  -7   2   68.59   11.70
  -4  -7   2  102.89   12.10
   4  -7  -2  110.99   11.90
  -4  -7   2  118.59   14.90
  -4   7   2  121.49   12.60
  -4   7   2  122.79   13.80
   4   7  -2   94.69   12.90
   3  -7  -2  342.87   18.40
  -3  -7   2  356.36   18.80
  -3  -7   2  376.96   21.00
  -3   7   2  328.07   16.60
   3   7  -2  323.27   17.80
  -3   7   2  318.77   18.40
   2  -7  -2  992.80   30.20
  -2  -7   2  779.52   28.90
  -2  -7   2  808.52   28.70
   2   7  -2  719.63   27.00
  -2   7   2  912.01   28.40
  -2   7   2  840.62   25.90
   1  -7  -2  247.48   13.30
  -1  -7   2  272.47   15.00
   1  -7  -2  261.07   15.70
  -1  -7   2  265.37   15.40
  -1   7   2  273.57   12.60
   1   7  -2  245.68   12.90
   1   7  -2  260.27   15.10
  -1   7   2  277.47   14.90
   0  -7   2  916.91   27.80
   0  -7  -2  991.70   30.90
   0  -7  -2  953.40   28.90
   0  -7   2  931.21   30.40
   0   7   2  943.31   28.80
   0   7  -2  919.11   27.00
   0   7   2  891.71   24.50
   0   7   2  931.61   25.40
   0   7  -2  915.51   29.10
   1  -7   2   92.39   10.70
  -1  -7  -2  116.79   12.00
   1  -7   2  125.79    9.60
  -1  -7  -2  114.79   11.70
  -1   7  -2  117.69   10.00
  -1   7  -2  115.39    9.00
   1   7   2  115.19   11.30
  -1   7  -2  117.89   11.70
  -2  -7  -2  682.63   26.10
  -2  -7  -2  659.43   24.70
   2  -7   2  609.24   23.90
  -2   7  -2  614.14   23.80
   2   7   2  592.64   23.10
  -2   7  -2  627.74   21.30
  -2   7  -2  602.04   21.80
   3  -7   2  139.89   13.10
  -3  -7  -2  153.88   13.60
  -3  -7  -2  161.28   14.00
  -3  -7  -2  134.69   14.50
   3   7   2  147.79   14.10
  -3   7  -2  133.59   13.10
  -3   7  -2  168.48   15.60
  -4  -7  -2   84.79   13.60
  -4  -7  -2   60.29   10.60
   4   7   2   57.19   10.80
  -4   7  -2   58.49   12.30
  -4   7  -2   66.19   10.80
  -5  -7  -2   81.69   13.30
  -5  -7  -2   87.59   14.90
  -5   7  -2   84.09   14.70
  -5   7  -2   57.39   12.20
  -6  -7  -2   46.80   17.00
  -6  -7  -2   29.50   13.70
  -6   7  -2   19.50   11.40
  -5  -8   2   90.29   16.20
  -5  -8   2  104.29   14.70
  -5   8   2  103.89   14.80
  -5   8   2  112.69   16.30
  -4  -8   2  485.95   24.00
   4  -8  -2  496.55   23.80
  -4  -8   2  454.05   27.00
  -4  -8   2  475.95   24.40
  -4   8   2  497.95   23.20
   4   8  -2  520.35   25.60
  -4   8   2  482.15   25.60
  -3  -8   2   29.90   10.20
   3  -8  -2    6.40    7.90
  -3  -8   2   24.30    9.60
  -3   8   2   11.80    7.10
  -3   8   2    6.90    7.90
   3   8  -2    3.30    8.10
  -2  -8   2   76.29   11.60
  -2  -8   2   53.19   10.40
   2  -8  -2   78.59   11.50
   2   8  -2   38.70    9.20
  -2   8   2   37.00    7.80
  -2   8   2   43.50    9.70
  -1  -8   2  630.34   25.00
   1  -8  -2  659.93   26.40
  -1  -8   2  694.23   26.90
   1  -8  -2  661.63   23.70
  -1   8   2  634.94   25.00
  -1   8   2  634.94   21.60
   1   8  -2  627.14   22.40
   1   8  -2  602.34   24.90
   0  -8   2  488.65   20.10
   0  -8   2  491.95   22.50
   0  -8  -2  445.86   21.70
   0  -8  -2  429.46   20.20
   0   8  -2  454.65   18.40
   0   8   2  408.56   20.50
   0   8  -2  493.25   21.70
  -1  -8  -2  645.64   26.50
  -1  -8  -2  703.53   26.60
   1  -8   2  642.04   26.20
   1   8   2  615.34   24.60
  -1   8  -2  604.24   22.40
  -1   8  -2  610.34   25.10
   2  -8   2  199.38   15.60
  -2  -8  -2  206.68   16.90
  -2  -8  -2  203.48   18.10
  -2   8  -2  210.48   13.30
  -2   8  -2  176.18   13.80
   2   8   2  185.88   15.60
  -2   8  -2  227.38   16.80
  -3  -8  -2  446.26   25.00
   3  -8   2  411.26   20.80
  -3  -8  -2  383.56   21.80
  -3   8  -2  407.96   19.40
   3   8   2  376.16   21.30
  -3   8  -2  393.96   22.40
  -3   8  -2  383.06   19.50
  -4  -8  -2  316.77   24.10
  -4   8  -2  307.07   21.30
  -4   8  -2  248.78   18.80
   4   8   2  289.57   20.80
  -5  -8  -2  719.83   34.60
  -5   8  -2  619.44   31.70
  -5   8  -2  593.24   35.20
  -4  -9   2  172.68   17.90
  -4  -9   2  142.29   16.60
  -4  -9   2  181.88   20.40
   4  -9  -2  172.68   17.50
  -4   9   2  196.88   19.20
   4   9  -2  147.89   17.30
  -4   9   2  168.48   16.80
   3  -9  -2  144.49   16.00
  -3  -9   2  157.48   18.30
  -3  -9   2  130.99   15.30
   3   9  -2  119.29   14.90
  -3   9   2  139.29   16.20
  -3   9   2  105.39   12.80
  -2  -9   2  359.76   22.00
   2  -9  -2  400.66   22.70
  -2  -9   2  376.56   23.00
   2   9  -2  381.06   22.10
  -2   9   2  377.26   21.90
  -2   9   2  376.46   18.40
   1  -9  -2  316.47   21.60
  -1  -9   2  365.76   21.30
  -1  -9   2  343.37   20.60
   1   9  -2  335.07   20.40
  -1   9   2  300.87   19.90
   0  -9   2  174.88   17.20
   0  -9   2  167.18   15.60
   0  -9  -2  154.58   16.10
   0  -9  -2  176.78   15.50
   0   9  -2  159.48   13.20
   0   9  -2  169.58   16.30
   0   9   2  140.19   15.30
  -1  -9  -2  106.69   13.80
  -1  -9  -2  126.89   14.60
   1  -9   2  102.59   13.60
  -1   9  -2   93.09   12.80
   1   9   2  118.89   14.40
  -2  -9  -2   93.49   13.30
  -2  -9  -2   73.69   12.50
   2  -9   2   71.99   11.90
  -2   9  -2   62.19   12.30
   2   9   2   47.40   11.20
   3  -9   2  383.96   22.30
  -3  -9  -2  357.16   22.60
  -3  -9  -2  388.06   25.50
   3   9   2  321.37   22.00
  -3   9  -2  352.96   23.20
  -3   9  -2  333.97   22.90
  -4  -9  -2  511.45   30.20
  -4   9  -2  492.35   24.60
  -4   9  -2  500.45   27.80
   4   9   2  461.35   26.60
  -3 -10   2  131.69   17.50
  -3 -10   2  112.89   17.10
   3 -10  -2  139.39   17.70
   3  10  -2  117.79   18.30
  -3  10   2  110.69   16.70
  -2 -10   2   76.19   14.10
  -2 -10   2   60.19   13.10
   2 -10  -2   39.80   12.70
  -2  10   2   55.69   12.80
   2  10  -2   52.09   13.00
  -1 -10   2   75.49   13.40
  -1 -10   2  105.49   15.00
   1 -10  -2   92.79   14.90
  -1  10   2   92.29   14.40
   1  10  -2   64.09   12.90
   0 -10   2  230.58   19.70
   0 -10  -2  210.48   20.30
   0  10  -2  180.38   18.10
   0  10   2  207.18   19.30
  -1 -10  -2  396.56   24.90
  -1 -10  -2  402.86   24.00
   1 -10   2  373.56   22.90
  -1  10  -2  366.66   23.30
   1  10   2  366.96   22.20
  -2 -10  -2  158.48   17.90
   2 -10   2  111.79   15.60
  -2 -10  -2  159.68   17.60
  -2  10  -2  125.89   16.80
   2  10   2  102.29   14.80
   3 -10   2  268.17   21.90
  -3 -10  -2  280.27   23.40
  -3 -10  -2  240.58   24.80
   3  10   2  298.87   23.70
  -1 -11  -2   76.19   14.60
  -7   0   3    9.20   10.10
  -7   0   3   -2.20    8.90
  -6   0   3  165.58   14.60
  -6   0   3  179.18   15.90
  -5   0   3  361.96   16.90
  -5   0   3  348.67   14.30
  -5   0   3  337.87   16.60
  -4   0   3  438.26   13.50
  -4   0   3  444.76   16.80
  -4   0   3  494.95   15.40
  -4   0   3  439.26   16.80
  -3   0   3  466.05   13.40
  -3   0   3  437.36   15.20
  -3   0   3  480.85   15.70
  -3   0   3  491.05   14.40
  -2   0   3 1135.49   26.10
  -2   0   3 1170.08   26.60
  -2   0   3 1156.98   26.80
   1   0   3  182.28    5.50
  -1   0  -3  162.78    6.80
  -1   0  -3  168.18    6.30
  -1   0  -3  166.98    7.10
   1   0   3  182.48    7.10
  -2   0  -3   49.20    5.60
  -2   0  -3   45.10    5.80
   2   0   3   54.29    5.70
  -2   0  -3   54.49    5.00
  -3   0  -3    4.50    4.60
  -3   0  -3   -2.90    3.20
   3   0   3   -1.90    3.90
  -3   0  -3   -0.70    4.30
  -4   0  -3   -4.50    4.80
   4   0   3    2.50    4.80
  -4   0  -3    2.80    5.10
  -4   0  -3    4.90    4.10
  -5   0  -3  730.33   26.80
   5   0   3  762.82   25.40
  -5   0  -3  689.43   25.50
  -6   0  -3  443.66   23.20
   6   0   3  460.35   21.70
  -6   0  -3  424.86   21.80
  -7   0  -3    0.70    9.40
   7   0   3    7.00    9.20
  -7   0  -3   11.70   10.50
  -7  -1   3   13.60   10.70
  -7  -1   3   30.00   11.80
  -7   1   3   34.00   11.10
  -7   1   3   23.70   11.00
  -6  -1   3  223.08   17.30
  -6  -1   3  245.38   17.10
  -6   1   3  215.68   16.50
  -6   1   3  240.28   16.80
  -5  -1   3  155.28   12.50
  -5  -1   3  125.79   10.60
  -5  -1   3  107.49   11.30
  -5   1   3  143.19   11.70
  -5   1   3  134.99   11.90
  -4  -1   3  356.36   11.60
  -4  -1   3  320.77   13.90
  -4  -1   3  346.47   14.80
  -4   1   3  372.46   14.90
  -4   1   3  392.76   12.80
  -4   1   3  391.16   15.60
  -4   1   3  350.16   12.10
  -3  -1   3  307.57   12.20
  -3  -1   3  315.47   10.40
  -3  -1   3  295.07   12.20
  -3   1   3  338.27   12.60
  -3   1   3  326.97   12.80
  -3   1   3  359.36   11.30
  -2  -1   3 1909.81   41.10
  -2  -1   3 1900.71   42.20
  -2   1   3 1973.50   42.20
  -2   1   3 1944.21   42.70
  -1  -1  -3 5921.51  119.39
  -1  -1  -3 5922.11  118.39
  -1   1  -3 5878.81  117.29
  -1   1  -3 5753.02  116.49
  -2  -1  -3  406.46   13.30
   2  -1   3  418.36   13.50
  -2  -1  -3  416.26   13.60
   2  -1   3  420.96   10.50
   2   1   3  414.76   13.00
  -2   1  -3  420.26   13.70
  -2   1  -3  400.06   13.10
  -3  -1  -3 5307.07  111.69
  -3  -1  -3 5306.17  110.29
   3  -1   3 5391.66  111.49
  -3   1  -3 5423.06  114.29
   3   1   3 5494.95  113.09
  -3   1  -3 5438.46  113.79
   4  -1   3  151.48   10.80
  -4  -1  -3  149.59   11.60
  -4  -1  -3  139.39   10.00
  -4  -1  -3  129.29   11.10
  -4   1  -3  141.39   10.50
  -4   1  -3  127.59   11.00
   4   1   3  146.39   10.50
  -5  -1  -3  960.60   32.10
  -5  -1  -3 1025.10   29.30
  -5  -1  -3  989.40   31.90
   5  -1   3 1047.30   31.20
  -5   1  -3 1014.20   32.00
   5   1   3 1002.40   30.40
  -5   1  -3  953.40   31.00
  -6  -1  -3   -3.00    8.30
   6  -1   3   -0.80    7.30
  -6  -1  -3   -0.20    8.40
  -6   1  -3    1.80    8.40
   6   1   3    1.10    7.70
  -6   1  -3   -5.80    7.90
  -7  -1  -3   74.89   14.00
  -7  -1  -3   73.59   14.20
  -7   1  -3   70.59   14.20
  -7   1  -3   84.99   14.20
   7   1   3   71.69   12.70
  -7  -2   3  685.53   30.90
  -7  -2   3  702.13   30.20
  -7   2   3  774.62   31.00
  -7   2   3  707.33   30.80
  -6  -2   3  765.82   29.90
  -6  -2   3  793.52   27.50
  -6  -2   3  752.92   28.60
  -6   2   3  894.81   30.70
  -6   2   3  870.41   31.00
  -5  -2   3   71.69   10.00
  -5  -2   3   77.39    9.70
  -5   2   3   81.99    9.50
  -5   2   3   85.39   10.20
  -4  -2   3  804.52   25.00
  -4  -2   3  842.52   25.20
  -4  -2   3  808.52   21.40
  -4   2   3  864.41   25.00
  -4   2   3  864.11   25.80
  -3  -2   3  928.61   25.30
  -3  -2   3  862.01   24.70
  -3  -2   3  906.71   22.80
  -3   2   3  915.91   24.30
  -3   2   3  952.80   25.60
  -3   2   3  957.50   22.20
  -2  -2   3  790.02   21.60
  -2  -2   3  779.32   20.20
   2  -2  -3  779.92   20.30
  -2   2   3  747.73   20.00
  -2   2   3  755.42   20.10
  -2   2   3  770.92   18.70
   2   2  -3  764.22   20.30
  -1  -2   3 5499.05  110.99
   1  -2  -3 5455.25  111.09
  -1  -2   3 5442.86  111.19
   1  -2  -3 5432.16  109.89
  -1   2   3 5457.85  110.69
  -1   2   3 5345.67  110.09
   1   2  -3 5549.34  110.69
   1   2  -3 5518.65  110.99
   0  -2   3  638.64   14.80
   0  -2  -3  659.23   17.10
   0  -2   3  646.94   16.20
   0  -2   3  647.74   17.00
   0  -2  -3  644.04   17.00
   0   2   3  620.44   15.70
   0   2  -3  605.34   15.70
   0   2   3  612.64   15.20
   0   2  -3  647.04   16.40
  -1  -2  -3  648.34   18.20
   1  -2   3  667.73   17.10
   1  -2   3  675.73   17.10
  -1  -2  -3  659.93   16.30
  -1  -2  -3  658.13   17.00
  -1   2  -3  646.04   17.10
   1   2   3  634.14   16.60
  -1   2  -3  679.33   17.70
   1   2   3  651.43   16.50
   2  -2   3 7949.20  157.08
  -2  -2  -3 7719.13  156.48
   2  -2   3 7928.61  154.88
  -2  -2  -3 7530.65  154.38
  -2  -2  -3 7611.54  157.38
  -2   2  -3 7783.82  156.98
  -2   2  -3 7786.92  157.38
   2   2   3 7674.73  155.88
   3  -2   3   57.79    4.80
  -3  -2  -3   61.59    4.70
   3  -2   3   77.59    7.60
  -3  -2  -3   61.19    7.20
  -3  -2  -3   71.39    7.60
   3   2   3   62.89    6.70
  -3   2  -3   81.39    8.20
  -3   2  -3   64.69    7.60
  -4  -2  -3  799.12   24.60
   4  -2   3  810.82   24.80
  -4  -2  -3  752.02   25.10
  -4   2  -3  826.32   25.80
  -4   2  -3  812.52   25.40
   4   2   3  810.52   24.10
  -5  -2  -3 1510.15   42.60
  -5  -2  -3 1521.35   43.30
  -5  -2  -3 1549.05   41.10
   5  -2   3 1572.54   42.40
   5   2   3 1589.54   41.30
  -5   2  -3 1556.54   43.20
  -5   2  -3 1521.75   42.80
  -6  -2  -3  172.88   17.00
  -6  -2  -3  190.78   17.80
  -6   2  -3  219.78   17.00
   6   2   3  193.78   15.90
  -6   2  -3  178.58   17.00
  -7  -2  -3   58.89   13.40
  -7  -2  -3   40.00   12.40
  -7   2  -3   73.19   14.30
  -7   2  -3   58.29   13.40
  -7  -3   3 1077.69   39.50
  -7  -3   3 1047.70   38.80
  -7   3   3 1169.98   40.70
  -7   3   3 1158.88   39.30
  -6  -3   3  530.15   24.50
  -6  -3   3  577.64   26.00
  -6   3   3  578.14   25.40
  -6   3   3  600.14   24.60
  -5  -3   3   77.69   10.40
  -5  -3   3   57.79   10.10
  -5   3   3   57.89   10.00
  -5   3   3   64.29    9.10
  -4  -3   3 1119.09   31.60
  -4  -3   3 1119.89   31.90
  -4  -3   3 1088.89   28.60
  -4   3   3 1166.48   31.10
  -4   3   3 1164.58   32.60
  -3  -3   3  286.97   11.80
   3  -3  -3  302.77   12.10
  -3  -3   3  285.07   13.70
   3   3  -3  301.67   13.00
  -3   3   3  309.67   13.00
  -3   3   3  301.47   11.60
   2  -3  -3 1502.25   33.70
   2  -3  -3 1558.84   36.40
  -2  -3   3 1546.15   37.50
  -2  -3   3 1528.45   36.20
  -2   3   3 1535.25   35.80
  -2   3   3 1515.15   33.70
  -2   3   3 1498.55   35.60
  -1  -3   3  735.63   20.20
   1  -3  -3  729.23   20.30
   1  -3  -3  727.93   18.90
  -1  -3   3  742.93   20.50
  -1   3   3  781.92   17.60
   1   3  -3  789.62   20.60
  -1   3   3  770.92   20.00
   1   3  -3  757.42   20.40
  -1   3   3  779.42   20.10
   0  -3   3 1234.78   29.30
   0  -3  -3 1209.98   29.00
   0  -3  -3 1172.98   29.10
   0  -3   3 1196.48   28.20
   0   3   3 1234.28   28.60
   0   3   3 1204.58   28.30
   0   3  -3 1247.98   29.30
   0   3  -3 1241.78   29.20
   1  -3   3 2359.86   50.49
   1  -3   3 2397.96   49.20
   1  -3   3 2399.06   51.59
  -1  -3  -3 2318.27   49.40
  -1  -3  -3 2346.57   52.59
  -1  -3  -3 2311.67   51.39
  -1   3  -3 2413.86   52.99
   1   3   3 2356.06   51.39
   1   3   3 2416.16   52.19
  -1   3  -3 2473.45   52.99
   2  -3   3 3613.24   74.49
  -2  -3  -3 3480.35   73.89
   2  -3   3 3571.94   75.29
  -2  -3  -3 3465.25   76.69
  -2  -3  -3 3496.65   74.39
  -2   3  -3 3566.94   75.19
   2   3   3 3492.05   73.39
   2   3   3 3412.66   74.49
  -2   3  -3 3511.55   75.39
  -3  -3  -3  279.37   10.60
  -3  -3  -3  297.67   13.30
  -3  -3  -3  294.27   14.30
   3  -3   3  302.57   10.90
   3  -3   3  317.57   13.60
  -3   3  -3  347.77   14.70
  -3   3  -3  338.47   14.50
   3   3   3  331.77   12.80
  -4  -3  -3  232.68   14.20
  -4  -3  -3  204.98   13.90
   4  -3   3  233.98   13.30
   4   3   3  247.98   13.00
  -4   3  -3  231.38   14.00
  -4   3  -3  239.08   13.80
  -5  -3  -3  721.83   25.90
  -5  -3  -3  671.13   26.50
  -5   3  -3  790.92   27.90
   5   3   3  724.03   24.80
  -5   3  -3  741.33   26.90
  -6  -3  -3   88.49   13.40
  -6  -3  -3  101.69   14.20
  -6   3  -3  109.89   14.70
  -6   3  -3   99.99   13.70
  -7  -3  -3  134.59   17.40
  -7  -3  -3  142.79   17.90
  -7   3  -3  167.98   18.30
  -7   3  -3  117.49   16.20
  -7   4   3   79.09   13.40
  -7   4   3   75.49   13.20
  -6  -4   3   75.69   12.70
  -6  -4   3   68.69   13.20
  -6   4   3   86.89   12.90
  -6   4   3   76.59   11.70
  -5  -4   3  812.82   29.50
  -5  -4   3  819.62   28.90
  -5   4   3  862.01   29.20
  -5   4   3  779.72   26.30
  -4  -4   3  428.06   16.50
  -4  -4   3  399.66   18.10
  -4  -4   3  421.66   19.30
   4  -4  -3  431.96   16.20
  -4   4   3  400.86   17.70
  -4   4   3  409.76   15.80
   3  -4  -3  411.36   15.70
  -3  -4   3  420.56   15.60
  -3  -4   3  414.96   17.20
  -3   4   3  419.46   16.20
  -3   4   3  437.26   16.40
   3   4  -3  435.66   16.80
  -3   4   3  423.66   14.50
   2  -4  -3 3200.48   69.29
   2  -4  -3 3076.29   65.69
  -2  -4   3 3068.49   68.69
  -2  -4   3 3156.88   70.09
  -2   4   3 3015.80   63.89
  -2   4   3 3048.29   66.29
  -2   4   3 3022.90   66.59
   2   4  -3 3025.70   66.99
   1  -4  -3 3787.02   80.69
  -1  -4   3 3896.31   82.59
  -1  -4   3 3848.81   82.69
   1  -4  -3 3859.81   82.69
  -1   4   3 3749.92   79.39
   1   4  -3 3771.32   79.99
  -1   4   3 3687.23   76.59
  -1   4   3 3730.53   79.79
   1   4  -3 3872.51   80.59
   0  -4  -3  570.74   18.10
   0  -4  -3  541.35   17.30
   0  -4   3  568.14   17.80
   0  -4   3  555.84   16.80
   0   4   3  529.95   16.20
   0   4  -3  539.75   16.50
   0   4   3  534.65   15.40
   0   4  -3  517.85   16.60
  -1  -4  -3  576.24   18.20
   1  -4   3  576.04   18.00
  -1  -4  -3  574.14   18.90
   1  -4   3  579.64   15.70
   1   4   3  558.74   16.00
  -1   4  -3  572.04   17.90
   1   4   3  575.94   17.40
  -1   4  -3  571.84   17.80
   2  -4   3  202.38   10.50
  -2  -4  -3  189.98   12.00
  -2  -4  -3  221.08   11.00
  -2  -4  -3  250.77   10.70
  -2   4  -3  165.88   10.00
   2   4   3  154.28    9.60
  -2   4  -3  167.68   10.30
   2   4   3  151.88    8.30
  -3  -4  -3  302.47   15.70
  -3  -4  -3  298.87   14.20
   3  -4   3  304.37   12.40
  -3  -4  -3  295.47   12.60
  -3   4  -3  317.57   14.60
  -3   4  -3  304.87   14.50
   3   4   3  296.37   13.80
   3   4   3  303.77   12.40
  -4  -4  -3  764.32   26.90
  -4  -4  -3  741.53   25.40
  -4   4  -3  720.33   25.30
  -4   4  -3  752.32   25.40
   4   4   3  726.43   22.60
  -5  -4  -3  327.17   19.10
  -5  -4  -3  247.88   18.00
  -5   4  -3  286.37   18.20
  -5   4  -3  315.27   19.00
  -6  -4  -3  232.78   19.70
  -6  -4  -3  250.77   19.20
  -6   4  -3  299.17   20.90
  -6   4  -3  305.97   20.90
  -7  -4  -3  124.59   16.90
  -7  -4  -3  115.29   17.20
  -7   4  -3  138.19   17.10
  -7   4  -3  147.39   19.80
  -7  -5   3   25.60   12.00
  -7  -5   3   14.50   12.60
  -7   5   3   24.60   10.80
  -7   5   3    9.00   10.50
  -6  -5   3   78.59   13.50
  -6  -5   3   86.39   14.00
  -6   5   3   60.49   11.40
  -6   5   3   82.99   11.90
  -5  -5   3  666.83   26.70
  -5  -5   3  673.73   27.90
  -5   5   3  674.93   24.10
  -5   5   3  636.44   26.20
  -4  -5   3  419.46   19.40
  -4  -5   3  418.66   20.60
  -4  -5   3  394.06   17.40
   4  -5  -3  419.46   17.50
  -4   5   3  401.06   18.50
  -4   5   3  428.26   18.60
  -4   5   3  400.96   16.50
   4   5  -3  413.56   18.90
   3  -5  -3 2747.82   63.29
  -3  -5   3 2750.02   65.39
  -3  -5   3 2684.73   62.89
  -3   5   3 2641.84   61.69
  -3   5   3 2626.14   60.89
   3   5  -3 2580.74   61.59
  -3   5   3 2617.94   58.39
   2  -5  -3  482.25   15.10
  -2  -5   3  496.05   18.10
  -2  -5   3  486.65   18.70
   2  -5  -3  513.95   18.70
   2   5  -3  491.85   18.00
  -2   5   3  483.45   14.90
  -2   5   3  487.95   17.20
  -2   5   3  535.95   18.40
   1  -5  -3  769.62   21.50
  -1  -5   3  767.82   23.40
   1  -5  -3  732.53   23.20
  -1  -5   3  737.83   22.80
  -1   5   3  723.93   20.80
  -1   5   3  733.23   21.80
  -1   5   3  721.03   18.40
   1   5  -3  727.93   22.30
   1   5  -3  727.53   21.40
   0  -5  -3  333.67   13.80
   0  -5  -3  341.67   14.60
   0  -5   3  316.67   14.00
   0  -5   3  315.77   12.80
   0   5  -3  315.47   13.30
   0   5  -3  305.17   10.10
   0   5   3  319.27   11.70
   0   5   3  302.47    9.90
   0   5   3  293.07   12.40
   0   5  -3  314.47   12.80
   1  -5   3 2998.20   64.89
   1  -5   3 3026.70   68.49
  -1  -5  -3 3056.09   68.89
  -1  -5  -3 3068.59   68.39
  -1   5  -3 2935.81   65.89
   1   5   3 2960.80   65.89
   1   5   3 3032.10   63.79
  -1   5  -3 2932.51   66.39
  -2  -5  -3 1248.28   32.90
   2  -5   3 1214.28   33.00
  -2  -5  -3 1140.49   34.10
  -2  -5  -3 1328.87   31.50
   2   5   3 1093.39   27.70
   2   5   3 1111.89   30.30
  -2   5  -3 1095.99   31.10
  -2   5  -3 1134.29   30.70
  -3  -5  -3 1378.36   35.80
  -3  -5  -3 1406.56   39.50
  -3  -5  -3 1389.36   36.30
   3  -5   3 1396.66   36.00
  -3   5  -3 1330.47   37.50
   3   5   3 1391.06   37.10
   3   5   3 1376.66   33.80
  -3   5  -3 1386.26   37.40
  -4  -5  -3  548.85   21.90
  -4  -5  -3  489.15   23.10
  -4   5  -3  501.25   21.90
  -4   5  -3  493.85   21.40
  -5  -5  -3   80.19   12.30
  -5  -5  -3  113.39   14.20
  -5   5  -3   83.49   12.20
  -5   5  -3  103.19   13.70
  -6  -5  -3  189.78   18.20
  -6  -5  -3  171.58   17.50
  -6   5  -3  210.38   19.50
  -6   5  -3  226.88   19.50
  -6  -6   3  226.48   20.90
  -6  -6   3  203.28   19.40
  -6   6   3  220.48   19.80
  -6   6   3  221.78   19.80
  -5  -6   3   85.69   13.80
  -5  -6   3   90.59   12.90
  -5   6   3   85.29   13.00
  -5   6   3   78.09   11.60
   4  -6  -3  286.47   16.00
  -4  -6   3  250.27   15.60
  -4  -6   3  246.08   18.20
   4   6  -3  234.08   16.90
  -4   6   3  257.07   16.20
  -4   6   3  272.77   16.00
  -4   6   3  268.47   17.00
   3  -6  -3 1103.09   33.30
  -3  -6   3 1119.49   33.10
  -3  -6   3 1153.28   35.00
  -3   6   3 1114.09   33.40
  -3   6   3 1105.39   32.20
   3   6  -3 1104.59   33.20
  -3   6   3 1088.79   29.60
  -2  -6   3  134.39   11.90
   2  -6  -3  138.09   12.00
   2  -6  -3  139.29    9.20
  -2  -6   3  141.69   11.10
  -2   6   3  122.79    9.60
  -2   6   3  145.89   11.30
   2   6  -3  122.19   10.90
  -2   6   3  138.29    8.30
  -1  -6   3  171.68   11.40
   1  -6  -3  187.98   12.50
   1  -6  -3  180.08   10.70
  -1  -6   3  165.08   11.70
   1   6  -3  160.48   10.20
  -1   6   3  166.18    8.00
   1   6  -3  189.88   11.80
  -1   6   3  162.78    9.60
  -1   6   3  178.18   11.30
   0  -6   3 1718.63   44.30
   0  -6  -3 1674.13   44.10
   0  -6  -3 1727.43   43.00
   0  -6   3 1736.53   42.10
   0   6  -3 1724.93   42.10
   0   6   3 1677.03   42.60
   0   6  -3 1707.73   38.50
   0   6   3 1708.93   40.40
   0   6  -3 1729.43   43.40
   1  -6   3   66.79    8.50
   1  -6   3   64.99    7.10
   1   6   3   53.79    7.70
  -1   6  -3   60.89    7.40
  -1   6  -3   54.29    7.80
   1   6   3   47.90    5.90
   2  -6   3 4015.20   90.09
  -2  -6  -3 4085.99   91.99
  -2  -6  -3 4103.29   90.19
  -2  -6  -3 3997.30   86.79
  -2   6  -3 3953.90   88.89
  -2   6  -3 3941.01   87.49
   2   6   3 3948.51   83.79
   2   6   3 3946.41   87.89
  -3  -6  -3  701.83   24.20
  -3  -6  -3  679.53   26.70
   3  -6   3  594.24   22.70
  -3  -6  -3  737.93   23.70
  -3   6  -3  570.34   23.10
   3   6   3  633.64   22.70
  -3   6  -3  581.34   22.50
  -4  -6  -3 1004.20   32.10
  -4  -6  -3  986.80   34.80
  -4   6  -3 1015.50   33.90
  -4   6  -3  999.40   32.80
  -5  -6  -3  217.88   19.50
  -5  -6  -3  206.48   18.30
  -5   6  -3  179.68   17.00
  -5   6  -3  226.68   18.70
  -6  -6  -3  249.48   21.40
  -6  -6  -3  264.77   22.20
  -6   6  -3  206.18   20.00
  -6   6  -3  226.68   20.20
  -6  -7   3  115.79   16.30
  -6  -7   3   80.59   15.70
  -6   7   3   76.19   14.30
  -6   7   3   65.29   12.90
  -5  -7   3  207.68   18.70
  -5  -7   3  187.28   19.30
  -5   7   3  206.18   17.20
  -5   7   3  195.88   18.40
  -4  -7   3  210.48   16.40
   4  -7  -3  197.88   15.80
  -4  -7   3  229.28   20.10
   4   7  -3  220.78   17.70
  -4   7   3  219.88   16.90
  -4   7   3  202.68   15.30
  -3  -7   3  243.68   17.80
  -3  -7   3  217.18   15.90
   3  -7  -3  237.38   16.20
   3   7  -3  219.38   15.90
  -3   7   3  245.98   16.30
  -3   7   3  206.08   14.10
   2  -7  -3  125.29   12.60
  -2  -7   3  177.78   14.70
  -2  -7   3  156.58   13.80
  -2   7   3  104.19   10.20
  -2   7   3  114.09   11.40
  -1  -7   3   47.40    8.30
  -1  -7   3   38.60    8.30
   1  -7  -3   49.40    8.80
   1  -7  -3   45.80    7.50
   1   7  -3   38.80    7.00
  -1   7   3   19.90    7.00
  -1   7   3   42.20    6.70
   1   7  -3   32.70    7.90
   0  -7  -3  244.68   14.10
   0  -7   3  227.08   14.60
   0  -7  -3  239.18   15.20
   0  -7   3  205.18   12.50
   0   7  -3  199.28   13.70
   0   7   3  212.78   11.00
   0   7  -3  211.48   12.30
   0   7   3  212.48   13.30
  -1  -7  -3  763.02   26.60
  -1  -7  -3  694.43   25.90
   1  -7   3  736.23   26.10
   1   7   3  738.43   25.30
  -1   7  -3  717.33   24.20
  -1   7  -3  770.82   26.20
   1   7   3  757.82   22.00
  -1   7  -3  784.62   22.50
  -2  -7  -3  286.47   18.30
  -2  -7  -3  292.77   17.50
   2  -7   3  258.47   15.90
   2   7   3  243.08   15.20
  -2   7  -3  247.28   14.70
  -2   7  -3  261.27   15.80
   3  -7   3  549.05   22.00
  -3  -7  -3  591.54   23.80
  -3  -7  -3  547.05   29.20
  -3  -7  -3  563.54   25.90
   3   7   3  577.44   23.80
  -3   7  -3  567.34   24.70
  -3   7  -3  587.44   23.50
  -4  -7  -3   97.79   14.10
  -4  -7  -3  136.79   16.10
  -4   7  -3  104.59   14.10
   4   7   3  115.69   13.80
  -4   7  -3   83.99   12.10
  -5  -7  -3  107.59   18.50
  -5  -7  -3  123.49   16.40
  -5   7  -3  148.29   16.60
  -5   7  -3  143.59   17.40
  -6   7  -3    1.00   11.20
  -5  -8   3  277.07   24.90
  -5  -8   3  276.57   22.60
   5   8  -3  329.77   22.80
  -5   8   3  272.97   23.10
  -5   8   3  255.47   19.60
  -4  -8   3  366.56   21.60
  -4  -8   3  410.76   25.80
   4  -8  -3  399.56   22.20
   4   8  -3  355.86   22.20
  -4   8   3  420.76   23.80
  -4   8   3  348.77   20.00
  -3  -8   3  423.26   23.80
  -3  -8   3  447.16   22.30
   3  -8  -3  397.86   21.90
   3   8  -3  421.86   22.00
  -3   8   3  378.36   20.90
  -3   8   3  383.96   19.00
  -2  -8   3  298.17   18.40
   2  -8  -3  257.87   18.30
  -2  -8   3  285.47   18.50
   2   8  -3  251.47   17.10
  -2   8   3  261.07   15.00
  -2   8   3  280.67   17.30
  -1  -8   3  108.69   12.70
   1  -8  -3  112.39   13.10
  -1  -8   3  107.59   12.10
   1  -8  -3   95.59   10.70
  -1   8   3  111.79   12.70
   1   8  -3  106.89   10.60
   1   8  -3  109.19   12.70
  -1   8   3   85.59    9.50
   0  -8   3 1253.97   35.90
   0  -8  -3 1289.67   39.60
   0  -8   3 1257.27   39.40
   0  -8  -3 1250.57   37.30
   0   8  -3 1199.88   34.90
   0   8  -3 1221.98   37.10
   0   8   3 1196.58   34.30
   0   8   3 1231.58   36.90
  -1  -8  -3  524.65   24.00
  -1  -8  -3  559.64   23.90
   1  -8   3  520.05   23.40
   1   8   3  525.95   22.70
  -1   8  -3  529.85   21.30
  -1   8  -3  534.85   23.60
  -2  -8  -3  682.93   28.60
   2  -8   3  703.63   27.10
  -2  -8  -3  681.73   27.90
  -2   8  -3  722.13   28.10
   2   8   3  711.33   26.90
  -2   8  -3  628.84   24.70
  -2   8  -3  694.53   23.70
  -3  -8  -3  288.27   19.40
  -3  -8  -3  321.37   22.20
   3  -8   3  263.87   18.00
   3   8   3  250.57   18.40
  -3   8  -3  227.68   17.90
  -3   8  -3  281.27   17.50
  -4  -8  -3 1093.49   40.80
  -4   8  -3 1101.09   39.50
  -4   8  -3 1101.99   37.40
   4   8   3 1130.49   38.70
  -5  -8  -3   55.49   16.00
  -5   8  -3   43.20   12.30
  -5   8  -3   50.79   18.40
  -4  -9   3   26.20   11.30
  -4  -9   3   21.50   12.00
   4  -9  -3   24.90   10.90
  -4   9   3   27.60   11.30
   4   9  -3    2.00   10.20
  -4   9   3   29.30   10.20
   3  -9  -3  314.57   21.80
  -3  -9   3  344.57   22.90
  -3  -9   3  327.77   23.10
  -3   9   3  296.77   21.00
  -3   9   3  297.97   18.00
   3   9  -3  290.47   21.00
   2  -9  -3  210.68   18.40
  -2  -9   3  244.48   19.20
  -2  -9   3  222.48   19.30
  -2   9   3  188.58   14.50
  -2   9   3  219.68   18.20
   2   9  -3  233.68   19.50
  -1  -9   3  692.63   28.10
   1  -9  -3  718.53   30.10
  -1  -9   3  714.33   30.20
   1   9  -3  624.54   24.70
   1   9  -3  706.53   28.50
  -1   9   3  659.43   27.50
   0  -9   3  394.16   22.40
   0  -9  -3  356.96   22.20
   0  -9  -3  365.76   20.20
   0   9  -3  395.26   21.70
   0   9  -3  350.16   18.10
   0   9   3  371.56   21.20
  -1  -9  -3  364.66   22.40
   1  -9   3  380.26   22.30
  -1  -9  -3  433.16   22.80
  -1   9  -3  393.76   22.20
  -1   9  -3  381.16   19.20
   1   9   3  365.46   21.00
  -2  -9  -3   30.90   11.10
   2  -9   3   27.20    9.70
  -2  -9  -3   28.20   10.90
  -2   9  -3   39.60    9.60
  -2   9  -3   23.40   10.40
   2   9   3   23.50   10.00
  -3  -9  -3  184.18   19.40
   3  -9   3  185.68   17.00
  -3  -9  -3  202.78   18.20
  -3   9  -3  180.88   18.10
   3   9   3  170.28   17.00
  -3   9  -3  141.99   23.20
  -4  -9  -3   60.19   17.00
   4   9   3   54.39   13.40
  -4   9  -3   42.50   11.10
  -4   9  -3   36.50   13.00
  -3 -10   3   20.70   11.50
  -3 -10   3   23.30   12.20
   3 -10  -3   14.40   11.20
  -3  10   3   20.70   11.40
  -3  10   3   15.20    9.40
   3  10  -3   31.90   16.00
  -2 -10   3  380.86   24.80
  -2 -10   3  401.06   25.40
   2 -10  -3  358.46   24.10
   2  10  -3  393.36   24.50
  -2  10   3  387.96   23.90
  -1 -10   3   13.50   10.20
   1 -10  -3    8.60   10.70
  -1 -10   3   17.70   10.30
  -1  10   3    8.00    9.70
   1  10  -3   20.20   11.00
   0 -10  -3   29.10   10.70
   0 -10   3   25.40   10.60
   0 -10  -3   -1.20    9.60
   0  10  -3   22.90   11.30
   0  10   3   15.20   11.10
  -1 -10  -3  195.68   19.70
  -1 -10  -3  208.08   19.60
   1 -10   3  222.58   20.20
   1  10   3  202.78   18.80
  -1  10  -3  202.48   19.70
   2 -10   3  152.58   17.10
  -2 -10  -3  140.59   17.60
  -2 -10  -3  201.78   19.60
   2  10   3  185.38   18.30
  -2  10  -3  176.08   19.40
   3 -10   3    7.20    9.60
  -3 -10  -3    2.70   11.30
   3  10   3   -8.80    9.40
  -1 -11  -3   48.70   14.60
  -8   0   4   39.20   18.30
  -7   0   4  214.48   19.20
  -7   0   4  261.47   20.60
  -6   0   4  111.79   12.50
  -6   0   4  107.39   12.90
  -5   0   4  826.22   24.20
  -5   0   4  802.52   26.80
  -5   0   4  825.22   27.10
  -4   0   4 3135.09   66.89
  -4   0   4 3127.09   69.99
  -4   0   4 3202.28   68.29
  -4   0   4 3073.29   69.99
  -3   0   4   16.10    4.20
  -3   0   4   12.70    4.30
  -3   0   4   16.90    3.80
  -3   0   4   24.80    5.20
  -2   0   4 1747.33   37.70
  -2   0   4 1680.13   37.80
  -2   0   4 1736.83   37.80
  -2   0   4 1668.73   36.80
  -1   0   4  715.43   16.90
  -1   0   4  728.63   18.20
   0   0   4 2392.06   49.40
   0   0   4 2329.67   48.90
   0   0  -4 2363.66   48.60
   0   0  -4 2397.16   49.70
  -1   0  -4 1025.90   23.70
  -1   0  -4  973.70   23.70
   1   0   4 1034.10   23.90
  -1   0  -4 1031.10   22.70
   1   0   4 1043.80   22.60
   2   0   4 2271.47   49.40
  -2   0  -4 2234.78   49.70
  -2   0  -4 2234.58   48.00
  -2   0  -4 2248.68   48.80
  -3   0  -4 1815.72   43.60
   3   0   4 1834.72   43.10
  -3   0  -4 1857.41   41.10
  -3   0  -4 1838.72   43.10
  -4   0  -4 1874.71   42.30
  -4   0  -4 1825.22   46.00
   4   0   4 1835.42   45.00
  -4   0  -4 1767.62   45.20
  -5   0  -4 3476.75   81.29
  -5   0  -4 3535.05   82.19
   5   0   4 3522.15   80.59
  -6   0  -4  105.89   14.40
   6   0   4   91.89   12.30
  -6   0  -4   99.19   13.00
  -7   0  -4  167.08   18.70
   7   0   4  181.78   16.70
  -7   0  -4  163.08   17.50
  -8   1   4  222.88   23.40
  -7  -1   4   80.79   14.00
  -7  -1   4   68.79   13.30
  -7   1   4   79.29   13.60
  -7   1   4   65.39   13.20
  -6  -1   4  281.97   18.90
  -6  -1   4  253.57   17.00
  -6   1   4  256.87   16.90
  -6   1   4  297.97   18.00
  -5  -1   4  208.68   13.80
  -5  -1   4  217.38   13.60
  -5  -1   4  173.08   11.90
  -5   1   4  198.78   13.50
  -5   1   4  222.98   13.80
  -4  -1   4  773.72   22.90
  -4  -1   4  760.82   20.60
  -4  -1   4  771.22   23.80
  -4   1   4  780.32   23.80
  -4   1   4  807.52   23.60
  -4   1   4  806.52   21.50
  -4   1   4  764.12   21.20
  -3  -1   4 2414.66   52.39
  -3  -1   4 2419.46   53.89
  -3  -1   4 2417.86   54.09
  -3   1   4 2489.95   52.99
  -3   1   4 2458.05   54.69
  -3   1   4 2425.06   53.99
  -2  -1   4 3243.68   66.79
  -2  -1   4 3129.99   64.49
  -2  -1   4 3153.98   67.39
  -2   1   4 3309.17   67.79
  -2   1   4 3151.58   67.79
  -2   1   4 3270.47   67.09
  -1  -1  -4  770.52   20.20
   1  -1   4  795.62   19.50
  -1  -1  -4  802.22   19.00
   1  -1   4  803.52   18.70
   1   1   4  791.52   19.60
  -1   1  -4  802.22   20.10
  -1   1  -4  791.82   18.90
   2  -1   4 3934.81   78.89
  -2  -1  -4 3849.11   81.79
   2  -1   4 3954.10   82.19
  -2  -1  -4 3916.61   81.89
  -2   1  -4 3843.72   81.49
  -2   1  -4 3780.92   78.09
   2   1   4 3856.31   80.69
  -2   1  -4 3955.90   80.69
  -3  -1  -4  580.34   18.20
  -3  -1  -4  576.94   19.20
   3  -1   4  624.94   19.10
  -3  -1  -4  591.64   18.80
   3   1   4  602.54   18.70
  -3   1  -4  615.54   20.00
  -3   1  -4  599.84   19.00
  -4  -1  -4  713.83   23.50
  -4  -1  -4  723.93   22.00
  -4  -1  -4  711.73   24.10
   4  -1   4  745.03   23.60
  -4   1  -4  742.33   24.40
   4   1   4  744.13   23.30
  -4   1  -4  726.23   23.90
  -5  -1  -4   77.89   11.50
   5  -1   4   82.09   11.10
  -5  -1  -4   91.29   11.90
  -5   1  -4  107.89   11.70
   5   1   4   95.09   11.30
  -5   1  -4   90.19   11.60
  -6  -1  -4   74.59   12.00
  -6  -1  -4   88.29   13.40
   6  -1   4   59.79   11.20
   6   1   4   61.89   11.10
  -6   1  -4   80.69   12.90
  -6   1  -4   51.39   11.10
  -7  -1  -4   16.00   11.60
   7  -1   4   17.10    9.80
  -7  -1  -4   54.09   13.70
   7   1   4   20.10    9.70
  -7   1  -4   48.60   13.00
  -7   1  -4   23.80   11.20
  -8   2   4   60.69   17.30
  -7  -2   4  260.37   20.70
  -7  -2   4  252.87   21.50
  -7   2   4  298.27   20.70
  -7   2   4  260.27   20.10
  -6  -2   4   73.89   11.30
  -6  -2   4   57.59   11.20
  -6  -2   4   72.09   10.80
  -6   2   4   70.59   11.00
  -6   2   4   72.29   11.00
  -5  -2   4  769.02   26.20
  -5  -2   4  734.33   25.50
  -5   2   4  711.93   25.00
  -5   2   4  747.03   24.80
  -4  -2   4 1700.63   42.70
  -4  -2   4 1662.33   39.20
  -4  -2   4 1700.63   42.40
  -4   2   4 1748.33   43.30
  -4   2   4 1670.33   42.00
  -4   2   4 1801.42   39.40
  -3  -2   4 2385.86   53.89
  -3  -2   4 2321.17   51.79
  -3   2   4 2385.56   54.19
  -3   2   4 2457.85   51.59
  -3   2   4 2392.86   52.89
  -2  -2   4  382.16   13.90
  -2  -2   4  388.66   12.90
  -2   2   4  391.06   12.80
   2   2  -4  411.06   13.30
  -2   2   4  405.46   13.30
  -2   2   4  427.06   11.60
   0  -2   4 2182.98   44.10
   0  -2   4 2155.88   45.60
   0  -2   4 2150.68   46.30
   0  -2  -4 2081.99   46.00
   0  -2  -4 2077.69   46.30
   0   2  -4 2164.28   46.00
   0   2   4 2195.68   46.40
   0   2   4 2157.38   45.10
   0   2  -4 2164.18   46.90
   1  -2   4 2859.31   59.59
  -1  -2  -4 2795.72   60.99
  -1  -2  -4 2809.52   59.49
   1  -2   4 2868.61   59.69
   1  -2   4 2765.02   57.99
  -1  -2  -4 2890.01   58.59
   1   2   4 2947.31   59.89
   1   2   4 2838.12   60.59
  -1   2  -4 2854.91   60.49
  -1   2  -4 2863.61   61.49
  -2  -2  -4 5413.46  110.19
   2  -2   4 5461.35  108.59
  -2  -2  -4 5259.27  111.19
   2  -2   4 5569.84  110.99
  -2  -2  -4 5087.39  107.89
  -2   2  -4 5282.67  110.59
  -2   2  -4 5320.77  109.89
   2   2   4 5363.16  109.39
   3  -2   4   97.19    8.60
  -3  -2  -4   96.09    8.70
  -3  -2  -4   93.59    8.50
   3  -2   4   84.19    5.40
  -3   2  -4  103.49    9.30
  -3   2  -4   82.99    8.40
   3   2   4   89.89    7.90
  -4  -2  -4  197.08   13.20
  -4  -2  -4  212.58   12.80
   4  -2   4  192.08   12.40
  -4   2  -4  207.18   13.00
   4   2   4  200.78   12.30
  -4   2  -4  199.28   13.10
  -5  -2  -4 3857.11   90.69
  -5  -2  -4 3905.81   88.09
   5  -2   4 3950.10   89.89
  -5  -2  -4 4055.79   90.69
  -5   2  -4 3835.02   88.69
   5   2   4 3854.81   86.09
  -5   2  -4 3794.42   87.89
   6  -2   4  705.53   27.30
  -6  -2  -4  641.94   28.00
  -6  -2  -4  702.53   29.20
  -6   2  -4  656.33   27.90
   6   2   4  698.83   27.10
  -6   2  -4  746.73   30.00
  -7  -2  -4  113.19   16.30
  -7  -2  -4  133.29   17.00
  -7   2  -4  134.09   16.80
   7   2   4  122.49   14.60
  -7   2  -4  130.79   17.10
  -7  -3   4  336.87   23.90
  -7  -3   4  345.27   23.40
  -7   3   4  343.47   21.80
  -7   3   4  354.76   22.90
  -6  -3   4  532.85   25.50
  -6  -3   4  551.04   25.00
  -6   3   4  606.94   24.30
  -6   3   4  551.34   24.70
  -5  -3   4   14.20    7.30
  -5  -3   4    6.60    7.10
  -5   3   4   16.60    7.50
  -5   3   4   18.90    6.40
  -4  -3   4  427.16   18.40
  -4  -3   4  448.56   18.10
  -4  -3   4  444.16   15.80
  -4   3   4  467.45   18.20
  -4   3   4  449.56   16.50
  -3  -3   4  255.47   13.10
  -3  -3   4  235.28   11.20
  -3   3   4  250.87   10.20
  -3   3   4  263.07   12.10
   3   3  -4  273.37   12.40
  -3   3   4  251.27   11.80
   2  -3  -4 1903.31   41.90
  -2  -3   4 1913.51   44.90
  -2  -3   4 1906.41   44.00
   2  -3  -4 1908.11   44.10
   2   3  -4 1813.42   41.90
  -2   3   4 1810.02   41.40
  -2   3   4 1840.92   41.90
  -2   3   4 1790.82   39.10
  -1  -3   4 1997.90   44.90
   1  -3  -4 1984.10   45.00
   1  -3  -4 1937.01   43.60
  -1  -3   4 1980.60   44.90
   1   3  -4 1903.81   42.60
  -1   3   4 1936.51   42.60
  -1   3   4 1902.01   42.00
   1   3  -4 1888.81   43.00
   0  -3  -4  468.15   15.30
   0  -3  -4  478.95   15.20
   0  -3   4  491.85   12.40
   0  -3   4  470.25   14.30
   0  -3   4  479.05   15.20
   0   3   4  514.85   14.90
   0   3  -4  514.65   15.30
   0   3  -4  520.95   15.80
   0   3   4  527.25   14.60
  -1  -3  -4  362.56   10.90
   1  -3   4  387.56   12.10
   1  -3   4  366.06   10.80
   1  -3   4  376.66   12.80
  -1  -3  -4  365.16   13.90
  -1  -3  -4  348.37   12.70
   1   3   4  389.26   12.60
   1   3   4  376.46   12.20
  -1   3  -4  394.46   13.80
  -1   3  -4  389.16   13.20
   2  -3   4  430.26   13.90
  -2  -3  -4  416.26   14.10
   2  -3   4  457.25   14.90
  -2  -3  -4  427.46   13.90
  -2  -3  -4  411.76   16.00
   2   3   4  451.75   14.90
   2   3   4  439.86   14.60
  -2   3  -4  464.45   15.70
  -2   3  -4  472.75   16.50
  -3  -3  -4  370.16   12.40
  -3  -3  -4  374.96   16.40
   3  -3   4  400.46   12.90
  -3  -3  -4  390.46   15.50
   3  -3   4  392.16   15.30
   3   3   4  414.96   14.60
  -3   3  -4  401.66   16.20
  -3   3  -4  383.86   15.60
  -4  -3  -4 1122.69   33.10
  -4  -3  -4 1134.59   33.30
   4  -3   4 1176.68   33.00
  -4   3  -4 1191.78   34.50
  -4   3  -4 1195.98   34.00
   4   3   4 1186.28   32.20
   5  -3   4  586.84   23.30
  -5  -3  -4  568.94   24.60
  -5  -3  -4  595.44   23.90
   5   3   4  606.14   23.00
  -5   3  -4  613.04   24.30
  -5   3  -4  603.44   24.90
  -6  -3  -4  775.62   31.60
  -6  -3  -4  764.42   30.90
  -6   3  -4  860.31   32.30
   6   3   4  819.42   29.60
  -6   3  -4  873.91   33.00
  -7  -3  -4    1.80   11.30
  -7  -3  -4   14.30   10.70
  -7   3  -4   35.30   12.60
  -7   3  -4   31.00   11.50
  -7  -4   4  737.73   32.80
  -7  -4   4  741.03   33.60
  -7   4   4  783.02   31.00
  -7   4   4  775.72   32.80
  -6  -4   4   53.99   12.30
  -6  -4   4   41.40   11.50
  -6   4   4   64.39   11.80
  -6   4   4   69.29   10.90
  -5  -4   4  312.97   18.40
  -5  -4   4  369.66   20.10
  -5   4   4  340.17   17.90
  -5   4   4  337.47   16.20
  -4  -4   4   76.99    9.80
  -4  -4   4   71.99   10.10
  -4  -4   4   70.79    8.30
  -4   4   4   70.29    9.30
  -4   4   4   66.19    8.90
  -4   4   4   82.39    8.10
  -3  -4   4  353.36   14.70
   3  -4  -4  358.56   14.90
  -3  -4   4  348.47   16.10
  -3   4   4  326.67   14.30
  -3   4   4  354.36   14.60
  -3   4   4  338.27   12.30
   3   4  -4  356.46   15.00
   2  -4  -4  761.42   23.10
  -2  -4   4  760.22   23.70
  -2  -4   4  781.02   23.00
   2  -4  -4  774.22   20.40
  -2   4   4  777.62   22.30
  -2   4   4  768.82   19.30
  -2   4   4  781.12   22.20
   2   4  -4  760.52   22.50
  -1  -4   4  189.18   10.30
   1  -4  -4  192.28   10.60
  -1  -4   4  181.08   10.30
   1  -4  -4  194.28    9.40
  -1   4   4  213.68    6.90
   1   4  -4  221.88   10.30
   1   4  -4  216.38   10.70
  -1   4   4  219.58    9.90
  -1   4   4  219.88   10.00
   0  -4  -4 3021.10   67.59
   0  -4   4 3108.89   66.59
   0  -4  -4 3128.19   68.19
   0  -4   4 3099.69   67.99
   0   4  -4 3018.10   65.89
   0   4   4 3023.50   64.59
   0   4   4 3039.00   64.99
   0   4  -4 3011.10   65.89
  -1  -4  -4 1743.33   42.90
   1  -4   4 1799.12   39.50
  -1  -4  -4 1763.22   38.70
   1  -4   4 1850.11   42.30
  -1  -4  -4 1707.43   41.70
   1   4   4 1680.43   39.30
  -1   4  -4 1696.43   40.30
  -1   4  -4 1692.43   40.50
   1   4   4 1691.13   38.60
  -2  -4  -4  338.57   13.40
  -2  -4  -4  357.76   15.80
   2  -4   4  326.37   13.30
  -2  -4  -4  359.76   13.00
   2   4   4  343.57   12.70
  -2   4  -4  336.17   14.40
   2   4   4  333.37   13.30
  -2   4  -4  346.97   14.30
  -3  -4  -4 1656.63   43.70
   3  -4   4 1694.13   40.00
  -3  -4  -4 1708.93   41.60
  -3  -4  -4 1648.73   39.70
   3   4   4 1727.63   40.70
  -3   4  -4 1710.23   43.50
  -3   4  -4 1668.93   43.00
  -4  -4  -4  587.84   22.30
  -4  -4  -4  551.84   23.00
  -4   4  -4  563.74   21.70
  -4   4  -4  533.95   22.10
   4   4   4  546.05   19.60
  -5  -4  -4  306.57   19.30
  -5  -4  -4  318.37   19.30
  -5   4  -4  353.46   19.90
   5   4   4  325.37   17.60
  -5   4  -4  333.87   19.50
  -6  -4  -4   82.69   13.10
  -6  -4  -4   99.99   15.20
  -6   4  -4   90.79   14.10
  -6   4  -4   55.49   12.30
  -7  -4  -4   42.30   13.60
  -7  -4  -4   53.09   14.50
  -7  -5   4   22.70   12.80
  -7  -5   4   33.10   13.20
  -7   5   4   35.60   12.10
  -7   5   4   18.20   10.70
  -6  -5   4  411.16   25.20
  -6  -5   4  380.56   24.00
  -6   5   4  428.86   23.00
  -6   5   4  424.76   25.00
  -6   5   4  378.56   21.80
  -5  -5   4  355.46   20.20
  -5  -5   4  349.87   21.40
  -5   5   4  329.97   16.80
  -5   5   4  350.46   19.50
  -5   5   4  352.06   19.20
  -4  -5   4   57.39    8.70
   4  -5  -4   87.39    9.50
  -4  -5   4   79.89   11.10
  -4   5   4   65.79    9.70
  -4   5   4   91.69   10.40
  -4   5   4   79.29    8.40
   4   5  -4   67.99   10.00
  -3  -5   4  330.37   16.80
   3  -5  -4  349.96   16.10
  -3  -5   4  317.87   15.50
  -3   5   4  316.97   14.90
  -3   5   4  327.57   12.70
   3   5  -4  333.37   15.60
  -3   5   4  320.67   15.20
  -2  -5   4  386.56   16.90
   2  -5  -4  429.86   17.00
  -2  -5   4  387.26   16.40
   2  -5  -4  416.76   14.20
   2   5  -4  388.76   16.00
  -2   5   4  414.16   15.90
  -2   5   4  383.46   12.40
  -2   5   4  398.56   15.20
  -1  -5   4  169.08   10.80
   1  -5  -4  186.58   10.20
  -1  -5   4  192.58   11.20
   1  -5  -4  193.58   11.80
   1   5  -4  207.78   10.50
  -1   5   4  191.48   10.60
  -1   5   4  187.98    9.80
  -1   5   4  198.38    7.30
   1   5  -4  200.98   11.30
   0  -5  -4 1127.09   30.80
   0  -5   4 1113.39   31.00
   0  -5  -4 1157.38   31.60
   0  -5   4 1189.78   29.90
   0   5   4 1111.59   28.80
   0   5   4 1069.09   27.50
   0   5  -4 1089.69   29.10
   0   5  -4 1082.89   29.40
   1  -5   4 2808.02   63.79
  -1  -5  -4 2838.42   63.89
  -1  -5  -4 2777.82   64.39
   1  -5   4 2748.23   60.29
   1   5   4 2748.23   60.69
  -1   5  -4 2626.74   60.99
  -1   5  -4 2654.63   61.09
   1   5   4 2726.73   58.99
  -2  -5  -4  782.12   22.00
   2  -5   4  793.42   24.00
  -2  -5  -4  734.43   23.50
  -2  -5  -4  783.42   25.90
  -2   5  -4  755.02   24.20
   2   5   4  715.63   21.20
  -2   5  -4  768.22   24.00
   2   5   4  756.12   23.10
  -3  -5  -4 1101.49   34.10
   3  -5   4 1100.79   30.60
  -3  -5  -4 1156.88   31.30
  -3  -5  -4 1101.39   30.40
   3   5   4 1060.79   31.30
  -3   5  -4 1040.00   31.70
  -3   5  -4 1117.89   32.40
   3   5   4 1090.09   28.80
  -4  -5  -4  259.07   16.40
  -4  -5  -4  269.07   18.00
  -4   5  -4  197.58   15.60
  -4   5  -4  257.77   16.50
  -5  -5  -4   58.19   11.30
  -5  -5  -4   58.09   11.40
  -5   5  -4   92.59   13.30
  -5   5  -4   66.89   11.80
  -6  -5  -4   57.79   12.90
  -6  -5  -4   76.19   14.30
  -6   5  -4   94.09   14.40
  -6   5  -4   90.49   14.50
  -6  -6   4   97.19   15.80
  -6  -6   4   78.79   14.10
  -6   6   4  109.29   14.90
  -6   6   4  101.59   14.80
  -5  -6   4  237.18   20.30
  -5  -6   4  235.68   18.70
  -5   6   4  269.67   17.80
  -5   6   4  269.87   19.00
  -4  -6   4  300.27   16.90
   4  -6  -4  273.97   16.30
  -4  -6   4  303.77   19.60
  -4   6   4  264.77   16.50
   4   6  -4  280.97   17.70
  -4   6   4  251.97   15.80
   3  -6  -4  582.14   23.10
  -3  -6   4  614.64   24.60
  -3  -6   4  627.34   23.40
   3   6  -4  647.24   23.20
  -3   6   4  570.64   21.50
  -3   6   4  556.64   22.10
   2  -6  -4  131.29   11.70
   2  -6  -4  132.29    9.30
  -2  -6   4  141.89   12.20
  -2  -6   4  120.49   11.50
  -2   6   4  120.69   10.90
   2   6  -4  154.88   13.00
  -2   6   4  113.89    9.60
   1  -6  -4  351.16   14.80
  -1  -6   4  343.17   15.50
   1  -6  -4  360.76   16.70
  -1  -6   4  338.67   16.10
  -1   6   4  340.47   13.80
   1   6  -4  316.87   14.40
  -1   6   4  344.47   14.80
   1   6  -4  320.87   15.60
   0  -6  -4  973.80   27.90
   0  -6   4  896.21   26.10
   0  -6  -4  847.02   27.60
   0  -6   4  909.41   28.00
   0   6   4  918.41   26.70
   0   6  -4  899.61   22.70
   0   6   4  905.51   25.00
   0   6  -4  912.11   27.40
   0   6  -4  922.01   26.80
   1  -6   4 2127.89   48.80
  -1  -6  -4 2091.19   52.89
  -1  -6  -4 2155.18   52.89
   1  -6   4 2149.58   52.89
   1   6   4 2067.59   50.59
   1   6   4 2105.79   48.40
  -1   6  -4 2101.69   51.79
  -1   6  -4 2149.48   51.19
  -2  -6  -4 1036.70   30.60
  -2  -6  -4  935.41   31.50
   2  -6   4  959.70   29.80
  -2  -6  -4 1041.50   27.30
  -2   6  -4  910.81   28.80
  -2   6  -4  860.91   27.70
   2   6   4  946.41   28.00
   2   6   4  888.01   25.00
  -3  -6  -4 1498.35   41.00
   3  -6   4 1607.84   41.90
  -3  -6  -4 1579.74   45.30
  -3  -6  -4 1615.94   40.90
  -3   6  -4 1585.64   43.80
   3   6   4 1512.65   42.40
  -3   6  -4 1629.84   43.60
  -4  -6  -4  342.17   18.40
  -4  -6  -4  319.17   20.70
  -4   6  -4  261.57   17.60
  -4   6  -4  264.27   17.80
  -5  -6  -4   47.20   11.40
  -5  -6  -4   56.29   12.20
  -5   6  -4   42.20   11.30
  -5   6  -4   50.79   12.00
  -6  -6  -4   30.00   12.20
  -6  -6  -4   35.20   12.30
  -6   6  -4   10.70   10.50
  -6   6  -4   19.20   11.80
  -6  -7   4  310.07   25.60
  -6  -7   4  283.47   23.10
  -6   7   4  252.57   23.60
  -6   7   4  274.47   22.10
  -5  -7   4   83.09   13.60
  -5  -7   4  119.99   16.10
  -5   7   4   91.19   14.20
  -5   7   4   99.39   14.00
   4  -7  -4  457.45   21.50
  -4  -7   4  428.66   21.80
  -4  -7   4  465.55   25.10
   4   7  -4  447.96   22.30
  -4   7   4  465.35   23.10
  -4   7   4  434.76   20.70
  -3  -7   4  535.05   23.00
  -3  -7   4  541.05   24.20
   3  -7  -4  512.25   22.90
   3   7  -4  492.25   22.40
  -3   7   4  531.05   21.20
  -3   7   4  524.45   22.60
   2  -7  -4 1539.25   43.70
  -2  -7   4 1562.84   43.60
  -2  -7   4 1554.24   43.60
   2   7  -4 1517.15   42.50
  -2   7   4 1556.14   40.70
  -2   7   4 1521.25   41.80
   1  -7  -4   96.19    9.90
  -1  -7   4   98.49   11.40
   1  -7  -4  116.59   12.20
  -1  -7   4  101.19   10.70
  -1   7   4  133.99   12.30
  -1   7   4  113.89    9.70
   1   7  -4  112.99   10.80
   1   7  -4  102.69   11.30
   0  -7  -4  135.49   12.10
   0  -7  -4  130.99   12.50
   0  -7   4  137.69   10.90
   0  -7   4  131.49   12.60
   0   7   4  102.89   10.40
   0   7  -4  129.69   11.20
   0   7  -4  142.99   12.40
   0   7   4  109.39    9.40
  -1  -7  -4  227.78   15.30
  -1  -7  -4  227.38   15.20
   1  -7   4  200.78   14.20
  -1   7  -4  231.88   13.70
   1   7   4  218.48   11.70
  -1   7  -4  208.68   14.70
   1   7   4  199.28   13.60
  -2  -7  -4  883.51   31.20
  -2  -7  -4  853.71   29.70
   2  -7   4  937.11   30.10
  -2   7  -4  865.61   28.60
  -2   7  -4  894.11   29.90
   2   7   4  884.21   29.10
  -3  -7  -4   10.70    7.70
  -3  -7  -4   -6.50    8.00
   3  -7   4   12.50    7.00
  -3   7  -4    6.30    7.50
  -3   7  -4    8.00    8.30
   3   7   4    1.50    6.90
  -4  -7  -4  523.65   26.70
  -4   7  -4  466.45   23.40
   4   7   4  487.05   23.40
  -4   7  -4  473.75   24.80
  -5  -7  -4   91.59   15.20
  -5   7  -4   78.79   14.00
  -5   7  -4   67.69   13.40
  -5  -8   4  487.15   26.60
  -5  -8   4  469.35   29.80
  -5   8   4  500.05   25.70
  -5   8   4  509.25   27.90
   5   8  -4  501.75   27.40
   4  -8  -4  438.46   22.90
  -4  -8   4  456.55   26.90
  -4  -8   4  423.36   23.20
  -4   8   4  437.56   22.20
   4   8  -4  444.36   24.20
  -4   8   4  474.15   24.50
  -3  -8   4  195.38   18.10
  -3  -8   4  213.18   17.30
   3  -8  -4  189.88   17.30
  -3   8   4  163.18   14.70
   3   8  -4  158.08   15.50
  -3   8   4  149.69   14.90
  -2  -8   4   95.49   12.70
  -2  -8   4   75.39   11.80
   2  -8  -4  119.39   14.50
  -2   8   4   89.09   12.10
  -2   8   4   97.39   11.20
   2   8  -4  100.29   12.50
  -1  -8   4  735.73   27.20
   1  -8  -4  737.13   29.00
   1  -8  -4  818.52   26.70
  -1  -8   4  753.32   28.80
  -1   8   4  715.83   24.50
   1   8  -4  795.82   28.60
  -1   8   4  740.73   27.10
   1   8  -4  744.33   26.00
   0  -8  -4  485.15   22.20
   0  -8   4  491.15   20.30
   0  -8  -4  516.75   23.30
   0  -8   4  499.95   22.70
   0   8   4  490.15   21.50
   0   8  -4  448.76   21.20
   0   8   4  455.95   18.00
   0   8  -4  458.85   20.00
  -1  -8  -4  158.48   15.10
  -1  -8  -4  164.18   15.50
   1  -8   4  131.69   13.60
   1   8   4  156.28   14.30
  -1   8  -4  138.59   13.30
  -1   8  -4  162.98   15.20
   2  -8   4  169.48   15.00
  -2  -8  -4  184.98   16.80
  -2  -8  -4  173.48   16.10
  -2   8  -4  163.38   14.10
   2   8   4  147.59   14.10
  -2   8  -4  146.09   15.50
  -3  -8  -4  115.19   15.20
   3  -8   4  119.09   13.30
  -3  -8  -4   89.19   12.40
   3   8   4  125.89   14.30
  -3   8  -4   91.19   13.70
  -3   8  -4  132.29   13.60
  -4  -8  -4  261.37   22.40
  -4   8  -4  226.98   19.10
  -4   8  -4  272.27   21.10
   4   8   4  270.87   20.40
  -5   8  -4   98.19   15.30
  -4  -9   4  163.98   19.50
   4  -9  -4  174.88   18.10
  -4  -9   4  160.88   17.70
  -4   9   4  134.49   15.20
   4   9  -4  131.49   16.80
  -4   9   4  164.08   18.30
  -3  -9   4   56.09   12.40
  -3  -9   4   48.40   12.00
   3  -9  -4   58.69   12.70
  -3   9   4   61.79   12.20
   3   9  -4   57.59   12.30
  -3   9   4   26.30    9.10
  -2  -9   4   35.50   10.70
   2  -9  -4   26.60   10.40
  -2  -9   4   11.20    9.10
  -2   9   4   21.70    9.70
  -2   9   4    9.30    7.50
   2   9  -4   16.90   10.10
  -1  -9   4  279.77   18.50
  -1  -9   4  311.67   20.20
   1  -9  -4  307.47   21.30
   1   9  -4  303.37   20.30
  -1   9   4  313.17   21.30
  -1   9   4  313.17   19.80
   1   9  -4  318.27   18.10
   0  -9   4  466.55   24.20
   0  -9  -4  413.26   22.30
   0  -9  -4  438.06   23.90
   0   9   4  479.25   23.30
   0   9  -4  418.66   22.70
   0   9  -4  442.56   20.70
  -1  -9  -4  137.69   15.80
   1  -9   4  132.09   15.10
  -1  -9  -4  141.29   15.90
  -1   9  -4  131.09   15.30
  -1   9  -4  131.79   13.30
   1   9   4  160.78   15.90
  -2  -9  -4   62.19   12.60
  -2  -9  -4  104.29   14.60
   2  -9   4   83.09   12.70
  -2   9  -4   83.09   12.40
   2   9   4   68.79   12.30
  -2   9  -4   75.89   12.90
   3  -9   4  259.87   19.70
  -3  -9  -4  287.67   23.70
  -3  -9  -4  288.17   21.30
  -3   9  -4  261.57   18.80
   3   9   4  251.07   20.00
  -3   9  -4  243.78   21.30
  -4   9  -4  222.28   19.80
   4   9   4  261.17   22.00
   3 -10  -4  277.67   23.30
  -3 -10   4  285.37   24.70
  -3 -10   4  292.57   23.80
  -3  10   4  292.27   19.90
  -3  10   4  278.47   22.80
   2 -10  -4   96.69   16.00
  -2 -10   4  113.09   16.10
  -2 -10   4   98.19   15.90
   2  10  -4  142.79   17.30
  -2  10   4  109.49   15.50
  -1 -10   4  119.29   14.70
  -1 -10   4   91.89   15.40
   1 -10  -4  115.19   16.80
  -1  10   4  115.69   15.60
   1  10  -4   93.79   15.10
   0 -10  -4  237.48   19.90
   0 -10   4  246.78   20.70
   0 -10  -4  203.28   20.00
   0  10   4  231.48   20.40
   0  10  -4  249.48   21.80
  -1 -10  -4  445.96   26.80
  -1 -10  -4  530.45   28.30
   1 -10   4  506.95   26.70
  -1  10  -4  492.85   26.70
   1  10   4  471.35   25.60
  -2 -10  -4   16.70   11.30
   2 -10   4    0.00    8.60
  -2 -10  -4   34.90   13.00
   2  10   4   -3.30    9.80
  -2  10  -4   18.90   11.80
   3 -10   4  297.67   21.90
  -3 -10  -4  285.17   26.30
   3  10   4  307.67   25.60
   0  11   4  114.09   26.30
  -8   0   5   84.59   20.80
  -7   0   5  223.98   19.50
  -7   0   5  164.08   16.80
  -6   0   5  614.64   25.80
  -6   0   5  648.14   25.60
  -5   0   5   15.90    7.00
  -5   0   5    0.30    5.90
  -5   0   5    0.30    4.70
  -4   0   5 2931.31   65.89
  -4   0   5 2934.11   63.49
  -4   0   5 2970.40   64.49
  -4   0   5 2833.32   65.59
  -3   0   5 1126.59   28.10
  -3   0   5 1118.09   27.50
  -3   0   5 1084.79   26.70
  -3   0   5 1122.89   28.00
  -3   0   5 1105.29   27.80
  -2   0   5 2211.88   48.40
  -2   0   5 2244.88   48.40
  -2   0   5 2178.38   46.90
  -1   0   5   50.19    4.80
   1   0  -5   59.59    4.60
  -1   0   5   54.89    4.40
   0   0   5   10.50    3.10
   0   0  -5   11.70    3.90
   0   0  -5   18.20    3.40
   0   0   5   16.10    3.50
  -1   0  -5 3545.95   71.69
   1   0   5 3496.55   73.39
   1   0   5 3610.24   72.29
  -1   0  -5 3519.85   73.19
  -1   0  -5 3514.55   73.19
   2   0   5   -8.30    3.00
  -2   0  -5   -0.50    3.50
  -2   0  -5   -3.30    3.90
  -2   0  -5    2.30    3.50
   2   0   5    2.10    2.10
  -3   0  -5 2843.32   64.59
  -3   0  -5 2852.01   61.79
   3   0   5 2924.41   64.19
  -3   0  -5 2893.51   63.69
  -4   0  -5    8.70    4.90
  -4   0  -5    5.60    6.00
   4   0   5   10.30    5.90
  -4   0  -5   -4.20    5.50
   5   0   5 2832.52   67.09
  -5   0  -5 2787.52   68.39
  -5   0  -5 2742.13   67.09
  -6   0  -5  116.79   14.60
   6   0   5  156.58   15.00
  -6   0  -5  129.09   14.60
  -7   0  -5  166.88   18.70
  -7   0  -5  160.38   17.90
   7   0   5  139.69   16.10
  -8   1   5   78.09   15.50
  -7  -1   5   93.89   15.00
  -7  -1   5  103.59   14.30
  -7   1   5  113.79   15.10
  -7   1   5  110.89   15.00
  -6  -1   5   73.09   12.00
  -6  -1   5   80.19   10.70
  -6  -1   5   77.29   11.60
  -6   1   5   93.79   12.50
  -6   1   5   98.49   12.40
  -5  -1   5  769.72   25.90
  -5  -1   5  732.73   24.20
  -5  -1   5  741.23   25.40
  -5   1   5  832.52   23.40
  -5   1   5  714.43   25.50
  -5   1   5  811.82   26.20
  -4  -1   5  106.99    9.40
  -4  -1   5  117.99    7.80
  -4  -1   5   98.19    9.00
  -4   1   5  123.49    8.60
  -4   1   5  113.09    9.90
  -4   1   5  109.49    7.80
  -4   1   5  105.89    9.40
  -3  -1   5 1666.93   39.80
  -3  -1   5 1692.93   37.10
  -3  -1   5 1655.13   38.60
  -3  -1   5 1679.73   39.70
  -3   1   5 1643.24   38.90
  -3   1   5 1654.83   38.30
  -3   1   5 1664.23   38.60
  -3   1   5 1686.23   38.10
  -2  -1   5 1066.29   26.80
  -2  -1   5 1057.59   26.10
  -2  -1   5 1068.89   23.70
  -2   1   5 1008.30   24.90
  -2   1   5 1029.70   23.80
  -2   1   5 1039.30   24.30
  -1  -1   5  534.85   12.90
  -1  -1   5  528.25   15.60
  -1  -1   5  549.15   15.40
  -1   1   5  557.04   13.30
  -1   1   5  550.84   15.10
   1   1  -5  582.54   15.50
   1   1  -5  585.84   14.10
   0  -1   5 1600.04   35.20
   0  -1   5 1564.94   34.00
   0  -1  -5 1585.64   32.80
   0   1  -5 1589.64   34.30
   0   1   5 1663.43   36.20
   0   1  -5 1664.83   36.30
   0   1   5 1676.03   33.20
   1  -1   5 3755.02   77.59
   1  -1   5 3831.52   76.89
  -1  -1  -5 3706.63   78.29
  -1  -1  -5 3703.63   76.69
   1   1   5 3683.93   75.99
  -1   1  -5 3656.03   74.59
  -1   1  -5 3616.64   76.09
  -2  -1  -5 2931.11   62.99
   2  -1   5 2896.81   60.09
   2  -1   5 2983.80   63.49
  -2  -1  -5 2888.31   63.09
   2   1   5 2976.20   63.79
  -2   1  -5 2937.91   64.29
  -2   1  -5 2986.80   63.09
  -2   1  -5 2925.11   61.39
  -3  -1  -5   11.60    5.10
   3  -1   5   14.10    4.80
  -3  -1  -5   12.00    5.50
  -3  -1  -5   12.80    4.90
   3   1   5    8.80    4.80
  -3   1  -5   11.70    5.10
  -3   1  -5   11.70    3.60
  -3   1  -5   17.70    5.10
  -4  -1  -5 1274.37   36.60
  -4  -1  -5 1362.86   34.90
   4  -1   5 1358.56   36.40
  -4  -1  -5 1359.16   36.20
  -4   1  -5 1318.27   36.70
   4   1   5 1352.26   35.60
  -4   1  -5 1318.57   35.90
   5  -1   5   34.80    8.70
  -5  -1  -5   22.10    9.10
  -5  -1  -5   17.50    8.60
  -5   1  -5   40.30    9.10
  -5   1  -5   65.29   10.90
   5   1   5   43.70    9.10
   6  -1   5   69.69   11.70
  -6  -1  -5   91.19   13.10
  -6  -1  -5   71.89   12.90
  -6   1  -5   65.19   12.50
  -6   1  -5   64.99   11.80
   6   1   5   63.59   11.40
  -7  -1  -5  137.09   18.00
  -7  -1  -5  112.29   16.10
   7  -1   5   98.79   14.80
   7   1   5  128.09   15.90
  -7   1  -5  161.78   18.50
  -7   1  -5  136.99   16.50
  -8   2   5  358.36   25.00
  -7  -2   5  219.98   20.40
  -7  -2   5  228.68   19.90
  -7   2   5  254.87   19.50
  -7   2   5  252.77   19.50
  -6  -2   5  334.37   19.00
  -6  -2   5  347.17   20.50
  -6  -2   5  358.16   19.50
  -6   2   5  382.46   20.40
  -6   2   5  406.56   20.20
  -5  -2   5  699.33   25.00
  -5  -2   5  679.53   24.50
  -5   2   5  665.43   23.30
  -5   2   5  677.93   24.10
  -4  -2   5   30.30    6.60
  -4  -2   5   31.10    6.90
  -4  -2   5   39.00    5.50
  -4   2   5   34.10    5.80
  -4   2   5   44.60    5.80
  -4   2   5   43.10    7.00
  -3  -2   5  833.02   19.40
  -3  -2   5  802.22   24.00
  -3  -2   5  810.22   22.30
  -3   2   5  812.32   22.50
  -3   2   5  798.32   22.40
  -3   2   5  784.02   21.00
  -2  -2   5 1883.11   43.70
  -2  -2   5 1878.41   42.80
  -2   2   5 1990.40   41.50
  -2   2   5 1914.41   43.80
   2   2  -5 1954.10   43.50
  -2   2   5 1939.41   43.00
  -1  -2   5 1849.81   41.30
  -1  -2   5 1855.51   41.40
   1  -2  -5 1771.62   40.60
  -1   2   5 1796.72   39.20
   1   2  -5 1882.41   41.40
  -1   2   5 1856.71   40.90
   1   2  -5 1857.51   40.10
   0  -2  -5 1522.25   34.70
   0  -2   5 1534.15   32.60
   0  -2   5 1504.75   34.60
   0  -2  -5 1518.85   35.10
   0  -2   5 1487.35   34.10
   0   2   5 1500.25   34.10
   0   2   5 1519.15   32.10
   0   2  -5 1512.15   33.20
   0   2  -5 1486.25   34.40
   1  -2   5  429.96   13.10
  -1  -2  -5  433.06   13.20
  -1  -2  -5  423.56   14.70
  -1  -2  -5  432.36   12.20
   1  -2   5  440.66   13.20
   1   2   5  451.85   14.00
  -1   2  -5  447.26   13.50
  -1   2  -5  436.96   14.60
   1   2   5  475.35   12.80
  -2  -2  -5 5337.27  109.89
   2  -2   5 5312.37  108.59
  -2  -2  -5 5342.97  111.69
   2  -2   5 5362.86  110.89
  -2   2  -5 5171.78  106.79
  -2   2  -5 5242.68  108.09
   2   2   5 5063.09  106.59
  -3  -2  -5 2518.25   57.69
   3  -2   5 2508.55   57.59
  -3  -2  -5 2477.55   57.29
   3  -2   5 2540.45   53.09
  -3   2  -5 2549.15   58.29
  -3   2  -5 2568.74   59.39
   3   2   5 2570.44   57.89
   4  -2   5  289.57   14.90
  -4  -2  -5  259.17   14.40
  -4  -2  -5  253.97   15.10
  -4   2  -5  296.17   15.30
   4   2   5  254.67   14.10
  -4   2  -5  266.07   14.90
  -5  -2  -5  790.02   28.60
  -5  -2  -5  796.52   28.30
   5  -2   5  810.12   28.00
  -5  -2  -5  768.12   26.80
  -5   2  -5  776.82   28.30
  -5   2  -5  843.42   29.60
   5   2   5  800.82   27.40
  -6  -2  -5   -0.30    8.90
   6  -2   5   -0.40    8.20
  -6  -2  -5   -3.00    8.90
   6   2   5    3.90    8.30
  -6   2  -5   18.00   10.70
  -6   2  -5   -6.80    8.80
  -7  -2  -5  402.26   25.70
  -7  -2  -5  375.76   24.90
  -7   2  -5  396.66   26.00
   7   2   5  368.76   23.50
  -7   2  -5  383.76   25.20
  -7  -3   5  288.37   22.30
  -7  -3   5  293.07   21.10
  -7   3   5  335.97   22.30
  -7   3   5  341.77   21.50
  -6  -3   5  281.67   19.40
  -6  -3   5  273.77   19.40
  -6   3   5  251.67   18.30
  -6   3   5  302.37   17.40
  -5  -3   5  420.76   20.60
  -5  -3   5  451.55   20.60
  -5   3   5  458.15   19.90
  -5   3   5  419.36   18.00
  -4  -3   5 2190.78   53.49
  -4  -3   5 2178.98   53.99
  -4  -3   5 2204.78   51.09
  -4   3   5 2185.28   52.79
  -4   3   5 2160.28   50.89
  -4   3   5 2214.48   52.79
  -4   3   5 2209.98   53.79
  -3  -3   5  293.17   14.00
  -3  -3   5  274.07   12.30
  -3   3   5  280.77   12.40
   3   3  -5  288.27   12.80
  -3   3   5  264.27   10.10
  -3   3   5  284.67   12.50
  -2  -3   5 5207.38  106.19
  -2  -3   5 5206.28  105.39
   2  -3  -5 5132.99  103.49
   2  -3  -5 4527.95  104.59
  -2   3   5 5182.98  106.19
  -2   3   5 5150.48  106.99
  -2   3   5 5075.89  103.39
   2   3  -5 5143.99  106.69
   1  -3  -5 4121.59   88.29
   1  -3  -5 4126.39   87.39
  -1  -3   5 4220.58   88.19
  -1  -3   5 4259.37   88.49
  -1   3   5 4069.69   85.19
  -1   3   5 4053.09   83.99
   1   3  -5 4097.49   85.89
   1   3  -5 4064.49   84.89
   0  -3   5 1528.45   32.50
   0  -3   5 1474.65   35.50
   0  -3   5 1483.65   34.50
   0  -3  -5 1456.75   35.60
   0  -3  -5 1507.15   35.80
   0   3  -5 1492.95   35.00
   0   3   5 1449.15   32.80
   0   3   5 1482.45   34.00
   0   3  -5 1433.66   33.80
   1  -3   5  858.21   21.30
   1  -3   5  900.51   23.50
   1  -3   5  898.91   22.40
  -1  -3  -5  873.71   24.70
  -1  -3  -5  859.51   23.30
  -1  -3  -5  881.81   20.90
  -1   3  -5  918.61   24.30
   1   3   5  862.31   22.00
   1   3   5  882.71   22.90
  -1   3  -5  863.51   23.10
   2  -3   5 2101.79   46.40
  -2  -3  -5 2031.30   49.00
  -2  -3  -5 2050.09   46.30
  -2  -3  -5 2008.40   46.00
   2  -3   5 2130.79   47.60
  -2   3  -5 2012.70   46.50
  -2   3  -5 1953.00   47.20
   2   3   5 2047.80   45.70
   2   3   5 2026.20   45.90
  -3  -3  -5    7.60    3.80
   3  -3   5    1.10    4.40
   3  -3   5    2.30    3.40
  -3  -3  -5    5.90    5.50
  -3  -3  -5    5.70    5.20
   3   3   5    3.60    4.60
  -3   3  -5    3.40    5.30
  -3   3  -5    6.60    5.10
   4  -3   5  467.65   19.20
  -4  -3  -5  460.95   19.80
  -4  -3  -5  489.75   20.20
  -4   3  -5  491.15   20.80
   4   3   5  507.65   19.20
  -4   3  -5  503.25   20.30
  -5  -3  -5  909.31   32.10
   5  -3   5  957.50   31.50
  -5  -3  -5  970.50   31.60
   5   3   5  944.61   30.50
  -5   3  -5  997.80   33.30
  -5   3  -5  966.50   32.40
  -6  -3  -5  841.42   33.10
  -6  -3  -5  840.12   32.60
  -6   3  -5  879.91   34.60
   6   3   5  902.41   31.60
  -6   3  -5  914.91   33.80
  -7  -3  -5  142.99   17.70
  -7  -3  -5  129.79   17.80
  -7   3  -5  175.08   19.10
  -7  -4   5   44.50   14.00
  -7  -4   5   79.99   15.30
  -7   4   5   59.79   12.10
  -7   4   5   46.50   12.40
  -7   4   5   67.09   12.90
  -6  -4   5  341.87   22.60
  -6  -4   5  350.76   21.60
  -6   4   5  326.97   19.90
  -6   4   5  301.87   17.60
  -6   4   5  321.47   19.70
  -5  -4   5  132.89   13.80
  -5  -4   5  149.39   14.50
  -5   4   5  149.69   11.50
  -5   4   5  149.59   13.50
  -5   4   5  142.09   13.50
  -4  -4   5 1006.80   29.00
  -4  -4   5 1012.80   31.90
  -4   4   5  994.20   29.60
  -4   4   5 1003.50   29.40
  -4   4   5  907.41   26.20
  -3  -4   5  903.91   25.90
  -3  -4   5  852.71   27.20
   3  -4  -5  857.51   25.70
   3   4  -5  842.72   25.10
  -3   4   5  827.82   21.70
  -3   4   5  776.32   24.30
  -3   4   5  862.31   24.70
   2  -4  -5 1321.87   34.10
   2  -4  -5 1307.17   31.70
  -2  -4   5 1301.57   34.70
  -2  -4   5 1312.27   34.00
  -2   4   5 1298.17   32.60
  -2   4   5 1290.97   29.10
   2   4  -5 1315.37   33.20
   1  -4  -5  498.15   17.50
  -1  -4   5  521.05   17.40
  -1  -4   5  484.25   16.90
   1  -4  -5  473.95   16.20
  -1   4   5  467.55   15.20
  -1   4   5  485.85   15.70
   1   4  -5  505.35   16.40
   1   4  -5  467.25   16.20
   0  -4   5 1258.57   31.80
   0  -4  -5 1330.17   33.30
   0  -4  -5 1311.67   33.40
   0  -4   5 1329.47   33.50
   0   4  -5 1273.07   32.40
   0   4   5 1281.77   30.80
   0   4   5 1217.88   31.00
   0   4  -5 1356.16   32.20
   1  -4   5 3546.45   74.99
   1  -4   5 3574.14   75.59
  -1  -4  -5 3619.54   73.99
  -1  -4  -5 3602.64   77.89
   1  -4   5 3658.93   78.09
  -1  -4  -5 3532.35   78.99
   1   4   5 3637.74   75.69
   1   4   5 3348.06   75.19
  -1   4  -5 3578.14   76.59
  -1   4  -5 3592.74   77.29
  -2  -4  -5  860.21   26.80
   2  -4   5  877.01   24.60
   2  -4   5  889.61   24.70
  -2  -4  -5  906.71   23.70
  -2  -4  -5  889.81   24.80
   2   4   5  868.41   23.80
   2   4   5  833.92   23.20
  -2   4  -5  832.02   24.60
  -2   4  -5  830.52   25.20
  -3  -4  -5 1214.38   32.30
   3  -4   5 1243.98   31.00
  -3  -4  -5 1187.68   30.40
   3  -4   5 1160.08   32.50
  -3  -4  -5 1169.08   34.50
   3   4   5 1209.88   31.20
  -3   4  -5 1149.08   32.80
  -3   4  -5 1170.58   33.40
  -4  -4  -5  142.79   13.60
  -4  -4  -5  162.98   13.40
   4  -4   5  132.99   12.40
   4   4   5  143.59   12.10
  -4   4  -5  130.59   13.10
  -4   4  -5  134.89   13.20
  -5  -4  -5  107.29   13.30
  -5  -4  -5   63.99   11.30
  -5   4  -5   79.79   11.90
   5   4   5   74.39   10.60
  -5   4  -5   91.19   13.10
  -6  -4  -5  325.47   22.80
  -6  -4  -5  329.67   21.80
  -6   4  -5  313.97   22.70
  -6   4  -5  319.47   21.60
  -7  -4  -5   61.19   16.60
  -7  -4  -5   96.59   17.70
  -7  -5   5  664.23   33.40
  -7  -5   5  581.24   39.30
  -7   5   5  595.44   31.40
  -7   5   5  628.04   29.70
  -6  -5   5   25.30   11.30
  -6  -5   5   21.70   11.00
  -6   5   5   43.50   10.80
  -6   5   5   38.30   10.40
  -5  -5   5  534.75   24.60
  -5  -5   5  575.84   26.40
  -5   5   5  489.45   22.10
  -5   5   5  485.15   22.30
  -4  -5   5  404.56   20.60
  -4  -5   5  398.16   18.10
  -4   5   5  378.66   18.70
   4   5  -5  384.16   18.60
  -4   5   5  346.47   17.50
  -4   5   5  353.86   17.30
  -3  -5   5 1476.65   38.70
   3  -5  -5 1342.77   41.10
   3  -5  -5 1445.46   38.70
  -3  -5   5 1452.05   40.30
  -3   5   5 1418.86   34.20
   3   5  -5 1426.26   38.30
  -3   5   5 1427.46   37.80
  -3   5   5 1410.16   37.80
   2  -5  -5  104.59    8.10
  -2  -5   5  100.89    9.60
   2  -5  -5  121.49   11.10
  -2  -5   5  107.59   10.20
  -2   5   5  104.79    9.40
   2   5  -5   90.49    9.30
  -2   5   5   97.79    5.90
  -2   5   5  109.59    9.60
  -1  -5   5  218.48   11.90
  -1  -5   5  197.98   11.50
   1  -5  -5  197.78   12.10
   1  -5  -5  194.68   10.80
  -1   5   5  182.48    6.40
   1   5  -5  187.68   11.20
  -1   5   5  185.48   10.30
  -1   5   5  198.08   10.30
   1   5  -5  181.78   10.70
   0  -5  -5  496.55   18.40
   0  -5   5  534.35   17.50
   0  -5   5  496.45   18.60
   0  -5  -5  538.05   19.20
   0   5   5  547.35   17.40
   0   5   5  535.15   17.00
   0   5  -5  509.65   18.10
   0   5  -5  515.45   18.20
   1  -5   5 1116.09   28.50
   1  -5   5 1132.49   31.30
  -1  -5  -5 1164.28   27.10
  -1  -5  -5 1154.98   32.60
  -1  -5  -5 1160.68   31.90
  -1   5  -5 1064.29   29.40
   1   5   5 1077.19   27.80
  -1   5  -5 1044.40   29.70
   1   5   5 1071.09   28.50
   2  -5   5 1267.27   33.90
  -2  -5  -5 1260.17   35.90
  -2  -5  -5 1267.57   31.50
  -2  -5  -5 1239.18   33.80
   2   5   5 1216.38   31.60
  -2   5  -5 1261.07   34.10
  -2   5  -5 1235.48   34.20
   2   5   5 1226.08   32.80
  -3  -5  -5 1810.02   48.50
   3  -5   5 1808.22   44.70
  -3  -5  -5 1781.02   44.40
  -3  -5  -5 1855.01   44.90
   3   5   5 1851.81   44.60
  -3   5  -5 1881.81   48.30
   3   5   5 1819.72   46.60
  -3   5  -5 1832.72   47.60
  -4  -5  -5  436.16   22.00
  -4  -5  -5  453.15   19.90
  -4   5  -5  485.75   22.20
   4   5   5  472.35   19.00
  -4   5  -5  454.95   21.20
  -5  -5  -5   21.70   10.10
  -5  -5  -5   11.70    9.30
  -5   5  -5   11.50    8.80
  -5   5  -5   15.00    9.20
  -6  -5  -5   56.49   13.70
  -6  -5  -5   69.39   13.90
  -6   5  -5   73.39   14.40
  -6   5  -5   87.69   13.90
  -6  -6   5  151.28   18.30
  -6  -6   5  148.89   17.20
  -6   6   5  180.88   17.70
  -6   6   5  156.78   16.60
  -5  -6   5  178.98   16.90
  -5  -6   5  151.68   17.00
  -5   6   5  161.28   16.30
  -5   6   5  159.88   15.70
  -4  -6   5  719.43   29.00
   4  -6  -5  697.83   25.80
  -4  -6   5  707.63   25.80
  -4   6   5  732.03   26.80
   4   6  -5  681.33   26.30
  -4   6   5  701.23   25.80
  -3  -6   5 3114.29   73.99
   3  -6  -5 3179.28   74.29
  -3   6   5 3089.39   71.49
   3   6  -5 2983.60   71.49
  -3   6   5 3023.30   70.79
   2  -6  -5  117.39    9.30
  -2  -6   5  115.69   11.20
  -2  -6   5   99.49   11.00
   2  -6  -5  123.99   11.90
   2   6  -5  121.89   11.90
  -2   6   5  120.19   10.60
  -2   6   5   94.59    9.60
   1  -6  -5  345.87   15.10
  -1  -6   5  312.47   15.20
  -1  -6   5  349.87   16.20
   1  -6  -5  339.67   16.60
  -1   6   5  306.57   14.40
   1   6  -5  310.97   14.40
   1   6  -5  344.57   15.80
  -1   6   5  333.07   14.10
   0  -6  -5  963.10   29.90
   0  -6   5  961.50   27.30
   0  -6  -5  948.41   28.90
   0  -6   5  945.31   29.10
   0   6  -5  934.31   28.00
   0   6   5  906.71   25.70
   0   6   5  922.71   26.90
   0   6  -5  912.11   27.50
   1  -6   5 2568.54   62.09
   1  -6   5 2651.43   58.49
  -1  -6  -5 2608.84   62.29
  -1  -6  -5 2588.14   62.99
   1   6   5 2536.05   58.99
   1   6   5 2536.15   57.29
  -1   6  -5 2539.35   60.19
  -1   6  -5 2489.45   59.89
  -2  -6  -5  485.45   19.90
   2  -6   5  462.75   19.10
  -2  -6  -5  452.95   20.90
   2   6   5  472.45   18.60
  -2   6  -5  436.66   19.30
  -2   6  -5  470.95   19.60
   2   6   5  448.66   16.80
  -3  -6  -5  102.39   12.70
  -3  -6  -5   90.19   10.20
   3  -6   5  102.49   10.60
  -3   6  -5  102.49   12.10
   3   6   5   94.39   10.50
  -3   6  -5   93.59   12.30
   3   6   5  121.09   11.90
  -4  -6  -5    2.30    8.10
  -4  -6  -5   10.50    8.90
  -4   6  -5   -3.30    7.90
  -4   6  -5    9.70    8.80
  -5  -6  -5  189.88   19.30
  -5  -6  -5  202.88   18.70
  -5   6  -5  240.38   19.70
  -5   6  -5  165.68   16.90
  -6  -6  -5   72.99   15.10
  -6   6  -5   69.89   14.90
  -6   6  -5   30.50   12.50
  -6  -7   5   49.70   13.40
  -6  -7   5   35.00   13.60
  -6   7   5   37.60   12.10
  -5  -7   5  434.66   26.80
  -5  -7   5  427.16   24.50
  -5   7   5  445.06   24.40
  -5   7   5  467.55   23.40
  -4  -7   5  256.77   17.20
  -4  -7   5  212.78   18.80
   4  -7  -5  207.08   16.60
   4   7  -5  203.78   17.40
  -4   7   5  192.88   15.30
  -4   7   5  219.28   17.60
   3  -7  -5  278.67   18.00
  -3  -7   5  288.67   17.70
  -3  -7   5  260.87   18.50
  -3   7   5  270.77   17.20
  -3   7   5  254.27   15.20
   3   7  -5  256.47   17.10
  -2  -7   5   62.19    9.90
   2  -7  -5   80.09   10.80
  -2  -7   5   61.49   10.30
   2  -7  -5   84.49   11.40
   2   7  -5   77.49   10.70
  -2   7   5   71.89    9.90
  -2   7   5   58.29    8.60
   1  -7  -5   60.79    8.70
   1  -7  -5   48.30    9.50
  -1  -7   5   51.69    8.60
  -1  -7   5   62.39    9.50
  -1   7   5   49.40    8.60
   1   7  -5   53.09    9.30
   1   7  -5   50.99    8.30
  -1   7   5   56.89    7.80
   0  -7  -5 1183.28   35.60
   0  -7  -5 1237.78   37.30
   0  -7   5 1234.98   36.70
   0  -7   5 1243.08   34.10
   0   7   5 1205.68   32.40
   0   7  -5 1171.58   34.20
   0   7  -5 1206.98   35.40
   0   7   5 1214.18   34.30
  -1  -7  -5  222.78   15.20
   1  -7   5  233.68   14.90
  -1  -7  -5  207.18   15.70
   1   7   5  221.38   14.00
  -1   7  -5  239.98   15.10
   1   7   5  239.18   12.80
  -1   7  -5  232.68   14.50
   2  -7   5 1368.76   39.50
  -2  -7  -5 1358.36   41.30
  -2  -7  -5 1318.67   39.20
   2   7   5 1335.57   38.10
  -2   7  -5 1337.67   39.30
  -2   7  -5 1352.16   38.90
   3  -7   5  525.05   22.30
  -3  -7  -5  544.45   25.90
  -3  -7  -5  514.15   22.50
  -3   7  -5  495.05   23.00
  -3   7  -5  562.04   24.60
   3   7   5  526.25   22.70
  -4  -7  -5  392.86   24.40
  -4   7  -5  385.26   22.80
  -4   7  -5  363.76   21.80
  -5  -7  -5   32.90   12.10
  -5   7  -5   29.70   11.60
  -5   7  -5   41.60   12.50
  -5  -8   5  155.58   17.90
  -5  -8   5  133.69   18.90
  -5   8   5  160.98   18.00
   5   8  -5  153.38   18.10
  -5   8   5  174.88   18.90
  -4  -8   5   24.90   10.20
   4  -8  -5    6.90    9.00
  -4  -8   5   29.60   12.00
   4   8  -5   38.30   10.90
  -4   8   5    5.80    7.50
  -4   8   5   24.80    9.90
   3  -8  -5  162.58   16.10
  -3  -8   5  152.18   16.20
  -3  -8   5  168.48   16.40
  -3   8   5  183.28   16.20
   3   8  -5  144.69   15.40
  -3   8   5  159.38   15.10
   2  -8  -5  957.40   34.10
  -2  -8   5  956.90   33.70
  -2  -8   5  976.90   33.40
  -2   8   5  941.31   30.10
  -2   8   5  945.01   31.90
   2   8  -5  923.61   32.40
   1  -8  -5  701.03   26.10
  -1  -8   5  784.22   29.30
  -1  -8   5  779.22   27.70
   1  -8  -5  776.22   29.50
  -1   8   5  713.63   26.40
  -1   8   5  728.23   24.40
   1   8  -5  695.63   27.20
   1   8  -5  703.03   25.80
   0  -8   5   13.80    7.60
   0  -8   5   24.10    7.40
   0  -8  -5   28.00    9.20
   0  -8  -5   18.90    9.10
   0   8   5   25.40    8.60
   0   8  -5   21.30    8.80
   0   8  -5   18.30    7.40
   0   8   5   21.30    6.50
   1  -8   5  232.28   16.50
  -1  -8  -5  269.47   18.50
  -1  -8  -5  241.98   18.20
   1   8   5  234.88   16.30
  -1   8  -5  239.68   16.20
  -1   8  -5  247.68   17.80
   2  -8   5  358.36   19.90
  -2  -8  -5  383.96   22.70
  -2  -8  -5  333.47   20.40
   2   8   5  333.87   18.80
  -2   8  -5  313.07   19.80
  -2   8  -5  333.07   18.70
  -3  -8  -5  413.66   24.80
   3  -8   5  386.86   20.50
  -3  -8  -5  404.86   21.70
  -3   8  -5  457.25   23.70
  -3   8  -5  406.76   21.90
   3   8   5  369.76   21.10
  -4  -8  -5  307.17   23.90
  -4   8  -5  387.06   24.20
  -4   8  -5  353.96   22.60
   4   8   5  343.77   22.00
  -5   8  -5  125.69   17.60
  -4  -9   5   -0.40    9.60
   4  -9  -5   11.10    9.70
  -4  -9   5    1.50   11.60
  -4   9   5   27.90   11.10
  -4   9   5    5.50    8.50
   4   9  -5   19.00   11.60
  -3  -9   5   83.29   14.30
   3  -9  -5   91.29   14.60
  -3  -9   5  106.19   15.00
  -3   9   5  105.19   14.30
   3   9  -5   93.19   14.80
  -3   9   5   86.79   12.40
   2  -9  -5   19.50   10.50
  -2  -9   5   -1.00    8.70
  -2  -9   5   12.80    9.60
   2   9  -5   29.40   10.60
  -2   9   5   13.70    7.70
  -2   9   5   15.70    9.80
  -1  -9   5  142.89   14.90
   1  -9  -5  146.39   16.80
  -1  -9   5  163.78   17.00
   1   9  -5  164.98   14.80
  -1   9   5  145.29   13.40
  -1   9   5  134.99   14.70
   1   9  -5  143.49   15.60
   0  -9  -5   98.69   14.70
   0  -9   5   93.49   13.50
   0  -9  -5   73.39   12.00
   0   9  -5   93.39   13.90
   0   9   5   96.49   13.00
   0   9  -5   90.29   12.20
   1  -9   5   87.19   13.00
  -1  -9  -5  105.59   15.10
  -1  -9  -5   66.99   12.60
  -1   9  -5   75.29   13.00
   1   9   5   91.99   12.60
  -1   9  -5   75.09   11.50
  -2  -9  -5   85.69   14.00
  -2  -9  -5  119.99   16.10
   2  -9   5   89.79   13.40
   2   9   5   92.79   13.80
  -2   9  -5   78.69   12.10
  -2   9  -5  105.29   15.00
  -3  -9  -5  414.76   26.80
   3  -9   5  352.06   21.60
  -3   9  -5  365.26   23.50
  -3   9  -5  391.66   22.80
   3   9   5  376.56   22.40
  -4   9  -5   78.09   14.70
   4   9   5  109.79   15.40
   3 -10  -5  173.18   19.30
  -3 -10   5  160.78   19.40
  -3 -10   5  175.08   19.60
  -3  10   5  147.59   16.40
  -3  10   5  140.49   17.50
  -2 -10   5    1.50    9.60
   2 -10  -5    4.30   10.80
  -2 -10   5    2.40    9.80
  -2  10   5   18.10   11.00
   2  10  -5   -1.10   10.40
  -1 -10   5  190.08   25.70
  -1 -10   5  200.58   20.50
   1 -10  -5  187.48   19.50
   1  10  -5  186.58   19.00
   1  10  -5  154.48   15.60
  -1  10   5  137.69   16.80
   0 -10  -5  258.87   22.70
   0 -10  -5  235.68   20.00
   0 -10   5  264.57   22.50
   0  10  -5  230.78   18.30
   0  10   5  249.68   20.60
   0  10  -5  222.38   20.20
  -1 -10  -5  483.05   27.60
  -1 -10  -5  449.95   26.40
   1 -10   5  409.46   24.80
   1  10   5  429.06   23.90
  -1  10  -5  372.86   24.50
  -1  10  -5  425.96   23.00
  -2 -10  -5   30.10   12.70
   2 -10   5    3.20    9.60
  -2 -10  -5   32.30   12.80
   2  10   5   18.80   10.40
  -2  10  -5   19.50   12.10
  -2  10  -5    3.70   11.50
   3 -10   5  167.18   18.30
   3  10   5  178.28   23.50
  -8   0   6  158.88   20.40
  -7   0   6   28.50   10.90
  -7   0   6   42.70   11.20
  -6   0   6  857.61   30.30
  -6   0   6  856.21   30.50
  -5   0   6    7.40    5.00
  -5   0   6   -0.70    4.30
  -5   0   6   -0.80    5.90
  -5   0   6   -6.80    5.30
  -4   0   6   56.49    6.90
  -4   0   6   69.59    7.80
  -4   0   6   61.49    6.60
  -4   0   6   66.99    7.80
  -4   0   6   65.39    6.60
  -3   0   6  988.00   25.30
  -3   0   6  992.80   25.60
  -3   0   6  981.20   25.30
  -3   0   6  979.30   24.40
  -3   0   6  962.60   25.80
  -2   0   6 8608.14  173.78
  -2   0   6 8810.82  175.78
   1   0  -6  822.12   19.40
  -1   0   6  810.02   21.10
  -1   0   6  804.32   19.60
   0   0   6   64.49    5.60
   0   0  -6   73.79    5.60
   0   0   6   74.59    5.80
  -1   0  -6 7929.01  156.28
   1   0   6 7822.82  158.58
  -1   0  -6 7850.61  158.58
  -1   0  -6 7898.61  158.18
  -2   0  -6  852.91   21.60
   2   0   6  855.11   19.70
   2   0   6  826.62   22.80
  -2   0  -6  803.52   22.70
  -2   0  -6  837.12   21.90
  -3   0  -6 2088.09   47.40
  -3   0  -6 1990.70   45.80
  -3   0  -6 2010.50   48.40
   3   0   6 2014.40   48.00
  -4   0  -6 6663.43  136.69
   4   0   6 6664.63  140.19
  -4   0  -6 6650.73  140.89
  -4   0  -6 6529.55  139.39
  -5   0  -6  551.34   22.60
  -5   0  -6  529.25   23.80
   5   0   6  538.25   22.50
  -6   0  -6  393.86   23.10
   6   0   6  349.77   20.30
  -6   0  -6  321.27   20.80
  -7   0  -6    7.90   11.10
   7   0   6    0.90    9.60
  -7   0  -6   11.20   10.90
  -8   1   6   16.40   11.20
  -7  -1   6  657.73   29.80
  -7  -1   6  645.14   28.90
  -7   1   6  651.03   28.20
  -7   1   6  659.83   29.00
  -6  -1   6  628.24   24.10
  -6  -1   6  616.14   25.90
  -6  -1   6  621.04   25.70
  -6   1   6  596.64   25.10
  -6   1   6  691.53   26.10
  -5  -1   6 1450.45   36.00
  -5  -1   6 1452.85   38.40
  -5  -1   6 1399.56   39.20
  -5  -1   6 1394.86   39.00
  -5   1   6 1537.25   37.30
  -5   1   6 1459.85   36.80
  -5   1   6 1406.76   39.40
  -5   1   6 1438.56   39.40
  -4  -1   6  575.44   18.10
  -4  -1   6  602.74   17.50
  -4  -1   6  568.24   19.70
  -4  -1   6  570.24   19.90
  -4   1   6  567.94   18.70
  -4   1   6  580.84   19.60
  -4   1   6  609.04   18.70
  -4   1   6  578.54   18.50
  -4   1   6  557.94   18.50
  -3  -1   6  767.92   22.70
  -3  -1   6  768.72   19.60
  -3  -1   6  786.22   21.70
  -3   1   6  765.62   21.30
  -3   1   6  767.02   21.50
  -3   1   6  770.72   21.40
  -3   1   6  794.82   20.80
  -3   1   6  770.52   21.30
  -2  -1   6  400.66   14.20
  -2  -1   6  386.16   13.50
  -2  -1   6  408.56   11.20
  -2   1   6  397.56   13.00
  -2   1   6  400.36   11.70
  -2   1   6  419.66   12.10
  -1  -1   6 3804.72   80.69
  -1  -1   6 3844.42   78.09
  -1  -1   6 3916.11   80.79
   1   1  -6 4013.90   80.09
   1   1  -6 3972.30   81.99
  -1   1   6 3936.91   79.29
  -1   1   6 3952.20   81.89
   0  -1   6 5499.45  109.79
   0  -1  -6 5272.87  111.29
   0  -1   6 5547.54  111.09
   0  -1  -6 5429.46  108.29
   0   1   6 5485.05  110.09
   0   1  -6 5321.27  107.59
   0   1  -6 5422.56  110.09
   1  -1   6  475.55   13.60
  -1  -1  -6  456.65   13.40
   1  -1   6  489.05   14.40
  -1  -1  -6  473.35   15.20
   1   1   6  466.65   14.50
  -1   1  -6  463.25   12.80
  -1   1  -6  468.85   14.70
  -2  -1  -6 1065.39   27.70
  -2  -1  -6 1086.49   26.40
  -2  -1  -6 1074.79   27.30
   2  -1   6 1109.49   28.00
   2  -1   6 1079.79   24.90
  -2   1  -6 1101.39   27.00
   2   1   6 1095.99   28.00
   2   1   6 1110.89   25.20
  -2   1  -6 1076.29   26.00
  -2   1  -6 1084.19   28.50
   3  -1   6 1088.39   29.70
  -3  -1  -6 1096.49   29.00
  -3  -1  -6 1091.19   28.70
  -3  -1  -6 1078.39   29.60
  -3   1  -6 1071.49   29.00
  -3   1  -6 1091.79   30.40
  -3   1  -6 1097.69   26.50
   3   1   6 1136.89   29.80
  -4  -1  -6 4217.88   91.89
  -4  -1  -6 4256.07   94.29
  -4  -1  -6 4193.68   93.19
   4  -1   6 4343.07   94.19
   4   1   6 4266.07   93.79
  -4   1  -6 4252.87   93.59
  -4   1  -6 4283.57   95.09
  -5  -1  -6 1114.69   36.00
   5  -1   6 1176.68   35.50
  -5  -1  -6 1166.38   35.40
   5   1   6 1184.38   35.40
  -5   1  -6 1130.39   35.40
  -5   1  -6 1217.98   37.50
  -6  -1  -6   -9.30    9.10
  -6  -1  -6   -3.70    8.70
   6  -1   6  -11.20    7.90
  -6   1  -6    5.00    8.90
   6   1   6   11.80    8.90
  -6   1  -6    7.90    9.70
   7  -1   6  118.89   15.70
  -7  -1  -6   99.79   16.00
  -7  -1  -6  121.19   16.50
  -7   1  -6   97.79   15.90
   7   1   6  121.79   15.70
  -7   1  -6   95.39   15.60
  -8   2   6  149.39   19.20
  -8   2   6  152.58   17.50
  -7  -2   6  121.89   16.10
  -7  -2   6  113.69   15.00
  -7   2   6  154.08   16.60
  -7   2   6  129.59   15.60
  -6  -2   6   35.70    9.60
  -6  -2   6   39.80   10.10
  -6  -2   6   29.60    9.90
  -6   2   6   26.20    8.90
  -6   2   6   55.99   10.50
  -5  -2   6  646.54   23.90
  -5  -2   6  614.04   23.50
  -5  -2   6  603.94   20.80
  -5   2   6  626.44   21.10
  -5   2   6  643.74   23.50
  -5   2   6  630.44   22.20
  -5   2   6  658.83   23.00
  -4  -2   6  801.12   24.90
  -4  -2   6  748.13   24.80
  -4  -2   6  777.22   20.40
  -4  -2   6  780.02   22.70
  -4   2   6  814.82   22.20
  -4   2   6  806.32   23.90
  -4   2   6  757.82   23.80
  -4   2   6  739.13   22.40
  -3  -2   6  366.46   10.70
  -3  -2   6  340.87   14.90
  -3  -2   6  370.96   13.80
  -3   2   6  356.36   12.00
  -3   2   6  346.57   13.10
  -3   2   6  354.26   13.60
  -2  -2   6 3039.50   67.29
  -2  -2   6 3091.09   66.69
  -2   2   6 3028.60   65.89
   2   2  -6 3069.49   65.09
  -2   2   6 3034.90   64.39
  -2   2   6 3098.39   62.99
  -1  -2   6 4139.79   86.69
  -1  -2   6 4118.79   86.59
   1  -2  -6 4081.99   86.19
  -1  -2   6 4126.09   82.49
  -1   2   6 3990.30   82.59
   1   2  -6 4087.99   83.69
  -1   2   6 4090.89   84.99
   1   2  -6 4149.38   85.49
   0  -2   6   88.59    5.40
   0  -2  -6  100.79    8.00
   0  -2   6   93.69    6.90
   0  -2   6   92.59    6.90
   0   2  -6  105.19    7.60
   0   2  -6   99.79    6.20
   0   2   6  102.69    4.80
   0   2   6  103.49    7.10
  -1  -2  -6  405.36   12.20
   1  -2   6  453.95   13.70
  -1  -2  -6  425.66   15.20
   1  -2   6  441.26   13.50
  -1   2  -6  416.86   13.00
  -1   2  -6  408.66   14.50
   1   2   6  424.06   14.00
   1   2   6  431.76   11.90
   2  -2   6 1518.55   36.60
   2  -2   6 1533.45   34.50
  -2  -2  -6 1503.55   37.30
  -2  -2  -6 1491.35   35.60
  -2   2  -6 1457.95   36.60
  -2   2  -6 1497.35   35.10
   2   2   6 1446.06   35.30
   3  -2   6  149.09    7.10
   3  -2   6  143.09   10.30
  -3  -2  -6  138.09   10.90
  -3  -2  -6  150.18   10.40
  -3   2  -6  140.79   10.80
  -3   2  -6  151.78   10.10
   3   2   6  163.18   10.40
  -4  -2  -6 1218.08   34.00
   4  -2   6 1200.98   34.30
  -4  -2  -6 1151.68   34.00
  -4  -2  -6 1183.58   33.70
  -4   2  -6 1177.58   33.80
  -4   2  -6 1153.78   34.60
   4   2   6 1211.18   33.40
  -5  -2  -6  118.49   13.50
   5  -2   6  146.49   14.50
  -5  -2  -6  144.39   14.40
  -5  -2  -6  157.98   14.20
  -5   2  -6  145.19   15.00
  -5   2  -6  154.88   14.40
   5   2   6  118.19   12.60
   6  -2   6  315.77   20.40
  -6  -2  -6  330.47   21.90
  -6  -2  -6  344.67   21.40
  -6   2  -6  289.17   21.10
  -6   2  -6  348.07   22.10
   6   2   6  340.67   20.60
   7  -2   6   71.29   13.60
  -7  -2  -6   69.89   15.10
  -7  -2  -6   81.29   15.20
  -7   2  -6   79.39   15.10
   7   2   6   86.19   13.90
  -7  -3   6  344.47   23.80
  -7  -3   6  323.77   23.80
  -7  -3   6  332.37   22.50
  -7   3   6  358.06   22.90
  -7   3   6  409.36   22.50
  -7   3   6  377.36   22.20
  -6  -3   6  438.76   23.40
  -6  -3   6  471.15   23.60
  -6   3   6  470.25   22.60
  -6   3   6  459.65   21.80
  -6   3   6  418.56   20.60
  -5  -3   6  654.33   25.00
  -5  -3   6  650.73   24.10
  -5  -3   6  685.93   26.30
  -5   3   6  634.84   24.00
  -5   3   6  633.94   22.00
  -5   3   6  654.33   23.80
  -4  -3   6 1253.77   35.80
  -4  -3   6 1237.68   33.10
  -4   3   6 1211.98   33.80
  -4   3   6 1220.38   33.70
  -4   3   6 1282.27   31.00
  -4   3   6 1240.58   31.80
  -3  -3   6  741.93   24.10
  -3  -3   6  766.62   22.70
  -3   3   6  799.92   20.40
  -3   3   6  778.32   22.80
  -3   3   6  784.72   23.20
   3   3  -6  752.62   22.90
   2  -3  -6 3648.64   77.39
  -2  -3   6 3663.03   78.79
  -2  -3   6 3593.64   79.29
  -2   3   6 3628.44   74.09
  -2   3   6 3621.14   78.39
   2   3  -6 3651.33   77.79
  -2   3   6 3695.73   77.19
   1  -3  -6 1722.23   40.30
  -1  -3   6 1709.53   40.80
  -1  -3   6 1736.93   40.80
   1   3  -6 1487.65   36.90
   1   3  -6 1611.34   36.00
  -1   3   6 1601.74   34.90
  -1   3   6 1485.75   36.30
   0  -3   6  686.63   16.90
   0  -3  -6  633.14   19.60
   0  -3   6  670.83   18.90
   0  -3   6  667.53   19.60
   0  -3  -6  655.83   20.20
   0   3   6  665.23   17.40
   0   3  -6  729.63   20.30
   0   3  -6  682.33   18.70
   0   3   6  641.84   18.90
  -1  -3  -6  620.24   18.70
  -1  -3  -6  618.74   20.10
   1  -3   6  645.64   17.70
   1  -3   6  625.04   18.50
   1  -3   6  602.24   16.90
  -1  -3  -6  630.64   16.10
   1   3   6  646.44   17.30
   1   3   6  617.64   18.70
  -1   3  -6  662.23   20.10
  -1   3  -6  637.14   18.60
   2  -3   6  311.57   11.70
   2  -3   6  321.47   12.70
  -2  -3  -6  280.87   14.20
  -2  -3  -6  294.67   11.80
  -2  -3  -6  271.77   11.40
  -2   3  -6  295.77   12.50
  -2   3  -6  288.97   13.40
   2   3   6  271.77   12.30
  -3  -3  -6  861.71   26.70
  -3  -3  -6  806.22   24.50
   3  -3   6  818.22   22.00
   3  -3   6  808.72   25.00
  -3   3  -6  759.32   23.60
  -3   3  -6  759.22   24.80
   3   3   6  781.52   23.30
  -4  -3  -6  952.90   29.80
   4  -3   6  954.50   29.80
  -4  -3  -6  930.31   30.10
  -4   3  -6  961.30   30.30
   4   3   6  961.40   29.10
  -4   3  -6  994.30   31.40
  -5  -3  -6  103.29   12.50
  -5  -3  -6  118.09   13.60
   5  -3   6  113.89   12.70
  -5   3  -6  114.89   14.30
  -5   3  -6  136.89   14.40
   5   3   6  141.49   13.30
  -6  -3  -6  112.99   15.20
   6  -3   6  117.29   14.50
  -6  -3  -6  142.49   16.60
  -6   3  -6  140.49   17.10
   6   3   6  112.09   13.40
  -6   3  -6  110.89   15.10
  -7  -3  -6  278.57   23.10
  -7  -3  -6  255.77   23.00
  -7   3  -6  230.78   22.60
  -7  -4   6   89.59   15.90
  -7  -4   6  101.09   16.10
  -7   4   6   97.29   14.80
  -7   4   6  102.59   14.40
  -6  -4   6  452.35   23.80
  -6  -4   6  379.96   23.90
  -6   4   6  455.35   22.50
  -6   4   6  439.76   22.50
  -6   4   6  444.36   21.70
  -5  -4   6  167.58   15.80
  -5  -4   6  165.28   14.90
  -5   4   6  163.68   14.10
  -5   4   6  148.39   11.10
  -5   4   6  168.98   14.30
  -4  -4   6 2786.02   64.59
  -4  -4   6 2753.12   67.29
  -4   4   6 2736.73   63.39
  -4   4   6 2611.44   62.79
  -4   4   6 2648.54   59.89
  -3  -4   6  342.27   16.40
  -3  -4   6  339.07   15.10
  -3   4   6  331.87   11.60
  -3   4   6  346.17   14.50
   3   4  -6  356.36   15.20
  -3   4   6  366.16   15.20
   2  -4  -6 2495.65   58.29
  -2  -4   6 2521.35   58.29
   2  -4  -6 2519.95   56.19
  -2  -4   6 2520.15   58.79
  -2   4   6 2536.95   57.39
   2   4  -6 2511.05   57.19
  -2   4   6 2518.65   56.29
   2   4  -6 2564.14   58.09
  -2   4   6 2466.85   52.09
   1  -4  -6 3056.69   68.99
   1  -4  -6 3082.89   68.09
  -1  -4   6 3122.69   68.79
  -1  -4   6 3121.89   69.29
   1   4  -6 3092.09   68.39
  -1   4   6 2982.00   65.99
  -1   4   6 3131.99   67.59
   1   4  -6 3129.59   67.59
   0  -4  -6  789.62   23.20
   0  -4  -6  745.23   22.90
   0  -4   6  724.33   21.30
   0  -4   6  752.92   18.80
   0  -4   6  758.62   22.70
   0   4   6  795.82   22.10
   0   4   6  796.42   21.10
   0   4  -6  798.52   23.20
   0   4  -6  768.02   22.20
   1  -4   6  682.13   19.00
  -1  -4  -6  662.83   22.00
  -1  -4  -6  666.13   21.00
  -1  -4  -6  697.23   17.30
   1  -4   6  657.53   18.60
   1  -4   6  666.23   20.70
   1   4   6  676.73   19.10
  -1   4  -6  638.84   20.90
   1   4   6  644.24   19.70
  -1   4  -6  685.03   20.40
  -2  -4  -6 1224.88   29.70
  -2  -4  -6 1163.38   33.50
   2  -4   6 1157.28   30.60
   2  -4   6 1164.48   30.70
  -2  -4  -6 1191.58   31.10
  -2   4  -6 1139.39   31.80
  -2   4  -6 1160.78   31.10
   2   4   6 1171.38   29.90
   2   4   6 1105.69   29.70
  -3  -4  -6  425.56   19.40
   3  -4   6  421.56   15.70
  -3  -4  -6  454.95   17.20
   3  -4   6  444.46   17.50
  -3  -4  -6  418.86   15.50
  -3   4  -6  428.86   17.80
  -3   4  -6  420.16   18.40
   3   4   6  420.96   16.70
  -4  -4  -6  718.23   25.20
   4  -4   6  674.13   24.50
  -4  -4  -6  665.23   26.40
  -4   4  -6  725.83   25.60
  -4   4  -6  661.03   26.10
   4   4   6  711.33   24.00
  -5  -4  -6  160.88   15.40
  -5  -4  -6  179.98   16.30
   5  -4   6  161.48   15.00
   5   4   6  147.69   13.70
  -5   4  -6  156.28   15.90
  -5   4  -6  147.99   14.60
  -6  -4  -6  723.63   31.60
  -6  -4  -6  760.02   31.60
  -6   4  -6  763.22   31.50
  -6   4  -6  722.13   32.40
  -7  -5   6  190.28   21.30
  -7   5   6  165.48   17.90
  -7   5   6  169.78   23.80
  -6  -5   6  197.48   18.50
  -6  -5   6  216.98   20.20
  -6   5   6  226.18   18.30
  -6   5   6  208.08   18.20
  -5  -5   6  355.96   21.70
  -5  -5   6  321.27   20.30
  -5   5   6  337.37   19.10
  -5   5   6  362.86   19.30
  -4  -5   6 1224.98   35.70
  -4  -5   6 1232.58   38.30
  -4   5   6 1181.98   34.90
  -4   5   6 1199.98   35.20
   4   5  -6 1194.88   35.50
   3  -5  -6 1552.74   40.90
   3  -5  -6 1519.25   37.10
  -3  -5   6 1491.25   42.00
  -3  -5   6 1488.35   40.60
  -3   5   6 1490.15   38.60
  -3   5   6 1439.56   38.60
   3   5  -6 1459.65   39.20
  -2  -5   6  408.36   17.70
   2  -5  -6  400.26   15.10
   2  -5  -6  395.16   17.20
  -2  -5   6  409.56   17.10
   2   5  -6  408.56   16.50
  -2   5   6  384.96   15.50
  -2   5   6  403.46   15.50
   2   5  -6  377.86   16.20
   1  -5  -6  106.49    9.40
  -1  -5   6  115.89   10.40
   1  -5  -6  122.49   10.50
  -1  -5   6  118.29   10.70
  -1   5   6   98.49    8.50
   1   5  -6  118.99    9.80
  -1   5   6  125.49    8.90
   1   5  -6  106.89    9.80
   0  -5   6  713.03   23.00
   0  -5   6  691.03   21.50
   0  -5  -6  705.93   23.40
   0  -5  -6  706.53   23.00
   0   5   6  693.43   20.90
   0   5   6  707.23   21.10
   0   5  -6  711.13   22.50
   0   5  -6  711.73   22.20
  -1  -5  -6  333.27   15.50
   1  -5   6  360.76   15.10
  -1  -5  -6  362.66   16.60
   1  -5   6  345.57   12.90
  -1  -5  -6  323.57   13.50
   1   5   6  360.56   14.30
   1   5   6  361.06   14.10
  -1   5  -6  352.76   15.50
  -1   5  -6  346.17   15.00
  -2  -5  -6  377.16   18.10
  -2  -5  -6  358.26   15.90
   2  -5   6  376.16   15.70
  -2  -5  -6  382.26   14.10
  -2   5  -6  349.67   16.70
   2   5   6  380.66   15.20
  -2   5  -6  369.66   16.40
   2   5   6  344.57   15.00
  -3  -5  -6  397.06   16.50
   3  -5   6  375.66   15.90
  -3  -5  -6  340.07   19.20
  -3  -5  -6  359.76   16.10
   3   5   6  390.06   16.30
  -3   5  -6  345.97   17.40
   3   5   6  366.16   16.60
  -3   5  -6  358.26   18.40
  -4  -5  -6   60.99    9.70
  -4  -5  -6   45.30   10.60
  -4   5  -6   56.29   10.90
  -4   5  -6   53.19   10.70
   4   5   6   54.69    8.90
  -5  -5  -6  587.34   27.70
  -5  -5  -6  594.74   25.90
  -5   5  -6  556.64   26.80
  -5   5  -6  595.24   26.60
  -6  -5  -6  113.59   16.70
  -6  -5  -6  149.88   17.50
  -6   5  -6  130.49   17.60
  -6   5  -6  114.09   15.40
  -6  -6   6  349.37   25.70
  -6  -6   6  399.86   24.80
  -6   6   6  373.06   23.00
  -6   6   6  384.36   22.80
  -5  -6   6    4.50    9.90
  -5  -6   6   42.10   11.40
  -5   6   6   19.10    8.60
  -5   6   6   24.80    9.20
  -4  -6   6   96.09   12.80
  -4  -6   6  114.89   12.40
   4  -6  -6  118.99   12.40
  -4   6   6  111.39   12.30
   4   6  -6  109.29   12.90
  -4   6   6  116.19   12.80
  -3  -6   6  359.76   19.40
   3  -6  -6  356.46   18.80
  -3  -6   6  344.17   18.20
   3   6  -6  378.16   18.10
  -3   6   6  322.57   16.30
  -3   6   6  335.27   17.10
   2  -6  -6  216.28   12.40
   2  -6  -6  216.68   14.80
  -2  -6   6  214.48   14.20
  -2  -6   6  231.28   14.80
  -2   6   6  214.08   12.40
  -2   6   6  198.18   12.30
   2   6  -6  192.28   13.00
   2   6  -6  183.88   13.00
  -1  -6   6  182.28   12.90
   1  -6  -6  175.88   12.00
  -1  -6   6  169.28   11.80
   1  -6  -6  161.78   12.80
  -1   6   6  189.38   11.20
   1   6  -6  173.38   12.60
  -1   6   6  156.58   11.00
   1   6  -6  169.68   11.50
   0  -6  -6  786.22   25.60
   0  -6  -6  761.62   25.90
   0  -6   6  738.73   25.20
   0  -6   6  752.92   23.80
   0   6   6  741.83   22.70
   0   6  -6  750.72   24.50
   0   6  -6  734.93   24.40
   0   6   6  727.43   23.10
  -1  -6  -6  788.52   26.90
  -1  -6  -6  732.83   25.50
   1  -6   6  737.73   22.00
   1  -6   6  736.33   25.00
   1   6   6  736.43   22.80
   1   6   6  741.83   23.50
  -1   6  -6  759.62   24.90
  -1   6  -6  725.43   24.80
  -2  -6  -6  395.06   20.00
   2  -6   6  406.06   17.90
  -2  -6  -6  364.26   17.70
  -2   6  -6  416.76   18.70
   2   6   6  423.46   17.70
   2   6   6  417.36   16.90
  -2   6  -6  418.16   19.30
   3  -6   6   76.59    9.70
  -3  -6  -6   90.39   10.50
  -3  -6  -6   86.69   13.00
  -3   6  -6   71.49   11.30
   3   6   6   73.49   10.40
  -3   6  -6   83.49   11.60
   3   6   6   75.29    9.30
  -4  -6  -6  293.27   20.60
  -4   6  -6  284.37   19.50
  -4   6  -6  298.37   19.30
  -5  -6  -6   19.50   11.20
  -5   6  -6    4.80   10.90
  -5   6  -6   25.50   10.30
  -6  -6  -6   11.30   12.40
  -6  -7   6  244.68   23.20
  -6  -7   6  245.78   27.30
  -6   7   6  227.08   20.40
  -5  -7   6  232.98   20.10
  -5  -7   6  197.38   20.20
  -5   7   6  188.48   18.00
  -5   7   6  194.88   18.40
   4  -7  -6   88.39   12.20
  -4  -7   6  106.69   13.20
  -4  -7   6   83.49   13.90
  -4   7   6   85.59   12.30
   4   7  -6  109.89   13.40
  -4   7   6  110.89   13.80
  -3  -7   6   21.10    8.40
  -3  -7   6   10.60    8.40
   3  -7  -6   23.60    8.40
  -3   7   6    1.50    6.20
   3   7  -6    0.70    7.80
  -3   7   6   15.10    8.10
   2  -7  -6  144.19   11.90
   2  -7  -6  165.68   15.00
  -2  -7   6  159.18   14.00
  -2  -7   6  158.78   14.30
   2   7  -6  186.58   14.80
  -2   7   6  149.09   12.90
  -2   7   6  168.98   12.50
   1  -7  -6  946.41   31.80
   1  -7  -6  931.71   29.60
  -1  -7   6  956.60   31.20
  -1  -7   6  945.01   30.10
  -1   7   6  912.71   28.30
   1   7  -6  869.21   28.40
   1   7  -6  905.31   29.70
  -1   7   6  851.41   26.80
   0  -7   6  228.98   15.00
   0  -7   6  237.08   13.50
   0  -7  -6  215.08   15.80
   0  -7  -6  257.77   15.60
   0   7   6  231.68   14.10
   0   7  -6  231.08   15.40
   0   7  -6  256.67   14.90
   0   7   6  221.98   13.00
   1  -7   6 1773.82   48.20
  -1  -7  -6 1745.53   48.90
  -1  -7  -6 1807.92   48.50
   1   7   6 1724.23   43.10
   1   7   6 1683.23   44.50
  -1   7  -6 1758.52   46.50
  -1   7  -6 1706.23   46.10
  -2  -7  -6  215.98   15.80
   2  -7   6  214.18   14.90
  -2  -7  -6  205.68   17.50
  -2   7  -6  172.88   15.10
   2   7   6  195.68   14.20
  -2   7  -6  212.48   15.60
   2   7   6  202.08   13.00
   3  -7   6 1455.85   41.70
  -3  -7  -6 1419.76   48.30
  -3  -7  -6 1538.25   46.60
   3   7   6 1488.25   42.60
  -3   7  -6 1474.45   44.00
  -3   7  -6 1488.65   44.10
  -4  -7  -6   70.09   13.90
  -4   7  -6   29.90   10.60
  -4   7  -6   33.20   11.10
  -5  -7  -6   83.69   15.80
  -5   7  -6   62.49   14.00
  -5   7  -6   90.29   15.80
  -5  -8   6  292.47   25.60
   5   8  -6  280.87   21.90
  -5   8   6  344.17   21.40
  -5   8   6  306.07   22.90
  -4  -8   6  259.97   19.80
  -4  -8   6  260.87   22.10
   4  -8  -6  287.27   20.30
   4   8  -6  251.77   19.70
  -4   8   6  260.27   20.30
  -4   8   6  236.68   17.60
   3  -8  -6   70.29   12.20
  -3  -8   6   51.59   11.10
  -3  -8   6   53.69   11.70
  -3   8   6   46.00   10.20
  -3   8   6   53.19    9.80
   3   8  -6   46.50   11.40
  -2  -8   6  192.48   16.30
  -2  -8   6  182.88   16.20
   2  -8  -6  189.48   17.40
   2   8  -6  181.68   16.10
  -2   8   6  194.48   14.20
  -2   8   6  180.58   15.40
   1  -8  -6   94.49   12.70
  -1  -8   6   59.59   11.00
  -1  -8   6   93.49   11.40
   1  -8  -6   77.19   10.60
   1   8  -6  108.49   12.40
  -1   8   6   90.59   10.50
   1   8  -6   80.89   12.40
  -1   8   6   74.99   11.40
   0  -8  -6  522.65   23.10
   0  -8   6  475.45   20.50
   0  -8   6  494.55   23.30
   0  -8  -6  488.65   24.20
   0   8  -6  455.65   21.20
   0   8  -6  509.45   22.70
   0   8   6  473.25   19.30
   0   8   6  511.95   21.90
  -1  -8  -6  109.09   13.50
  -1  -8  -6  114.89   14.40
   1  -8   6   96.39   12.50
  -1   8  -6  109.59   13.50
  -1   8  -6  123.19   13.50
   1   8   6  120.39   13.10
   2  -8   6  367.76   20.40
  -2  -8  -6  398.66   23.80
  -2  -8  -6  354.66   21.00
   2   8   6  361.76   19.40
  -2   8  -6  325.27   19.50
  -2   8  -6  397.66   21.30
  -3  -8  -6  156.28   18.20
   3  -8   6  159.38   15.20
   3   8   6  136.09   14.30
  -3   8  -6  154.88   16.10
  -3   8  -6  190.18   17.90
  -4  -8  -6   77.99   15.50
  -4   8  -6   75.69   14.00
  -4   8  -6   85.29   15.20
  -4  -9   6   10.60   11.90
  -4  -9   6   22.40   11.40
   4  -9  -6   15.70   10.90
  -4   9   6   11.90   10.10
   4   9  -6   -0.40   11.10
  -4   9   6   12.80    9.10
  -3  -9   6  166.38   17.90
  -3  -9   6  162.88   17.70
   3  -9  -6  163.58   17.90
  -3   9   6  146.69   16.10
   3   9  -6  198.48   18.90
  -3   9   6  157.28   15.80
  -2  -9   6    4.10    9.00
   2  -9  -6  -17.50    8.40
  -2  -9   6    7.70    8.80
  -2   9   6    0.80    8.20
   2   9  -6  -16.00    8.80
  -2   9   6   -5.70    7.40
   1  -9  -6  372.96   23.20
  -1  -9   6  384.46   21.10
  -1  -9   6  432.56   23.60
   1  -9  -6  407.96   24.10
   1   9  -6  381.56   20.80
   1   9  -6  367.36   21.60
  -1   9   6  405.66   21.30
  -1   9   6  363.06   18.80
   0  -9  -6  248.48   19.10
   0  -9   6  223.68   18.30
   0  -9  -6  241.18   20.70
   0   9  -6  235.18   17.70
   0   9   6  242.78   18.70
   0   9  -6  262.37   19.60
  -1  -9  -6  369.06   23.00
  -1  -9  -6  310.67   22.20
   1  -9   6  354.66   21.70
  -1   9  -6  337.87   20.90
  -1   9  -6  305.57   19.60
   1   9   6  304.67   19.50
  -2  -9  -6   53.89   13.80
   2  -9   6   49.90   11.60
  -2  -9  -6   69.59   13.30
  -2   9  -6   68.59   12.30
  -2   9  -6   70.09   13.80
   2   9   6   82.99   12.90
  -3  -9  -6   54.69   14.50
   3  -9   6   24.90   10.20
  -3   9  -6   36.70   11.30
   3   9   6   24.30   10.50
  -3   9  -6   35.90   12.20
   4   9   6   36.90   12.00
  -4   9  -6   18.40   12.10
   3 -10  -6  129.69   26.40
  -3 -10   6   82.79   15.40
  -3 -10   6   81.59   15.60
  -3  10   6  115.49   14.70
  -3  10   6   96.19   15.10
  -2 -10   6  433.16   25.50
  -2 -10   6  400.96   25.00
   2 -10  -6  374.96   25.90
   2  10  -6  360.96   24.50
  -2  10   6  360.16   23.80
  -2  10   6  365.96   22.80
   1 -10  -6  127.09   17.80
  -1 -10   6  125.29   16.00
   1  10  -6  160.68   17.90
   1  10  -6  124.89   14.80
  -1  10   6  122.69   15.90
   0 -10  -6  295.67   21.90
   0 -10   6  285.67   22.40
   0 -10  -6  329.27   23.80
   0  10  -6  255.77   19.00
   0  10   6  263.07   20.50
   0  10  -6  259.47   21.60
   1 -10   6   26.90   11.10
  -1 -10  -6   33.80   12.50
  -1 -10  -6   33.30   12.80
  -1  10  -6   28.40   11.70
   1  10   6   27.20   11.20
  -1  10  -6   19.30   10.60
  -2 -10  -6   96.39   17.20
   2 -10   6   80.79   13.80
  -2 -10  -6  110.09   16.40
  -2  10  -6   62.89   18.40
  -2  10  -6   93.49   14.60
   2  10   6   80.49   13.70
  -8   0   7   98.09   17.10
  -7   0   7   16.90    9.10
  -7   0   7   21.00   10.80
  -6   0   7    4.80    7.80
  -6   0   7   -0.10    5.50
  -6   0   7  -11.20    6.50
  -5   0   7  361.46   16.00
  -5   0   7  368.06   15.30
  -5   0   7  349.96   17.20
  -5   0   7  369.76   17.20
  -5   0   7  356.56   14.90
  -4   0   7  481.55   17.40
  -4   0   7  478.15   17.10
  -4   0   7  477.65   17.20
  -4   0   7  487.75   16.10
  -4   0   7  493.15   16.70
  -3   0   7  282.67   11.00
  -3   0   7  287.57   11.30
  -3   0   7  300.67   12.10
  -3   0   7  286.97   10.70
  -3   0   7  283.37   12.20
  -2   0   7  202.18    7.80
  -2   0   7  195.78    9.80
  -2   0   7  194.88    8.20
  -1   0   7 4662.63   97.09
   1   0  -7 4646.73   94.79
  -1   0   7 4684.83   95.29
   0   0   7   50.39    5.20
   0   0  -7   38.00    4.60
   0   0   7   43.80    5.20
  -1   0  -7 1008.90   25.60
   1   0   7 1022.90   24.50
  -1   0  -7  975.40   22.50
   1   0   7  995.20   25.30
  -1   0  -7 1017.00   25.00
  -2   0  -7 3223.88   67.89
   2   0   7 3202.58   66.79
  -2   0  -7 3160.68   68.79
  -2   0  -7 3238.98   69.79
   2   0   7 3244.48   70.09
   3   0   7 2022.90   48.30
  -3   0  -7 2009.10   46.80
  -3   0  -7 1965.60   48.30
  -3   0  -7 2040.70   46.40
  -4   0  -7 3817.42   85.29
  -4   0  -7 3916.31   87.19
  -4   0  -7 3757.82   88.09
   4   0   7 3900.11   86.59
  -5   0  -7   11.70    8.20
  -5   0  -7   -1.10    7.30
   5   0   7    4.90    7.50
   6   0   7   -8.50    7.90
  -6   0  -7   -3.90    9.10
  -6   0  -7    2.90    9.30
  -7   0  -7  141.99   18.00
   7   0   7  138.19   17.00
  -7   0  -7  209.68   24.30
  -8   1   7  218.58   22.30
  -7  -1   7  208.18   19.90
  -7  -1   7  195.38   18.40
  -7   1   7  172.38   17.10
  -7   1   7  210.88   15.80
  -7   1   7  204.98   19.20
  -6  -1   7 1039.90   34.10
  -6  -1   7  997.10   33.50
  -6  -1   7  993.60   32.20
  -6   1   7 1065.99   32.10
  -6   1   7 1014.80   33.70
  -6   1   7 1045.20   34.00
  -5  -1   7 1256.77   35.70
  -5  -1   7 1274.67   32.60
  -5  -1   7 1237.08   35.30
  -5  -1   7 1220.88   35.90
  -5  -1   7 1274.37   33.30
  -5   1   7 1306.47   34.10
  -5   1   7 1258.17   34.30
  -5   1   7 1248.68   33.60
  -5   1   7 1222.28   35.50
  -5   1   7 1248.18   35.30
  -4  -1   7  603.34   17.60
  -4  -1   7  585.44   19.00
  -4  -1   7  564.04   20.50
  -4  -1   7  593.24   20.20
  -4   1   7  578.44   18.80
  -4   1   7  577.64   18.90
  -4   1   7  558.14   18.70
  -4   1   7  560.04   18.40
  -4   1   7  571.44   19.20
  -3  -1   7 1751.82   38.80
  -3  -1   7 1722.73   42.30
  -3  -1   7 1747.03   41.50
  -3   1   7 1703.73   40.40
  -3   1   7 1729.63   39.70
  -3   1   7 1781.42   40.30
  -3   1   7 1715.23   41.30
  -3   1   7 1753.32   41.00
  -2  -1   7 4650.53   94.09
  -2  -1   7 4701.83   97.49
  -2  -1   7 4564.64   97.59
  -2   1   7 4622.64   97.69
  -2   1   7 4835.32   96.29
  -1  -1   7 2691.33   56.29
  -1  -1   7 2712.63   58.99
  -1   1   7 2702.33   57.69
   1   1  -7 2729.53   57.79
   1   1  -7 2721.63   55.29
  -1   1   7 2624.34   54.19
   0  -1  -7   53.49    6.40
   0  -1  -7   53.59    4.40
   0  -1   7   57.79    5.20
   0  -1   7   65.59    6.20
   0   1  -7   47.40    4.00
   0   1  -7   49.90    5.70
   0   1   7   48.40    5.40
  -1  -1  -7 2768.82   59.49
   1  -1   7 2776.52   60.59
   1  -1   7 2866.71   60.19
  -1  -1  -7 2875.01   57.89
  -1  -1  -7 2811.12   61.69
  -1   1  -7 2749.32   59.19
  -1   1  -7 2636.74   56.29
   1   1   7 2751.82   59.09
  -2  -1  -7   76.99    7.10
   2  -1   7   77.49    7.30
  -2  -1  -7   61.39    7.20
   2  -1   7   73.39    5.50
  -2  -1  -7   77.29    6.40
  -2   1  -7   75.19    6.50
  -2   1  -7   49.10    6.90
   2   1   7   61.79    5.40
   2   1   7   64.29    6.90
  -2   1  -7   59.79    6.10
  -3  -1  -7  357.66   15.20
  -3  -1  -7  380.36   15.80
   3  -1   7  377.86   15.50
  -3  -1  -7  376.06   14.70
  -3   1  -7  353.06   15.70
   3   1   7  375.46   15.40
  -3   1  -7  359.16   14.30
  -3   1  -7  368.96   12.90
   4  -1   7  506.05   20.30
  -4  -1  -7  463.55   19.70
  -4  -1  -7  488.05   18.90
  -4  -1  -7  507.65   21.00
  -4   1  -7  503.25   21.40
   4   1   7  497.05   20.30
  -4   1  -7  512.95   20.00
  -5  -1  -7  740.63   28.60
  -5  -1  -7  771.32   27.80
   5  -1   7  767.42   27.90
   5   1   7  733.23   27.60
  -5   1  -7  785.52   29.50
  -5   1  -7  801.22   28.10
  -6  -1  -7  204.28   18.20
   6  -1   7  166.08   16.20
  -6  -1  -7  177.28   17.60
  -6   1  -7  158.28   15.70
   6   1   7  149.99   15.60
  -6   1  -7  223.68   20.10
  -7  -1  -7   72.69   14.60
   7  -1   7   61.89   14.30
  -7  -1  -7  124.09   18.40
  -7   1  -7   86.99   15.60
   7   1   7   67.49   14.40
  -8   2   7   22.70   12.30
  -8   2   7    7.20    9.70
  -7  -2   7  364.36   22.70
  -7  -2   7  420.56   25.20
  -7   2   7  378.56   22.90
  -7   2   7  397.46   21.50
  -7   2   7  397.46   22.80
  -6  -2   7  124.09   13.90
  -6  -2   7  145.39   15.00
  -6  -2   7  163.28   15.40
  -6   2   7  149.79   14.40
  -6   2   7  161.58   14.30
  -6   2   7  154.18   14.30
  -5  -2   7 1573.34   42.40
  -5  -2   7 1459.85   38.70
  -5  -2   7 1527.05   42.20
  -5   2   7 1499.25   39.70
  -5   2   7 1555.44   41.70
  -5   2   7 1535.25   40.50
  -5   2   7 1569.44   41.30
  -4  -2   7  241.58   13.30
  -4  -2   7  197.28   13.40
  -4  -2   7  198.88   11.40
  -4  -2   7  223.38    9.70
  -4   2   7  220.88   11.50
  -4   2   7  231.78   12.40
  -4   2   7  208.98   10.70
  -4   2   7  211.58   11.90
  -3  -2   7 2384.36   56.39
  -3  -2   7 2426.76   50.79
  -3  -2   7 2449.05   55.39
  -3   2   7 2336.37   54.69
  -3   2   7 2471.45   54.19
  -3   2   7 2459.35   52.89
  -2  -2   7  785.42   23.40
  -2  -2   7  829.82   18.40
  -2  -2   7  776.12   22.60
  -2   2   7  807.42   20.30
   2   2  -7  787.12   20.90
  -2   2   7  787.62   21.90
  -2   2   7  812.92   18.90
  -1  -2   7  211.88    7.20
  -1  -2   7  210.28   10.10
   1  -2  -7  207.98   10.40
  -1  -2   7  200.38   10.20
  -1   2   7  234.88   10.00
   1   2  -7  231.18   10.40
  -1   2   7  219.18    7.60
   1   2  -7  238.08    8.90
   0  -2  -7  624.34   19.20
   0  -2   7  627.84   18.40
   0  -2   7  627.84   16.40
   0  -2   7  611.04   17.90
   0   2  -7  628.04   16.30
   0   2   7  622.04   14.70
   0   2   7  604.04   18.00
   0   2  -7  636.14   18.40
   1  -2   7   24.60    4.60
  -1  -2  -7   12.00    5.20
  -1  -2  -7   25.50    4.10
   1  -2   7   21.80    4.50
  -1   2  -7   37.00    6.10
  -1   2  -7   39.00    5.00
   1   2   7   39.20    5.80
   2  -2   7 1477.95   34.70
  -2  -2  -7 1509.95   35.70
   2  -2   7 1523.95   36.80
  -2  -2  -7 1481.95   37.70
  -2   2  -7 1430.56   37.20
  -2   2  -7 1524.25   35.50
   2   2   7 1501.15   36.60
  -3  -2  -7 1358.96   36.30
   3  -2   7 1369.26   36.10
  -3  -2  -7 1367.46   35.50
  -3   2  -7 1294.67   33.80
  -3   2  -7 1288.67   35.70
   3   2   7 1346.07   34.60
  -4  -2  -7  422.56   18.50
  -4  -2  -7  431.36   18.80
   4  -2   7  431.16   19.00
  -4  -2  -7  449.56   19.50
  -4   2  -7  459.55   19.30
  -4   2  -7  446.86   20.60
   4   2   7  451.45   19.00
  -5  -2  -7 1646.74   45.40
   5  -2   7 1608.84   45.40
  -5  -2  -7 1567.44   46.90
  -5  -2  -7 1642.74   46.10
  -5   2  -7 1627.84   45.30
   5   2   7 1585.44   44.40
  -5   2  -7 1602.64   46.90
  -6  -2  -7  147.19   16.50
  -6  -2  -7  157.88   16.40
   6  -2   7  146.29   15.70
   6   2   7  179.58   16.50
  -6   2  -7  199.68   18.70
  -6   2  -7  189.58   19.60
  -7  -2  -7  153.88   21.80
  -7  -2  -7  134.39   17.80
   7   2   7  150.28   17.30
  -7   2  -7  176.58   20.30
  -7  -3   7    9.20   11.40
  -7  -3   7   12.90    9.40
  -7  -3   7   22.80   11.60
  -7   3   7   29.80   10.60
  -7   3   7   34.10   10.40
  -7   3   7   24.00   10.20
  -6  -3   7  451.45   23.20
  -6  -3   7  452.75   24.40
  -6   3   7  472.45   22.10
  -6   3   7  450.95   20.60
  -6   3   7  449.95   22.30
  -5  -3   7  394.16   20.50
  -5  -3   7  406.76   19.80
  -5  -3   7  400.36   17.10
  -5   3   7  427.36   19.50
  -5   3   7  423.56   17.30
  -5   3   7  450.45   19.80
  -4  -3   7 5120.09  110.89
  -4  -3   7 5246.98  113.49
  -4   3   7 5107.29  108.79
  -4   3   7 5177.58  111.69
  -4   3   7 5300.67  111.49
  -3  -3   7  479.35   17.50
  -3  -3   7  491.15   19.10
   3   3  -7  479.75   17.00
  -3   3   7  459.65   16.20
  -3   3   7  490.15   14.00
  -3   3   7  461.85   16.80
  -2  -3   7 2058.79   48.00
  -2  -3   7 1991.20   48.50
   2  -3  -7 2033.20   46.90
   2   3  -7 2022.90   47.20
  -2   3   7 1968.20   46.30
  -2   3   7 1985.20   44.70
  -2   3   7 1968.30   41.50
   2   3  -7 2039.70   45.70
  -1  -3   7  355.16   13.80
   1  -3  -7  318.97   13.40
  -1  -3   7  368.56   14.10
   1   3  -7  378.36   14.10
  -1   3   7  376.46   13.50
  -1   3   7  347.47   11.30
   1   3  -7  361.56   12.50
   0  -3  -7   97.39    8.40
   0  -3   7   91.49    7.70
   0  -3   7   91.39    7.40
   0  -3   7   90.69    5.60
   0   3   7  112.39    6.10
   0   3  -7  108.09    7.50
   0   3  -7  112.49    8.70
   0   3   7  104.29    7.90
   1  -3   7  963.10   24.40
  -1  -3  -7  949.80   22.80
   1  -3   7  988.10   26.10
  -1  -3  -7  972.50   27.60
   1  -3   7  995.40   25.10
   1   3   7 1001.60   26.40
  -1   3  -7  958.10   25.50
   1   3   7  998.30   24.20
  -1   3  -7 1018.40   27.60
   2  -3   7  184.58   10.40
   2  -3   7  186.48    9.60
  -2  -3  -7  175.78    9.60
  -2  -3  -7  196.18   12.50
   2  -3   7  190.88    8.00
  -2   3  -7  199.28   12.10
  -2   3  -7  199.08   10.90
   2   3   7  185.88   11.00
   3  -3   7  902.81   24.30
  -3  -3  -7  896.61   28.50
  -3  -3  -7  927.51   26.80
   3  -3   7  944.81   27.70
  -3   3  -7  924.41   27.70
   3   3   7  965.70   27.70
  -3   3  -7  970.40   29.40
  -4  -3  -7 1101.49   32.60
  -4  -3  -7 1048.50   33.30
   4  -3   7 1084.99   32.90
  -4   3  -7 1038.00   31.80
  -4   3  -7 1040.10   33.30
   4   3   7 1016.30   30.90
  -5  -3  -7  337.87   20.00
  -5  -3  -7  315.57   19.60
  -5  -3  -7  341.57   20.10
   5  -3   7  328.97   19.10
  -5   3  -7  336.97   19.70
   5   3   7  349.37   19.60
  -5   3  -7  350.56   21.50
  -6  -3  -7  281.57   21.40
  -6  -3  -7  257.47   20.30
   6  -3   7  257.97   19.50
   6   3   7  263.77   19.70
  -6   3  -7  298.07   21.20
  -6   3  -7  313.17   23.20
  -7  -4   7  233.98   21.50
  -7  -4   7  251.27   23.00
  -7   4   7  236.48   20.00
  -7   4   7  283.17   21.10
  -6  -4   7   21.10   10.70
  -6  -4   7   33.30   11.90
  -6   4   7   35.60   10.00
  -6   4   7   32.10   10.20
  -5  -4   7  505.85   23.30
  -5  -4   7  570.44   25.40
  -5  -4   7  551.14   21.50
  -5   4   7  585.94   23.30
  -5   4   7  520.55   22.40
  -4  -4   7  381.56   17.40
  -4  -4   7  367.16   19.30
  -4   4   7  381.46   16.90
  -4   4   7  353.96   17.00
  -3  -4   7  323.07   15.10
  -3  -4   7  315.77   16.00
  -3   4   7  308.17   13.80
  -3   4   7  279.97   13.50
   3   4  -7  291.67   14.00
  -3   4   7  309.47   14.10
  -2  -4   7  677.73   22.90
   2  -4  -7  701.53   21.10
  -2  -4   7  698.53   22.40
  -2   4   7  681.43   20.30
   2   4  -7  693.53   22.00
  -2   4   7  681.33   21.30
   2   4  -7  697.43   21.20
   1  -4  -7  493.15   18.10
   1  -4  -7  474.05   17.20
  -1  -4   7  480.15   17.70
  -1  -4   7  489.75   17.60
   1   4  -7  467.65   16.00
  -1   4   7  468.25   14.80
  -1   4   7  442.96   16.00
   1   4  -7  484.55   17.20
   0  -4   7  954.60   25.80
   0  -4  -7  955.30   27.60
   0  -4   7  949.01   26.80
   0  -4   7  960.30   23.00
   0  -4  -7  908.01   27.10
   0   4   7  921.71   23.80
   0   4   7  937.71   25.50
   0   4  -7  912.01   26.30
   0   4  -7  944.71   25.30
  -1  -4  -7  392.16   16.00
   1  -4   7  418.56   14.10
   1  -4   7  419.66   16.00
  -1  -4  -7  436.86   12.30
   1  -4   7  405.86   13.80
  -1  -4  -7  420.46   17.30
   1   4   7  426.26   14.10
  -1   4  -7  423.46   15.40
   1   4   7  432.86   15.70
  -1   4  -7  430.76   16.90
  -2  -4  -7  212.88   10.60
   2  -4   7  232.58   11.60
   2  -4   7  215.28   11.40
  -2  -4  -7  235.58   14.20
  -2  -4  -7  220.38   11.90
   2   4   7  237.98   11.30
   2   4   7  222.48   12.00
  -2   4  -7  225.18   13.40
  -2   4  -7  226.68   12.30
   3  -4   7   76.59    9.20
  -3  -4  -7   86.39   11.00
   3  -4   7   85.19    8.20
  -3  -4  -7   91.69    9.40
  -3   4  -7   84.69   10.00
  -3   4  -7   93.19   11.20
   3   4   7   77.09    9.20
   4  -4   7  895.11   29.30
  -4  -4  -7  894.41   29.20
  -4  -4  -7  867.51   31.20
  -4   4  -7  818.22   29.90
  -4   4  -7  823.92   28.20
   4   4   7  823.62   27.30
  -5  -4  -7  220.78   18.80
   5  -4   7  199.68   16.40
  -5  -4  -7  226.58   17.70
  -5   4  -7  255.67   18.50
  -5   4  -7  210.78   18.80
   5   4   7  214.68   17.30
  -6  -4  -7  235.48   20.80
  -6  -4  -7  246.08   20.70
  -6   4  -7  213.18   20.10
  -6   4  -7  231.28   20.10
  -7  -5   7  173.78   20.60
  -7   5   7  146.29   17.10
  -6  -5   7  163.58   18.80
  -6  -5   7  178.18   18.10
  -6   5   7  207.98   18.10
  -6   5   7  188.38   17.40
  -5  -5   7  128.89   15.70
  -5  -5   7  141.99   14.70
  -5  -5   7   99.19   12.10
  -5   5   7  109.39   12.60
  -5   5   7  119.09   13.70
  -4  -5   7  191.68   14.40
  -4  -5   7  176.68   15.80
  -4   5   7  154.18   12.80
   4   5  -7  156.28   13.70
  -4   5   7  170.88   13.70
  -3  -5   7   97.79   10.60
   3  -5  -7   84.49    8.40
  -3  -5   7   91.39   11.10
  -3   5   7   77.49    9.00
  -3   5   7  105.29   10.10
   3   5  -7   89.89   10.30
  -2  -5   7 2025.10   51.39
   2  -5  -7 2066.99   51.49
  -2  -5   7 2041.90   51.09
   2  -5  -7 2073.89   48.80
   2   5  -7 2053.79   50.79
  -2   5   7 2023.70   49.70
  -2   5   7 2114.99   49.10
   2   5  -7 2077.19   50.09
  -1  -5   7  263.37   13.80
   1  -5  -7  240.78   13.10
   1  -5  -7  228.28   13.40
  -1  -5   7  253.87   13.00
   1   5  -7  259.27   13.10
   1   5  -7  273.27   13.50
  -1   5   7  260.57   12.60
  -1   5   7  265.47   11.90
   0  -5  -7  585.94   20.90
   0  -5   7  588.24   20.70
   0  -5   7  564.64   19.10
   0  -5  -7  564.14   20.90
   0   5  -7  572.94   19.50
   0   5   7  573.74   18.90
   0   5  -7  568.44   20.10
   0   5   7  559.64   18.00
   1  -5   7  161.98    9.30
   1  -5   7  188.78   11.80
  -1  -5  -7  165.48   12.70
   1  -5   7  177.58    9.30
  -1  -5  -7  158.28   12.00
   1   5   7  166.38   11.00
   1   5   7  172.08   10.10
  -1   5  -7  187.28   11.60
  -1   5  -7  178.08   12.00
  -2  -5  -7  508.05   19.40
  -2  -5  -7  505.05   21.70
   2  -5   7  522.85   19.10
   2  -5   7  507.15   18.20
   2   5   7  527.55   18.50
  -2   5  -7  532.15   20.10
   2   5   7  540.75   19.30
  -2   5  -7  513.75   20.90
  -3  -5  -7 1419.96   41.60
   3  -5   7 1367.86   37.80
   3  -5   7 1356.36   36.60
  -3   5  -7 1339.47   39.30
  -3   5  -7 1284.97   37.60
   3   5   7 1371.06   36.20
  -4  -5  -7  193.38   16.70
  -4  -5  -7  195.68   17.60
   4   5   7  186.98   14.30
  -4   5  -7  174.48   16.50
  -4   5  -7  195.88   15.80
  -5  -5  -7   49.00   12.40
  -5  -5  -7   47.20   13.10
  -5   5  -7   64.29   13.20
  -5   5  -7   68.09   12.40
  -6  -5  -7   90.99   16.20
  -6   5  -7   78.59   14.50
  -6   5  -7  102.99   16.20
  -6  -6   7   51.29   14.40
  -6  -6   7   51.59   13.50
  -6   6   7   31.00   11.00
  -6   6   7   35.00   10.80
  -5  -6   7  119.09   15.70
  -5  -6   7  109.09   13.40
  -5   6   7  129.89   15.10
  -5   6   7  132.59   14.50
  -4  -6   7   28.60    9.90
  -4  -6   7   23.40    8.50
  -4   6   7   25.60    7.70
   4   6  -7   31.50    9.60
  -4   6   7   16.70    7.90
   3  -6  -7 1009.50   33.20
  -3  -6   7 1065.89   34.50
  -3  -6   7 1035.10   32.90
   3   6  -7 1017.80   32.00
  -3   6   7 1066.59   32.10
  -3   6   7 1038.80   31.70
  -2  -6   7  242.18   15.00
  -2  -6   7  192.58   13.50
   2  -6  -7  185.38   12.30
   2  -6  -7  190.48   14.10
  -2   6   7  210.88   13.00
  -2   6   7  208.78   12.40
   2   6  -7  198.18   13.50
   2   6  -7  188.88   13.70
  -1  -6   7  184.98   12.60
   1  -6  -7  179.78   13.70
  -1  -6   7  188.48   12.90
   1  -6  -7  179.58   12.60
  -1   6   7  195.38   11.90
   1   6  -7  199.68   13.40
  -1   6   7  195.98   12.00
   1   6  -7  192.08   12.70
   0  -6  -7  447.46   19.20
   0  -6  -7  383.36   18.90
   0  -6   7  426.66   18.60
   0  -6   7  422.56   17.00
   0   6  -7  436.06   18.80
   0   6   7  447.16   17.30
   0   6  -7  467.35   18.80
   0   6   7  455.15   17.20
  -1  -6  -7  626.44   23.30
   1  -6   7  612.24   22.90
  -1  -6  -7  648.24   24.50
   1   6   7  621.14   21.10
  -1   6  -7  603.74   22.90
  -1   6  -7  583.64   21.80
   1   6   7  622.14   20.80
  -2  -6  -7  842.22   30.60
  -2  -6  -7  844.62   28.20
   2  -6   7  891.31   28.20
   2   6   7  837.52   26.30
  -2   6  -7  868.01   28.50
   2   6   7  837.72   26.60
  -2   6  -7  905.71   29.60
  -3  -6  -7  430.46   23.00
   3  -6   7  422.36   18.70
  -3   6  -7  378.06   20.30
   3   6   7  404.76   18.80
  -3   6  -7  381.46   20.20
   3   6   7  435.16   18.60
  -4  -6  -7  156.58   17.10
  -4   6  -7  168.98   15.80
  -4   6  -7  165.98   16.90
  -5  -6  -7   28.30   12.40
  -5   6  -7   42.10   11.80
  -5   6  -7   26.10   12.10
  -6   7   7  166.08   18.00
  -5  -7   7   42.40   13.50
  -5   7   7   20.30   10.30
  -5   7   7   25.00    9.60
  -4  -7   7  460.45   25.30
  -4  -7   7  491.65   23.50
  -4   7   7  452.15   22.80
  -4   7   7  483.65   22.30
   4   7  -7  467.75   23.30
  -3  -7   7   13.40    7.90
   3  -7  -7   21.00    8.70
  -3  -7   7   17.20    9.50
   3   7  -7    6.70    7.80
  -3   7   7   18.50    7.50
  -3   7   7    0.20    6.90
  -2  -7   7  228.48   16.50
   2  -7  -7  237.18   14.50
  -2  -7   7  236.38   16.20
   2  -7  -7  240.48   16.90
  -2   7   7  222.88   14.20
  -2   7   7  249.78   14.80
   2   7  -7  203.68   15.20
   2   7  -7  212.18   15.30
   1  -7  -7   66.29    9.80
   1  -7  -7   74.99   11.40
  -1  -7   7   56.29    9.30
  -1  -7   7   55.69    9.50
   1   7  -7   67.09    9.60
  -1   7   7   68.09    9.40
  -1   7   7   71.69    9.50
   1   7  -7   91.29   11.40
   0  -7   7  893.21   28.00
   0  -7   7  914.11   30.50
   0  -7  -7  889.21   30.90
   0  -7  -7  914.51   30.60
   0   7   7  893.81   28.20
   0   7  -7  911.21   29.70
   0   7  -7  900.71   29.80
   0   7   7  923.61   27.80
  -1  -7  -7  261.37   18.20
   1  -7   7  289.87   16.80
  -1  -7  -7  277.27   17.90
   1   7   7  254.97   14.90
   1   7   7  240.08   14.30
  -1   7  -7  250.37   16.40
  -1   7  -7  249.58   16.40
  -2  -7  -7  990.00   32.70
  -2  -7  -7 1004.30   35.30
   2  -7   7  991.30   32.40
   2   7   7  945.31   29.00
  -2   7  -7  944.61   32.20
  -2   7  -7  941.51   31.90
   2   7   7  944.01   30.10
   3  -7   7  114.99   12.30
  -3  -7  -7  134.49   16.10
  -3   7  -7  121.59   14.10
   3   7   7  102.89   12.50
  -3   7  -7  104.29   13.60
  -4  -7  -7  391.96   25.20
  -4   7  -7  342.27   22.30
  -4   7  -7  386.76   23.00
  -5  -7  -7  124.99   18.10
  -5   7  -7   86.39   15.70
  -5   7  -7  135.09   17.30
  -5  -8   7  522.25   31.60
  -5   8   7  523.15   26.50
   5   8  -7  569.84   28.10
  -5   8   7  526.95   28.40
  -4  -8   7   10.90   11.10
   4  -8  -7   17.50    9.70
  -4  -8   7    8.00    9.00
   4   8  -7   28.70   11.00
  -4   8   7   15.20    8.70
  -4   8   7   28.90   10.30
  -3  -8   7  130.49   14.80
  -3  -8   7  138.19   15.80
   3  -8  -7  130.29   15.30
  -3   8   7  140.19   14.90
   3   8  -7  103.79   13.70
  -3   8   7  117.89   13.60
  -2  -8   7  109.69   13.40
   2  -8  -7   87.89   13.70
  -2  -8   7  114.59   13.90
   2   8  -7  111.19   13.80
  -2   8   7  106.29   12.50
  -2   8   7  108.09   12.50
   1  -8  -7  379.86   20.40
  -1  -8   7  413.06   21.30
  -1  -8   7  400.16   20.10
   1  -8  -7  415.56   22.40
   1   8  -7  420.06   20.40
  -1   8   7  385.46   19.40
  -1   8   7  434.76   19.30
   1   8  -7  386.96   21.00
   0  -8  -7  269.57   19.70
   0  -8   7  296.57   18.30
   0  -8  -7  304.37   19.00
   0   8   7  288.37   15.80
   0   8  -7  289.17   17.70
   0   8  -7  307.27   19.00
   0   8   7  269.87   16.90
   1  -8   7  136.89   14.60
  -1  -8  -7  143.39   15.10
  -1  -8  -7  113.99   14.70
  -1   8  -7  125.49   14.40
  -1   8  -7  130.29   13.90
   1   8   7  112.49   12.60
   1   8   7  133.99   12.40
   2  -8   7  229.88   16.70
  -2  -8  -7  241.68   20.70
  -2  -8  -7  225.68   18.30
   2   8   7  247.98   17.10
  -2   8  -7  240.48   18.10
  -2   8  -7  214.58   17.60
  -3  -8  -7  137.99   17.30
   3  -8   7  130.29   14.70
  -3   8  -7  129.19   15.10
   3   8   7  135.09   14.80
  -3   8  -7  128.09   15.70
  -4  -8  -7  155.78   19.70
  -4   8  -7  166.38   17.90
  -4   8  -7  166.08   18.20
   4  -9  -7  101.29   15.50
  -4  -9   7  100.09   15.60
  -4  -9   7  115.89   17.30
  -4   9   7   75.19   12.80
  -4   9   7   68.39   12.90
   4   9  -7  120.29   16.40
   3  -9  -7  283.27   22.30
  -3  -9   7  353.76   23.60
  -3  -9   7  316.57   22.60
  -3   9   7  328.77   19.90
   3   9  -7  317.17   21.90
  -3   9   7  334.17   21.70
   2  -9  -7  135.49   16.70
  -2  -9   7  174.68   17.00
  -2  -9   7  154.18   16.80
  -2   9   7  154.58   15.90
  -2   9   7  165.78   15.10
   2   9  -7  189.08   18.20
   1  -9  -7  176.58   16.80
  -1  -9   7  196.08   16.70
  -1  -9   7  213.18   19.50
   1  -9  -7  204.48   19.10
   1   9  -7  202.28   17.00
  -1   9   7  174.18   15.10
   1   9  -7  186.38   17.20
  -1   9   7  201.78   17.20
   0  -9  -7  545.45   26.20
   0  -9  -7  518.15   27.40
   0  -9   7  548.75   26.50
   0   9  -7  479.85   23.80
   0   9   7  482.35   23.60
   0   9  -7  536.45   25.70
   1  -9   7   47.20   11.20
  -1  -9  -7   62.39   12.90
  -1  -9  -7   96.09   14.30
  -1   9  -7   58.09   12.10
   1   9   7   64.09   11.50
  -1   9  -7   51.09   12.60
  -2  -9  -7  136.59   16.30
  -2  -9  -7  195.48   19.80
   2  -9   7  165.88   17.10
  -2   9  -7  168.68   18.10
  -2   9  -7  158.48   16.90
   2   9   7  148.49   15.80
  -3  -9  -7   31.40   12.90
  -3   9  -7   36.00   12.00
   3   9   7   47.90   12.10
  -3   9  -7   39.80   12.40
  -3 -10   7   44.70   17.00
  -3  10   7   26.80   11.20
  -3  10   7   29.20   12.50
  -2 -10   7   76.09   14.70
  -2 -10   7   95.99   15.50
   2 -10  -7   80.09   16.30
   2  10  -7  105.69   16.20
  -2  10   7   77.39   14.10
  -2  10   7   90.99   13.60
  -1 -10   7  433.76   25.90
   1 -10  -7  443.46   27.80
   1  10  -7  441.16   25.50
   1  10  -7  412.86   23.80
  -1  10   7  410.96   24.80
   0 -10  -7   36.10   12.70
   0 -10  -7   61.89   14.40
   0 -10   7   71.09   14.20
   0  10   7   71.69   13.20
   0  10  -7   73.09   14.30
   0  10  -7   78.99   13.10
   1 -10   7  118.89   16.40
  -1 -10  -7  130.29   17.80
  -1 -10  -7  125.19   17.40
  -1  10  -7  137.69   17.50
  -1  10  -7  136.09   16.30
   1  10   7  147.09   16.70
  -2 -10  -7    3.10   11.90
   2 -10   7   27.20   11.40
  -2  10  -7    3.30   10.70
   2  10   7   48.50   12.70
  -8   0   8  143.09   21.70
  -7   0   8    0.20    8.40
  -7   0   8    1.70    8.90
  -6   0   8 1048.40   33.90
  -6   0   8  987.00   30.30
  -6   0   8 1054.59   34.30
  -5   0   8  401.06   17.60
  -5   0   8  399.96   16.50
  -5   0   8  400.16   17.80
  -5   0   8  371.76   17.40
  -5   0   8  399.76   15.90
  -4   0   8  332.87   14.70
  -4   0   8  345.77   13.20
  -4   0   8  347.07   14.10
  -4   0   8  327.67   13.90
  -4   0   8  324.87   13.90
  -3   0   8 1854.51   43.90
  -3   0   8 1815.72   43.90
  -3   0   8 1842.92   41.90
  -3   0   8 1806.32   41.60
  -2   0   8 6366.46  126.79
  -2   0   8 6374.36  130.69
  -2   0   8 6167.68  127.99
   1   0  -8  214.38    8.80
  -1   0   8  221.08    6.10
  -1   0   8  222.68   10.30
  -1   0   8  209.88    9.10
   0   0   8  413.96   13.90
   0   0   8  410.56   13.40
   0   0  -8  403.46   12.70
  -1   0  -8 2292.37   50.89
   1   0   8 2367.16   50.69
  -1   0  -8 2293.67   48.00
   1   0   8 2306.17   51.59
  -1   0  -8 2288.07   51.69
  -2   0  -8 1079.19   26.20
   2   0   8 1063.39   25.70
  -2   0  -8 1050.99   28.30
  -2   0  -8 1061.89   27.80
   2   0   8 1075.99   28.50
  -3   0  -8 1693.63   40.40
  -3   0  -8 1644.34   40.30
  -3   0  -8 1705.13   42.30
   3   0   8 1646.94   42.10
  -4   0  -8 1019.70   32.60
  -4   0  -8 1071.09   31.10
   4   0   8 1066.09   32.00
  -5   0  -8   28.80    9.30
   5   0   8   40.20   10.00
  -5   0  -8   50.49   10.80
  -6   0  -8  576.94   27.90
   6   0   8  485.75   25.00
  -6   0  -8  496.85   25.10
  -7   0  -8    7.90   10.70
  -8   1   8  110.29   16.90
  -7  -1   8  246.28   21.00
  -7  -1   8  288.67   20.40
  -7   1   8  258.87   20.00
  -7   1   8  265.87   19.50
  -7   1   8  247.08   16.80
  -6  -1   8  324.27   19.30
  -6  -1   8  318.27   18.20
  -6  -1   8  333.67   19.70
  -6   1   8  345.87   17.20
  -6   1   8  312.47   18.40
  -6   1   8  343.17   18.90
  -5  -1   8 1352.36   34.20
  -5  -1   8 1340.87   37.60
  -5  -1   8 1375.66   38.10
  -5  -1   8 1278.67   35.30
  -5  -1   8 1301.57   37.00
  -5   1   8 1303.97   36.20
  -5   1   8 1324.97   35.60
  -5   1   8 1270.27   35.10
  -5   1   8 1340.27   35.60
  -5   1   8 1312.67   36.50
  -4  -1   8  440.66   16.70
  -4  -1   8  444.56   18.20
  -4  -1   8  473.45   15.10
  -4  -1   8  418.76   17.10
  -4   1   8  467.45   17.10
  -4   1   8  466.75   17.00
  -4   1   8  447.66   16.10
  -4   1   8  444.26   16.50
  -4   1   8  433.06   16.30
  -3  -1   8 2084.89   45.10
  -3  -1   8 2058.89   48.40
  -3  -1   8 2009.10   48.90
  -3   1   8 2113.69   49.20
  -3   1   8 2039.90   46.50
  -3   1   8 2060.59   47.60
  -3   1   8 2111.59   46.90
  -2  -1   8 1634.04   35.90
  -2  -1   8 1614.14   39.60
  -2  -1   8 1618.14   39.30
  -2   1   8 1644.24   38.20
  -2   1   8 1668.03   36.00
  -2   1   8 1611.54   39.60
  -1  -1   8  311.67   12.30
   1  -1  -8  317.27    9.50
  -1  -1   8  287.77   10.10
  -1   1   8  337.17   12.00
   1   1  -8  304.87   11.60
  -1   1   8  334.67    8.00
   1   1  -8  330.37    9.40
   0  -1   8   67.19    5.90
   0  -1  -8   58.09    6.70
   0  -1  -8   60.89    4.90
   0  -1   8   55.39    6.30
   0   1  -8   56.09    4.10
   0   1  -8   48.70    5.80
   0   1   8   53.29    6.30
  -1  -1  -8 1912.11   39.50
  -1  -1  -8 1856.91   41.60
   1  -1   8 1879.01   42.50
  -1  -1  -8 1877.71   44.00
   1  -1   8 1847.22   42.90
  -1   1  -8 1842.62   40.60
  -1   1  -8 1894.21   43.70
   1   1   8 1934.71   42.90
   1   1   8 1895.61   43.70
  -2  -1  -8 1613.84   39.20
  -2  -1  -8 1621.54   36.40
   2  -1   8 1626.64   39.10
   2  -1   8 1570.44   36.20
  -2  -1  -8 1523.25   37.80
   2   1   8 1660.23   37.40
  -2   1  -8 1658.23   37.90
  -2   1  -8 1614.74   38.30
   2   1   8 1641.34   40.10
  -2   1  -8 1644.94   40.30
  -3  -1  -8   37.00    7.00
   3  -1   8   44.60    7.30
  -3  -1  -8   43.20    7.10
  -3  -1  -8   38.90    6.80
  -3   1  -8   41.30    5.90
   3   1   8   30.10    6.80
  -3   1  -8   36.70    6.50
  -3   1  -8   32.50    7.30
  -4  -1  -8 2672.03   63.09
   4  -1   8 2675.53   64.69
  -4  -1  -8 2649.33   64.59
  -4  -1  -8 2753.42   62.99
   4   1   8 2599.34   62.49
  -4   1  -8 2538.55   61.09
  -4   1  -8 2627.44   63.49
  -5  -1  -8   89.69   12.00
  -5  -1  -8   96.09   12.90
   5  -1   8   83.99   12.20
   5   1   8   88.39   12.20
  -5   1  -8  102.39   12.40
  -5   1  -8  121.59   14.00
   6  -1   8  274.57   19.80
  -6  -1  -8  284.27   20.00
  -6  -1  -8  300.77   21.80
  -6   1  -8  277.37   21.80
  -6   1  -8  263.77   19.80
   6   1   8  289.57   20.10
  -7  -1  -8   26.10   13.00
   7   1   8   11.00   12.40
  -7   1  -8   24.00   13.20
  -7  -2   8  480.95   25.30
  -7  -2   8  532.65   27.10
  -7   2   8  531.35   24.70
  -7   2   8  544.75   26.10
  -7   2   8  516.95   25.80
  -6  -2   8  119.19   13.60
  -6  -2   8  132.19   13.60
  -6  -2   8  149.79   15.30
  -6   2   8  134.09   13.80
  -6   2   8  159.28   14.50
  -6   2   8  145.49   13.80
  -5  -2   8  699.43   23.40
  -5  -2   8  726.43   26.70
  -5  -2   8  709.83   25.80
  -5   2   8  743.13   24.80
  -5   2   8  695.83   23.90
  -5   2   8  702.93   24.90
  -5   2   8  718.73   23.60
  -4  -2   8 2270.47   54.09
  -4  -2   8 2285.37   55.79
  -4   2   8 2255.97   53.99
  -4   2   8 2360.26   53.19
  -4   2   8 2288.27   54.69
  -4   2   8 2346.87   53.89
  -3  -2   8 1480.95   38.40
  -3  -2   8 1467.15   37.20
  -3  -2   8 1438.66   32.30
  -3   2   8 1461.45   36.50
  -3   2   8 1443.56   35.10
  -3   2   8 1473.65   33.90
  -2  -2   8  554.24   18.30
  -2  -2   8  560.94   14.10
  -2  -2   8  548.15   18.80
   2   2  -8  596.34   18.70
   2   2  -8  592.94   16.80
  -2   2   8  597.84   14.70
  -2   2   8  549.65   17.80
  -2   2   8  583.94   15.80
   1  -2  -8  800.62   22.60
  -1  -2   8  753.32   18.60
  -1  -2   8  762.32   22.10
  -1  -2   8  756.52   22.20
   1   2  -8  765.52   21.60
   1   2  -8  795.02   19.40
  -1   2   8  734.63   17.70
  -1   2   8  790.72   21.50
   0  -2   8  355.16   13.20
   0  -2  -8  361.46   14.30
   0  -2  -8  355.06    9.70
   0  -2   8  360.26   11.70
   0  -2   8  348.07   13.20
   0   2   8  360.56   13.30
   0   2   8  358.76    9.30
   0   2  -8  378.96   13.70
   0   2  -8  365.66   11.40
  -1  -2  -8 5221.18  104.19
   1  -2   8 5077.49  106.09
   1  -2   8 5040.10  106.39
  -1  -2  -8 5124.69  108.19
  -1   2  -8 4950.80  103.49
  -1   2  -8 5054.49  106.49
   1   2   8 5179.28  106.19
  -2  -2  -8  524.45   18.90
   2  -2   8  489.45   17.00
  -2  -2  -8  472.85   16.10
   2  -2   8  484.45   15.30
  -2   2  -8  452.35   15.20
  -2   2  -8  492.05   17.70
   2   2   8  452.35   16.70
   3  -2   8 1061.89   30.40
  -3  -2  -8 1033.60   30.50
  -3  -2  -8 1041.70   29.70
  -3   2  -8 1038.60   30.90
   3   2   8 1072.69   30.10
  -3   2  -8 1026.70   29.00
   4  -2   8  541.55   22.30
  -4  -2  -8  588.64   21.70
  -4  -2  -8  586.74   22.70
  -4  -2  -8  568.54   22.30
   4   2   8  606.44   22.70
  -4   2  -8  582.54   24.40
  -4   2  -8  590.54   22.30
  -5  -2  -8 1508.05   44.40
  -5  -2  -8 1523.05   43.30
   5  -2   8 1482.45   43.70
  -5   2  -8 1482.95   45.10
  -5   2  -8 1473.75   43.00
   5   2   8 1491.75   42.80
   6  -2   8  239.48   19.70
  -6  -2  -8  254.77   20.30
  -6  -2  -8  316.57   22.00
  -6   2  -8  287.67   22.30
   6   2   8  281.37   20.50
  -6   2  -8  258.47   20.70
  -7  -3   8  202.88   19.50
  -7  -3   8  178.08   18.10
  -7  -3   8  180.08   19.20
  -7   3   8  227.08   19.60
  -7   3   8  195.88   18.00
  -6  -3   8  102.59   14.40
  -6  -3   8  109.49   14.30
  -6   3   8  106.09   12.80
  -6   3   8  131.29   14.00
  -6   3   8  126.69   13.70
  -5  -3   8 1025.70   33.40
  -5  -3   8 1047.40   34.70
  -5  -3   8 1078.89   31.40
  -5   3   8 1038.90   30.00
  -5   3   8 1061.79   32.70
  -5   3   8 1070.79   32.60
  -4  -3   8  229.18   15.60
  -4  -3   8  270.87   14.20
  -4   3   8  271.57   11.80
  -4   3   8  278.37   14.10
  -4   3   8  262.57   14.20
  -3  -3   8 2095.99   51.89
  -3  -3   8 2105.69   50.69
   3   3  -8 2021.70   48.40
  -3   3   8 2116.89   45.30
  -3   3   8 2076.29   49.40
  -3   3   8 2033.30   47.60
   2  -3  -8 1530.15   38.00
  -2  -3   8 1529.75   38.90
  -2  -3   8 1542.65   39.50
   2   3  -8 1455.95   36.10
   2   3  -8 1570.94   38.20
  -2   3   8 1482.95   37.10
  -2   3   8 1545.75   35.20
  -1  -3   8 1055.99   29.30
  -1  -3   8 1098.59   24.60
  -1  -3   8 1105.69   29.60
   1  -3  -8 1111.69   29.50
   1   3  -8 1132.09   27.10
   1   3  -8 1069.19   28.80
  -1   3   8 1075.59   28.40
  -1   3   8 1067.99   25.40
   0  -3   8   59.29    7.00
   0  -3   8   41.50    6.00
   0  -3   8   45.40    5.00
   0  -3  -8   39.10    7.00
   0   3   8   48.70    4.40
   0   3   8   56.19    6.60
   0   3  -8   47.50    5.80
   0   3  -8   48.60    6.80
  -1  -3  -8  135.99    6.80
  -1  -3  -8  131.89   11.00
   1  -3   8  144.99    8.30
   1  -3   8  131.59    8.10
   1  -3   8  128.79    8.80
  -1   3  -8  112.59    9.50
   1   3   8  130.59    6.80
   1   3   8  131.69    9.30
  -1   3  -8  127.69    8.30
   2  -3   8 1484.75   37.10
   2  -3   8 1515.05   35.40
   2  -3   8 1547.75   38.30
  -2  -3  -8 1573.24   36.70
  -2  -3  -8 1556.14   40.50
  -2   3  -8 1538.45   37.80
  -2   3  -8 1548.55   40.10
   2   3   8 1526.35   38.80
  -3  -3  -8  190.48   14.00
   3  -3   8  189.78   12.60
  -3  -3  -8  180.48   12.00
  -3   3  -8  166.98   13.10
  -3   3  -8  182.68   11.80
   3   3   8  158.48   12.00
  -4  -3  -8  167.58   14.10
  -4  -3  -8  124.59   13.20
   4  -3   8  135.69   12.60
   4   3   8  150.78   13.00
  -4   3  -8  145.59   14.30
  -4   3  -8  153.78   13.10
   5  -3   8  685.33   27.00
  -5  -3  -8  651.23   26.60
  -5  -3  -8  600.74   26.10
  -5  -3  -8  654.13   27.10
   5   3   8  634.44   26.40
  -5   3  -8  642.24   28.40
  -5   3  -8  681.83   27.30
  -6  -3  -8  736.13   30.80
   6  -3   8  698.23   30.10
  -6  -3  -8  717.13   31.10
   6   3   8  781.42   31.20
  -6   3  -8  750.82   31.80
  -6   3  -8  791.12   34.40
  -7  -4   8   64.09   14.70
  -7  -4   8   64.29   15.00
  -7   4   8   58.69   13.10
  -7   4   8   52.99   12.30
  -6  -4   8  415.96   23.60
  -6  -4   8  401.36   25.50
  -6   4   8  406.86   21.70
  -6   4   8  415.06   21.90
  -5  -4   8  124.69   12.20
  -5  -4   8  116.99   13.70
  -5  -4   8  100.49   12.70
  -5   4   8  128.69   13.00
  -5   4   8  122.89   13.40
  -4  -4   8  490.85   20.10
  -4  -4   8  490.35   22.20
  -4   4   8  496.95   19.50
  -4   4   8  502.65   20.10
  -3  -4   8  312.77   16.60
  -3  -4   8  304.27   15.20
  -3   4   8  328.57   14.10
  -3   4   8  307.07   14.60
   3   4  -8  305.97   14.60
   2  -4  -8  464.45   16.80
  -2  -4   8  449.95   17.60
  -2  -4   8  444.16   18.30
  -2   4   8  464.15   15.40
   2   4  -8  426.16   16.30
   2   4  -8  460.05   17.40
  -2   4   8  436.76   16.50
   1  -4  -8   42.20    7.00
  -1  -4   8   52.09    7.30
  -1  -4   8   51.29    7.30
   1   4  -8   44.80    6.50
  -1   4   8   36.20    6.30
  -1   4   8   36.30    5.10
   1   4  -8   42.20    6.70
   0  -4   8  363.16   14.40
   0  -4   8  392.86   15.50
   0  -4  -8  358.86   16.10
   0  -4  -8  366.96   15.50
   0  -4   8  368.96   11.90
   0   4  -8  372.76   15.40
   0   4   8  381.16   14.80
   0   4  -8  376.16   14.20
   0   4   8  366.66   12.50
  -1  -4  -8  109.29    9.60
   1  -4   8  127.79    9.50
   1  -4   8  107.39    7.90
  -1  -4  -8  130.19   11.30
   1  -4   8  120.99    8.00
   1   4   8  106.59    9.70
  -1   4  -8  119.79    9.00
  -1   4  -8   99.69    9.60
   1   4   8   95.99    7.20
  -2  -4  -8  597.44   23.00
  -2  -4  -8  603.84   18.40
   2  -4   8  622.44   20.20
   2  -4   8  600.74   19.90
   2   4   8  589.64   20.50
  -2   4  -8  618.24   22.40
   2   4   8  620.54   19.20
  -2   4  -8  629.04   20.80
   3  -4   8  523.95   20.20
  -3  -4  -8  515.65   22.30
  -3  -4  -8  525.85   19.20
  -3   4  -8  478.45   19.60
   3   4   8  516.15   19.80
  -3   4  -8  473.85   21.40
   4  -4   8  553.54   22.70
  -4  -4  -8  570.84   25.00
  -4  -4  -8  586.74   23.00
   4   4   8  547.65   22.50
  -4   4  -8  540.75   23.20
  -4   4  -8  564.64   24.90
  -5  -4  -8   13.20    9.40
  -5  -4  -8   15.50   10.20
   5  -4   8   30.40    9.40
  -5   4  -8    8.90    8.30
  -5   4  -8    7.00    9.80
   5   4   8   10.00    9.40
  -6  -4  -8  310.57   23.50
   6  -4   8  337.07   21.60
  -6  -4  -8  379.96   24.10
  -6   4  -8  375.66   23.40
  -6   4  -8  316.37   25.10
  -7  -5   8   62.09   15.00
  -7   5   8   64.19   12.80
  -6  -5   8  114.99   16.40
  -6  -5   8   98.39   14.70
  -6   5   8  115.89   14.70
  -6   5   8   90.69   13.00
  -5  -5   8  220.48   19.50
  -5  -5   8  218.78   15.70
  -5   5   8  219.68   15.90
  -5   5   8  254.87   17.20
  -4  -5   8  570.14   25.30
  -4  -5   8  575.94   23.20
  -4   5   8  527.05   21.70
   4   5  -8  549.95   22.50
  -4   5   8  528.75   21.30
  -3  -5   8  449.95   20.70
  -3  -5   8  433.36   19.50
  -3   5   8  436.56   18.40
   3   5  -8  456.85   19.00
  -3   5   8  471.35   18.40
  -2  -5   8  207.38   13.00
  -2  -5   8  214.08   13.80
   2  -5  -8  193.78   12.10
   2  -5  -8  190.98   13.00
   2   5  -8  204.38   12.50
   2   5  -8  198.88   12.80
  -2   5   8  195.68   12.00
  -2   5   8  196.78   11.30
  -1  -5   8  196.48   12.10
   1  -5  -8  194.58   13.00
  -1  -5   8  208.18   12.60
   1  -5  -8  195.28   12.60
   1   5  -8  184.58   11.70
  -1   5   8  218.98   11.90
   1   5  -8  203.28   12.70
  -1   5   8  194.58   10.40
   0  -5   8  902.51   27.70
   0  -5   8  887.21   22.40
   0  -5  -8  895.51   28.00
   0  -5  -8  848.92   27.70
   0  -5   8  881.41   25.90
   0   5   8  880.31   24.50
   0   5   8  904.71   26.20
   0   5  -8  911.41   26.30
   0   5  -8  878.91   27.20
   1  -5   8  266.77   11.70
   1  -5   8  255.57   13.70
   1  -5   8  273.87   12.10
  -1  -5  -8  264.67   14.80
  -1  -5  -8  284.47   16.00
  -1   5  -8  252.77   14.40
   1   5   8  262.07   13.60
  -1   5  -8  303.27   14.50
   1   5   8  261.57   12.10
   2  -5   8 1667.23   42.00
  -2  -5  -8 1668.83   43.00
   2  -5   8 1681.33   43.00
  -2  -5  -8 1687.43   46.10
   2   5   8 1646.44   42.50
  -2   5  -8 1694.23   45.10
   2   5   8 1669.13   41.50
  -2   5  -8 1662.73   43.10
   3  -5   8  204.18   13.50
  -3  -5  -8  214.18   16.90
  -3   5  -8  199.38   16.10
   3   5   8  206.88   14.10
  -3   5  -8  218.88   14.90
   4  -5   8  255.37   16.60
  -4  -5  -8  265.07   19.80
  -4   5  -8  258.67   17.80
   4   5   8  256.87   16.40
  -4   5  -8  258.77   19.40
  -5  -5  -8  103.99   15.10
  -5   5  -8   82.89   14.90
  -5   5  -8   95.69   14.10
  -6  -5  -8   37.80   13.80
  -6   5  -8   22.70   12.20
  -6  -6   8   21.30   12.40
  -6  -6   8   25.80   12.00
  -6   6   8   -0.40    8.40
  -6   6   8   37.30   11.40
  -5  -6   8  127.59   14.30
  -5  -6   8  146.59   17.00
  -5   6   8  132.79   14.30
  -5   6   8  160.98   16.20
  -4  -6   8  608.04   27.60
  -4  -6   8  620.04   25.30
  -4   6   8  574.44   23.30
  -4   6   8  559.34   23.50
   4   6  -8  578.64   24.40
  -3  -6   8   15.00    8.30
  -3  -6   8   21.10    8.20
   3   6  -8   29.70    8.70
  -3   6   8   12.90    6.90
  -3   6   8   33.10    8.10
   2  -6  -8  396.76   17.50
  -2  -6   8  385.76   18.80
   2  -6  -8  391.26   19.30
  -2  -6   8  385.36   18.80
   2   6  -8  349.37   17.70
  -2   6   8  403.86   17.60
   2   6  -8  391.56   18.20
  -2   6   8  385.46   16.70
  -1  -6   8  126.89   11.40
  -1  -6   8  102.79   11.10
   1  -6  -8  112.59   11.20
   1  -6  -8  128.09   12.50
   1   6  -8  130.49   11.80
   1   6  -8  110.99   11.20
  -1   6   8  122.69   10.80
  -1   6   8  109.79    9.90
   0  -6  -8  276.97   16.50
   0  -6  -8  318.27   17.00
   0  -6   8  325.47   16.50
   0  -6   8  307.77   14.90
   0   6   8  289.37   14.40
   0   6  -8  273.37   15.20
   0   6  -8  275.47   15.50
   0   6   8  275.17   13.60
  -1  -6  -8  856.71   29.80
   1  -6   8  821.02   27.70
  -1  -6  -8  855.71   28.40
  -1   6  -8  832.32   26.90
  -1   6  -8  774.32   27.50
   1   6   8  812.32   24.90
   1   6   8  838.52   26.00
  -2  -6  -8  159.78   15.20
  -2  -6  -8  149.19   12.90
   2  -6   8  149.39   12.30
  -2   6  -8  172.78   14.40
   2   6   8  150.58   11.90
   2   6   8  162.18   13.00
  -2   6  -8  151.58   14.30
  -3  -6  -8  226.78   18.80
  -3   6  -8  231.28   16.80
  -3   6  -8  197.78   17.00
   3   6   8  198.28   15.00
  -4  -6  -8   55.19   12.70
  -4   6  -8   37.90   10.80
  -4   6  -8   39.60   11.00
  -5  -6  -8  730.03   33.40
  -5   6  -8  683.93   30.10
  -5   6  -8  665.83   31.60
  -6   7   8   79.29   14.20
  -5  -7   8   58.29   14.00
  -5  -7   8   84.19   13.00
  -5   7   8   59.29   12.40
  -5   7   8   35.60   11.20
  -4  -7   8   78.29   13.80
  -4  -7   8   54.79   11.60
  -4   7   8   67.49   11.80
  -4   7   8   67.59   11.60
   4   7  -8   64.99   12.20
   3  -7  -8  254.47   17.90
  -3  -7   8  282.87   19.50
  -3  -7   8  244.68   18.00
   3   7  -8  259.87   17.30
  -3   7   8  226.98   15.90
  -3   7   8  258.17   16.80
  -2  -7   8  115.69   13.70
  -2  -7   8  128.19   13.70
   2  -7  -8  104.39   12.90
   2  -7  -8  123.09   12.10
   2   7  -8  126.89   13.60
   2   7  -8  143.59   13.80
  -2   7   8  130.29   12.20
  -2   7   8  126.39   12.40
   1  -7  -8  598.64   23.60
  -1  -7   8  600.34   24.60
  -1  -7   8  571.74   23.20
   1  -7  -8  603.84   25.30
  -1   7   8  610.14   21.80
   1   7  -8  558.24   23.10
   1   7  -8  608.14   23.90
  -1   7   8  585.44   22.30
   0  -7   8  342.87   18.60
   0  -7  -8  350.76   19.80
   0  -7   8  328.77   16.70
   0  -7  -8  382.06   19.90
   0   7   8  315.17   15.70
   0   7   8  273.67   15.30
   0   7  -8  327.57   17.80
   0   7  -8  345.27   18.00
  -1  -7  -8  503.65   24.10
   1  -7   8  508.15   22.10
  -1  -7  -8  505.25   23.30
  -1   7  -8  473.35   22.10
  -1   7  -8  479.45   21.80
   1   7   8  500.85   20.40
   1   7   8  489.75   19.90
   2  -7   8  309.07   17.70
  -2  -7  -8  296.27   20.40
  -2  -7  -8  269.77   18.00
   2   7   8  288.07   16.40
  -2   7  -8  302.87   19.10
   2   7   8  300.27   16.60
  -2   7  -8  272.27   18.00
  -3  -7  -8   19.00   10.60
  -3   7  -8    4.20    8.70
   3   7   8   11.40    8.00
  -3   7  -8    0.30    8.70
  -4  -7  -8  318.57   23.70
  -4   7  -8  265.27   20.70
  -4   7  -8  306.47   21.40
  -5   7  -8   -6.00   10.30
   5   8  -8    6.10   11.50
  -5   8   8   14.10   11.20
  -5   8   8   21.20   14.30
  -4  -8   8  233.48   21.50
  -4  -8   8  182.28   18.50
  -4   8   8  193.68   18.00
   4   8  -8  196.68   18.30
  -4   8   8  189.68   17.90
   3  -8  -8   46.80   11.50
  -3  -8   8   38.10   11.60
  -3  -8   8   46.60   11.30
   3   8  -8   31.30   10.50
  -3   8   8   38.50    9.80
  -3   8   8   49.50   10.70
   2  -8  -8  161.48   16.80
  -2  -8   8  189.08   17.30
  -2  -8   8  170.78   16.40
   2   8  -8  171.48   16.30
  -2   8   8  167.98   15.00
   2   8  -8  207.88   17.10
  -2   8   8  199.68   15.60
  -1  -8   8  155.78   15.50
   1  -8  -8  166.78   15.00
  -1  -8   8  158.38   14.70
   1  -8  -8  174.88   16.70
  -1   8   8  167.38   14.20
   1   8  -8  147.59   15.20
  -1   8   8  154.78   13.50
   1   8  -8  161.48   15.20
   0  -8   8  218.98   16.50
   0  -8  -8  210.18   17.60
   0  -8  -8  220.88   18.70
   0   8  -8  204.88   16.20
   0   8  -8  224.48   17.30
   0   8   8  205.68   14.40
   0   8   8  186.38   14.20
  -1  -8  -8   12.50    9.40
  -1  -8  -8   12.10   10.10
   1  -8   8   27.10    9.10
   1   8   8   25.00    8.40
   1   8   8   11.80    7.90
  -1   8  -8   15.30    9.20
  -1   8  -8    9.90    9.50
  -2  -8  -8  162.48   16.50
   2  -8   8  178.08   16.40
  -2  -8  -8  174.08   17.70
   2   8   8  165.88   14.90
  -2   8  -8  166.18   16.70
  -2   8  -8  198.28   17.40
  -3  -8  -8  105.79   16.80
  -3   8  -8  100.49   14.60
   3   8   8   94.49   13.50
  -3   8  -8   80.69   14.10
  -4  -8  -8   36.40   18.10
  -4   8  -8   29.20   12.20
  -4   8  -8   33.70   12.90
  -4  -9   8  187.78   29.90
  -4  -9   8  201.58   19.90
   4  -9  -8  215.58   20.30
   4   9  -8  203.78   21.50
  -4   9   8  225.18   19.20
  -4   9   8  227.38   19.70
   3  -9  -8   41.80   12.50
  -3  -9   8   37.80   11.90
  -3  -9   8   49.70   12.70
  -3   9   8   52.69   12.20
  -3   9   8   35.20   11.20
   3   9  -8   54.99   12.60
   2  -9  -8  362.36   24.00
  -2  -9   8  367.66   23.10
  -2  -9   8  321.97   21.60
   2   9  -8  350.26   22.40
  -2   9   8  345.77   20.30
  -2   9   8  353.36   20.60
  -1  -9   8   10.90    8.50
   1  -9  -8    3.90   10.50
  -1  -9   8   12.30    8.70
   1  -9  -8   11.90    9.60
  -1   9   8   -4.40    8.00
  -1   9   8   12.30    9.40
   1   9  -8    6.90   10.00
   1   9  -8   18.90    9.00
   0  -9  -8  420.46   25.00
   0  -9  -8  439.86   24.30
   0  -9   8  410.26   23.60
   0   9  -8  435.66   23.50
   0   9   8  429.16   21.30
   0   9  -8  438.06   24.00
   0   9   8  443.76   22.10
  -1  -9  -8   75.69   13.90
  -1  -9  -8   80.89   13.90
   1  -9   8   58.69   11.80
  -1   9  -8   74.49   12.70
  -1   9  -8   58.39   12.80
   1   9   8   89.09   12.60
  -2  -9  -8   21.10   11.60
   2  -9   8   35.30   10.10
  -2  -9  -8   19.40   11.90
   2   9   8   33.50   14.30
  -2   9  -8   49.10   12.80
  -2   9  -8   55.89   12.40
  -3   9  -8  188.48   19.70
  -3   9  -8  147.29   17.60
  -3  10   8  101.99   15.30
  -2 -10   8   96.29   15.90
  -2  10   8   83.49   13.30
   2  10  -8   62.79   15.10
  -2  10   8   70.49   14.20
  -1 -10   8  278.27   22.80
   1 -10  -8  266.77   23.90
   1  10  -8  229.78   21.20
   1  10  -8  284.77   21.50
  -1  10   8  257.57   21.30
   0 -10   8   42.80   12.10
   0 -10  -8   66.39   14.40
   0 -10  -8   84.89   15.80
   0  10  -8   90.89   14.10
   0  10  -8   81.89   14.80
   0  10   8   53.49   14.40
  -1 -10  -8  144.89   17.60
  -1 -10  -8  178.38   19.70
   1 -10   8  135.49   16.60
  -1  10  -8  133.79   17.20
  -1  10  -8  128.89   16.60
  -2 -10  -8   62.29   15.20
   2 -10   8   55.39   12.50
  -2  10  -8   30.70   13.20
  -8   0   9   19.10   17.50
  -7   0   9   58.69   12.40
  -7   0   9   24.40   10.00
  -6   0   9 1445.86   42.80
  -6   0   9 1366.86   40.50
  -6   0   9 1322.47   40.70
  -6   0   9 1364.56   40.00
  -5   0   9    3.00    5.80
  -5   0   9   11.00    5.40
  -5   0   9   10.20    5.90
  -5   0   9   10.50    5.70
  -5   0   9    2.50    5.80
  -4   0   9  451.55   17.10
  -4   0   9  438.36   17.50
  -4   0   9  436.76   16.10
  -4   0   9  455.55   16.50
  -4   0   9  443.86   15.60
  -3   0   9 2786.32   64.39
  -3   0   9 2856.01   64.89
  -3   0   9 2912.31   61.79
  -3   0   9 2822.82   61.79
  -2   0   9   89.59    8.60
  -2   0   9   85.39    6.90
  -2   0   9   87.49    5.50
  -1   0   9 3304.17   70.49
   1   0  -9 3365.56   69.89
  -1   0   9 3302.07   72.59
   0   0   9 2954.20   64.49
   0   0   9 3009.30   65.49
   0   0  -9 3012.20   63.69
  -1   0  -9 2175.98   46.40
  -1   0  -9 2212.68   49.90
   1   0   9 2279.57   49.99
  -1   0  -9 2281.07   51.29
   1   0   9 2205.18   50.69
  -2   0  -9 1410.86   33.80
   2   0   9 1470.95   34.20
  -2   0  -9 1498.35   36.50
   2   0   9 1462.85   36.90
  -2   0  -9 1448.76   36.60
  -3   0  -9  415.96   16.20
  -3   0  -9  417.66   15.60
  -3   0  -9  401.36   17.60
   3   0   9  435.26   17.70
  -4   0  -9 4124.89   91.49
  -4   0  -9 4173.98   93.89
   4   0   9 4139.29   93.59
  -5   0  -9   75.69   12.60
   5   0   9   59.29   10.90
  -5   0  -9   51.19   10.20
   6   0   9  142.69   16.40
  -6   0  -9  135.29   15.30
  -6   0  -9  142.69   16.90
  -7  -1   9  323.37   21.50
  -7  -1   9  288.77   21.50
  -7   1   9  288.87   22.00
  -7   1   9  320.67   21.30
  -7   1   9  291.57   20.00
  -6  -1   9  282.47   18.40
  -6  -1   9  210.88   16.80
  -6  -1   9  239.88   16.60
  -6   1   9  260.57   17.00
  -6   1   9  238.98   16.30
  -6   1   9  230.58   15.00
  -5  -1   9  871.81   28.00
  -5  -1   9  795.12   26.40
  -5  -1   9  830.82   26.20
  -5  -1   9  794.42   27.70
  -5   1   9  833.32   26.40
  -5   1   9  872.21   27.00
  -5   1   9  832.52   26.80
  -5   1   9  820.32   26.10
  -5   1   9  823.32   26.30
  -4  -1   9  713.03   20.00
  -4  -1   9  668.23   22.50
  -4  -1   9  700.23   22.60
  -4  -1   9  688.93   23.80
  -4   1   9  657.73   21.40
  -4   1   9  683.13   21.20
  -4   1   9  711.43   22.50
  -4   1   9  696.33   22.60
  -4   1   9  677.63   20.80
  -3  -1   9  331.57   15.20
  -3  -1   9  344.77   11.80
  -3  -1   9  344.07   14.50
  -3   1   9  326.27   13.10
  -3   1   9  324.77   14.40
  -3   1   9  331.47   12.10
  -3   1   9  316.57   12.00
  -2  -1   9 4162.18   89.19
  -2  -1   9 4060.69   88.79
  -2  -1   9 4111.69   84.99
  -2   1   9 4275.67   85.29
  -2   1   9 4261.87   90.29
  -2   1   9 3992.20   87.89
  -1  -1   9  483.95   14.40
   1  -1  -9  503.55   13.40
  -1  -1   9  477.85   16.60
   1   1  -9  549.35   16.60
  -1   1   9  528.05   16.60
  -1   1   9  520.95   17.60
   1   1  -9  532.75   13.30
   0  -1   9  317.57   11.80
   0  -1  -9  329.97   10.80
   0  -1   9  343.77   13.10
   0  -1  -9  325.97   14.10
   0   1   9  305.97   12.50
   0   1   9  316.17   12.60
   0   1  -9  332.87   12.60
   0   1  -9  308.77    8.80
  -1  -1  -9  308.57   11.80
   1  -1   9  324.87   12.50
   1  -1   9  340.17   13.00
  -1  -1  -9  336.57   14.20
  -1  -1  -9  332.27    9.50
   1   1   9  347.27   12.90
  -1   1  -9  349.37   13.80
  -1   1  -9  334.57   10.60
   1   1   9  329.97   13.40
   2  -1   9  755.42   20.60
  -2  -1  -9  762.62   20.20
  -2  -1  -9  753.42   22.20
   2  -1   9  804.42   23.30
  -2  -1  -9  727.53   23.20
   2   1   9  724.33   22.90
  -2   1  -9  774.22   23.50
   2   1   9  773.42   20.70
  -2   1  -9  741.53   20.50
  -3  -1  -9 3377.76   76.09
  -3  -1  -9 3428.76   74.29
  -3  -1  -9 3411.36   76.39
   3  -1   9 3371.76   77.09
  -3   1  -9 3297.37   76.29
   3   1   9 3316.07   76.09
  -3   1  -9 3328.77   72.89
  -3   1  -9 3455.05   73.89
  -4  -1  -9  686.73   23.60
   4  -1   9  661.83   24.70
  -4  -1  -9  618.04   24.60
  -4  -1  -9  637.64   23.10
  -4   1  -9  658.73   25.80
   4   1   9  689.23   25.00
  -4   1  -9  632.94   22.90
  -5  -1  -9  550.74   25.40
  -5  -1  -9  596.14   23.90
   5  -1   9  568.54   25.00
  -5   1  -9  609.74   24.70
   5   1   9  633.74   26.10
  -5   1  -9  588.24   27.30
  -6  -1  -9   20.20   11.30
   6  -1   9   -3.00    9.60
  -6  -1  -9    7.30    9.90
   6   1   9    6.20    9.90
  -6   1  -9    8.70   11.40
  -6   1  -9    9.70   10.00
  -7  -2   9   12.70    9.90
  -7  -2   9   -1.50   10.00
  -7   2   9    4.70    8.90
  -7   2   9   14.20    9.30
  -7   2   9    0.50    8.00
  -6  -2   9  243.08   17.70
  -6  -2   9  223.78   18.20
  -6  -2   9  242.08   16.80
  -6   2   9  240.58   16.50
  -6   2   9  262.27   17.40
  -6   2   9  243.28   15.70
  -5  -2   9  355.46   16.90
  -5  -2   9  357.66   19.70
  -5  -2   9  390.16   19.00
  -5   2   9  360.26   16.90
  -5   2   9  362.46   17.50
  -5   2   9  353.86   17.40
  -5   2   9  357.76   16.90
  -5   2   9  349.67   15.90
  -4  -2   9  823.52   25.60
  -4  -2   9  790.82   27.10
  -4   2   9  813.12   24.20
  -4   2   9  821.12   23.50
  -4   2   9  785.32   24.90
  -4   2   9  816.02   24.70
  -4   2   9  814.02   25.70
  -3  -2   9  119.09    6.50
  -3  -2   9   92.59    9.70
  -3  -2   9  109.69    9.90
  -3   2   9  101.29    7.30
  -3   2   9  107.59    9.20
  -3   2   9   92.19    6.60
  -2  -2   9 1393.26   30.90
  -2  -2   9 1412.96   35.80
  -2  -2   9 1348.17   36.00
   2   2  -9 1413.96   32.30
   2   2  -9 1404.96   34.70
  -2   2   9 1338.37   33.90
  -2   2   9 1340.07   30.00
  -2   2   9 1345.67   31.00
  -1  -2   9  102.49    6.20
  -1  -2   9   94.49    8.10
  -1  -2   9  105.79    8.80
   1  -2  -9  103.29    9.30
   1   2  -9  113.19    8.40
  -1   2   9  109.29    8.30
  -1   2   9   98.69    4.80
   1   2  -9  116.39    6.60
   0  -2  -9    4.30    4.80
   0  -2   9    5.10    4.00
   0  -2   9    6.70    3.40
   0  -2  -9   -1.00    2.90
   0   2  -9   12.00    3.70
   0   2   9    4.30    1.80
   0   2  -9    3.60    4.60
   0   2   9    6.90    4.60
  -1  -2  -9  441.96   13.60
  -1  -2  -9  478.85   17.70
   1  -2   9  428.36   15.10
   1  -2   9  438.56   15.10
   1   2   9  465.25   16.50
  -1   2  -9  439.06   13.90
  -1   2  -9  465.45   16.90
  -2  -2  -9  278.27   14.30
  -2  -2  -9  235.68   11.50
   2  -2   9  259.37   12.70
   2  -2   9  272.87   11.20
   2   2   9  282.57   13.60
  -2   2  -9  293.17   12.10
  -2   2  -9  288.97   14.30
   3  -2   9 1344.77   36.90
  -3  -2  -9 1356.26   35.90
  -3  -2  -9 1339.27   37.30
  -3  -2  -9 1342.47   34.50
  -3   2  -9 1273.17   36.10
   3   2   9 1247.58   34.90
  -3   2  -9 1247.58   33.30
  -4  -2  -9  355.86   18.30
  -4  -2  -9  353.86   17.20
  -4  -2  -9  342.77   18.60
   4  -2   9  337.87   18.10
   4   2   9  315.77   17.20
  -4   2  -9  291.97   16.40
  -4   2  -9  317.07   19.30
   5  -2   9   48.00   10.80
  -5  -2  -9   46.20   10.70
  -5  -2  -9   65.29   11.10
  -5   2  -9   38.90    9.60
   5   2   9   26.10    9.80
  -5   2  -9   57.29   12.50
  -6  -2  -9   49.00   12.40
   6  -2   9   35.20   11.80
  -6   2  -9   55.59   14.30
  -6   2  -9   55.09   12.40
   6   2   9   49.30   12.10
  -7  -3   9   33.70   10.80
  -7  -3   9   45.30   13.30
  -7  -3   9   25.50   13.10
  -7   3   9   59.69   12.30
  -7   3   9   66.09   13.30
  -6  -3   9  101.79   14.40
  -6  -3   9   95.49   13.30
  -6   3   9   79.59   12.00
  -6   3   9   98.29   12.80
  -5  -3   9  389.46   21.10
  -5  -3   9  408.96   20.60
  -5  -3   9  393.36   18.40
  -5   3   9  383.96   18.10
  -5   3   9  393.66   18.90
  -4  -3   9  230.88   14.10
  -4  -3   9  251.07   16.30
  -4   3   9  234.08   12.90
  -4   3   9  250.77   14.00
  -3  -3   9 1229.48   34.40
  -3  -3   9 1261.17   35.70
  -3   3   9 1288.27   32.10
   3   3  -9 1255.67   32.90
  -3   3   9 1259.57   33.80
  -2  -3   9 1012.60   28.80
  -2  -3   9 1006.80   29.30
   2  -3  -9  981.80   28.00
   2   3  -9  934.61   25.10
   2   3  -9  953.00   27.20
  -2   3   9  953.10   26.70
  -2   3   9  960.70   23.90
  -1  -3   9  838.72   24.80
   1  -3  -9  821.82   24.80
  -1  -3   9  804.82   19.90
  -1  -3   9  854.31   24.90
   1   3  -9  825.72   21.60
   1   3  -9  805.12   23.80
  -1   3   9  781.12   19.70
  -1   3   9  817.92   23.40
   0  -3   9  671.23   18.00
   0  -3  -9  643.44   21.70
   0  -3   9  639.64   20.50
   0  -3   9  640.54   20.10
   0   3  -9  700.13   19.20
   0   3  -9  666.93   21.20
   0   3   9  649.34   20.60
   0   3   9  669.63   16.80
  -1  -3  -9  449.06   17.90
   1  -3   9  446.26   15.90
   1  -3   9  424.36   14.90
   1  -3   9  438.26   15.10
  -1  -3  -9  412.96   12.80
  -1   3  -9  431.76   17.40
  -1   3  -9  462.35   15.30
   1   3   9  466.15   13.60
   1   3   9  476.55   17.30
  -2  -3  -9  123.29   11.40
   2  -3   9  110.39    9.40
   2  -3   9  117.19    8.70
   2  -3   9  118.19    7.90
  -2  -3  -9  111.99    8.90
  -2   3  -9  111.19    9.20
   2   3   9  104.19    9.70
  -2   3  -9  112.79   10.90
  -3  -3  -9  687.33   22.50
   3  -3   9  650.93   23.10
  -3  -3  -9  663.63   24.80
  -3   3  -9  603.64   23.80
   3   3   9  601.84   22.20
  -3   3  -9  633.54   21.40
   4  -3   9    0.60    6.80
  -4  -3  -9   -4.30    7.90
  -4  -3  -9    1.00    7.20
  -4   3  -9    6.90    8.80
   4   3   9    3.10    7.10
  -4   3  -9    8.20    7.20
  -5  -3  -9  477.35   23.40
  -5  -3  -9  471.85   23.20
   5  -3   9  450.35   23.10
  -5  -3  -9  493.75   23.90
   5   3   9  483.85   23.90
  -5   3  -9  468.15   22.90
  -5   3  -9  491.05   25.50
   6  -3   9  420.96   24.60
  -6  -3  -9  437.16   25.30
   6   3   9  456.15   25.10
  -6   3  -9  392.96   24.10
  -6   3  -9  421.76   26.90
  -7  -4   9   87.29   16.10
  -7  -4   9  122.89   18.30
  -7   4   9   95.89   14.10
  -7   4   9   94.79   15.40
  -6  -4   9  127.39   16.60
  -6  -4   9  122.89   15.30
  -6   4   9  119.39   14.00
  -6   4   9  148.69   15.50
  -5  -4   9  794.22   31.60
  -5  -4   9  852.41   28.70
  -5   4   9  818.52   28.50
  -5   4   9  864.11   29.50
  -4  -4   9 2008.60   51.69
  -4  -4   9 2035.30   54.19
  -4   4   9 1984.90   49.99
  -4   4   9 1889.41   47.90
  -3  -4   9 1774.32   48.20
  -3  -4   9 1874.51   47.30
  -3   4   9 1844.72   44.30
  -3   4   9 1821.42   46.00
   3   4  -9 1830.92   45.30
   2  -4  -9 2086.19   49.50
  -2  -4   9 2073.89   51.29
  -2  -4   9 1981.20   50.49
  -2   4   9 2037.10   49.99
  -2   4   9 2049.59   47.40
   2   4  -9 2151.48   51.09
   2   4  -9 2106.39   49.00
   1  -4  -9  287.17   14.40
  -1  -4   9  302.27   14.10
  -1  -4   9  276.07   13.80
  -1   4   9  310.47   13.60
   1   4  -9  307.07   14.30
  -1   4   9  289.67   11.20
   1   4  -9  292.57   12.60
   0  -4   9  225.38    9.40
   0  -4   9  190.68   11.00
   0  -4  -9  207.48   13.10
   0  -4   9  196.88   11.90
   0   4   9  190.68    8.60
   0   4  -9  195.08   10.50
   0   4   9  212.68   11.80
   0   4  -9  185.48   11.80
   1  -4   9  638.84   20.20
  -1  -4  -9  710.93   24.60
   1  -4   9  686.53   20.50
   1  -4   9  714.43   22.50
  -1   4  -9  678.53   21.00
   1   4   9  694.93   22.30
  -1   4  -9  704.63   23.40
   1   4   9  669.53   19.10
  -2  -4  -9 3712.03   85.69
   2  -4   9 3734.73   82.49
   2  -4   9 3767.12   82.69
  -2   4  -9 3682.23   80.89
  -2   4  -9 3629.94   83.19
   2   4   9 3631.14   81.39
   3  -4   9  176.58   12.80
  -3  -4  -9  181.98   15.60
   3   4   9  194.08   13.90
  -3   4  -9  169.68   13.50
  -3   4  -9  176.58   15.70
  -4  -4  -9  660.23   29.60
  -4  -4  -9  603.14   26.40
   4  -4   9  587.44   24.20
  -4   4  -9  580.64   25.70
   4   4   9  573.34   23.60
  -4   4  -9  584.34   23.80
  -5  -4  -9   83.79   13.70
   5  -4   9  109.19   13.50
  -5  -4  -9  136.29   20.30
  -5   4  -9  121.69   16.50
  -5   4  -9   96.69   13.70
   5   4   9  107.49   13.50
   6   4   9  534.65   28.60
  -6   4  -9  602.54   28.80
  -7  -5   9  256.17   25.80
  -7   5   9  290.57   22.40
  -6  -5   9   27.90   12.90
  -6  -5   9   23.50   10.90
  -6   5   9   31.10   10.00
  -6   5   9    1.50    8.60
  -5  -5   9  573.54   24.40
  -5  -5   9  567.04   28.00
  -5   5   9  544.75   23.20
  -5   5   9  572.94   24.40
  -4  -5   9  322.57   18.20
  -4  -5   9  276.57   19.20
  -4   5   9  336.47   17.90
   4   5  -9  312.37   17.60
  -4   5   9  311.57   16.50
  -3  -5   9  835.12   29.60
  -3  -5   9  857.91   28.70
  -3   5   9  844.22   27.30
  -3   5   9  845.92   25.90
   3   5  -9  829.22   26.90
  -2  -5   9  210.48   14.10
   2  -5  -9  225.48   13.30
  -2  -5   9  202.48   13.60
  -2   5   9  195.48   12.50
  -2   5   9  189.88   10.80
   2   5  -9  195.88   13.20
   2   5  -9  202.78   12.50
   1  -5  -9  811.32   26.30
  -1  -5   9  814.12   26.20
  -1  -5   9  775.82   26.10
   1   5  -9  834.12   24.90
  -1   5   9  786.82   22.80
  -1   5   9  820.22   25.20
   1   5  -9  788.42   26.00
   0  -5  -9  294.47   15.30
   0  -5   9  264.17   14.50
   0  -5  -9  279.67   15.70
   0  -5   9  258.77   13.10
   0  -5   9  248.88   12.20
   0   5  -9  287.37   15.00
   0   5  -9  273.27   13.60
   0   5   9  276.17   11.80
   0   5   9  284.17   14.20
   1  -5   9  942.31   25.70
   1  -5   9  911.51   26.00
  -1  -5  -9  941.51   28.90
   1  -5   9  909.11   28.50
  -1  -5  -9  930.61   30.50
  -1   5  -9  903.21   29.10
  -1   5  -9  935.31   27.50
   1   5   9  917.71   27.80
   1   5   9  915.81   25.30
   2  -5   9  343.37   16.10
   2  -5   9  343.47   15.20
  -2  -5  -9  320.07   19.00
  -2   5  -9  357.36   18.70
   2   5   9  351.16   16.80
   2   5   9  342.67   15.10
  -2   5  -9  333.77   16.60
   3  -5   9  648.34   24.00
  -3  -5  -9  717.43   28.20
  -3   5  -9  676.03   27.20
   3   5   9  680.63   24.50
  -3   5  -9  638.54   24.60
  -4  -5  -9   99.29   14.50
   4  -5   9  139.89   13.70
   4   5   9  103.39   12.10
  -4   5  -9  111.29   15.00
  -4   5  -9  104.59   13.10
   5  -5   9  319.47   19.70
  -5  -5  -9  304.17   23.10
   5   5   9  275.37   20.40
  -5   5  -9  328.37   21.70
  -5   5  -9  293.47   23.90
  -6  -6   9  397.56   27.60
  -6  -6   9  353.16   24.80
  -6   6   9  358.36   22.80
  -6   6   9  388.86   23.20
  -5  -6   9   61.29   11.70
  -5  -6   9  101.59   15.70
  -5   6   9   84.59   13.30
  -5   6   9   69.09   11.50
  -4  -6   9   79.39   13.30
  -4  -6   9   75.99   11.60
  -4   6   9   72.89   10.80
  -4   6   9   87.59   11.30
   4   6  -9   87.69   12.30
   3  -6  -9  160.98   14.00
  -3  -6   9  193.58   15.80
  -3  -6   9  171.98   15.90
   3   6  -9  182.28   14.60
  -3   6   9  177.68   13.90
  -3   6   9  188.18   13.40
   2  -6  -9   58.79   10.00
   2  -6  -9   54.29    8.70
  -2  -6   9   40.50    8.90
  -2  -6   9   46.10    8.80
   2   6  -9   61.29    9.70
   2   6  -9   50.59    9.40
  -2   6   9   46.80    8.50
  -2   6   9   48.20    8.00
   1  -6  -9  303.37   17.50
   1  -6  -9  274.77   16.30
  -1  -6   9  307.37   16.70
  -1  -6   9  258.17   15.30
  -1   6   9  285.17   15.20
   1   6  -9  292.37   16.20
   1   6  -9  281.37   15.50
  -1   6   9  287.17   13.70
   0  -6  -9  483.75   22.10
   0  -6  -9  518.45   22.10
   0  -6   9  497.05   21.10
   0  -6   9  493.15   19.30
   0   6  -9  494.55   21.40
   0   6   9  500.45   18.00
   0   6  -9  522.25   20.40
   0   6   9  494.05   19.60
  -1  -6  -9  596.24   23.90
  -1  -6  -9  617.14   25.40
   1  -6   9  583.34   23.00
   1   6   9  553.24   19.80
   1   6   9  579.24   21.60
  -1   6  -9  571.04   23.40
  -1   6  -9  582.74   22.10
  -2  -6  -9  270.97   19.10
  -2  -6  -9  264.57   16.30
   2  -6   9  284.37   15.80
   2   6   9  275.17   14.70
   2   6   9  306.87   16.80
  -2   6  -9  285.77   16.70
  -2   6  -9  273.27   17.90
  -3  -6  -9   69.49   12.80
  -3   6  -9   63.39   11.80
   3   6   9   87.79   11.30
  -3   6  -9   89.99   12.30
  -4  -6  -9  155.68   17.70
   4   6   9  184.98   18.90
  -4   6  -9  146.19   15.50
  -4   6  -9  181.08   19.00
  -5  -6  -9   61.19   15.00
  -5   6  -9   52.09   13.90
  -5   6  -9   75.39   13.60
  -6   7   9   47.80   12.70
  -5  -7   9   28.90   13.80
  -5  -7   9   13.00    9.50
  -5   7   9   28.10   10.60
  -5   7   9   10.10    9.70
  -4  -7   9   32.60   12.30
  -4  -7   9   31.40    9.60
  -4   7   9   33.20   10.00
  -4   7   9   58.89   10.80
   4   7  -9   33.20   10.60
  -3  -7   9  306.17   20.30
  -3  -7   9  266.57   18.60
   3   7  -9  281.67   17.20
  -3   7   9  231.88   15.80
  -3   7   9  250.67   17.00
  -2  -7   9  251.47   17.40
  -2  -7   9  242.58   17.10
   2  -7  -9  246.78   15.90
   2  -7  -9  234.58   17.50
  -2   7   9  243.08   14.80
   2   7  -9  253.87   16.80
   2   7  -9  249.48   16.90
  -2   7   9  268.87   16.40
  -1  -7   9  449.46   21.10
   1  -7  -9  467.35   21.60
   1  -7  -9  501.35   23.40
  -1  -7   9  471.05   22.20
  -1   7   9  470.15   19.20
   1   7  -9  478.25   21.60
   1   7  -9  454.75   21.50
  -1   7   9  494.85   20.80
   0  -7   9  385.26   20.40
   0  -7   9  420.46   18.80
   0  -7  -9  446.46   22.20
   0  -7  -9  416.06   22.00
   0   7   9  368.96   16.90
   0   7  -9  389.66   19.50
   0   7  -9  398.16   20.40
   0   7   9  402.26   18.50
   1  -7   9  159.78   14.30
  -1  -7  -9  165.88   16.40
  -1  -7  -9  162.18   15.10
  -1   7  -9  150.98   14.80
   1   7   9  164.68   12.80
  -1   7  -9  157.18   15.00
   1   7   9  172.28   13.90
   2  -7   9  437.76   21.00
  -2  -7  -9  446.36   24.60
  -2  -7  -9  409.26   21.70
  -2   7  -9  414.66   21.20
   2   7   9  459.95   20.60
  -2   7  -9  405.66   22.20
  -3  -7  -9  134.89   17.00
  -3   7  -9  154.38   17.00
  -3   7  -9  148.09   16.10
  -4  -7  -9   51.09   13.90
  -4   7  -9   16.60   11.20
  -4   7  -9   54.69   13.00
  -5  -8   9   65.39   14.30
  -5   8   9   60.49   13.50
   5   8  -9   73.99   15.10
  -4  -8   9   11.50   11.20
  -4  -8   9    5.10   10.00
   4   8  -9   -2.20    9.60
  -4   8   9   -4.40    8.60
  -4   8   9    3.30    8.50
  -3  -8   9   19.20    9.50
  -3  -8   9   13.40    9.80
   3  -8  -9    7.20    9.40
   3   8  -9    6.70    9.30
  -3   8   9   14.50    9.10
  -3   8   9    9.60    8.70
  -2  -8   9  425.16   23.30
  -2  -8   9  429.76   22.80
   2  -8  -9  412.76   23.80
  -2   8   9  412.06   21.00
  -2   8   9  375.76   19.90
   2   8  -9  399.26   22.10
   2   8  -9  434.26   22.10
   1  -8  -9  173.18   16.40
   1  -8  -9  150.08   16.30
  -1  -8   9  148.49   14.50
  -1  -8   9  154.48   15.60
   1   8  -9  152.68   15.10
  -1   8   9  155.58   13.90
  -1   8   9  185.58   15.50
   1   8  -9  180.78   16.30
   0  -8  -9  255.57   19.40
   0  -8  -9  284.27   19.90
   0  -8   9  250.27   17.70
   0   8  -9  292.27   19.00
   0   8   9  251.47   18.70
   0   8   9  274.97   17.00
   0   8  -9  229.38   17.80
   1  -8   9  228.78   17.60
  -1  -8  -9  257.57   20.20
  -1  -8  -9  257.07   19.40
  -1   8  -9  251.57   18.70
  -1   8  -9  219.28   17.90
   1   8   9  224.28   16.30
  -2  -8  -9  177.38   18.10
  -2  -8  -9  181.98   17.10
   2  -8   9  183.28   16.80
  -2   8  -9  163.58   16.00
  -2   8  -9  152.18   16.70
  -3  -8  -9  289.97   23.40
  -3   8  -9  271.77   20.80
  -3   8  -9  269.87   21.20
  -4   8  -9   75.89   15.20
  -4  -9   9    5.70    9.90
  -4   9   9    2.70   12.80
  -3  -9   9  520.55   28.40
  -3  -9   9  537.75   28.40
   3  -9  -9  557.84   29.10
  -3   9   9  504.45   25.40
   3   9  -9  523.65   26.90
  -3   9   9  530.05   33.20
  -2  -9   9   19.40   10.20
  -2  -9   9   38.10   11.10
   2  -9  -9   13.50   11.30
  -2   9   9   11.00    9.20
   2   9  -9   25.20   11.20
   1  -9  -9  627.04   30.50
  -1  -9   9  557.94   31.00
   1  -9  -9  642.14   28.00
  -1  -9   9  596.14   28.60
   1   9  -9  629.44   27.90
  -1   9   9  625.74   26.00
   1   9  -9  588.74   27.70
   0  -9  -9   68.69   13.40
   0  -9  -9   67.19   13.70
   0  -9   9   91.59   14.40
   0   9  -9   90.19   14.30
   0   9   9   64.29   11.30
   0   9  -9   90.19   13.70
  -1  -9  -9  156.78   17.40
  -1  -9  -9  163.88   18.20
   1  -9   9  168.68   17.60
  -1   9  -9  143.69   16.20
  -1   9  -9  155.98   17.00
   2  -9   9   29.50   10.20
  -2  -9  -9   17.10   12.50
  -2  -9  -9    8.00   10.90
  -2   9  -9   36.80   12.40
  -2   9  -9    7.70   11.10
  -3   9  -9  169.28   20.00
  -2 -10   9  156.88   18.20
  -2  10   9  163.68   17.60
   1  10  -9   42.20   12.30
   1  10  -9   34.90   13.00
   0 -10  -9  163.78   19.80
   0 -10  -9  181.08   25.90
   0  10  -9  180.88   19.20
   0  10  -9  207.38   19.40
  -1 -10  -9   19.60   13.50
  -1 -10  -9   18.70   13.80
  -1  10  -9    4.90   13.70
  -1  10  -9   16.60   11.00
  -7   0  10   51.59   12.10
  -7   0  10   70.19   12.00
  -6   0  10  587.84   24.60
  -6   0  10  624.94   25.10
  -6   0  10  651.73   25.10
  -5   0  10  513.85   21.20
  -5   0  10  492.85   20.00
  -5   0  10  524.85   20.20
  -5   0  10  516.95   20.10
  -5   0  10  557.14   19.10
  -4   0  10   17.60    4.60
  -4   0  10    9.10    4.50
  -4   0  10    7.20    5.20
  -4   0  10    8.20    4.50
  -4   0  10    9.60    5.60
  -3   0  10 1345.27   33.00
  -3   0  10 1313.07   35.60
  -3   0  10 1394.56   32.40
  -3   0  10 1316.97   35.90
  -2   0  10    5.80    4.40
  -2   0  10    2.90    3.90
  -2   0  10   -0.90    2.50
   1   0 -10  325.57   11.70
  -1   0  10  315.17   13.50
  -1   0  10  310.67   12.20
   0   0  10  224.48   11.10
   0   0  10  225.78   10.70
   0   0 -10  214.58   10.00
  -1   0 -10  590.24   14.80
   1   0  10  606.24   18.70
  -1   0 -10  601.14   20.00
  -1   0 -10  632.54   19.00
   1   0  10  594.74   19.20
   2   0  10   12.60    4.30
   2   0  10    8.10    5.10
  -2   0 -10    7.10    3.70
  -2   0 -10   10.10    5.60
  -2   0 -10   14.20    5.60
  -3   0 -10    9.10    6.80
  -3   0 -10   14.10    5.60
  -3   0 -10   14.00    6.50
   3   0  10    6.40    6.00
  -4   0 -10  301.67   18.80
  -4   0 -10  308.17   15.90
   4   0  10  324.47   18.10
   5   0  10   10.80    8.80
  -5   0 -10   -9.40   10.70
  -5   0 -10    8.10    9.50
  -6   0 -10   13.30   11.10
   6   0  10    1.20    9.60
  -7  -1  10   32.90   10.90
  -7  -1  10   43.40   12.10
  -7   1  10   22.30    9.70
  -7   1  10   17.10    9.90
  -6  -1  10  414.26   21.30
  -6  -1  10  420.36   21.30
  -6  -1  10  381.66   20.00
  -6   1  10  453.05   19.60
  -6   1  10  387.96   19.70
  -6   1  10  408.06   20.20
  -5  -1  10  474.25   19.40
  -5  -1  10  426.56   20.50
  -5  -1  10  446.66   18.60
  -5  -1  10  461.35   19.80
  -5   1  10  456.55   19.30
  -5   1  10  467.25   18.40
  -5   1  10  457.65   18.90
  -5   1  10  430.06   18.30
  -5   1  10  425.06   17.80
  -4  -1  10  424.86   18.80
  -4  -1  10  432.66   14.60
  -4  -1  10  414.16   17.70
  -4   1  10  414.76   15.50
  -4   1  10  423.56   17.10
  -4   1  10  413.46   15.30
  -4   1  10  375.56   16.80
  -4   1  10  398.66   15.90
  -3  -1  10  181.88   12.20
  -3  -1  10  192.98    8.90
  -3  -1  10  197.98   11.70
  -3   1  10  191.38   12.00
  -3   1  10  201.38   10.70
  -3   1  10  203.78    9.30
  -3   1  10  202.18    9.70
  -2  -1  10 1499.45   38.40
  -2  -1  10 1516.85   38.70
  -2  -1  10 1502.85   34.80
  -2   1  10 1479.25   32.80
  -2   1  10 1502.95   36.50
  -2   1  10 1528.35   38.60
  -1  -1  10  663.53   18.70
  -1  -1  10  687.83   21.30
   1  -1 -10  685.33   17.60
   1   1 -10  678.43   19.40
  -1   1  10  643.24   19.60
  -1   1  10  649.93   20.70
   1   1 -10  640.24   15.40
   0  -1 -10 1352.16   36.10
   0  -1  10 1410.76   35.20
   0  -1 -10 1411.56   32.10
   0  -1  10 1412.56   33.80
   0   1 -10 1329.47   28.50
   0   1 -10 1296.17   32.90
   0   1  10 1377.06   34.30
   0   1  10 1354.96   33.50
   1  -1  10 2949.51   62.49
  -1  -1 -10 2772.12   57.29
  -1  -1 -10 2769.82   63.79
  -1  -1 -10 2764.12   60.69
   1  -1  10 2769.22   62.39
   1   1  10 2784.82   61.69
   1   1  10 2611.24   60.49
  -1   1 -10 2757.42   57.09
  -1   1 -10 2754.12   61.29
  -2  -1 -10  523.95   19.60
   2  -1  10  533.75   16.90
  -2  -1 -10  565.04   18.70
   2  -1  10  546.15   19.20
  -2  -1 -10  553.44   16.00
  -2   1 -10  581.14   17.00
   2   1  10  577.24   17.70
   2   1  10  542.25   19.70
  -2   1 -10  555.54   19.90
  -3  -1 -10  173.58   10.90
   3  -1  10  164.18   12.80
  -3  -1 -10  169.48   13.10
  -3  -1 -10  182.38   13.10
  -3   1 -10  164.18   10.60
   3   1  10  174.38   12.80
  -3   1 -10  168.78   13.80
  -3   1 -10  134.29   11.30
  -4  -1 -10  627.44   24.30
  -4  -1 -10  639.84   24.90
   4  -1  10  556.54   23.40
  -4  -1 -10  589.74   23.00
  -4   1 -10  559.74   24.40
   4   1  10  565.34   23.30
  -4   1 -10  534.45   21.20
  -5  -1 -10  222.08   18.90
   5  -1  10  190.28   17.20
  -5   1 -10  206.18   18.60
  -5   1 -10  193.08   16.40
   5   1  10  203.58   17.20
   6  -1  10  135.89   16.30
  -6  -1 -10  172.58   18.40
   6   1  10  181.98   18.20
  -6   1 -10  223.08   21.00
  -7  -2  10  254.07   19.80
  -7  -2  10  263.97   22.70
  -7  -2  10  300.77   22.10
  -7   2  10  268.17   18.80
  -7   2  10  247.08   19.20
  -6  -2  10   70.59   12.40
  -6  -2  10   82.79   12.30
  -6  -2  10   92.79   11.80
  -6   2  10   82.69   11.40
  -6   2  10   88.79   11.80
  -6   2  10   74.49   13.80
  -5  -2  10 1707.93   46.00
  -5  -2  10 1660.13   44.60
  -5  -2  10 1661.73   47.00
  -5   2  10 1774.92   45.10
  -5   2  10 1709.83   45.30
  -5   2  10 1727.93   44.00
  -5   2  10 1731.13   46.00
  -5   2  10 1682.53   44.80
  -4  -2  10   11.50    6.40
  -4  -2  10   30.10    8.10
  -4   2  10   27.50    5.70
  -4   2  10    8.90    5.70
  -4   2  10   17.50    5.30
  -4   2  10   17.60    6.00
  -4   2  10   22.80    6.40
  -3  -2  10 2197.18   54.99
  -3  -2  10 2270.37   48.60
  -3  -2  10 2272.47   54.39
  -3   2  10 2185.08   48.90
  -3   2  10 2171.58   51.29
  -3   2  10 2185.38   48.00
  -2  -2  10  616.44   20.70
  -2  -2  10  607.34   16.40
  -2  -2  10  611.54   21.20
  -2   2  10  597.54   19.50
   2   2 -10  643.74   17.70
  -2   2  10  625.44   16.20
   2   2 -10  633.14   20.10
  -2   2  10  627.64   15.80
  -1  -2  10 1282.87   30.20
  -1  -2  10 1294.57   34.00
   1  -2 -10 1310.57   34.60
  -1  -2  10 1275.97   34.00
   1   2 -10 1325.37   32.90
   1   2 -10 1281.77   29.20
  -1   2  10 1233.78   26.80
  -1   2  10 1265.87   32.60
   0  -2 -10 1165.18   32.50
   0  -2  10 1189.58   29.40
   0  -2  10 1198.08   31.50
   0  -2 -10 1222.48   26.90
   0   2 -10 1195.78   27.40
   0   2 -10 1172.58   31.10
   0   2  10 1185.18   31.10
  -1  -2 -10  706.53   19.40
   1  -2  10  738.83   21.40
  -1  -2 -10  710.43   23.40
   1  -2  10  730.23   21.70
  -1   2 -10  722.03   19.60
   1   2  10  749.92   23.00
  -1   2 -10  749.82   23.40
  -2  -2 -10   -0.80    4.80
  -2  -2 -10    2.00    4.10
   2  -2  10    4.40    3.90
  -2  -2 -10   -1.30    5.90
   2  -2  10   -5.10    4.40
  -2   2 -10    5.40    4.50
  -2   2 -10    5.80    6.20
   2   2  10   -3.60    3.90
   2   2  10   -5.50    4.50
   3  -2  10 1981.70   49.60
  -3  -2 -10 2000.40   49.30
  -3  -2 -10 1883.01   49.70
  -3  -2 -10 1954.60   48.40
  -3   2 -10 1888.31   48.80
   3   2  10 1851.61   47.80
  -3   2 -10 1840.12   45.20
  -4  -2 -10  265.87   17.40
   4  -2  10  253.17   16.60
  -4  -2 -10  275.37   17.10
  -4   2 -10  287.57   16.40
   4   2  10  281.77   17.20
  -4   2 -10  304.47   19.60
   5  -2  10  397.46   21.70
  -5  -2 -10  382.06   22.00
  -5   2 -10  374.96   23.40
  -5   2 -10  380.66   20.80
   5   2  10  356.46   21.50
  -6  -2 -10  346.37   23.70
   6  -2  10  339.07   23.00
  -6   2 -10  308.97   25.30
   6   2  10  369.26   23.70
  -7  -3  10   69.99   14.20
  -7  -3  10   76.99   15.00
  -7  -3  10   54.19   12.20
  -7   3  10   84.99   13.60
  -7   3  10   65.69   12.60
  -6  -3  10  382.76   22.40
  -6  -3  10  367.16   23.00
  -6   3  10  342.87   19.90
  -6   3  10  383.56   20.50
  -5  -3  10  446.66   22.60
  -5  -3  10  444.06   20.50
  -5  -3  10  448.16   21.40
  -5   3  10  422.86   19.40
  -5   3  10  421.86   19.10
  -5   3  10  470.95   20.60
  -4  -3  10 2292.67   56.89
  -4  -3  10 2281.87   58.29
  -4   3  10 2239.18   54.69
  -4   3  10 2232.38   53.29
  -3  -3  10  207.98   14.10
  -3  -3  10  207.18   13.40
  -3   3  10  180.18    9.60
  -3   3  10  181.08   11.70
  -2  -3  10 1489.25   39.40
  -2  -3  10 1504.05   39.90
   2   3 -10 1494.35   38.60
  -2   3  10 1523.15   38.40
   2   3 -10 1500.85   36.10
  -2   3  10 1510.85   34.60
  -1  -3  10  800.02   24.90
  -1  -3  10  792.72   20.20
  -1  -3  10  833.62   25.10
   1  -3 -10  798.62   25.10
   1   3 -10  793.42   24.00
  -1   3  10  779.52   23.40
  -1   3  10  776.12   19.10
   1   3 -10  793.32   21.30
   0  -3 -10 1079.09   30.80
   0  -3  10 1025.20   28.90
   0  -3  10 1070.19   26.70
   0  -3  10 1083.49   29.90
   0   3  10 1131.59   25.20
   0   3 -10 1108.39   27.70
   0   3 -10 1134.79   31.10
   0   3  10 1096.59   30.20
  -1  -3 -10  264.07   15.30
   1  -3  10  310.57   13.40
   1  -3  10  290.07   12.50
   1  -3  10  266.47   12.30
  -1   3 -10  259.67   14.30
   1   3  10  274.97   13.70
  -1   3 -10  284.57   11.60
  -2  -3 -10 1166.08   30.90
   2  -3  10 1288.87   33.60
  -2  -3 -10 1233.88   35.60
   2  -3  10 1176.68   30.70
   2  -3  10 1240.88   32.30
  -2   3 -10 1190.78   34.70
  -2   3 -10 1187.08   31.50
   2   3  10 1221.78   33.90
  -3  -3 -10 1971.80   48.00
  -3  -3 -10 1934.91   51.49
   3  -3  10 1935.01   49.60
  -3   3 -10 1863.01   46.60
  -3   3 -10 1839.32   49.90
   3   3  10 1907.31   48.40
  -4  -3 -10  413.16   19.80
  -4  -3 -10  423.06   22.10
   4  -3  10  409.76   20.30
  -4   3 -10  410.86   22.40
   4   3  10  389.96   20.30
  -4   3 -10  401.26   19.00
  -5  -3 -10   83.39   12.50
   5  -3  10   63.79   11.60
  -5  -3 -10   75.19   14.90
  -5   3 -10   80.09   12.20
   5   3  10   81.89   13.00
  -5   3 -10   89.09   14.90
   6  -3  10  156.08   26.80
  -6  -3 -10  126.49   17.20
  -6   3 -10  104.59   17.50
   6   3  10   90.39   14.80
  -6   3 -10   96.89   25.10
  -7  -4  10   45.60   20.20
  -7  -4  10   44.40   15.50
  -7   4  10   48.40   12.70
  -7   4  10   64.59   12.90
  -6  -4  10   27.00   11.00
  -6  -4  10   43.90   12.60
  -6   4  10   28.20    9.80
  -6   4  10   46.50   10.50
  -5  -4  10  297.27   17.90
  -5  -4  10  262.77   20.00
  -5   4  10  293.57   17.70
  -5   4  10  269.37   16.30
  -4  -4  10   63.79   11.00
  -4  -4  10   63.49   10.00
  -4   4  10   76.89    9.00
  -4   4  10   74.89    9.90
  -3  -4  10 1424.96   39.80
  -3  -4  10 1426.46   40.80
   3   4 -10 1487.85   38.40
  -3   4  10 1466.85   37.00
  -3   4  10 1467.75   39.40
  -2  -4  10  229.08   14.10
   2  -4 -10  218.08   13.30
  -2  -4  10  231.48   13.40
   2   4 -10  229.98   12.10
   2   4 -10  235.28   13.60
  -2   4  10  234.38   13.00
  -2   4  10  231.18   10.70
   1  -4 -10  256.47   14.20
  -1  -4  10  239.88   13.40
  -1  -4  10  259.17   13.60
  -1   4  10  258.77   13.20
   1   4 -10  232.98   13.40
  -1   4  10  262.67   10.20
   1   4 -10  263.77   12.20
   0  -4  10   82.09    6.90
   0  -4  10   82.89    8.80
   0  -4  10   65.49    8.40
   0  -4 -10   49.99    8.70
   0   4 -10   82.89    9.60
   0   4 -10   67.09    7.60
   0   4  10   72.59    6.20
   0   4  10   81.19    8.80
   1  -4  10  156.38   10.00
   1  -4  10  167.78   11.10
  -1  -4 -10  144.39   12.90
   1  -4  10  159.68    9.80
  -1   4 -10  151.68   10.40
   1   4  10  146.69   11.40
  -1   4 -10  152.58   12.30
   2  -4  10  960.10   28.80
  -2  -4 -10  995.20   32.60
   2  -4  10 1019.60   29.20
   2   4  10 1026.50   30.90
  -2   4 -10 1033.60   32.50
  -2   4 -10 1022.30   29.60
  -3  -4 -10  576.14   25.20
   3  -4  10  581.34   22.40
   3   4  10  576.34   22.70
  -3   4 -10  551.84   21.80
  -3   4 -10  557.94   24.40
   4  -4  10   46.80    9.80
  -4  -4 -10   45.10   10.90
   4   4  10   30.80    9.50
  -4   4 -10   33.10    9.70
  -4   4 -10   28.00   11.00
  -5  -4 -10  110.49   15.60
   5  -4  10   89.09   12.90
  -5   4 -10   78.59   12.60
  -5   4 -10   82.79   14.80
   5   4  10   95.99   13.50
  -6   4 -10   59.19   13.60
   6   4  10   85.69   14.70
  -6  -5  10  146.69   17.70
  -6  -5  10  122.99   16.30
  -6   5  10  166.88   15.60
  -6   5  10  126.89   15.20
  -5  -5  10  565.84   27.80
  -5  -5  10  503.55   24.20
  -5   5  10  480.65   22.10
  -5   5  10  484.05   23.30
  -4  -5  10  472.75   21.80
  -4  -5  10  380.06   22.10
  -4   5  10  432.86   20.20
   4   5 -10  441.06   20.50
  -4   5  10  415.76   18.70
  -3  -5  10  800.42   29.70
  -3  -5  10  821.62   28.70
   3   5 -10  845.72   27.40
  -3   5  10  818.92   25.50
  -3   5  10  840.32   27.70
  -2  -5  10  886.71   29.30
   2  -5 -10  869.71   27.80
  -2  -5  10  873.41   29.60
   2   5 -10  868.71   26.70
   2   5 -10  846.22   28.10
  -2   5  10  880.81   24.90
  -2   5  10  900.91   27.90
   1  -5 -10  146.69   12.50
  -1  -5  10  129.09   11.50
  -1  -5  10  132.79   12.10
   1   5 -10  133.99   12.20
  -1   5  10  134.79    9.10
  -1   5  10  131.89   11.90
   1   5 -10  132.19   11.20
   0  -5  10  981.50   30.60
   0  -5  10  978.00   29.00
   0  -5 -10 1005.50   31.60
   0   5 -10  966.50   27.80
   0   5 -10  939.21   29.70
   0   5  10  957.70   29.00
   1  -5  10  506.05   20.20
  -1  -5 -10  493.45   22.50
   1  -5  10  481.65   17.90
   1  -5  10  488.05   17.30
  -1   5 -10  488.15   21.00
  -1   5 -10  497.55   19.20
   1   5  10  482.85   19.90
   2  -5  10  220.58   13.70
   2  -5  10  198.58   12.70
  -2  -5 -10  228.68   17.10
   2   5  10  218.68   14.80
  -2   5 -10  195.18   14.10
  -2   5 -10  221.18   16.20
  -3  -5 -10  165.18   16.30
   3  -5  10  157.38   13.10
  -3   5 -10  137.59   15.30
   3   5  10  141.89   13.40
  -3   5 -10  158.08   13.80
  -4  -5 -10  100.49   14.50
   4  -5  10  134.69   13.80
  -4   5 -10   86.69   13.80
  -4   5 -10   80.29   12.30
   4   5  10   88.89   12.40
  -5  -5 -10  467.45   27.20
   5  -5  10  422.56   23.50
  -5   5 -10  496.65   25.80
  -5   5 -10  465.75   27.70
   5   5  10  471.35   24.70
  -6  -6  10   25.10   13.50
  -6  -6  10   33.00   12.80
  -6   6  10   37.30   11.40
  -6   6  10   14.10   10.80
  -5  -6  10  220.58   20.80
  -5  -6  10  180.88   17.20
  -5   6  10  156.58   15.30
  -5   6  10  218.68   17.70
  -4  -6  10  162.58   16.00
  -4  -6  10  157.98   17.40
   4   6 -10  150.68   14.90
  -4   6  10  151.48   14.60
  -4   6  10  166.18   14.40
   3  -6 -10  802.72   27.10
  -3  -6  10  808.42   30.00
  -3  -6  10  789.22   30.50
  -3   6  10  753.82   27.50
  -3   6  10  797.42   26.20
   3   6 -10  795.82   27.80
  -2  -6  10  319.27   18.60
   2  -6 -10  316.77   17.40
  -2  -6  10  310.27   18.00
  -2   6  10  284.37   14.50
   2   6 -10  333.17   17.20
  -2   6  10  324.07   17.00
   2   6 -10  312.57   17.60
   1  -6 -10  345.17   18.40
  -1  -6  10  333.47   18.20
  -1  -6  10  334.27   17.40
   1   6 -10  341.97   17.20
   1   6 -10  339.17   17.90
  -1   6  10  328.67   16.90
   0  -6  10  122.19   11.20
   0  -6  10  115.49   12.10
   0  -6 -10  105.19   12.40
   0  -6 -10  108.49   11.90
   0   6 -10  135.89   13.30
   0   6 -10  131.49   12.10
   0   6  10  104.39   11.20
   1  -6  10 2355.06   60.09
  -1  -6 -10 2412.06   62.69
  -1  -6 -10 2416.86   60.29
   1   6  10 2378.56   58.09
  -1   6 -10 2311.77   57.69
  -1   6 -10 2379.36   60.49
  -2  -6 -10  571.74   25.90
   2  -6  10  504.25   20.10
   2  -6  10  524.65   21.90
   2   6  10  520.75   21.90
  -2   6 -10  493.95   23.50
  -2   6 -10  494.85   21.30
  -3  -6 -10  577.24   27.70
   3  -6  10  551.84   22.80
  -3   6 -10  538.85   24.20
   3   6  10  597.64   24.80
  -3   6 -10  636.54   27.80
  -4  -6 -10  183.38   19.00
  -4   6 -10  209.58   18.40
  -4   6 -10  192.78   19.40
   4   6  10  218.68   18.20
  -5  -6 -10   52.99   15.10
  -5   6 -10   71.69   14.20
  -5  -7  10   60.79   12.80
  -5  -7  10   66.49   15.50
  -5   7  10   73.89   13.40
  -5   7  10   46.40   15.80
  -4  -7  10  212.28   18.60
  -4  -7  10  219.88   20.30
   4   7 -10  240.18   18.50
  -4   7  10  225.18   18.20
  -4   7  10  233.58   22.10
  -3  -7  10  363.46   21.50
  -3  -7  10  366.76   22.40
  -3   7  10  298.17   18.80
   3   7 -10  308.07   18.80
  -2  -7  10  381.06   21.00
  -2  -7  10  354.06   20.40
   2  -7 -10  356.36   19.20
   2   7 -10  393.16   20.00
   2   7 -10  382.36   20.80
  -2   7  10  368.16   19.50
   1  -7 -10   18.00    9.20
  -1  -7  10   -8.60    5.80
  -1  -7  10    5.20    7.70
   1  -7 -10    4.50    8.50
  -1   7  10    2.00    7.20
   1   7 -10    9.30    7.90
   1   7 -10   14.50    8.10
   0  -7 -10  952.40   33.60
   0  -7  10  959.00   33.10
   0  -7  10  944.01   31.40
   0  -7 -10  975.50   33.70
   0   7  10  938.91   30.70
   0   7 -10  991.80   33.20
   0   7 -10  915.91   31.10
  -1  -7 -10   89.49   12.60
  -1  -7 -10   95.89   14.30
   1  -7  10   85.29   11.40
   1   7  10   86.99   11.20
  -1   7 -10   78.59   11.80
  -1   7 -10   87.59   12.90
  -2  -7 -10  472.15   23.40
  -2  -7 -10  487.75   26.40
   2  -7  10  536.85   23.20
  -2   7 -10  517.15   23.40
  -2   7 -10  526.45   25.30
   2   7  10  515.25   22.90
  -3  -7 -10  111.79   16.40
  -3   7 -10  108.59   13.80
   3   7  10  125.19   14.30
  -3   7 -10   75.79   14.60
  -4  -7 -10   22.40   12.40
  -4   7 -10   30.20   11.70
  -4   7 -10    0.60   11.10
  -5  -8  10   86.79   15.10
  -4  -8  10   43.60   11.90
  -4  -8  10   70.19   14.90
   4   8 -10   52.49   12.80
  -4   8  10   50.79   12.00
  -3  -8  10  239.48   19.70
  -3  -8  10  261.77   21.10
  -3   8  10  233.98   18.40
   3   8 -10  265.77   19.30
   2  -8 -10   68.69   13.10
  -2  -8  10   84.79   13.50
   2  -8 -10   78.89   12.90
  -2  -8  10   94.99   14.40
   2   8 -10   97.99   13.40
  -2   8  10  123.49   14.00
   2   8 -10  105.99   14.30
  -1  -8  10 1146.19   38.00
   1  -8 -10 1166.78   38.80
   1  -8 -10 1173.38   40.60
  -1  -8  10 1208.08   40.10
   1   8 -10 1168.58   37.60
  -1   8  10 1181.78   36.70
   1   8 -10 1154.68   38.10
   0  -8 -10  506.15   26.10
   0  -8 -10  497.45   25.30
   0  -8  10  460.25   24.10
   0   8  10  513.25   22.60
   0   8 -10  461.75   23.70
   0   8 -10  447.96   23.00
   1  -8  10   77.29   11.90
  -1  -8 -10  102.69   15.10
  -1  -8 -10   82.39   13.30
  -1   8 -10   91.89   13.30
  -1   8 -10   93.39   13.90
   1   8  10   89.69   12.10
  -2  -8 -10   13.50   11.60
   2  -8  10   14.30    8.60
  -2  -8 -10    3.20   10.00
  -2   8 -10    6.00   10.20
  -2   8 -10   19.90   10.00
  -3  -8 -10  269.37   23.70
  -3   8 -10  258.77   22.20
  -3   8 -10  248.48   20.40
  -3  -9  10  115.99   16.70
  -3  -9  10  133.29   17.30
  -3   9  10  115.59   15.10
   3   9 -10   98.09   15.10
  -2  -9  10  504.45   26.70
  -2  -9  10  519.55   28.00
   2  -9 -10  496.35   28.10
   2   9 -10  472.45   26.00
  -2   9  10  497.35   25.00
   2   9 -10  517.25   26.30
  -1  -9  10   11.70    9.90
   1  -9 -10   20.10   11.90
   1  -9 -10    4.60   10.20
   1   9 -10  -14.30    9.00
   1   9 -10   -5.70    8.60
  -1   9  10   15.90    9.80
   0  -9 -10  169.98   18.20
   0  -9  10  144.79   16.90
   0  -9 -10  159.08   18.50
   0   9  10  141.99   14.60
   0   9 -10  148.49   17.00
   0   9 -10  142.29   16.70
   1  -9  10    6.40    8.40
  -1  -9 -10   -9.40   10.00
  -1  -9 -10  -12.40   11.00
  -1   9 -10  -13.60    9.40
  -1   9 -10   -4.80    9.90
   2  -9  10   44.50   11.10
  -2  -9 -10   66.79   14.10
  -2  -9 -10   40.50   16.60
  -2   9 -10   54.59   13.80
  -2   9 -10   47.20   13.50
  -2 -10  10   38.10   12.50
  -1  10  10  192.48   17.90
   1  10 -10  200.48   22.00
   0 -10 -10  161.18   19.70
   0  10 -10  156.98   20.10
  -7   0  11   -2.50    9.30
  -7   0  11   -1.20    7.80
  -6   0  11  740.33   28.00
  -6   0  11  725.93   27.00
  -6   0  11  784.62   28.20
  -5   0  11 1490.75   42.00
  -5   0  11 1496.65   41.30
  -5   0  11 1479.35   39.90
  -5   0  11 1470.85   40.30
  -5   0  11 1572.44   39.00
  -4   0  11   29.80    7.10
  -4   0  11   33.50    6.00
  -4   0  11   34.40    6.10
  -4   0  11   21.30    7.10
  -4   0  11   31.90    6.10
  -3   0  11  515.55   15.80
  -3   0  11  512.45   19.70
  -3   0  11  518.25   19.40
  -3   0  11  489.45   16.60
  -2   0  11  872.91   26.40
  -2   0  11  891.11   24.00
  -2   0  11  868.01   20.60
   1   0 -11  103.49    7.80
  -1   0  11  105.29    9.20
  -1   0  11  109.59    8.30
   0   0  11  462.15   16.60
   0   0 -11  452.55   15.10
   0   0  11  447.46   16.00
  -1   0 -11  323.37   13.80
   1   0  11  315.07   13.90
  -1   0 -11  328.37   15.00
   1   0  11  327.67   13.50
   2   0  11  691.33   20.80
  -2   0 -11  697.73   23.10
  -2   0 -11  713.03   22.90
   2   0  11  710.33   23.30
  -3   0 -11   35.40    8.90
  -3   0 -11   20.20    7.00
   3   0  11   24.50    7.80
   4   0  11  467.55   22.20
  -4   0 -11  512.15   23.30
  -5   0 -11  139.09   16.10
   5   0  11   97.89   13.30
  -6   0 -11  111.59   17.00
   6   0  11   73.99   14.10
  -7  -1  11  261.67   19.20
  -7  -1  11  261.37   20.30
  -7   1  11  258.77   19.90
  -7   1  11  224.48   18.10
  -6  -1  11  210.48   17.30
  -6  -1  11  256.27   17.60
  -6  -1  11  223.08   16.20
  -6   1  11  206.48   15.40
  -6   1  11  237.78   15.20
  -6   1  11  237.98   15.90
  -5  -1  11  591.34   21.80
  -5  -1  11  590.24   24.50
  -5  -1  11  593.44   22.60
  -5  -1  11  567.14   22.70
  -5   1  11  601.94   21.50
  -5   1  11  617.04   23.10
  -5   1  11  566.64   22.60
  -5   1  11  618.64   21.70
  -5   1  11  582.14   21.50
  -4  -1  11  317.87   12.70
  -4  -1  11  298.17   17.00
  -4  -1  11  318.87   13.90
  -4  -1  11  328.77   16.50
  -4   1  11  327.57   14.70
  -4   1  11  319.47   13.90
  -4   1  11  327.77   15.90
  -4   1  11  307.27   16.10
  -4   1  11  347.87   13.90
  -3  -1  11  698.53   19.50
  -3  -1  11  692.43   23.90
  -3  -1  11  653.93   22.80
  -3   1  11  645.34   19.40
  -3   1  11  708.93   19.10
  -3   1  11  677.93   23.20
  -3   1  11  682.33   21.20
  -2  -1  11  544.45   19.60
  -2  -1  11  549.45   16.60
  -2  -1  11  551.24   20.00
  -2   1  11  579.54   15.00
   2   1 -11  619.84   19.20
  -2   1  11  587.14   18.90
  -1  -1  11 1669.63   39.20
  -1  -1  11 1681.93   42.10
   1  -1 -11 1705.53   37.60
  -1   1  11 1697.13   43.00
   1   1 -11 1726.93   40.80
  -1   1  11 1744.13   41.40
   0  -1 -11 1350.66   35.90
   0  -1  11 1297.27   33.10
   0  -1 -11 1361.56   31.40
   0  -1  11 1340.17   34.80
   0   1 -11 1333.57   33.00
   0   1 -11 1177.48   29.20
   0   1  11 1399.46   34.60
   0   1  11 1296.47   33.40
   1  -1  11 1410.36   35.60
  -1  -1 -11 1391.06   37.10
  -1  -1 -11 1402.96   34.20
   1  -1  11 1418.46   35.80
   1   1  11 1407.16   35.50
   1   1  11 1430.06   36.20
  -1   1 -11 1329.47   34.50
  -1   1 -11 1398.96   35.90
  -2  -1 -11  891.61   27.90
   2  -1  11  921.81   27.50
  -2  -1 -11  922.91   26.40
   2  -1  11  911.61   25.10
   2   1  11  943.81   25.40
  -2   1 -11  890.71   29.40
   2   1  11  922.01   27.90
  -2   1 -11  901.01   27.70
  -3  -1 -11  593.14   22.50
   3  -1  11  559.94   22.20
  -3  -1 -11  618.54   22.60
  -3   1 -11  610.04   23.40
   3   1  11  562.34   22.40
   4  -1  11  381.86   19.60
  -4  -1 -11  353.56   20.10
   4   1  11  360.86   19.30
  -4   1 -11  357.96   20.50
   5  -1  11  228.58   18.10
  -5  -1 -11  249.08   19.50
  -5   1 -11  252.77   20.80
   5   1  11  249.88   19.00
  -6  -1 -11  142.89   17.30
   6  -1  11  141.79   17.50
  -6   1 -11  189.88   20.20
   6   1  11  124.19   17.00
  -7  -2  11   88.69   13.50
  -7  -2  11  113.49   15.90
  -7  -2  11   95.99   15.20
  -7   2  11  115.59   14.00
  -7   2  11   97.39   14.10
  -6  -2  11   88.39   13.20
  -6  -2  11   94.19   12.80
  -6  -2  11   88.49   11.50
  -6   2  11   81.19   11.00
  -6   2  11   79.49   11.70
  -5  -2  11  317.17   17.40
  -5  -2  11  301.27   18.90
  -5  -2  11  315.87   18.10
  -5   2  11  332.07   17.00
  -5   2  11  299.47   15.30
  -5   2  11  309.87   16.80
  -5   2  11  291.17   16.50
  -4  -2  11 2286.97   57.69
  -4  -2  11 2394.46   59.49
  -4   2  11 2307.37   55.49
  -4   2  11 2298.97   53.69
  -4   2  11 2290.07   57.19
  -3  -2  11  507.25   19.50
  -3  -2  11  445.06   19.10
  -3  -2  11  481.85   20.20
  -3   2  11  482.65   18.20
  -3   2  11  487.25   15.30
  -3   2  11  494.05   19.80
  -2  -2  11  758.82   24.30
  -2  -2  11  731.43   24.50
  -2  -2  11  738.43   19.50
   2   2 -11  750.22   23.20
   2   2 -11  768.12   20.30
  -2   2  11  758.02   23.10
  -1  -2  11  365.96   15.70
  -1  -2  11  354.86   15.30
   1  -2 -11  381.26   16.60
  -1  -2  11  356.06   12.70
   1   2 -11  351.36   11.10
  -1   2  11  341.87   14.40
   1   2 -11  335.47   14.30
   0  -2 -11  548.35   15.10
   0  -2  11  574.24   17.70
   0  -2 -11  577.04   20.90
   0  -2  11  586.74   19.50
   0   2  11  616.74   20.30
   0   2 -11  572.34   15.80
   0   2 -11  610.04   20.20
   1  -2  11  404.76   15.70
  -1  -2 -11  399.06   13.90
  -1  -2 -11  392.36   17.60
   1  -2  11  439.26   15.90
  -1   2 -11  409.66   16.90
  -1   2 -11  379.86   12.90
   1   2  11  397.66   16.50
  -2  -2 -11   36.80    8.40
  -2  -2 -11   30.30    6.70
   2  -2  11   33.40    7.00
   2  -2  11   24.70    5.70
   2   2  11   22.90    5.70
   2   2  11   28.60    7.60
  -2   2 -11   27.20    7.90
  -2   2 -11   38.60    6.10
   3  -2  11  615.44   23.30
  -3  -2 -11  640.64   22.80
  -3  -2 -11  647.94   24.80
   3   2  11  599.64   23.00
  -3   2 -11  596.14   24.00
  -3   2 -11  591.54   20.40
   4  -2  11  176.88   15.10
  -4  -2 -11  150.08   14.70
  -4  -2 -11  193.08   15.30
  -4   2 -11  177.88   16.70
   4   2  11  163.08   15.00
   5  -2  11  330.67   20.90
  -5  -2 -11  360.66   21.40
   5   2  11  338.77   22.10
  -5   2 -11  373.56   23.90
  -6  -2 -11   74.29   14.50
  -6   2 -11   58.99   19.50
   6   2  11   30.10   12.60
  -7  -3  11   46.30   13.90
  -7  -3  11   44.00   13.30
  -7  -3  11   18.80    9.90
  -7   3  11   21.50   10.20
  -7   3  11   30.30   11.20
  -6  -3  11   -2.70    8.80
  -6  -3  11   -6.80    9.20
  -6   3  11    0.70    7.50
  -6   3  11   -2.50    6.80
  -5  -3  11  103.09   12.10
  -5  -3  11  118.39   14.20
  -5   3  11   83.39   10.40
  -5   3  11  121.19   12.80
  -5   3  11   79.49   10.20
  -4  -3  11  493.15   22.80
  -4  -3  11  494.45   21.30
  -4   3  11  483.35   18.00
  -4   3  11  481.95   19.90
  -3  -3  11 1303.17   38.00
  -3  -3  11 1292.97   37.00
  -3   3  11 1284.07   32.10
  -3   3  11 1296.77   35.50
  -2  -3  11  386.96   16.90
  -2  -3  11  364.46   17.20
  -2   3  11  375.96   15.70
   2   3 -11  359.26   13.60
   2   3 -11  357.76   15.70
  -1  -3  11   82.09    9.10
  -1  -3  11   80.19    6.60
   1  -3 -11   81.59    9.60
  -1  -3  11   93.49    9.60
  -1   3  11   86.49    9.20
   1   3 -11   88.99    7.20
   1   3 -11   82.39    8.90
   0  -3  11 1908.01   43.80
   0  -3  11 1929.61   47.20
   0  -3  11 1876.51   46.30
   0  -3 -11 1880.11   48.10
   0   3  11 1878.91   46.30
   0   3 -11 1866.71   42.70
   0   3 -11 1896.11   46.70
   1  -3  11  972.50   28.00
   1  -3  11  928.71   26.90
  -1  -3 -11  969.90   30.40
   1  -3  11  958.20   26.90
  -1   3 -11  973.10   29.90
   1   3  11 1016.60   29.50
  -1   3 -11  985.40   26.00
   2  -3  11  368.76   16.30
   2  -3  11  382.06   15.70
  -2  -3 -11  359.76   19.00
   2   3  11  416.26   18.30
  -2   3 -11  388.06   18.80
  -2   3 -11  373.36   15.50
   3  -3  11  447.96   19.90
  -3  -3 -11  468.35   22.20
  -3   3 -11  462.15   22.30
  -3   3 -11  461.85   18.70
   3   3  11  445.46   20.30
  -4  -3 -11  130.79   14.90
   4  -3  11  105.89   12.60
  -4   3 -11  125.99   14.30
   4   3  11  125.09   13.70
  -4   3 -11  136.59   15.40
   5  -3  11   43.10   11.50
  -5   3 -11   45.40   13.50
   5   3  11   40.10   11.40
   6   3  11   66.79   14.50
  -7  -4  11    7.30   12.80
  -7   4  11   23.70   11.60
  -7   4  11    7.50   13.10
  -6  -4  11  265.47   21.10
  -6  -4  11  274.77   22.90
  -6   4  11  254.07   18.50
  -6   4  11  287.37   19.70
  -5  -4  11  540.25   24.00
  -5  -4  11  534.05   26.30
  -5   4  11  552.64   23.60
  -5   4  11  490.85   21.10
  -4  -4  11   14.20    7.80
  -4  -4  11    4.60    8.10
  -4   4  11   -3.40    6.70
  -4   4  11   -5.00    5.60
  -3  -4  11  872.91   30.10
  -3  -4  11  830.82   28.80
  -3   4  11  801.62   26.60
   3   4 -11  803.92   25.20
  -2  -4  11  568.14   22.30
   2  -4 -11  557.64   21.50
  -2  -4  11  554.74   21.60
   2   4 -11  561.14   18.90
   2   4 -11  558.54   21.10
  -2   4  11  552.94   20.50
   1  -4 -11   89.49   10.80
  -1  -4  11   94.59    9.80
  -1  -4  11   95.79   10.30
   1   4 -11   84.59    9.70
  -1   4  11   69.79    8.50
   1   4 -11   72.99    7.80
   0  -4  11  299.97   15.10
   0  -4 -11  314.57   16.80
   0  -4  11  295.37   12.00
   0  -4  11  306.87   14.60
   0   4 -11  308.47   15.90
   0   4  11  299.37   15.20
   0   4 -11  294.77   13.10
   1  -4  11  998.90   27.60
  -1  -4 -11  982.30   32.00
   1  -4  11  971.70   27.70
   1  -4  11  939.91   29.20
  -1   4 -11  968.50   27.40
   1   4  11  977.10   29.90
  -1   4 -11  987.10   31.00
  -2  -4 -11  562.94   24.00
   2  -4  11  530.95   20.10
   2  -4  11  542.45   20.20
  -2   4 -11  509.65   19.30
  -2   4 -11  518.05   23.00
   2   4  11  539.45   21.60
   3  -4  11  421.06   19.80
  -3  -4 -11  461.65   23.50
  -3   4 -11  437.56   19.60
   3   4  11  422.56   20.60
  -3   4 -11  455.25   23.00
   4  -4  11  231.98   16.70
  -4  -4 -11  243.08   20.00
   4   4  11  186.98   16.30
  -4   4 -11  197.88   18.50
  -4   4 -11  201.98   16.00
   5  -4  11  129.39   15.10
  -5  -4 -11   66.39   14.20
  -5   4 -11  113.09   16.70
   5   4  11  100.79   14.20
  -6  -5  11   95.19   15.30
  -6  -5  11   96.29   16.60
  -6   5  11   97.39   14.80
  -5  -5  11  602.44   29.60
  -5  -5  11  630.74   27.10
  -5   5  11  544.45   24.90
  -4  -5  11   69.59   12.40
  -4  -5  11   47.00   10.70
   4   5 -11   61.39   10.30
  -4   5  11   68.19   10.60
  -3  -5  11 1037.60   34.60
  -3  -5  11 1002.00   33.40
  -3   5  11 1067.39   33.10
   3   5 -11 1064.19   32.00
  -2  -5  11  364.26   18.70
   2  -5 -11  339.57   17.50
  -2  -5  11  357.46   18.50
  -2   5  11  367.66   17.70
   2   5 -11  383.76   18.60
   2   5 -11  371.36   16.90
  -1  -5  11  674.13   24.60
   1  -5 -11  703.23   25.40
  -1  -5  11  703.53   25.40
   1   5 -11  707.83   23.20
   1   5 -11  733.43   25.70
  -1   5  11  742.33   24.90
   0  -5  11   18.30    6.70
   0  -5  11   14.80    6.00
   0  -5 -11   18.90    8.50
   0   5 -11   21.60    7.00
   0   5 -11   43.40    8.80
   0   5  11   19.60    7.50
  -1  -5 -11 2974.30   72.29
   1  -5  11 2909.51   69.99
   1  -5  11 2935.61   66.39
   1   5  11 2857.31   67.79
  -1   5 -11 2867.01   69.59
  -1   5 -11 2899.31   66.59
  -2  -5 -11  823.22   31.40
   2  -5  11  809.02   26.10
   2  -5  11  816.42   27.20
   2   5  11  799.52   27.50
  -2   5 -11  790.52   29.50
  -2   5 -11  764.92   26.10
  -3  -5 -11  293.67   21.50
   3  -5  11  354.06   18.10
  -3   5 -11  310.87   17.70
  -3   5 -11  295.07   20.70
   3   5  11  338.77   18.90
   4  -5  11  129.79   14.00
  -4  -5 -11  117.09   16.00
  -4   5 -11   97.49   12.70
   4   5  11  103.09   13.40
  -4   5 -11  114.09   16.10
   5  -5  11   32.40   10.60
  -5  -5 -11   16.60   12.90
  -5   5 -11   10.70   13.20
   5   5  11   24.20   11.60
  -5  -6  11   28.90   12.20
  -5  -6  11   46.20   11.40
  -5   6  11   50.89   11.50
  -4  -6  11  304.47   21.70
  -4  -6  11  340.37   21.00
   4   6 -11  311.67   19.00
  -4   6  11  313.67   19.50
   3  -6 -11  232.28   15.50
  -3  -6  11  194.08   17.20
  -3  -6  11  230.58   18.10
   3   6 -11  210.08   15.60
  -3   6  11  232.18   16.50
  -2  -6  11  513.35   23.40
   2  -6 -11  522.05   22.50
  -2  -6  11  555.94   24.00
  -2   6  11  559.74   22.90
   2   6 -11  569.54   23.80
   2   6 -11  577.44   22.40
  -1  -6  11  316.87   18.50
  -1  -6  11  328.47   17.70
   1  -6 -11  338.37   19.00
  -1   6  11  334.37   17.70
   1   6 -11  359.16   19.20
   1   6 -11  328.47   17.00
   0  -6  11 1374.96   40.50
   0  -6  11 1312.07   37.50
   0  -6 -11 1319.07   40.80
   0   6  11 1293.37   37.60
   0   6 -11 1306.67   39.50
   0   6 -11 1325.57   37.10
   1  -6  11  384.46   19.30
  -1  -6 -11  406.06   22.50
  -1   6 -11  380.96   21.10
  -1   6 -11  418.76   19.30
   1   6  11  431.86   20.20
  -2  -6 -11  132.89   16.20
   2  -6  11  119.39   11.50
   2  -6  11  124.89   12.70
  -2   6 -11  116.19   12.80
  -2   6 -11  130.79   15.20
   2   6  11  143.89   14.00
  -3  -6 -11   37.20   12.30
   3  -6  11   22.70    8.30
  -3   6 -11   20.60    9.40
   3   6  11   28.80   10.10
  -3   6 -11   14.20   10.40
   4  -6  11  131.09   14.40
  -4  -6 -11   84.99   15.80
  -4   6 -11  111.09   16.30
  -4   6 -11  112.89   14.70
   4   6  11   91.59   13.50
  -5  -7  11   41.10   14.30
  -5  -7  11   29.00   11.20
  -5   7  11   36.80   11.20
  -4  -7  11  420.36   26.40
  -4  -7  11  427.76   24.20
  -4   7  11  403.56   22.50
   4   7 -11  419.16   22.50
  -3  -7  11  398.06   23.80
  -3  -7  11  424.16   23.80
   3   7 -11  363.26   20.70
  -3   7  11  403.96   21.40
   2  -7 -11  250.17   17.50
  -2  -7  11  245.08   18.60
  -2  -7  11  227.48   17.80
   2   7 -11  234.08   17.90
   2   7 -11  211.58   16.70
  -2   7  11  238.68   17.00
  -1  -7  11  648.84   26.20
  -1  -7  11  655.43   27.40
   1  -7 -11  631.94   27.00
   1   7 -11  616.34   24.60
  -1   7  11  644.54   24.90
   1   7 -11  607.24   26.10
   0  -7 -11   91.49   13.20
   0  -7  11   84.99   12.10
   0   7 -11   91.19   12.10
   0   7  11  100.99   12.10
   0   7 -11   76.89   12.40
   1  -7  11  133.19   14.50
  -1  -7 -11  159.58   17.30
   1   7  11  148.49   14.00
  -1   7 -11  131.49   15.30
  -1   7 -11  120.89   13.80
   2  -7  11  139.69   14.10
  -2  -7 -11  123.99   16.30
  -2   7 -11  121.19   15.60
  -2   7 -11  127.29   14.10
   2   7  11  123.89   13.90
  -3  -7 -11    7.90   12.40
   3   7  11   22.80   10.70
  -3   7 -11   26.80   10.40
  -3   7 -11   23.00   12.00
  -4   7 -11  202.68   19.30
  -4  -8  11  543.45   30.60
  -4  -8  11  478.85   27.50
   4   8 -11  492.15   26.10
  -4   8  11  528.05   26.60
  -3  -8  11  137.99   16.90
  -3  -8  11  108.29   15.90
   3   8 -11  100.09   14.10
  -3   8  11  116.09   14.40
   2  -8 -11  456.65   23.20
  -2  -8  11  365.16   22.80
  -2  -8  11  397.36   24.00
   2   8 -11  395.16   22.80
   2   8 -11  439.56   22.90
  -2   8  11  413.86   22.30
  -1  -8  11   63.19   12.20
   1  -8 -11   45.70   11.90
   1  -8 -11   50.99   12.20
  -1  -8  11   42.00   10.40
   1   8 -11   57.49   12.20
  -1   8  11   60.59   11.40
   1   8 -11   58.79   12.40
   0  -8 -11   45.30   11.90
   0  -8 -11   51.39   12.30
   0  -8  11   62.19   12.00
   0   8 -11   34.60   11.00
   0   8 -11   40.40   11.30
   0   8  11   39.00   10.10
   1  -8  11   66.89   11.50
  -1  -8 -11   80.19   15.50
  -1  -8 -11   69.09   12.80
  -1   8 -11   92.39   13.40
   1   8  11   99.29   13.00
  -1   8 -11   54.89   12.50
   2  -8  11  319.07   20.40
  -2  -8 -11  309.87   24.90
   2   8  11  329.67   22.20
  -2   8 -11  281.57   22.70
  -2   8 -11  347.07   22.30
  -3   8 -11  264.97   33.20
  -3   8 -11  296.37   22.10
  -3  -9  11  363.26   25.20
  -3   9  11  401.76   23.80
   3   9 -11  345.57   23.30
  -2  -9  11  253.37   20.80
  -2  -9  11  202.18   20.10
  -2   9  11  229.58   19.50
   2   9 -11  201.38   19.80
   2   9 -11  231.08   20.40
  -1  -9  11  682.73   31.50
   1  -9 -11  688.93   32.10
   1  -9 -11  621.44   30.40
   1   9 -11  633.94   29.60
   1   9 -11  609.74   28.40
  -1   9  11  649.04   27.80
   0  -9 -11   63.79   14.50
   0  -9 -11   90.09   15.40
   0  -9  11   76.79   13.80
   0   9  11   76.59   12.60
   0   9 -11   63.59   13.30
   0   9 -11   48.20   12.50
  -1  -9 -11   46.00   13.10
  -1  -9 -11   61.09   15.20
   1  -9  11   50.39   11.90
  -1   9 -11   42.60   12.70
  -1   9 -11   48.20   12.90
   2  -9  11  304.37   22.10
  -2   9 -11  332.17   23.90
  -7   0  12   65.09   12.90
  -7   0  12   75.59   12.30
  -6   0  12  344.97   19.50
  -6   0  12  300.57   17.40
  -6   0  12  332.67   18.40
  -5   0  12  138.29   13.40
  -5   0  12  150.18   13.30
  -5   0  12  146.59   11.50
  -5   0  12  133.79   10.70
  -5   0  12  147.59   11.10
  -4   0  12   52.29    7.40
  -4   0  12   49.60    7.00
  -4   0  12   57.99    7.30
  -4   0  12   51.19    9.50
  -4   0  12   55.59    9.00
  -3   0  12   99.39    8.60
  -3   0  12  103.19   10.40
  -3   0  12  101.49   10.60
  -2   0  12   89.49    8.10
  -2   0  12   75.59    9.00
   1   0 -12    4.30    4.50
  -1   0  12   -1.20    4.20
  -1   0  12   -0.10    4.60
   0   0 -12  557.34   18.00
   0   0  12  561.14   18.80
   0   0  12  580.04   19.90
  -1   0 -12  563.44   18.90
   1   0  12  542.95   19.00
   1   0  12  537.25   19.30
   2   0  12 1846.02   47.00
   2   0  12 1839.72   44.30
  -2   0 -12 1868.81   46.10
  -2   0 -12 1842.22   46.90
  -3   0 -12  685.73   24.40
   3   0  12  712.73   25.60
  -3   0 -12  706.33   25.90
  -4   0 -12  111.79   14.10
   4   0  12  103.49   13.20
   5   0  12   53.19   12.10
  -5   0 -12   98.59   15.10
  -6   0 -12  449.76   28.10
  -7  -1  12  108.39   15.50
  -7  -1  12   91.29   13.00
  -7   1  12   65.79   15.40
  -6  -1  12  263.37   17.00
  -6  -1  12  305.47   18.30
  -6  -1  12  323.47   19.90
  -6   1  12  311.27   16.80
  -6   1  12  282.57   17.10
  -5  -1  12   95.99   12.60
  -5  -1  12  129.99   12.50
  -5  -1  12  118.99   12.90
  -5  -1  12  113.79   10.80
  -5   1  12  132.09   10.80
  -5   1  12  106.19   11.50
  -5   1  12  113.59   12.30
  -5   1  12  146.69   12.20
  -5   1  12  123.59   10.80
  -4  -1  12   54.59    9.30
  -4  -1  12   52.49    7.20
  -4  -1  12   58.69   10.10
  -4   1  12   54.19    8.40
  -4   1  12   58.49    9.40
  -4   1  12   32.10    6.40
  -4   1  12   39.00    7.90
  -3  -1  12  431.06   18.40
  -3  -1  12  425.76   14.70
  -3  -1  12  391.46   18.40
  -3   1  12  463.25   17.30
  -3   1  12  458.95   19.20
  -2  -1  12  534.35   20.00
  -2  -1  12  518.75   20.30
  -2  -1  12  541.75   17.20
  -2   1  12  498.65   19.40
  -2   1  12  522.35   18.10
   2   1 -12  526.95   18.10
  -1  -1  12 1795.02   43.00
   1  -1 -12 1901.91   41.50
  -1  -1  12 1848.02   46.10
  -1   1  12 1859.51   44.30
  -1   1  12 1833.72   46.00
   1   1 -12 1799.82   43.40
   0  -1 -12  860.71   27.10
   0  -1  12  860.01   24.70
   0  -1 -12  881.81   23.00
   0  -1  12  882.81   26.30
   0   1 -12  869.01   25.30
   0   1  12  889.31   26.50
   0   1  12  892.61   26.00
   1  -1  12  304.77   14.20
  -1  -1 -12  329.57   16.30
  -1  -1 -12  324.77   13.50
   1  -1  12  321.57   14.30
   1   1  12  326.77   15.30
  -1   1 -12  299.57   14.90
   1   1  12  327.37   14.50
  -2  -1 -12  297.67   14.50
  -2  -1 -12  267.87   15.90
   2  -1  12  300.27   13.30
   2  -1  12  292.57   15.10
   2   1  12  270.67   13.00
   2   1  12  308.67   15.80
  -2   1 -12  298.77   16.10
   3  -1  12 1119.89   34.40
  -3  -1 -12 1144.49   34.50
  -3  -1 -12 1159.48   34.00
   3   1  12 1095.99   34.20
  -3   1 -12 1141.79   34.70
  -4  -1 -12  151.98   14.80
   4  -1  12  108.69   13.30
   4   1  12  129.09   14.10
  -4   1 -12  140.29   15.30
   5  -1  12   29.30   10.50
  -5  -1 -12   21.40   11.00
   5   1  12   42.60   11.50
  -5   1 -12   41.90   12.30
  -6  -1 -12   23.20   13.40
  -7  -2  12   88.79   12.80
  -7  -2  12  100.89   15.80
  -7  -2  12   98.49   15.30
  -7   2  12  111.69   14.60
  -6  -2  12   78.09   11.00
  -6  -2  12   94.39   14.20
  -6  -2  12   91.39   13.10
  -6   2  12  107.09   12.80
  -5  -2  12  383.66   21.30
  -5  -2  12  385.96   19.70
  -5  -2  12  371.56   19.50
  -5   2  12  349.27   18.60
  -5   2  12  366.76   18.20
  -5   2  12  367.66   18.20
  -4  -2  12  707.13   26.00
  -4  -2  12  728.93   27.50
  -4   2  12  734.63   26.70
  -4   2  12  723.93   24.70
  -3  -2  12  689.43   25.00
  -3  -2  12  656.53   24.00
  -3   2  12  674.43   22.50
  -3   2  12  654.93   24.00
  -2  -2  12  710.13   24.10
  -2  -2  12  687.53   19.40
  -2  -2  12  691.23   24.10
  -2   2  12  727.23   24.80
  -2   2  12  718.83   23.10
   2   2 -12  746.63   23.20
  -1  -2  12  388.26   16.80
  -1  -2  12  398.76   16.90
  -1  -2  12  385.46   13.90
   1   2 -12  412.76   16.40
  -1   2  12  412.66   16.70
  -1   2  12  423.76   17.70
   0  -2  12 1117.59   31.40
   0  -2 -12 1078.59   32.50
   0  -2  12 1137.39   29.30
   0   2  12 1120.99   31.90
   0   2 -12 1177.88   32.20
   0   2  12 1191.78   33.00
   1  -2  12  268.27   13.40
   1  -2  12  254.37   13.00
  -1  -2 -12  260.57   15.50
  -1  -2 -12  260.67   14.20
  -1   2 -12  261.27   14.80
   1   2  12  270.77   14.40
   1   2  12  291.97   14.00
  -2  -2 -12   20.10    6.70
   2  -2  12   17.80    5.60
  -2  -2 -12   22.10    7.50
   2  -2  12   20.10    6.70
  -2   2 -12   38.80    9.00
   2   2  12    6.20    5.10
   2   2  12   14.70    6.80
   3  -2  12  164.48   13.50
  -3  -2 -12  113.89   13.10
  -3  -2 -12  148.39   13.00
   3   2  12  142.59   13.60
  -3   2 -12  152.68   14.80
  -4  -2 -12  154.58   15.00
  -4  -2 -12  157.48   14.60
   4  -2  12  155.48   14.80
   4   2  12  134.99   14.30
  -4   2 -12  173.98   17.30
  -5  -2 -12   45.10   11.70
   5  -2  12   50.29   11.60
   5   2  12   50.09   12.50
  -5   2 -12   66.19   14.30
  -6  -2 -12  115.39   16.60
  -7  -3  12   36.90   13.70
  -7  -3  12   39.60   11.10
  -7  -3  12   37.00   12.50
  -7   3  12   39.00   12.20
  -6  -3  12   92.19   14.80
  -6  -3  12   66.19   12.50
  -6   3  12   76.39   12.10
  -5  -3  12  554.04   26.00
  -5  -3  12  479.85   23.10
  -5   3  12  562.64   23.30
  -5   3  12  520.45   23.10
  -4  -3  12  680.53   27.40
  -4  -3  12  715.73   26.50
  -4   3  12  669.53   26.00
  -4   3  12  701.43   24.90
  -3  -3  12 1802.62   47.60
  -3  -3  12 1743.43   48.00
  -3   3  12 1833.02   46.70
  -2  -3  12  325.87   16.30
  -2  -3  12  301.87   16.30
  -2   3  12  308.77   15.00
   2   3 -12  297.47   15.20
   2   3 -12  325.87   12.80
  -1  -3  12  649.14   18.60
  -1  -3  12  638.14   22.80
   1  -3 -12  641.64   23.50
  -1  -3  12  655.83   23.10
   1   3 -12  627.74   18.50
   1   3 -12  631.64   22.10
  -1   3  12  657.23   22.10
   0  -3 -12 1049.40   32.60
   0  -3  12 1076.79   28.20
   0  -3  12 1044.80   30.70
   0  -3  12 1116.79   31.60
   0   3  12 1120.09   32.10
   0   3 -12 1141.79   32.60
   1  -3  12 1645.84   40.90
   1  -3  12 1611.54   41.10
   1  -3  12 1627.04   42.10
  -1  -3 -12 1625.54   44.40
   1   3  12 1733.83   44.50
  -1   3 -12 1684.63   44.90
   2  -3  12    5.80    5.40
  -2  -3 -12    8.40    7.80
   2  -3  12   10.60    5.90
   2   3  12   16.00    7.70
  -2   3 -12    8.30    8.20
  -3  -3 -12  108.29   13.60
   3  -3  12  117.19   12.10
  -3   3 -12   96.59   13.70
   3   3  12   83.69   11.80
  -4  -3 -12   56.89   12.00
   4  -3  12   58.69   11.20
   4   3  12   48.90   11.00
  -4   3 -12   60.39   13.70
   5  -3  12  141.19   15.90
   5   3  12  172.68   17.40
  -5   3 -12  192.88   20.10
  -7  -4  12   43.50   19.90
  -6  -4  12  185.38   18.30
  -6  -4  12  198.18   20.00
  -6   4  12  196.38   17.80
  -5  -4  12  137.49   14.60
  -5  -4  12  114.09   15.40
  -5   4  12   99.49   12.60
  -4  -4  12  302.37   18.60
  -4  -4  12  283.97   19.50
  -4   4  12  312.67   17.90
  -3  -4  12  316.67   18.90
  -3  -4  12  325.17   18.00
  -3   4  12  329.17   17.40
   3   4 -12  384.66   16.60
   2  -4 -12 1571.24   43.00
  -2  -4  12 1585.84   43.80
  -2  -4  12 1551.64   43.30
   2   4 -12 1530.65   41.90
   2   4 -12 1583.44   38.80
  -2   4  12 1542.15   41.50
  -1  -4  12    9.80    6.30
   1  -4 -12   -0.50    6.70
  -1  -4  12    6.60    5.70
  -1   4  12    6.90    6.20
   1   4 -12   -0.50    5.10
   1   4 -12    1.10    6.30
   0  -4  12 1073.99   32.80
   0  -4  12 1119.59   29.00
   0  -4  12 1144.49   32.40
   0  -4 -12 1098.89   34.30
   0   4 -12 1104.29   33.10
   0   4 -12 1039.20   28.80
   0   4  12 1154.68   32.80
   1  -4  12  541.05   19.00
  -1  -4 -12  517.45   23.40
   1  -4  12  510.15   20.60
   1  -4  12  526.45   19.60
  -1   4 -12  531.45   20.00
   1   4  12  530.75   21.60
  -1   4 -12  526.75   22.10
   2  -4  12  221.28   13.90
  -2  -4 -12  262.77   18.40
   2  -4  12  227.38   14.00
  -2   4 -12  227.98   17.30
   2   4  12  228.08   16.00
  -3  -4 -12   79.89   13.10
   3  -4  12   59.89   10.00
  -3   4 -12   46.90   11.90
   3   4  12   66.49   10.80
  -4  -4 -12  240.38   20.70
   4  -4  12  245.38   17.60
  -4   4 -12  254.67   21.70
   4   4  12  227.98   18.70
   5  -4  12  129.39   15.60
  -5  -4 -12  123.39   16.60
   5   4  12  129.99   15.80
  -5   4 -12  137.39   19.20
  -6  -5  12  161.08   18.20
  -6  -5  12  213.28   22.10
  -6   5  12  209.08   19.10
  -5  -5  12  333.27   21.40
  -5  -5  12  383.96   24.90
  -5   5  12  332.07   20.50
  -4  -5  12  183.18   17.60
  -4  -5  12  233.38   18.00
  -4   5  12  206.48   16.60
  -3  -5  12  364.46   20.80
  -3  -5  12  348.27   19.50
  -3   5  12  363.16   18.70
   3   5 -12  338.97   17.20
  -2  -5  12  293.77   17.70
  -2  -5  12  318.67   17.60
   2  -5 -12  298.97   17.30
  -2   5  12  324.47   17.40
   2   5 -12  333.57   16.10
   2   5 -12  307.47   17.70
   1  -5 -12  337.67   18.70
  -1  -5  12  366.46   18.10
  -1  -5  12  322.47   17.90
  -1   5  12  333.97   17.50
   1   5 -12  361.56   18.60
   1   5 -12  381.46   16.60
   0  -5  12  735.63   25.50
   0  -5 -12  749.73   28.30
   0  -5  12  772.62   27.20
   0   5  12  774.42   26.70
   0   5 -12  768.02   24.60
   0   5 -12  777.82   27.80
   1  -5  12  925.41   27.50
  -1  -5 -12  940.41   33.60
   1  -5  12  969.40   30.90
  -1   5 -12  922.61   31.80
   1   5  12  926.71   30.40
  -1   5 -12  934.31   28.40
  -2  -5 -12   66.99   12.70
   2  -5  12   66.69    9.70
   2  -5  12   60.69    9.10
  -2   5 -12   63.49   10.50
   2   5  12   84.69   11.70
  -2   5 -12   56.79   11.60
  -3  -5 -12  332.87   22.60
   3  -5  12  274.17   17.20
  -3   5 -12  318.47   21.90
   3   5  12  263.67   18.40
  -4  -5 -12    8.70   12.30
   4  -5  12   -3.50    7.50
   4   5  12    3.00    9.70
  -4   5 -12    1.10   11.10
  -5  -5 -12  225.98   22.70
   5   5  12  201.68   18.90
  -5  -6  12    5.50   10.80
  -5  -6  12   31.30   10.80
  -5   6  12   39.20   11.30
  -4  -6  12  312.97   21.30
  -4  -6  12  306.67   22.30
   4   6 -12  304.07   19.10
  -4   6  12  301.97   19.70
  -3  -6  12  140.09   15.80
  -3  -6  12  166.58   16.70
   3   6 -12  143.99   14.00
  -3   6  12  198.58   16.30
   2  -6 -12  290.77   17.80
  -2  -6  12  263.97   18.00
  -2  -6  12  292.37   18.90
   2   6 -12  282.97   16.40
  -2   6  12  270.37   17.20
   2   6 -12  290.67   17.80
  -1  -6  12  875.01   30.50
   1  -6 -12  894.61   31.30
  -1  -6  12  867.61   31.20
   1   6 -12  874.31   28.60
  -1   6  12  910.01   30.10
   1   6 -12  878.51   31.10
   0  -6  12  244.78   17.40
   0  -6  12  275.97   15.80
   0  -6 -12  249.78   19.10
   0   6 -12  253.27   15.90
   0   6  12  236.68   16.50
   0   6 -12  243.98   17.50
   1  -6  12   53.29    9.50
  -1  -6 -12   43.80   11.00
  -1   6 -12   45.30    9.50
  -1   6 -12   41.90   10.50
   1   6  12   54.29   10.50
   2  -6  12  244.58   16.20
  -2  -6 -12  231.18   20.80
  -2   6 -12  224.18   16.40
   2   6  12  241.28   17.70
  -2   6 -12  261.77   19.60
  -3  -6 -12   43.00   13.90
   3  -6  12   53.19   10.10
   3   6  12   38.00   11.30
  -3   6 -12   26.90   12.10
  -4  -6 -12  162.98   19.90
   4  -6  12  158.88   16.60
   4   6  12  160.28   16.80
  -4   6 -12  166.08   19.90
  -5  -7  12   37.40   12.30
  -4  -7  12  244.88   21.00
  -4  -7  12  256.77   22.80
   4   7 -12  235.58   19.10
  -4   7  12  262.17   20.00
  -3  -7  12  260.97   20.90
  -3  -7  12  239.58   19.90
   3   7 -12  190.48   16.90
  -3   7  12  217.48   18.00
   2  -7 -12  173.08   16.40
  -2  -7  12  145.09   16.00
  -2  -7  12  123.49   15.50
  -2   7  12  163.58   15.40
   2   7 -12  145.39   15.70
   2   7 -12  174.88   15.70
  -1  -7  12  161.48   16.30
  -1  -7  12  170.38   15.30
   1  -7 -12  165.98   16.60
   1   7 -12  178.18   15.60
  -1   7  12  185.18   15.80
   1   7 -12  152.28   15.60
   0  -7 -12   45.40   12.10
   0  -7  12   41.50   10.60
   0   7 -12   46.80   10.40
   0   7 -12   44.10   11.30
   0   7  12   51.89   10.50
   1  -7  12  151.98   15.30
  -1  -7 -12  134.99   16.60
   1   7  12  141.99   14.20
  -1   7 -12  144.79   14.40
  -1   7 -12  169.38   17.00
   2  -7  12   74.59   11.50
  -2  -7 -12   62.49   15.00
  -2   7 -12   77.59   12.30
  -2   7 -12   53.19   12.90
   2   7  12   80.79   12.80
  -3  -7 -12   74.39   16.10
   3   7  12   61.59   12.80
  -3   7 -12   59.09   14.60
  -4  -8  12  246.68   21.60
  -4  -8  12  274.67   27.30
   4   8 -12  265.07   21.50
  -3  -8  12  173.38   19.00
  -3  -8  12  191.58   19.50
   3   8 -12  158.28   17.20
  -3   8  12  208.78   18.40
   2  -8 -12  253.57   20.50
  -2  -8  12  277.07   21.00
  -2  -8  12  275.97   21.40
  -2   8  12  309.67   20.70
   2   8 -12  338.47   22.10
   2   8 -12  295.47   20.40
   1  -8 -12  101.29   14.90
  -1  -8  12   95.59   14.40
  -1  -8  12   96.39   13.70
  -1   8  12   89.39   13.10
   1   8 -12   81.59   13.30
   1   8 -12   97.39   13.90
   0  -8  12  211.68   18.70
   0  -8 -12  197.18   20.00
   0   8 -12  205.28   19.00
   0   8  12  264.37   18.70
   0   8 -12  210.88   18.00
   1  -8  12   47.30   10.80
  -1  -8 -12   28.80   12.20
   1   8  12   37.60   10.50
  -1   8 -12   16.90   10.20
  -1   8 -12   29.30   11.20
  -2  -8 -12  272.27   24.50
   2  -8  12  291.67   20.40
   2   8  12  263.37   20.70
  -2   8 -12  280.27   22.60
  -2   8 -12  258.67   21.10
  -3  -9  12   73.59   17.60
   3   9 -12   81.79   14.80
  -2  -9  12   92.59   15.00
   2   9 -12  148.99   19.40
   2   9 -12  112.39   16.30
  -2   9  12  128.99   16.00
  -1  -9  12  163.58   18.50
   1  -9 -12  153.28   18.20
  -1   9  12  167.98   16.70
   1   9 -12  143.49   17.40
   1   9 -12  140.79   17.40
   0  -9  12   32.50   10.60
   0  -9 -12   -1.90   11.10
   0   9 -12   24.10   11.70
   0   9 -12  -11.00   10.40
   0   9  12    7.20   10.20
   1  -9  12   63.59   13.10
   1   9  12   92.39   20.10
  -1   9 -12   66.99   14.30
  -7   0  13  118.59   21.20
  -6   0  13  374.36   20.40
  -6   0  13  398.46   21.60
  -6   0  13  404.36   20.00
  -5   0  13  432.96   21.00
  -5   0  13  436.16   18.60
  -5   0  13  388.16   20.70
  -4   0  13  303.67   14.20
  -4   0  13  294.47   17.30
  -4   0  13  300.77   14.40
  -4   0  13  292.87   17.00
  -3   0  13 1374.56   34.80
  -3   0  13 1327.47   38.20
  -3   0  13 1292.17   37.70
  -2   0  13   34.00    6.50
  -2   0  13   26.50    6.70
  -1   0  13  381.16   15.40
  -1   0  13  381.36   16.80
   1   0 -13  390.16   14.60
   0   0  13  133.99   10.40
   0   0 -13  130.89    9.80
   0   0  13  141.09   11.10
   1   0  13  450.85   17.60
   1   0  13  413.26   17.40
  -1   0 -13  432.46   17.40
  -2   0 -13   59.19    9.60
   2   0  13   79.89   10.60
   2   0  13   68.79    8.40
  -2   0 -13   79.69   10.30
   3   0  13  852.51   30.00
  -3   0 -13  882.61   29.40
  -3   0 -13  943.51   30.70
  -4   0 -13  183.28   16.90
   4   0  13  172.78   16.20
  -5   0 -13   24.00   12.10
   5   0  13   27.70   11.00
  -7  -1  13  -11.10    9.00
  -6  -1  13  285.97   18.50
  -6  -1  13  300.77   20.60
  -6  -1  13  280.87   18.00
  -6   1  13  311.77   25.20
  -6   1  13  326.77   19.10
  -5  -1  13  129.29   13.70
  -5  -1  13  140.69   12.40
  -5  -1  13  135.89   14.50
  -5   1  13  152.18   14.00
  -5   1  13  153.48   13.00
  -5   1  13  134.99   13.60
  -4  -1  13  175.28   15.20
  -4  -1  13  181.48   14.50
  -4   1  13  195.78   14.60
  -4   1  13  186.68   12.90
  -4   1  13  198.08   15.20
  -3  -1  13  233.18   11.80
  -3  -1  13  258.77   15.10
  -3  -1  13  276.27   16.10
  -3   1  13  276.77   14.30
  -3   1  13  279.87   15.90
  -2  -1  13  963.00   29.70
  -2  -1  13  974.70   26.20
  -2  -1  13  941.61   30.00
  -2   1  13 1001.30   28.20
   2   1 -13  972.80   27.70
   1  -1 -13 1020.20   25.70
  -1  -1  13 1007.10   27.70
  -1  -1  13 1026.80   30.40
  -1   1  13  981.20   30.00
  -1   1  13 1027.50   28.80
   1   1 -13  988.10   27.70
   0  -1  13 1118.99   32.20
   0  -1  13 1142.09   30.70
   0  -1 -13 1119.39   28.60
   0   1  13 1174.78   33.10
   0   1  13 1154.68   32.20
   0   1 -13 1144.19   31.40
  -1  -1 -13  179.08   14.00
   1  -1  13  175.08   11.90
  -1  -1 -13  175.28   11.20
   1  -1  13  165.28   11.50
   1   1  13  161.98   11.50
   1   1  13  175.98   12.60
  -1   1 -13  158.68   12.50
  -2  -1 -13  771.82   27.10
  -2  -1 -13  801.22   25.00
   2  -1  13  761.32   23.90
   2  -1  13  788.82   26.50
  -2   1 -13  865.21   27.90
   2   1  13  816.72   26.20
   2   1  13  794.42   27.40
   3  -1  13 1063.09   33.30
  -3  -1 -13  985.00   32.10
  -3  -1 -13 1047.50   33.20
   3   1  13 1108.89   34.80
  -3   1 -13 1061.69   34.30
   4  -1  13   97.09   12.80
  -4  -1 -13  103.69   13.70
   4   1  13  113.99   13.50
  -4   1 -13   95.09   14.10
  -5  -1 -13   36.90   12.00
   5  -1  13   26.30   11.10
   5   1  13   11.70   10.50
  -5   1 -13   11.70   12.00
  -7  -2  13   54.29   12.90
  -7  -2  13   59.89   13.80
  -6  -2  13   52.29   11.70
  -6  -2  13   67.29   13.40
  -6  -2  13   80.39   13.90
  -6   2  13   74.29   11.60
  -6   2  13   59.39   11.10
  -5  -2  13   76.99   12.50
  -5  -2  13   66.69   11.40
  -5  -2  13   52.49   10.20
  -5   2  13   56.09   10.00
  -5   2  13   57.49   10.70
  -5   2  13   52.69    9.20
  -4  -2  13   54.39    9.80
  -4  -2  13   35.20    9.40
  -4   2  13   65.59   10.70
  -4   2  13   78.19   10.20
  -3  -2  13  112.59   12.10
  -3  -2  13  111.19   11.60
  -3   2  13  141.09   13.40
  -3   2  13  141.89   11.70
  -2  -2  13   35.00    5.80
  -2  -2  13   23.00    7.40
  -2  -2  13   29.50    7.30
   2   2 -13   39.80    7.60
  -2   2  13   17.50    6.70
  -2   2  13   23.00    6.90
  -1  -2  13 1048.90   31.70
  -1  -2  13 1054.19   31.60
  -1  -2  13 1079.19   28.10
  -1   2  13 1040.00   30.20
   1   2 -13 1029.40   29.90
  -1   2  13 1088.99   32.00
   0  -2  13 1589.74   41.70
   0  -2 -13 1588.64   43.30
   0  -2  13 1572.04   39.20
   0   2  13 1567.04   40.60
   0   2 -13 1502.65   40.10
   0   2  13 1573.24   41.30
  -1  -2 -13 1381.46   39.90
   1  -2  13 1429.26   37.50
   1  -2  13 1423.66   37.90
  -1   2 -13 1445.26   39.10
   1   2  13 1394.46   38.60
   1   2  13 1425.16   38.30
  -2  -2 -13  185.58   15.30
   2  -2  13  167.98   11.70
   2  -2  13  165.88   13.00
   2   2  13  193.78   14.30
  -2   2 -13  171.78   15.20
   2   2  13  179.58   14.40
  -3  -2 -13   76.29   11.90
   3  -2  13   72.39   11.00
   3   2  13   88.49   12.20
  -3   2 -13   80.69   13.30
  -4  -2 -13   70.59   12.50
   4  -2  13   50.39   11.10
   4   2  13   56.69   11.50
  -4   2 -13   47.70   12.50
   5  -2  13   38.00   11.60
   5   2  13   47.50   13.00
  -5   2 -13   41.40   14.20
  -7  -3  13  128.89   18.30
  -7   3  13  154.98   16.80
  -6  -3  13  477.95   24.80
  -6  -3  13  492.45   27.00
  -6   3  13  474.75   24.00
  -6   3  13  511.55   24.20
  -5  -3  13  108.89   13.40
  -5  -3  13   99.79   14.70
  -5   3  13  112.69   12.30
  -5   3  13  131.99   14.30
  -5   3  13  125.39   13.50
  -4  -3  13  338.27   19.40
  -4  -3  13  347.57   20.40
  -4   3  13  354.96   18.70
  -4   3  13  362.56   19.60
  -3  -3  13  128.59   13.60
  -3  -3  13  118.49   12.80
  -3   3  13  101.59   11.20
  -2  -3  13 1199.78   35.50
  -2  -3  13 1151.98   35.40
  -2   3  13 1190.98   33.90
   2   3 -13 1179.78   34.10
  -1  -3  13  112.99    8.50
  -1  -3  13  113.39   11.40
   1  -3 -13  114.79   12.10
  -1  -3  13  119.09   11.50
  -1   3  13  106.19   10.70
   1   3 -13  131.09   11.90
   0  -3 -13 1445.36   41.00
   0  -3  13 1408.76   38.80
   0  -3  13 1448.85   39.60
   0  -3  13 1419.46   36.10
   0   3 -13 1458.55   39.90
   0   3  13 1459.45   39.70
   1  -3  13  131.29   10.70
   1  -3  13  134.19   11.60
   1  -3  13  130.69   11.30
  -1  -3 -13  135.79   13.50
   1   3  13  157.18   13.70
  -1   3 -13  161.08   13.90
  -2  -3 -13 1876.41   50.89
   2  -3  13 1867.51   47.80
   2  -3  13 1803.82   46.60
   2   3  13 1832.32   49.10
  -2   3 -13 1853.41   50.19
  -3  -3 -13  141.29   15.10
   3  -3  13  139.79   13.30
   3   3  13  126.89   13.40
  -3   3 -13  143.89   15.70
   4  -3  13   82.69   12.60
  -4  -3 -13  100.79   14.60
   4   3  13   46.30   11.40
  -4   3 -13   99.89   15.60
   5  -3  13   28.90   11.10
   5   3  13   26.00   12.00
  -5   3 -13   31.10   13.90
  -6  -4  13   23.10   12.30
  -6  -4  13   36.60   12.10
  -6   4  13   25.20    9.50
  -6   4  13   23.90   10.50
  -5  -4  13  212.48   19.60
  -5  -4  13  195.78   17.50
  -5   4  13  237.88   18.40
  -5   4  13  225.58   18.10
  -4  -4  13  104.69   13.60
  -4  -4  13  105.89   14.20
  -4   4  13  112.29   12.90
  -3  -4  13 1058.09   35.30
  -3  -4  13 1030.70   34.30
  -3   4  13 1054.49   32.90
  -2  -4  13  348.57   18.40
  -2  -4  13  356.56   19.00
   2  -4 -13  363.26   18.80
   2   4 -13  375.56   18.50
  -2   4  13  358.66   17.90
  -1  -4  13 1335.87   38.00
   1  -4 -13 1279.07   38.40
  -1  -4  13 1265.77   37.90
  -1   4  13 1335.27   38.20
   1   4 -13 1395.96   38.90
   0  -4  13  380.06   17.60
   0  -4 -13  391.36   20.50
   0  -4  13  356.06   18.00
   0  -4  13  377.96   15.80
   0   4 -13  394.76   19.70
   0   4  13  437.46   19.50
   1  -4  13   54.29    8.90
   1  -4  13   54.99    8.50
   1  -4  13   50.19    8.10
  -1  -4 -13   44.50   10.60
  -1   4 -13   89.09   12.20
   1   4  13   64.99   10.20
   2  -4  13  763.22   25.80
   2  -4  13  712.23   25.40
  -2  -4 -13  772.62   30.30
   2   4  13  710.13   27.30
  -2   4 -13  729.93   28.60
   3  -4  13    6.30    7.60
  -3  -4 -13    2.90   10.40
   3   4  13    8.30    8.60
  -3   4 -13    2.40    9.70
   4  -4  13   21.00    9.60
  -4  -4 -13   17.60   12.40
   4   4  13   18.20   10.30
  -4   4 -13   41.50   13.50
   5   4  13  109.69   15.80
  -6  -5  13    6.00   11.80
  -6  -5  13   13.00   12.20
  -6   5  13   18.00   11.00
  -6   5  13   18.40    9.60
  -5  -5  13    7.10    9.40
  -5  -5  13   20.30   12.00
  -5   5  13   34.30   10.60
  -4  -5  13  817.32   31.30
  -4  -5  13  766.12   32.40
  -4   5  13  848.92   31.00
  -3  -5  13  130.99   14.90
  -3  -5  13  102.99   12.70
   3   5 -13  145.09   13.60
  -3   5  13  143.69   13.90
   2  -5 -13  188.38   15.70
  -2  -5  13  242.68   17.00
  -2  -5  13  193.08   15.70
   2   5 -13  237.18   16.50
  -2   5  13  202.88   15.40
  -1  -5  13   46.60    9.40
   1  -5 -13   38.40   10.30
  -1  -5  13   24.30    8.10
  -1   5  13   38.20    9.00
   1   5 -13   49.50    9.80
   0  -5  13  127.19   13.00
   0  -5  13  153.18   12.80
   0  -5 -13  133.29   14.30
   0   5  13  117.99   12.60
   0   5 -13  132.99   13.90
  -1  -5 -13  547.45   26.30
   1  -5  13  549.74   23.10
   1   5  13  574.94   24.40
  -1   5 -13  590.14   25.60
   2  -5  13  320.77   17.00
  -2  -5 -13  316.67   21.80
   2  -5  13  291.57   17.10
   2   5  13  319.47   19.40
  -2   5 -13  318.27   20.70
   3  -5  13    1.60    7.30
  -3  -5 -13   16.70   11.70
  -3   5 -13   10.70   10.80
   3   5  13   13.50    9.70
   4  -5  13  152.18   15.60
  -4  -5 -13  174.08   19.40
  -4   5 -13  135.79   17.80
   4   5  13  141.89   16.00
  -5  -6  13  223.88   22.10
  -5  -6  13  223.98   20.50
  -5   6  13  245.58   20.50
  -4  -6  13  705.93   30.60
  -4  -6  13  714.33   32.50
   4   6 -13  696.33   27.70
  -4   6  13  744.73   29.70
  -3  -6  13  286.57   20.00
  -3  -6  13  262.67   20.30
  -3   6  13  300.27   19.10
   3   6 -13  255.87   17.30
   2  -6 -13   51.89   10.80
  -2  -6  13   66.79   11.70
  -2  -6  13   66.69   11.70
  -2   6  13   71.09   11.30
   2   6 -13   63.89   11.70
   2   6 -13   79.69   11.50
  -1  -6  13  133.99   14.00
  -1  -6  13  144.79   15.10
   1  -6 -13  157.18   15.90
  -1   6  13  116.59   13.00
   1   6 -13  121.69   14.20
   0  -6  13  212.18   14.80
   0  -6  13  182.78   15.50
   0  -6 -13  229.48   18.80
   0   6  13  203.58   16.60
   0   6 -13  212.68   17.70
  -1  -6 -13  805.72   32.90
   1  -6  13  748.93   29.00
   1   6  13  774.12   28.90
  -1   6 -13  719.43   30.10
  -2  -6 -13  411.66   25.40
   2  -6  13  404.06   20.90
  -2   6 -13  415.76   24.00
   2   6  13  431.96   22.50
  -3  -6 -13  371.46   26.00
   3  -6  13  375.26   20.40
   3   6  13  371.96   22.30
  -3   6 -13  333.57   23.90
   4  -6  13  162.78   16.20
  -4  -6 -13  167.08   20.60
   4   6  13  191.18   18.40
  -5  -7  13  144.99   18.10
  -4  -7  13   48.50   12.90
  -4  -7  13   65.59   14.80
   4   7 -13   60.19   12.60
  -4   7  13   83.99   14.10
  -3  -7  13   96.39   14.90
  -3  -7  13   81.19   14.60
  -3   7  13   86.49   13.40
   3   7 -13   77.59   13.10
  -2  -7  13  586.74   27.10
   2  -7 -13  585.94   26.40
  -2  -7  13  551.84   28.00
   2   7 -13  574.74   26.60
  -2   7  13  626.54   26.30
   2   7 -13  515.25   23.80
   1  -7 -13   43.20   11.70
  -1  -7  13   55.49   11.90
  -1  -7  13   32.30    9.80
  -1   7  13   66.59   11.40
   1   7 -13   51.69   11.90
   1   7 -13   48.00   11.70
   0  -7 -13  327.67   22.60
   0  -7  13  258.97   18.70
   0   7  13  291.97   19.20
   0   7 -13  266.07   19.80
  -1  -7 -13   15.70   11.90
   1  -7  13   32.20    9.50
   1   7  13   36.90   11.00
  -1   7 -13   34.00   11.20
  -2  -7 -13  608.34   31.30
   2  -7  13  574.94   26.70
   2   7  13  634.54   27.70
  -2   7 -13  589.34   29.90
  -3  -7 -13  232.58   24.20
  -3   7 -13  241.98   31.40
   3   7  13  215.88   18.90
   4   8 -13   42.20   12.50
  -3  -8  13  460.55   27.70
  -3  -8  13  453.45   27.30
  -3   8  13  449.86   25.00
   3   8 -13  417.56   24.20
  -2  -8  13    3.20    9.60
  -2  -8  13   12.20   10.10
   2  -8 -13   13.00   10.80
   2   8 -13   -3.60    9.80
  -2   8  13   11.50    9.70
   2   8 -13    2.10    9.30
   1  -8 -13  703.83   31.30
  -1  -8  13  739.63   32.00
   1   8 -13  634.94   30.50
  -1   8  13  684.13   28.80
   1   8 -13  724.83   30.70
   0  -8 -13  223.68   21.30
   0  -8  13  219.68   18.70
   0   8 -13  243.58   20.60
   0   8  13  187.08   17.10
  -1  -8 -13  136.19   17.80
   1  -8  13  149.49   16.50
   1   8  13  137.19   15.70
  -1   8 -13  139.99   17.30
   2   8  13  129.99   16.00
  -2  -9  13   94.39   15.50
   2   9 -13  107.19   16.50
   1  -9 -13  370.96   25.60
   1   9 -13  356.46   26.60
  -1   9  13  382.26   23.80
   0  -9 -13   48.10   15.20
   0   9  13   57.79   12.90
  -6   0  14   -3.40    7.80
  -6   0  14   10.90    9.00
  -5   0  14  167.98   15.90
  -5   0  14  166.88   12.70
  -5   0  14  153.38   15.20
  -4   0  14   63.59    8.50
  -4   0  14   69.79   11.10
  -4   0  14   79.89   11.60
  -3   0  14   52.39    8.00
  -3   0  14   55.09    9.70
  -3   0  14   57.99    9.50
  -2   0  14  877.51   28.90
  -2   0  14  882.61   26.00
  -1   0  14  157.78   11.60
   1   0 -14  161.48   10.50
  -1   0  14  169.48   12.60
   0   0  14 1449.15   38.70
   0   0  14 1454.85   39.80
   0   0 -14 1526.75   37.50
  -1   0 -14  217.58   13.60
   1   0  14  206.18   13.60
   1   0  14  197.18   13.20
  -2   0 -14 1388.46   38.50
   2   0  14 1361.16   39.40
  -3   0 -14   80.49   12.10
   3   0  14   60.19   11.10
  -3   0 -14   76.29   11.00
  -4   0 -14  245.88   20.20
   4   0  14  230.48   18.60
   5   0  14  114.89   15.60
  -5   0 -14  129.49   17.20
  -7  -1  14  117.09   15.50
  -6  -1  14  201.48   17.20
  -6  -1  14  199.58   18.60
  -6  -1  14  175.28   15.10
  -6   1  14  212.58   17.00
  -6   1  14  189.08   16.90
  -5  -1  14  310.37   20.40
  -5  -1  14  363.66   18.20
  -5  -1  14  345.47   20.30
  -5   1  14  326.67   17.30
  -5   1  14  378.66   20.30
  -5   1  14  324.77   19.00
  -4  -1  14  220.98   17.10
  -4  -1  14  222.68   16.80
  -4   1  14  228.28   14.20
  -4   1  14  216.78   16.10
  -4   1  14  221.58   15.90
  -3  -1  14  432.66   20.60
  -3  -1  14  404.26   19.50
  -3  -1  14  423.36   16.20
  -3   1  14  467.55   19.10
  -3   1  14  496.55   21.50
  -2  -1  14  511.75   18.00
  -2  -1  14  512.45   21.70
  -2  -1  14  509.05   21.00
  -2   1  14  472.05   18.90
   2   1 -14  504.15   18.70
  -2   1  14  518.75   21.40
  -1  -1  14  976.50   30.70
  -1  -1  14  996.00   27.90
  -1   1  14 1007.20   29.70
   1   1 -14 1029.30   28.80
  -1   1  14 1014.80   31.50
   0  -1  14  494.55   20.00
   0  -1  14  495.65   18.80
   0   1 -14  437.46   17.90
   0   1  14  441.76   18.70
   0   1  14  448.16   19.10
   1  -1  14 1972.40   49.10
  -1  -1 -14 1886.31   50.89
   1  -1  14 1961.60   49.10
  -1  -1 -14 2005.80   49.40
   1   1  14 1953.00   49.10
   1   1  14 1971.20   50.09
  -1   1 -14 1958.70   49.00
   2  -1  14  130.49   12.80
  -2  -1 -14  137.49   13.70
  -2  -1 -14  136.59   12.10
  -2   1 -14  151.18   13.90
   2   1  14  149.99   13.80
  -3  -1 -14  269.87   18.10
  -3  -1 -14  262.67   17.10
   3  -1  14  223.78   16.60
  -3   1 -14  279.97   19.20
   3   1  14  300.07   18.80
   4  -1  14   49.90   10.90
  -4  -1 -14   52.79   12.10
  -4   1 -14   44.60   12.80
   4   1  14   52.59   11.80
   5  -1  14  312.67   22.10
  -5  -1 -14  281.47   22.60
  -5   1 -14  294.97   24.20
   5   1  14  334.37   23.20
  -7  -2  14   26.70   13.40
  -7  -2  14   26.40   11.50
  -6  -2  14  436.46   25.50
  -6  -2  14  459.45   24.00
  -6  -2  14  469.45   23.20
  -6   2  14  451.05   23.30
  -6   2  14  497.35   23.60
  -5  -2  14   12.50    8.90
  -5  -2  14   21.90   10.60
  -5   2  14   11.90    9.10
  -5   2  14   -0.70    6.70
  -5   2  14   28.40    9.10
  -4  -2  14   12.40    8.90
  -4  -2  14   24.80    8.70
  -4   2  14    9.40    8.30
  -4   2  14   18.00    7.70
  -3  -2  14 1016.50   33.30
  -3  -2  14 1050.39   34.00
  -3   2  14 1070.69   31.80
  -3   2  14 1045.90   34.00
  -2  -2  14   56.09    9.50
  -2  -2  14   57.19    9.50
  -2  -2  14   62.29    7.40
   2   2 -14   68.19    9.10
  -2   2  14   47.00    9.10
  -2   2  14   55.09    8.60
  -1  -2  14 2514.15   61.29
  -1  -2  14 2483.45   61.09
  -1  -2  14 2473.95   56.89
  -1   2  14 2545.25   60.69
   1   2 -14 2574.34   60.09
  -1   2  14 2502.85   62.29
   0  -2  14  342.17   16.90
   0  -2 -14  365.76   19.30
   0  -2  14  355.96   15.40
   0   2 -14  340.77   17.20
   0   2  14  380.86   17.70
   0   2  14  350.06   17.40
   1  -2  14  296.17   15.70
   1  -2  14  315.47   15.60
  -1  -2 -14  301.07   18.30
   1   2  14  308.87   17.20
  -1   2 -14  328.77   17.50
   1   2  14  304.97   16.00
  -2  -2 -14   92.99   12.90
   2  -2  14   82.99   10.50
  -2   2 -14   68.39   11.80
   2   2  14  102.49   12.00
  -3  -2 -14  207.98   17.60
   3  -2  14  199.88   15.70
   3   2  14  219.98   17.30
  -3   2 -14  227.68   18.90
   4  -2  14   13.80    8.60
   4   2  14   25.80   10.30
  -4   2 -14   25.00   12.40
   5  -2  14   52.49   15.90
   5   2  14   41.80   13.10
  -5   2 -14   55.79   15.40
  -6  -3  14   83.89   13.60
  -6  -3  14   67.49   13.60
  -6  -3  14   88.99   15.20
  -6   3  14   92.79   13.50
  -6   3  14   92.79   13.70
  -5  -3  14   42.50   11.10
  -5  -3  14   33.10   11.50
  -5   3  14   37.90   10.20
  -5   3  14   39.10    9.40
  -5   3  14   30.20   10.50
  -4  -3  14    7.10    7.90
  -4  -3  14    2.20    8.40
  -4   3  14   -0.40    7.30
  -4   3  14   -9.90    6.50
  -3  -3  14  456.75   21.90
  -3  -3  14  493.05   23.20
  -3   3  14  436.46   20.30
  -3   3  14  488.65   22.40
  -2  -3  14  605.04   24.70
  -2  -3  14  621.14   24.40
   2   3 -14  607.14   22.80
  -2   3  14  564.74   22.60
  -1  -3  14  475.95   20.80
  -1  -3  14  454.75   20.50
   1  -3 -14  483.75   22.10
   1   3 -14  414.66   18.90
  -1   3  14  418.46   19.10
   0  -3  14 2186.38   54.99
   0  -3 -14 2166.68   56.69
   0  -3  14 2199.48   55.39
   0  -3  14 2182.38   51.79
   0   3 -14 2177.78   54.39
   0   3  14 2121.29   53.89
   1  -3  14  193.88   12.80
   1  -3  14  175.68   13.50
   1  -3  14  191.18   13.20
  -1  -3 -14  155.88   15.00
   1   3  14  185.58   14.90
  -1   3 -14  177.88   15.60
   1   3  14  180.98   13.90
  -2  -3 -14   36.60   10.70
   2  -3  14   19.90    7.90
   2   3  14   19.50    8.90
  -2   3 -14   20.20   10.10
  -3  -3 -14  228.48   19.00
   3  -3  14  232.88   16.60
   3   3  14  190.48   16.70
  -3   3 -14  210.18   18.50
  -4  -3 -14   98.49   15.10
   4  -3  14   78.99   12.30
  -4   3 -14  138.29   17.60
   4   3  14   88.69   14.10
  -6  -4  14   63.89   14.30
  -6  -4  14   91.99   15.30
  -6  -4  14   86.09   15.60
  -6   4  14   82.99   13.90
  -6   4  14   82.09   13.60
  -5  -4  14   60.29   13.80
  -5  -4  14   60.59   12.40
  -5   4  14   68.29   12.20
  -5   4  14   54.49   11.50
  -4  -4  14  328.17   20.60
  -4  -4  14  315.07   21.70
  -4   4  14  326.07   19.20
  -3  -4  14  134.89   14.70
  -3  -4  14  105.09   13.40
  -3   4  14  123.29   13.30
  -2  -4  14  340.37   19.30
  -2  -4  14  350.26   19.40
  -2   4  14  376.56   18.90
   2   4 -14  351.76   18.60
   1  -4 -14  121.79   13.90
  -1  -4  14  133.59   13.10
  -1  -4  14  134.79   13.70
  -1   4  14  123.69   12.50
   1   4 -14  120.09   13.00
   0  -4 -14 2260.87   58.99
   0  -4  14 2199.48   56.89
   0  -4  14 2210.38   56.09
   0   4  14 2229.08   56.99
   0   4 -14 2274.67   57.59
   1  -4  14  622.44   24.20
   1  -4  14  624.44   23.90
  -1  -4 -14  666.53   27.60
   1  -4  14  608.54   22.00
  -1   4 -14  623.84   25.50
   1   4  14  634.74   25.50
   2  -4  14  578.34   23.00
  -2  -4 -14  604.44   27.80
  -2   4 -14  576.34   26.00
   2   4  14  596.04   25.40
   3  -4  14   71.69   11.30
  -3  -4 -14   68.69   13.70
  -3   4 -14   59.59   13.40
   3   4  14   74.89   12.60
   4  -4  14  135.89   15.30
  -4  -4 -14  144.29   18.10
  -4   4 -14  141.59   18.20
   4   4  14  150.08   16.50
  -6   5  14    4.80    9.00
  -5  -5  14   53.69   14.30
  -5  -5  14   39.10   12.10
  -5   5  14   76.79   13.10
  -4  -5  14  179.18   17.10
  -4  -5  14  147.49   17.70
  -4   5  14  148.79   15.50
  -3  -5  14  312.47   19.80
  -3  -5  14  298.07   20.30
  -3   5  14  354.16   20.00
  -2  -5  14  162.08   15.30
  -2  -5  14  188.08   16.30
   2  -5 -14  176.18   16.40
   2   5 -14  213.18   16.80
  -2   5  14  194.28   15.80
  -1  -5  14  178.88   15.00
   1  -5 -14  201.18   17.10
  -1  -5  14  186.08   15.40
   1   5 -14  177.58   15.90
  -1   5  14  191.68   15.70
   0  -5  14  105.99   11.50
   0  -5 -14  124.59   14.40
   0  -5  14  102.09   12.50
   0   5 -14  122.89   13.90
   0   5  14   98.09   12.30
  -1  -5 -14   52.19   12.40
   1  -5  14   68.19   10.60
  -1   5 -14   82.69   13.30
   1   5  14   86.49   12.30
  -2  -5 -14  353.86   24.00
   2  -5  14  373.36   18.60
  -2   5 -14  344.87   22.60
   2   5  14  339.77   20.80
   3  -5  14   71.79   11.60
  -3  -5 -14   90.09   15.90
  -3   5 -14   59.79   13.90
   3   5  14   54.99   11.90
  -4  -5 -14  206.68   21.70
   4  -5  14  229.28   19.00
   4   5  14  198.98   18.90
  -4   5 -14  219.78   27.20
  -5  -6  14  168.28   18.50
  -5  -6  14  181.78   21.00
  -5   6  14  225.88   20.50
  -4  -6  14  365.66   24.10
  -4  -6  14  385.46   25.60
  -4   6  14  362.06   22.30
  -3  -6  14  255.37   20.20
  -3  -6  14  295.47   21.50
  -3   6  14  253.57   19.00
   2  -6 -14  228.58   18.30
  -2  -6  14  221.68   18.30
  -2  -6  14  201.58   18.20
   2   6 -14  218.58   17.70
  -2   6  14  243.68   18.10
   1  -6 -14  111.69   14.50
  -1  -6  14  107.99   14.10
  -1  -6  14  122.69   13.60
   1   6 -14  111.39   13.90
  -1   6  14  111.99   13.70
   0  -6  14  187.88   16.10
   0  -6 -14  206.78   18.70
   0   6  14  215.38   17.20
   0   6 -14  226.08   18.40
   1  -6  14  492.35   23.90
  -1  -6 -14  485.35   27.10
  -1   6 -14  485.35   25.70
   1   6  14  485.05   24.00
  -2  -6 -14  151.18   18.60
  -2   6 -14  166.08   18.10
   2   6  14  136.69   15.80
  -3  -6 -14   91.09   16.90
  -3   6 -14  102.79   16.80
   3   6  14   83.19   13.60
  -4  -7  14  320.07   25.40
  -4  -7  14  340.67   24.30
  -4   7  14  372.16   23.50
  -3  -7  14  227.88   20.30
  -3  -7  14  181.08   19.60
  -3   7  14  214.68   18.60
   2  -7 -14  148.19   16.10
  -2  -7  14  165.88   17.90
  -2  -7  14  116.29   15.00
  -2   7  14  135.09   14.90
   2   7 -14  139.19   16.30
   1  -7 -14  107.99   15.10
  -1  -7  14  108.49   14.60
  -1  -7  14   90.99   13.20
   1   7 -14   88.29   13.80
  -1   7  14  109.69   14.50
   0  -7 -14  324.57   23.50
   0  -7  14  328.57   20.90
   0   7  14  332.27   20.80
   0   7 -14  304.37   21.10
  -1  -7 -14  347.67   25.40
   1  -7  14  336.37   21.30
   1   7  14  348.27   22.20
  -1   7 -14  357.96   23.70
  -2  -7 -14  213.98   21.80
  -2   7 -14  186.18   20.10
   2   7  14  182.48   17.90
   3   7  14   56.59   13.70
  -3  -8  14   21.10   12.30
  -2  -8  14  421.76   25.60
   2  -8 -14  435.56   25.40
  -2  -8  14  451.15   27.20
   2   8 -14  437.36   25.50
  -2   8  14  472.05   25.40
  -1  -8  14  126.39   16.60
   1  -8 -14  131.59   17.10
  -1   8  14  134.89   16.10
   1   8 -14  163.98   18.00
   0  -8 -14   12.60   11.90
   0  -8  14    4.90    8.60
   0   8  14   14.00   10.40
   0   8 -14    9.30   11.00
  -1  -8 -14   97.69   18.00
   1  -8  14   73.09   13.10
  -1   8 -14   96.49   23.40
   1   8  14  102.29   15.70
   2   8  14  103.39   15.90
  -6   0  15   88.89   13.60
  -6   0  15  101.09   14.60
  -5   0  15   27.30    9.70
  -5   0  15   18.10   10.10
  -4   0  15    8.60    7.70
  -4   0  15   -7.90    5.80
  -4   0  15    1.00    7.10
  -3   0  15    7.40    7.90
  -3   0  15   -2.70    6.50
  -3   0  15    2.60    5.90
  -2   0  15 3307.57   74.69
  -2   0  15 3321.57   78.59
  -1   0  15  330.87   17.40
   1   0 -15  310.17   14.50
  -1   0  15  340.47   16.10
   0   0 -15   89.49    9.70
   0   0  15  111.29   11.40
   0   0  15   88.19   10.50
  -1   0 -15  962.40   29.20
   1   0  15 1000.10   30.40
   1   0  15  959.00   30.60
   2   0  15 2849.31   70.09
  -2   0 -15 2911.81   68.69
   3   0  15   -1.20    7.70
  -3   0 -15    7.20    9.80
   4   0  15  139.09   16.10
  -4   0 -15  141.79   16.20
  -5   0 -15   94.69   16.70
  -7  -1  15    1.00   13.60
  -6  -1  15  580.54   25.00
  -6  -1  15  565.64   26.90
  -6  -1  15  585.34   28.70
  -6   1  15  581.24   26.50
  -6   1  15  542.85   26.30
  -5  -1  15   44.10   11.60
  -5  -1  15   59.39   12.00
  -5  -1  15   47.90    8.80
  -5   1  15   58.49   11.80
  -5   1  15   63.79   10.10
  -5   1  15   34.70    9.90
  -4  -1  15   41.30    9.70
  -4  -1  15   27.40    9.80
  -4   1  15   35.10    9.70
  -4   1  15   47.80   10.30
  -4   1  15   33.80    8.70
  -3  -1  15  209.08   15.80
  -3  -1  15  208.38   16.60
  -3  -1  15  202.88   13.80
  -3   1  15  222.58   16.20
  -3   1  15  203.18   14.00
  -2  -1  15  573.44   23.70
  -2  -1  15  600.94   20.40
  -2   1  15  528.65   22.90
  -2   1  15  561.24   21.20
   2   1 -15  551.64   20.30
  -1  -1  15  560.44   22.70
  -1  -1  15  591.04   20.50
  -1   1  15  520.85   22.00
   1   1 -15  539.95   19.90
  -1   1  15  546.75   21.00
   0  -1  15  499.75   21.00
   0  -1  15  506.75   19.80
   0   1  15  512.25   21.10
   0   1 -15  528.65   20.40
   0   1  15  511.35   21.30
   1  -1  15  312.67   16.60
   1  -1  15  338.37   17.10
  -1   1 -15  296.67   16.90
   1   1  15  299.67   17.40
   1   1  15  327.87   16.60
   2  -1  15  661.73   25.70
  -2  -1 -15  662.13   27.00
   2   1  15  700.03   26.70
  -2   1 -15  691.43   26.70
  -3  -1 -15  113.59   13.50
   3  -1  15  105.89   13.00
   3   1  15  109.29   13.40
  -3   1 -15  106.39   14.30
   4  -1  15   95.89   14.20
   4   1  15  119.99   15.50
  -4   1 -15  131.69   16.70
  -5   1 -15   36.60   14.50
  -6  -2  15   88.19   12.60
  -6  -2  15   85.49   14.00
  -6  -2  15   61.39   13.90
  -6   2  15  114.79   14.30
  -6   2  15   64.29   12.40
  -5  -2  15   72.09   12.40
  -5  -2  15   61.89   13.00
  -5   2  15   47.20   10.10
  -5   2  15   72.49   12.60
  -5   2  15   58.19   10.80
  -4  -2  15  581.04   26.60
  -4  -2  15  579.04   25.60
  -4   2  15  604.94   24.20
  -4   2  15  614.14   26.70
  -3  -2  15  194.18   15.70
  -3  -2  15  222.48   17.10
  -3   2  15  202.98   14.90
  -3   2  15  223.68   16.40
  -2  -2  15  163.98   14.70
  -2  -2  15  137.49   13.20
   2   2 -15  144.39   12.60
  -2   2  15  128.89   12.40
  -2   2  15  161.68   14.40
  -1  -2  15  601.24   23.80
  -1  -2  15  587.84   20.60
  -1  -2  15  652.63   24.90
  -1   2  15  612.14   23.50
  -1   2  15  666.23   25.30
   1   2 -15  646.64   23.40
   0  -2  15 2168.58   55.79
   0  -2  15 2220.08   53.29
   0  -2 -15 2244.18   57.59
   0   2  15 2303.67   57.79
   0   2  15 2195.68   56.39
   0   2 -15 2307.17   56.19
  -1  -2 -15    1.50    8.70
   1  -2  15   10.90    6.50
   1  -2  15    8.70    6.90
  -1   2 -15    2.40    8.00
   1   2  15   24.90    8.90
   1   2  15    7.70    6.40
  -2  -2 -15   14.60    9.30
   2  -2  15   25.90    8.60
  -2   2 -15   19.10   10.30
   2   2  15   31.50    9.50
  -3  -2 -15  226.98   19.30
   3  -2  15  220.38   17.20
  -3   2 -15  218.58   19.40
   3   2  15  227.78   18.10
   4  -2  15   79.79   13.50
   4   2  15   57.59   12.40
  -4   2 -15   51.69   14.10
  -6  -3  15   71.29   13.70
  -6  -3  15   83.19   14.00
  -6  -3  15   85.49   16.10
  -6   3  15   90.19   14.40
  -6   3  15  109.39   14.60
  -5  -3  15   31.80   12.10
  -5  -3  15   30.30   10.40
  -5   3  15   47.70   11.80
  -5   3  15   31.70    9.00
  -5   3  15   13.30    8.90
  -4  -3  15  146.29   16.20
  -4  -3  15  167.18   16.40
  -4   3  15  138.99   13.80
  -4   3  15  124.79   14.80
  -3  -3  15  520.85   24.40
  -3  -3  15  487.85   23.40
  -3   3  15  488.95   21.80
  -3   3  15  510.15   23.50
  -2  -3  15   97.39   12.50
  -2  -3  15   93.89   12.20
  -2   3  15   94.19   12.40
  -2   3  15   92.69   11.40
   2   3 -15  105.39   11.80
  -1  -3  15 1529.55   43.20
  -1  -3  15 1464.05   42.60
  -1   3  15 1562.14   42.60
   1   3 -15 1515.45   42.00
  -1   3  15 1502.25   44.00
   0  -3  15  303.57   14.80
   0  -3  15  308.17   17.80
   0  -3  15  280.27   17.20
   0  -3 -15  307.97   19.80
   0   3  15  334.17   18.80
   0   3 -15  337.87   18.80
   0   3  15  370.86   19.00
   1  -3  15  218.38   14.90
  -1  -3 -15  263.77   19.40
   1  -3  15  268.17   16.00
   1  -3  15  233.28   14.60
  -1   3 -15  260.57   17.90
   1   3  15  271.67   17.50
   1   3  15  257.37   16.30
  -2  -3 -15  148.99   15.80
   2  -3  15  165.68   14.10
  -2   3 -15  141.89   15.40
   2   3  15  129.59   14.50
   3  -3  15  221.08   17.20
  -3  -3 -15  253.67   20.70
   3   3  15  250.87   19.40
  -3   3 -15  245.88   20.60
  -4  -3 -15    8.00   12.20
   4  -3  15   -6.10    8.40
   4   3  15   -2.60   10.20
  -4   3 -15   -9.50   11.40
  -6  -4  15   19.70   12.00
  -6  -4  15   20.30   13.60
  -6  -4  15   20.30   11.40
  -6   4  15   -7.90    9.40
  -6   4  15   12.40   10.70
  -5  -4  15   58.49   13.80
  -5  -4  15   37.20   11.50
  -5   4  15   31.90   11.10
  -5   4  15   34.50   11.00
  -4  -4  15  209.28   19.60
  -4  -4  15  202.48   18.50
  -4   4  15  196.98   18.80
  -4   4  15  221.48   17.60
  -3  -4  15  252.77   18.40
  -3  -4  15  240.98   18.70
  -3   4  15  261.47   17.90
  -2  -4  15  740.33   29.10
  -2  -4  15  785.72   29.60
  -2   4  15  726.53   27.20
   2   4 -15  737.93   27.60
  -1  -4  15   25.70    8.40
  -1  -4  15   14.80    8.00
   1  -4 -15   38.40   10.60
  -1   4  15   16.40    8.30
   1   4 -15   29.30    9.60
   0  -4 -15 1086.19   36.90
   0  -4  15 1112.69   34.50
   0  -4  15 1068.69   34.90
   0   4  15 1164.18   36.10
   0   4 -15 1133.39   36.30
   1  -4  15  144.19   12.30
  -1  -4 -15  163.58   16.90
   1  -4  15  160.88   14.50
   1   4  15  137.89   14.30
  -1   4 -15  147.89   15.30
   2  -4  15  112.69   12.60
  -2  -4 -15  132.59   15.70
  -2   4 -15  145.49   16.60
   2   4  15  160.58   15.80
  -3  -4 -15   14.80   11.80
   3  -4  15   25.30    9.00
   3   4  15   28.30   11.30
  -3   4 -15   12.50   12.10
   4  -4  15  150.38   16.50
  -4  -4 -15  174.08   20.00
  -4   4 -15  140.99   19.60
   4   4  15  148.29   17.20
  -5  -5  15  105.39   15.90
  -5  -5  15  143.99   19.00
  -5   5  15  157.18   16.90
  -5   5  15  127.49   16.40
  -4  -5  15  106.69   14.80
  -4  -5  15  118.49   16.60
  -4   5  15   94.19   13.80
  -3  -5  15  594.34   28.00
  -3  -5  15  605.04   27.60
  -3   5  15  589.74   25.80
  -2  -5  15  107.89   13.80
   2  -5 -15   82.19   13.00
  -2  -5  15   93.39   13.20
  -2   5  15  121.29   13.90
   2   5 -15   99.59   13.20
  -1  -5  15  119.09   13.50
   1  -5 -15  157.68   15.90
  -1  -5  15  113.99   13.50
   1   5 -15  147.49   14.90
  -1   5  15  140.99   14.00
   0  -5  15   84.39   11.30
   0  -5  15  116.59   13.70
   0  -5 -15   88.79   14.50
   0   5 -15   82.09   13.00
   0   5  15   92.19   12.80
   1  -5  15 1217.48   39.20
  -1  -5 -15 1305.37   42.80
   1   5  15 1389.06   41.90
  -1   5 -15 1297.57   42.10
   2  -5  15  306.67   19.90
  -2  -5 -15  369.66   24.50
  -2   5 -15  357.56   23.50
   2   5  15  366.36   22.40
   3  -5  15  152.18   15.40
  -3  -5 -15  169.68   19.60
  -3   5 -15  135.49   17.90
   3   5  15  133.29   16.10
   4  -5  15   44.10   12.10
  -4  -5 -15   72.59   22.90
  -5  -6  15   48.10   13.80
  -4  -6  15  159.48   18.20
  -4  -6  15  183.88   20.10
  -4   6  15  192.58   18.10
  -3  -6  15   93.69   15.00
  -3  -6  15  111.99   15.60
  -3   6  15   87.19   13.40
   2  -6 -15   51.19   12.60
  -2  -6  15   50.09   11.60
  -2  -6  15   65.59   12.30
  -2   6  15   55.29   12.10
   2   6 -15   73.09   12.60
   1  -6 -15  175.58   17.90
  -1  -6  15  149.19   15.60
  -1  -6  15  139.79   15.90
  -1   6  15  157.18   15.40
   1   6 -15  163.48   16.70
   0  -6  15   25.60    9.50
   0  -6 -15   22.30   11.50
   0   6  15   30.50   10.60
   0   6 -15    9.90    9.80
  -1  -6 -15   -1.60   11.50
   1  -6  15    4.60    8.60
  -1   6 -15    2.50   10.40
   1   6  15    6.40   10.30
  -2  -6 -15  187.18   20.80
   2   6  15  205.98   18.50
  -2   6 -15  169.68   18.80
  -3  -6 -15   80.09   23.50
   3   6  15   66.19   13.50
  -4  -7  15   61.09   20.60
  -3  -7  15   -1.20   10.70
  -3  -7  15   -8.60   10.00
  -3   7  15    4.60   10.00
  -2  -7  15  105.99   15.60
   2  -7 -15   92.59   14.70
  -2  -7  15  109.09   15.50
  -2   7  15  129.19   15.70
   2   7 -15  115.19   15.80
   1  -7 -15   37.00   13.00
  -1  -7  15   55.39   11.90
  -1  -7  15   60.69   13.00
   1   7 -15   50.59   12.70
  -1   7  15   60.49   12.20
   0  -7  15    3.80    8.90
   0  -7 -15   10.20   11.40
   0   7  15   -4.70    9.30
   0   7 -15   14.50   10.00
   1  -7  15    3.60    9.10
  -1  -7 -15   28.80   13.50
   1   7  15   24.60   11.60
  -1   7 -15   -3.70   10.50
   2   7  15  265.77   22.20
  -2  -8  15  241.58   21.70
   2  -8 -15  198.08   20.00
  -1  -8  15   75.09   14.70
   1  -8 -15   76.39   16.00
  -1   8  15   73.39   13.80
   0  -8  15   34.40   11.40
   0  -8 -15   25.80   14.50
   0   8  15   21.50   11.40
   1  -8  15   88.29   14.30
   1   8  15   78.79   15.10
  -6   0  16  263.37   21.30
  -6   0  16  283.97   21.50
  -5   0  16   -6.60    8.10
  -5   0  16    4.80    8.90
  -4   0  16   64.69   12.10
  -4   0  16   45.80   11.40
  -3   0  16   25.10    7.70
  -3   0  16   17.50    8.80
  -3   0  16    5.80    8.20
  -2   0  16  621.24   25.40
  -2   0  16  628.44   22.90
  -1   0  16  151.88   12.90
  -1   0  16  165.18   14.90
   0   0  16   -0.90    6.80
   0   0  16    3.90    7.20
   1   0  16 1250.17   37.40
   1   0  16 1270.27   36.90
   2   0  16   97.79   12.80
  -2   0 -16  100.09   13.10
  -3   0 -16  272.97   20.30
   3   0  16  288.67   19.70
   4   0  16    7.00   10.20
  -4   0 -16   -0.20   11.40
  -6  -1  16  100.29   16.00
  -6  -1  16   92.99   14.70
  -6   1  16   80.39   13.40
  -6   1  16  100.19   14.80
  -5  -1  16  102.99   14.20
  -5  -1  16  117.19   17.10
  -5  -1  16  106.49   15.00
  -5   1  16  116.29   15.00
  -5   1  16   96.69   13.60
  -4  -1  16  210.98   18.60
  -4  -1  16  250.17   18.40
  -4   1  16  214.48   17.60
  -4   1  16  188.48   15.00
  -4   1  16  196.78   17.60
  -3  -1  16   -5.00    7.80
  -3  -1  16   -6.00    6.50
  -3   1  16    5.20    7.20
  -3   1  16  -12.50    6.10
  -2  -1  16 1339.87   40.50
  -2  -1  16 1354.76   36.20
   2   1 -16 1347.47   36.80
  -2   1  16 1363.06   38.30
  -2   1  16 1364.16   41.00
  -1  -1  16  774.72   28.50
  -1  -1  16  792.02   25.60
  -1   1  16  771.02   28.30
  -1   1  16  788.72   26.60
   1   1 -16  730.43   25.00
   0  -1  16  623.84   24.80
   0  -1  16  701.73   24.10
   0   1 -16  674.03   23.80
   0   1  16  694.33   25.60
   0   1  16  654.43   24.80
   1  -1  16   23.30    8.70
   1  -1  16   33.50    8.60
  -1   1 -16   26.40    9.10
   1   1  16   24.90    9.20
   1   1  16   30.10    8.50
   2  -1  16  502.55   22.90
  -2  -1 -16  490.15   23.90
   2   1  16  522.15   23.80
  -2   1 -16  497.75   23.90
   3  -1  16   15.30    9.50
  -3  -1 -16   22.30   10.70
   3   1  16    5.50    9.20
  -3   1 -16    2.20   10.40
   4  -1  16   73.59   13.70
   4   1  16   79.99   14.00
  -4   1 -16   56.79   14.30
  -6  -2  16   -1.80    7.50
  -6  -2  16   -3.10   10.30
  -6  -2  16   -7.90   10.80
  -6   2  16   17.20   10.90
  -5  -2  16   66.19   13.30
  -5  -2  16   80.99   13.40
  -5   2  16   81.99   13.60
  -5   2  16   91.19   12.50
  -5   2  16   89.89   12.50
  -4  -2  16  203.68   18.50
  -4  -2  16  176.88   17.00
  -4   2  16  202.28   18.50
  -4   2  16  203.48   16.40
  -3  -2  16  366.76   20.90
  -3  -2  16  390.16   21.90
  -3   2  16  469.85   21.30
  -3   2  16  423.76   22.70
  -2  -2  16   40.60   10.30
  -2  -2  16   31.00    9.30
  -2   2  16   26.20    8.90
  -2   2  16   27.90    8.80
   2   2 -16   52.59    9.20
  -1  -2  16 3021.20   68.79
  -1  -2  16 3017.60   73.49
  -1  -2  16 3008.70   73.49
   1   2 -16 3069.29   71.79
  -1   2  16 3062.79   74.89
  -1   2  16 3079.89   72.99
   0  -2  16  115.89   12.30
   0  -2  16  119.09   11.20
   0   2 -16  113.09   12.40
   0   2  16  104.89   12.50
   0   2  16   97.89   12.20
   1  -2  16  717.93   25.80
  -1  -2 -16  729.73   29.10
   1  -2  16  684.93   25.80
   1   2  16  658.03   25.80
  -1   2 -16  697.23   26.40
   1   2  16  721.53   27.40
  -2  -2 -16   98.59   13.70
   2  -2  16   91.09   11.80
   2   2  16   79.79   12.50
  -2   2 -16   95.69   13.60
  -3  -2 -16  422.06   24.10
   3  -2  16  394.26   21.90
  -3   2 -16  416.76   24.20
   3   2  16  409.36   22.90
   4  -2  16   26.20   10.80
  -4   2 -16   41.60   14.30
   4   2  16   18.50   11.60
  -6  -3  16   35.20   13.30
  -6  -3  16   -1.30   10.20
  -6  -3  16    2.10   11.10
  -6   3  16    6.20   10.10
  -6   3  16   -7.60    9.90
  -5  -3  16   75.79   14.40
  -5  -3  16   80.89   13.60
  -5   3  16   73.59   14.10
  -5   3  16   63.79   11.30
  -5   3  16   72.49   12.10
  -4  -3  16  519.05   25.70
  -4  -3  16  480.75   25.90
  -4   3  16  530.75   26.60
  -4   3  16  562.74   24.70
  -3  -3  16  378.26   22.30
  -3  -3  16  382.56   21.70
  -3   3  16  385.76   20.50
  -3   3  16  419.06   22.60
  -2  -3  16  172.78   16.10
  -2  -3  16  191.48   15.90
  -2   3  16  213.88   17.20
   2   3 -16  171.08   14.80
  -2   3  16  186.88   15.80
  -1  -3  16  462.05   22.20
  -1  -3  16  487.55   22.70
  -1   3  16  460.95   21.90
  -1   3  16  474.45   23.10
   1   3 -16  515.55   22.30
   0  -3  16  633.84   25.60
   0  -3  16  590.54   22.10
   0  -3  16  674.73   26.10
   0  -3 -16  582.74   27.40
   0   3  16  695.83   26.50
   0   3  16  625.04   26.20
   0   3 -16  626.44   25.40
   1  -3  16  381.26   18.30
   1  -3  16  334.87   18.40
   1  -3  16  373.26   19.40
  -1  -3 -16  345.57   22.10
  -1   3 -16  348.87   20.60
   1   3  16  392.76   20.20
   1   3  16  361.66   20.40
   2  -3  16   34.10    9.30
  -2  -3 -16   33.20   11.50
  -2   3 -16   39.60   11.90
   2   3  16   32.30   11.30
   3  -3  16   54.19   11.10
  -3  -3 -16   42.10   13.40
  -3   3 -16   26.70   12.70
   3   3  16   24.70   11.20
   4  -3  16   73.49   13.30
  -4  -3 -16  102.79   17.00
   4   3  16  102.79   17.80
  -4   3 -16   98.79   17.40
  -6  -4  16   32.20   12.90
  -6   4  16   14.10   16.00
  -6   4  16  -10.70   10.30
  -5  -4  16  145.09   18.40
  -5  -4  16  155.88   17.50
  -5   4  16  147.99   17.80
  -5   4  16  175.68   17.60
  -4  -4  16  143.29   16.40
  -4  -4  16  133.59   16.60
  -4   4  16  218.28   18.10
  -4   4  16  157.18   17.30
  -3  -4  16  282.77   20.40
  -3  -4  16  304.07   21.20
  -3   4  16  283.17   20.70
  -3   4  16  264.97   18.70
  -2  -4  16   70.59   12.10
  -2  -4  16   43.00   10.60
   2   4 -16   22.80    9.20
  -2   4  16   40.90   10.20
   1  -4 -16  174.78   17.20
  -1  -4  16  211.68   16.70
  -1  -4  16  228.28   17.00
  -1   4  16  203.18   16.70
   1   4 -16  199.08   16.80
   0  -4  16  112.69   13.50
   0  -4  16   98.59   12.10
   0  -4 -16  130.89   15.80
   0   4 -16  106.19   13.60
   0   4  16   92.49   12.50
  -1  -4 -16  135.49   16.40
   1  -4  16  106.09   12.80
   1  -4  16  104.79   12.70
   1   4  16  111.29   13.90
   1   4  16  101.39   12.80
  -1   4 -16   90.09   14.00
   2  -4  16   90.99   11.90
  -2  -4 -16  110.29   16.20
   2   4  16  104.49   14.50
  -2   4 -16   91.39   14.50
  -3  -4 -16  180.38   19.30
   3  -4  16  148.69   15.30
   3   4  16  146.19   16.80
  -3   4 -16  151.18   18.50
  -4  -4 -16   45.90   15.30
  -5  -5  16  187.58   19.80
  -5   5  16  191.08   19.80
  -5   5  16  206.18   19.10
  -4  -5  16  464.25   28.10
  -4  -5  16  460.55   26.40
  -4   5  16  433.16   24.20
  -3  -5  16  103.59   15.40
  -3  -5  16   96.49   14.30
  -3   5  16  105.39   14.00
  -2  -5  16  235.28   19.20
  -2  -5  16  258.47   19.30
   2   5 -16  229.48   18.40
  -2   5  16  257.57   18.70
  -1  -5  16  237.98   18.00
  -1  -5  16  250.67   18.70
   1  -5 -16  241.08   20.50
   1   5 -16  257.97   19.40
  -1   5  16  258.27   18.90
   0  -5  16  228.98   18.00
   0  -5  16  230.38   16.90
   0  -5 -16  208.98   19.60
   0   5  16  214.28   18.10
   0   5 -16  197.78   17.80
  -1  -5 -16   68.49   14.40
   1  -5  16   30.00   10.00
  -1   5 -16   55.09   13.00
   1   5  16   45.20   12.20
  -2  -5 -16  474.95   28.20
  -2   5 -16  527.75   27.60
   2   5  16  521.95   26.50
   3  -5  16   48.60   11.10
  -3  -5 -16   41.20   14.70
  -3   5 -16   43.20   14.30
   3   5  16   20.30   11.80
  -4  -6  16   60.29   13.70
  -4  -6  16   64.29   15.70
  -4   6  16   64.99   13.30
  -3  -6  16   79.69   14.00
  -3  -6  16   84.79   15.00
  -3   6  16   78.69   13.70
  -2  -6  16   -2.80    8.50
  -2  -6  16   -9.80    8.30
   2  -6 -16    1.40   10.30
  -2   6  16   10.40    9.30
   2   6 -16  -12.50    8.40
  -1  -6  16   57.19   11.70
  -1  -6  16   69.39   13.20
   1  -6 -16   91.39   15.10
  -1   6  16   63.89   12.20
   1   6 -16   73.19   13.60
   0  -6  16  113.39   14.50
   0  -6 -16  169.48   18.90
   0   6 -16  159.28   17.10
   0   6  16  140.59   16.20
   1  -6  16  763.02   31.40
  -1  -6 -16  750.32   34.40
  -1   6 -16  776.02   32.60
   1   6  16  716.23   30.80
  -2  -6 -16    6.10   13.00
  -2   6 -16   -5.00   11.80
   2   6  16    5.50   11.60
  -3  -7  16   35.40   15.70
  -3  -7  16    9.70   11.50
  -2  -7  16   71.49   14.00
  -2  -7  16   77.69   14.20
   2  -7 -16  101.19   15.90
  -2   7  16   98.69   14.30
   2   7 -16   86.89   15.10
   1  -7 -16   19.90   12.00
  -1  -7  16    9.10   10.30
  -1  -7  16   32.60   10.30
  -1   7  16   11.90   10.40
   1   7 -16   18.70   11.20
   0  -7 -16  310.57   24.50
   0  -7  16  269.77   21.80
   0   7  16  248.48   20.90
   0   7 -16  258.87   22.30
   1  -7  16  171.98   17.50
  -1   7 -16  189.38   29.80
   1   7  16  180.28   18.80
  -2  -8  16  201.68   20.70
   2  -8 -16  214.68   22.10
  -6   0  17    9.30   10.20
  -6   0  17    1.60   10.60
  -5   0  17   10.80   10.60
  -5   0  17    4.90   10.00
  -4   0  17   51.69   11.80
  -4   0  17   35.70   10.80
  -3   0  17   -0.90    7.20
  -3   0  17   -6.00    8.00
  -3   0  17   -7.40    8.10
  -2   0  17  364.66   21.00
  -2   0  17  404.46   18.70
  -1   0  17 1383.66   38.60
  -1   0  17 1305.47   40.40
   0   0  17  448.26   20.80
   0   0  17  465.35   21.70
   1   0  17  155.38   14.90
   1   0  17  165.68   14.70
   2   0  17    7.90    8.90
   3   0  17   10.80   10.00
  -6  -1  17    3.80   11.30
  -6  -1  17   10.60   10.70
  -6   1  17   -2.30   10.10
  -6   1  17   -0.30    9.60
  -5  -1  17  124.39   15.80
  -5  -1  17  133.49   17.10
  -5   1  17  108.89   14.70
  -5   1  17  123.59   15.70
  -4  -1  17   42.30   11.60
  -4  -1  17   30.80   11.20
  -4   1  17   38.20   11.10
  -4   1  17   30.90   10.50
  -4   1  17   36.70    9.70
  -3  -1  17  152.78   15.80
  -3  -1  17  172.58   17.40
  -3   1  17  181.08   15.30
  -3   1  17  177.08   16.60
  -2  -1  17  365.66   17.40
  -2  -1  17  334.37   20.30
  -2  -1  17  338.77   21.10
  -2   1  17  315.47   19.50
  -2   1  17  320.57   18.30
  -1  -1  17  754.52   29.00
  -1  -1  17  773.32   26.10
  -1   1  17  735.13   28.50
   1   1 -17  768.72   25.80
  -1   1  17  768.72   27.50
   0  -1  17  340.17   17.70
   0  -1  17  318.17   18.50
   0   1  17  337.57   18.80
   0   1  17  330.07   18.90
   0   1 -17  337.97   17.90
   1  -1  17  427.46   20.80
   1  -1  17  390.76   19.90
  -1   1 -17  431.66   20.50
   1   1  17  421.76   21.70
   1   1  17  429.86   20.90
   2  -1  17   40.30   10.20
   2   1  17   32.50   10.20
  -2   1 -17   38.60   11.50
   3  -1  17   90.59   13.30
  -3  -1 -17   79.29   14.20
   3   1  17   69.99   13.20
  -3   1 -17   77.59   14.20
  -4   1 -17  191.38   20.70
  -6  -2  17  276.27   23.10
  -6  -2  17  250.47   26.70
  -6  -2  17  281.27   25.00
  -6   2  17  284.07   22.70
  -5  -2  17   25.50   11.10
  -5  -2  17   15.90   11.50
  -5   2  17   32.60   10.30
  -5   2  17   28.30   10.80
  -5   2  17   17.60   11.30
  -4  -2  17  181.28   18.20
  -4  -2  17  210.88   18.50
  -4   2  17  184.38   18.00
  -4   2  17  206.58   17.00
  -3  -2  17  548.95   25.90
  -3  -2  17  582.74   26.90
  -3   2  17  561.64   23.70
  -3   2  17  531.75   25.80
  -2  -2  17  232.28   18.70
  -2  -2  17  216.98   17.50
   2   2 -17  245.08   16.30
  -2   2  17  272.27   17.40
  -2   2  17  225.88   17.80
  -1  -2  17   82.59   12.00
  -1  -2  17   89.89   12.10
  -1  -2  17   90.69    9.90
  -1   2  17  102.69   12.50
   1   2 -17   70.89   11.20
  -1   2  17   87.99   12.60
   0  -2  17  567.74   22.70
   0  -2  17  597.34   24.70
   0   2 -17  556.74   23.50
   0   2  17  569.14   24.80
   0   2  17  615.94   25.40
   1  -2  17  655.33   25.70
  -1  -2 -17  665.33   28.70
   1  -2  17  643.04   25.50
  -1   2 -17  629.74   25.90
   1   2  17  666.23   27.10
   1   2  17  605.74   25.40
   2  -2  17  607.04   26.00
  -2  -2 -17  654.03   29.60
  -2   2 -17  630.14   27.90
   2   2  17  619.34   27.40
  -3  -2 -17  246.18   21.40
   3  -2  17  187.78   17.50
   3   2  17  234.78   19.90
  -3   2 -17  239.88   21.00
  -4   2 -17   89.89   17.20
  -6  -3  17   64.19   13.30
  -6  -3  17   52.19   13.90
  -6   3  17   74.09   14.30
  -6   3  17   57.89   15.00
  -5  -3  17   25.50   11.50
  -5  -3  17   42.80   13.40
  -5   3  17   13.40   10.60
  -5   3  17   32.70   12.10
  -5   3  17   27.00   10.10
  -4  -3  17   -0.90    8.70
  -4  -3  17   13.50   10.30
  -4   3  17   11.60    9.20
  -4   3  17    0.00    9.90
  -3  -3  17  294.17   20.10
  -3  -3  17  269.07   20.80
  -3   3  17  299.27   19.10
  -3   3  17  263.97   20.30
  -2  -3  17  238.48   18.80
  -2  -3  17  257.27   18.80
  -2   3  17  249.08   19.00
   2   3 -17  223.18   17.10
  -2   3  17  223.88   17.60
  -1  -3  17  154.28   15.30
  -1  -3  17  133.29   14.70
  -1   3  17  139.49   14.50
   1   3 -17  155.08   14.80
  -1   3  17  116.19   14.40
   0  -3 -17 1221.58   40.30
   0  -3  17 1144.09   37.60
   0  -3  17 1110.59   45.60
   0  -3  17 1190.58   37.80
   0   3 -17 1257.77   38.70
   0   3  17 1271.07   40.20
   0   3  17 1214.38   39.00
   1  -3  17   19.80    8.70
   1  -3  17   34.30    9.20
   1  -3  17   45.10    9.50
  -1  -3 -17   25.00   11.50
   1   3  17   35.90    9.80
  -1   3 -17   48.80   11.80
   1   3  17   42.30   11.00
  -2  -3 -17  284.27   22.10
   2  -3  17  249.38   18.00
  -2   3 -17  227.58   20.10
   2   3  17  281.17   20.00
  -3  -3 -17   13.10   12.50
   3  -3  17   30.40   10.70
  -3   3 -17   53.49   14.60
   3   3  17   41.40   12.30
  -5  -4  17   67.49   15.10
  -5  -4  17   57.69   14.00
  -5   4  17   59.69   13.20
  -5   4  17   63.79   14.60
  -4  -4  17  152.98   17.40
  -4  -4  17  157.38   18.60
  -4   4  17  180.88   17.40
  -4   4  17  175.98   18.50
  -3  -4  17  128.59   15.30
  -3  -4  17   98.49   14.70
  -3   4  17  139.29   15.20
  -3   4  17  118.59   15.40
  -2  -4  17   -6.70    8.40
  -2  -4  17   14.60    9.50
  -2   4  17   36.50   10.30
  -2   4  17   34.50   11.10
   2   4 -17   27.70   10.00
   1  -4 -17   35.80   11.60
  -1  -4  17   18.40    8.80
  -1  -4  17   21.20    9.30
   1   4 -17   40.30   10.80
  -1   4  17   18.80    9.80
  -1   4  17   14.80    9.90
   0  -4 -17   55.89   13.30
   0  -4  17   59.99   11.70
   0  -4  17   62.09   11.10
   0   4  17   59.99   12.10
   0   4  17   49.99   11.80
   0   4 -17   62.99   12.50
   1  -4  17  243.88   18.10
  -1  -4 -17  248.68   21.10
   1   4  17  229.68   18.70
  -1   4 -17  275.37   20.60
   1   4  17  272.37   19.80
  -2  -4 -17   48.50   13.50
   2  -4  17   52.89   10.70
   2   4  17   72.39   13.40
  -2   4 -17   46.90   13.20
  -3  -4 -17   -9.30   12.30
   3  -4  17   -3.20    8.70
  -3   4 -17  -13.30   11.70
   3   4  17   -6.10   10.40
  -4  -5  17   56.49   14.40
  -4  -5  17   57.09   13.50
  -4   5  17   54.39   13.40
  -4   5  17   61.69   13.10
  -3  -5  17   27.60   10.90
  -3  -5  17   39.80   12.60
  -3   5  17   36.40   11.30
  -2  -5  17  200.28   18.90
  -2  -5  17  253.57   19.90
  -2   5  17  228.98   19.60
   2   5 -17  280.57   20.10
   1  -5 -17  506.95   27.20
  -1  -5  17  460.25   24.40
  -1  -5  17  489.45   24.60
  -1   5  17  507.25   25.30
   1   5 -17  540.95   26.00
   0  -5 -17  211.58   20.10
   0  -5  17  230.58   18.90
   0  -5  17  181.68   18.20
   0   5  17  241.48   19.70
   0   5 -17  237.78   20.40
  -1  -5 -17   76.59   15.50
   1  -5  17   54.29   11.50
  -1   5 -17   63.69   13.80
   1   5  17   38.20   12.50
  -2  -5 -17  335.07   26.30
   2   5  17  308.07   22.80
  -2   5 -17  307.77   23.80
   3  -5  17  158.88   20.60
  -3  -6  17   13.10   11.00
  -3  -6  17   24.40   11.00
  -3   6  17   42.70   12.30
  -2  -6  17   90.89   14.70
  -2  -6  17   53.59   12.90
  -2   6  17  101.89   14.60
   2   6 -17   88.39   14.50
  -1  -6  17  236.18   19.50
   1  -6 -17  234.28   21.30
  -1  -6  17  233.78   20.20
  -1   6  17  205.78   18.80
   1   6 -17  255.17   21.00
   0  -6  17   98.99   14.40
   0  -6 -17  104.09   17.20
   0   6 -17  129.89   16.40
   0   6  17  132.49   16.10
  -1  -6 -17   60.99   15.40
   1  -6  17   38.80   11.50
  -1   6 -17   56.29   13.50
   1   6  17   49.99   13.50
   2  -7 -17  179.78   19.80
  -2  -7  17  152.28   18.20
   1  -7 -17   20.60   12.90
  -1  -7  17    8.30    9.70
  -1   7  17   34.60   15.30
   1   7 -17   32.20   18.00
   0  -7  17   -7.10    9.00
   0   7  17   -3.40   14.60
   1  -7  17  182.68   18.40
  -6   0  18  125.69   17.40
  -6   0  18   82.09   14.90
  -5   0  18   10.50   10.30
  -5   0  18    9.10   10.50
  -4   0  18  139.19   16.40
  -4   0  18  128.89   16.20
  -3   0  18   62.79   12.00
  -3   0  18   78.99   11.00
  -3   0  18   75.79   13.50
  -2   0  18  827.92   29.20
  -2   0  18  927.71   33.00
  -1   0  18  627.84   26.80
  -1   0  18  617.14   24.50
   0   0  18    3.80    8.10
   0   0  18   14.40    8.60
   1   0  18  161.68   14.90
   1   0  18  203.38   16.90
   2   0  18  183.18   16.90
   3   0  18   15.70   10.60
  -6  -1  18  190.98   19.50
  -6  -1  18  189.28   24.40
  -6   1  18  176.38   19.30
  -6   1  18  154.88   18.50
  -5  -1  18    6.10   11.10
  -5  -1  18   23.70   11.60
  -5   1  18   27.30   11.90
  -5   1  18   15.20   10.90
  -4  -1  18   28.50   11.30
  -4  -1  18   27.50   10.90
  -4   1  18   32.10   11.70
  -4   1  18   29.20   10.50
  -4   1  18   23.80    9.60
  -3  -1  18  370.66   23.20
  -3  -1  18  370.16   22.50
  -3   1  18  334.77   19.30
  -3   1  18  338.07   21.20
  -2  -1  18  109.39   14.40
  -2  -1  18   89.19   11.90
  -2  -1  18   96.79   14.10
  -2   1  18   84.99   13.20
  -2   1  18   94.29   12.60
  -1  -1  18  551.04   25.00
  -1  -1  18  488.25   21.70
  -1   1  18  500.05   24.30
  -1   1  18  559.64   23.80
   0  -1  18   27.20    8.60
   0  -1  18   27.40    9.20
   0   1  18   32.80    9.40
   0   1  18   17.10    9.30
   1  -1  18  172.78   15.70
   1  -1  18  180.98   15.60
   1   1  18  182.68   15.80
   1   1  18  166.58   15.80
   2  -1  18   36.90   10.90
   2   1  18   39.60   11.00
   3  -1  18  234.58   19.90
   3   1  18  294.47   22.30
  -5  -2  18  120.99   16.10
  -5  -2  18  106.99   16.10
  -5   2  18  114.59   15.50
  -5   2  18  121.79   16.10
  -5   2  18  135.59   15.20
  -4  -2  18    5.20    9.40
  -4  -2  18   -3.10    9.90
  -4   2  18    2.30    9.70
  -4   2  18   16.40   10.10
  -3  -2  18  135.09   16.00
  -3  -2  18  124.79   15.80
  -3   2  18  110.39   15.10
  -3   2  18  111.99   13.20
  -2  -2  18   90.69   13.20
  -2  -2  18   61.69   12.70
  -2   2  18   47.20   11.30
   2   2 -18   60.19   10.60
  -2   2  18   73.59   11.70
  -1  -2  18   52.39   10.50
  -1  -2  18   21.50   10.30
  -1   2  18   27.90   10.20
  -1   2  18   53.29   11.30
   1   2 -18   37.80   10.00
   0  -2  18  417.16   20.00
   0  -2  18  399.66   21.60
   0   2  18  467.75   23.20
   0   2  18  446.06   22.80
   0   2 -18  425.06   21.70
   1  -2  18    6.70    8.50
   1  -2  18   11.80    8.50
   1   2  18   33.60   10.60
  -1   2 -18   30.40   10.70
   1   2  18   30.40    9.80
  -2  -2 -18   42.80   12.60
   2  -2  18   26.60   10.10
   2   2  18   18.00   11.00
  -2   2 -18   45.00   12.40
   3  -2  18    3.90    9.70
  -3  -2 -18    2.10   11.80
  -3   2 -18   -4.30   12.10
   3   2  18    6.70   10.20
  -5  -3  18   21.40   11.80
  -5  -3  18   33.80   13.30
  -5   3  18   59.59   14.10
  -5   3  18   49.20   11.40
  -5   3  18   63.89   13.20
  -4  -3  18  180.38   18.90
  -4  -3  18  209.18   20.10
  -4   3  18  200.98   19.80
  -4   3  18  207.38   17.70
  -3  -3  18   27.70   10.80
  -3  -3  18   46.50   12.80
  -3   3  18   33.80   10.80
  -3   3  18   49.60   12.30
  -2  -3  18   20.30   10.40
  -2  -3  18    5.80    9.10
  -2   3  18   30.00   10.40
   2   3 -18   28.00    9.70
  -2   3  18   28.70   10.90
  -1  -3  18  431.46   23.30
  -1  -3  18  462.75   23.80
  -1   3  18  431.26   23.10
  -1   3  18  456.95   24.00
   1   3 -18  435.16   22.60
   0  -3  18   86.99   13.10
   0  -3  18   78.59   12.40
   0   3  18   99.69   13.90
   0   3 -18   57.49   11.70
   0   3  18   85.39   13.80
   1  -3  18  526.05   24.40
   1  -3  18  524.35   23.20
  -1  -3 -18  524.25   28.20
  -1   3 -18  565.94   26.70
   1   3  18  581.84   26.00
   1   3  18  570.64   27.10
  -2  -3 -18   13.50   12.00
   2  -3  18   -1.50    8.40
   2   3  18   21.20   11.70
  -2   3 -18   18.40   12.30
   3  -3  18  102.59   14.80
  -3  -3 -18  126.99   18.20
  -3   3 -18  139.39   18.30
  -5  -4  18  225.08   31.70
  -5   4  18  309.47   23.00
  -4  -4  18  181.28   19.10
  -4  -4  18  215.08   21.10
  -4   4  18  199.18   18.10
  -4   4  18  192.58   19.80
  -3  -4  18  -14.20    8.20
  -3  -4  18    7.20    9.90
  -3   4  18   -7.80    9.50
  -3   4  18   -0.60    9.00
  -2  -4  18  447.96   24.60
  -2  -4  18  450.95   25.20
  -2   4  18  453.65   24.00
  -2   4  18  441.66   25.60
   2   4 -18  454.35   23.90
  -1  -4  18   93.99   13.20
  -1  -4  18   96.89   14.30
  -1   4  18  123.79   15.00
  -1   4  18  105.79   15.20
   1   4 -18   95.69   14.10
   0  -4  18  489.95   24.30
   0  -4  18  456.25   24.40
   0  -4 -18  542.25   28.50
   0   4  18  525.95   26.20
   0   4  18  538.15   26.30
   0   4 -18  499.35   25.90
  -1  -4 -18   45.10   14.50
   1  -4  18   71.39   12.20
  -1   4 -18   84.69   14.70
   1   4  18   72.29   14.10
   1   4  18   85.09   14.90
   2  -4  18  624.94   27.60
  -2  -4 -18  659.13   32.70
   2   4  18  650.53   30.50
  -2   4 -18  630.04   30.70
   3  -4  18   18.50   10.30
  -4  -5  18   70.19   15.80
  -4   5  18   87.59   14.80
  -3  -5  18   94.49   15.50
  -3  -5  18   89.99   15.00
  -3   5  18   93.49   16.10
  -3   5  18  102.89   14.50
  -2  -5  18   44.10   12.20
  -2  -5  18   44.80   12.10
  -2   5  18   60.59   12.90
   2   5 -18   44.90   12.50
  -1  -5  18  428.76   25.00
  -1  -5  18  437.26   24.30
   1  -5 -18  471.05   27.30
  -1   5  18  452.55   24.80
   1   5 -18  428.96   25.10
   0  -5 -18   79.99   15.50
   0  -5  18  109.79   14.50
   0   5 -18   75.59   14.20
   0   5  18   82.39   14.70
   1  -5  18  335.67   22.30
  -1  -5 -18  381.26   27.10
   1   5  18  341.07   23.70
  -1   5 -18  372.66   24.60
  -2   5 -18   18.50   13.60
  -3  -6  18   38.00   13.00
  -2  -6  18   36.90   12.90
  -2  -6  18   62.89   14.10
  -2   6  18   61.89   13.30
   2   6 -18   51.39   13.10
   1  -6 -18   24.80   13.00
  -1  -6  18   50.69   13.10
  -1  -6  18   46.80   12.30
  -1   6  18   35.80   12.50
   1   6 -18   20.70   11.50
   0  -6  18   62.89   13.30
   0  -6 -18  102.99   17.90
   0   6 -18   54.29   13.70
   0   6  18   76.89   14.50
   1  -6  18   96.19   14.70
  -5   0  19   70.09   14.50
  -5   0  19   77.39   14.90
  -4   0  19   10.30   10.80
  -4   0  19    8.80   10.10
  -3   0  19  252.27   21.40
  -3   0  19  235.08   20.00
  -2   0  19  435.06   24.40
  -2   0  19  418.66   21.20
  -1   0  19   32.60   10.60
  -1   0  19   46.60   10.40
   0   0  19    2.80    8.30
   0   0  19   -5.60    8.20
   1   0  19  359.96   21.50
   1   0  19  373.66   33.50
   2   0  19   33.40   10.60
  -5  -1  19    1.10   11.10
  -5  -1  19    0.80   10.30
  -5   1  19   12.30   10.60
  -5   1  19    4.20   11.00
  -4  -1  19   75.09   13.90
  -4  -1  19   51.89   13.10
  -4   1  19   26.60   10.70
  -4   1  19   39.40   12.00
  -3  -1  19   36.40   12.50
  -3  -1  19   79.49   13.80
  -3   1  19   46.60   12.40
  -3   1  19   59.19   11.60
  -2  -1  19  214.28   18.80
  -2  -1  19  243.78   20.80
  -2   1  19  289.37   18.80
  -2   1  19  228.78   19.70
  -1  -1  19  132.69   15.50
  -1  -1  19  140.09   13.40
  -1   1  19  166.98   15.60
  -1   1  19  152.48   16.10
   0  -1  19  147.79   14.30
   0  -1  19  128.89   14.60
   0   1  19  139.59   15.20
   0   1  19  129.79   14.70
   1  -1  19   79.89   14.60
   1  -1  19   78.59   12.50
   1   1  19   78.99   12.80
   2  -1  19  188.58   17.60
   2   1  19  194.68   18.80
   3  -1  19  108.79   23.70
  -5  -2  19   44.10   13.30
  -5  -2  19   19.20   14.00
  -5   2  19   51.59   13.50
  -5   2  19   37.90   13.40
  -4  -2  19   55.49   13.90
  -4  -2  19   54.09   13.00
  -4   2  19   26.00   11.60
  -4   2  19   34.50   11.10
  -3  -2  19  362.86   23.90
  -3  -2  19  305.97   22.00
  -3   2  19  344.47   20.90
  -3   2  19  309.07   22.90
  -2  -2  19   92.69   14.60
  -2  -2  19   57.29   12.40
  -2   2  19   78.09   12.80
  -2   2  19   67.49   13.20
  -1  -2  19  625.44   28.10
  -1  -2  19  521.85   26.00
  -1   2  19  572.34   26.00
  -1   2  19  549.54   26.70
   0  -2  19   22.00    9.10
   0  -2  19   41.80   10.40
   0   2  19   45.40   11.10
   0   2 -19   39.60   11.30
   0   2  19   37.30   11.50
   1  -2  19  107.99   13.30
   1  -2  19   94.09   13.80
   1   2  19  116.59   15.40
  -1   2 -19  123.69   15.50
   2  -2  19  -13.20    8.20
  -2   2 -19    3.80   11.00
   2   2  19   13.10   11.30
  -3  -2 -19  189.28   20.30
  -3   2 -19  188.28   20.40
  -5   3  19  213.88   19.40
  -5   3  19  130.89   16.40
  -4  -3  19  404.56   25.40
  -4  -3  19  439.56   27.80
  -4   3  19  455.55   27.00
  -4   3  19  443.76   24.80
  -3  -3  19   16.20   11.50
  -3  -3  19   -7.80    9.20
  -3   3  19    4.30   10.80
  -3   3  19   15.60   10.10
  -2  -3  19  373.96   23.80
  -2  -3  19  337.17   22.80
   2   3 -19  361.46   21.20
  -2   3  19  382.96   24.00
  -2   3  19  372.76   22.30
  -1  -3  19    7.00    9.40
  -1  -3  19    9.40   10.10
  -1   3  19   22.00   10.80
   1   3 -19    6.80    9.80
  -1   3  19   -1.20    9.40
   0  -3  19  454.65   24.10
   0  -3  19  414.86   24.00
   0   3 -19  449.95   24.00
   0   3  19  501.05   25.40
   0   3  19  457.45   24.80
  -1  -3 -19   36.30   13.50
   1  -3  19   35.70   10.20
   1  -3  19   49.40   14.40
  -1   3 -19   52.49   13.50
   1   3  19   47.00   12.40
   2  -3  19  324.67   21.10
  -2  -3 -19  292.77   25.40
  -2   3 -19  300.77   23.00
   2   3  19  304.77   22.50
  -4  -4  19   56.79   15.00
  -4  -4  19   57.09   21.00
  -4   4  19   56.59   13.50
  -4   4  19   36.30   17.60
  -3  -4  19  143.89   17.40
  -3  -4  19  148.59   18.20
  -3   4  19  146.39   16.50
  -3   4  19  130.29   17.50
  -2  -4  19   21.60   11.10
  -2  -4  19   13.70   10.10
  -2   4  19   34.50   12.00
   2   4 -19   46.20   11.70
  -2   4  19   30.40   11.40
  -1  -4  19  302.37   21.80
  -1  -4  19  284.97   21.50
   1   4 -19  272.07   21.10
  -1   4  19  252.77   21.40
  -1   4  19  297.87   21.90
   0  -4  19   21.20   10.10
   0  -4 -19   20.10   13.40
   0  -4  19   26.00   10.60
   0   4 -19   30.70   12.00
   0   4  19   34.30   11.60
   0   4  19    5.20   11.10
   1  -4  19  664.53   42.50
  -1  -4 -19  676.43   33.80
   1   4  19  753.42   32.90
  -1   4 -19  731.43   32.20
  -2   4 -19  286.37   23.90
  -3  -5  19   -8.20   10.30
  -3  -5  19   28.10   16.90
  -3   5  19    3.80   11.30
  -2  -5  19   52.59   13.10
  -2  -5  19   42.00   12.80
  -2   5  19   33.20   12.20
  -2   5  19   46.40   14.00
   2   5 -19   34.00   11.90
  -1  -5  19  122.59   16.00
  -1  -5  19   66.69   13.50
  -1   5  19   77.29   14.70
  -1   5  19  118.29   17.00
   1   5 -19   89.09   14.60
   0  -5  19   12.40    9.40
   0  -5 -19    4.50   13.00
   0   5  19   36.50   13.30
   0   5  19   29.70   12.10
   0   5 -19   47.00   13.00
  -1   5 -19   12.00   11.70
  -2  -6  19   10.80   11.70
  -1  -6  19   64.29   14.40
   0  -6  19  147.29   17.30
  -4   0  20  378.86   25.80
  -4   0  20  389.86   25.80
  -3   0  20   25.20   11.40
  -3   0  20   31.30   12.90
  -2   0  20  680.93   30.20
  -2   0  20  672.73   27.40
  -1   0  20  406.46   21.90
  -1   0  20  423.16   23.50
   0   0  20   22.20   10.30
   0   0  20   19.90    9.90
   1   0  20   44.80   11.60
   2   0  20   37.80   12.60
  -4  -1  20   20.10   12.40
  -4  -1  20   36.50   13.30
  -4   1  20   17.70   11.90
  -4   1  20   27.60   12.50
  -3  -1  20  131.69   16.70
  -3  -1  20  106.59   15.70
  -3   1  20  113.19   14.20
  -3   1  20  125.99   17.00
  -2  -1  20  266.67   22.40
  -2  -1  20  240.78   20.30
  -2   1  20  213.18   19.50
  -2   1  20  238.78   19.10
  -1  -1  20  136.99   14.40
  -1  -1  20  127.49   15.30
  -1   1  20  104.79   14.00
  -1   1  20  125.99   16.20
   0  -1  20   58.09   12.20
   0  -1  20   45.60   10.90
   0   1  20   67.89   12.90
   0   1  20   65.29   12.40
   1  -1  20  111.49   14.50
   1   1  20  118.29   15.80
   2  -1  20  205.78   18.80
   2   1  20  256.87   22.00
  -4  -2  20  119.59   16.60
  -4  -2  20   82.39   16.00
  -4   2  20  114.59   15.00
  -4   2  20   79.79   15.40
  -3  -2  20   79.19   14.60
  -3  -2  20   71.29   14.40
  -3   2  20   46.60   13.20
  -3   2  20   76.29   13.50
  -2  -2  20   79.49   14.10
  -2  -2  20   82.79   14.40
  -2   2  20   74.19   14.30
  -2   2  20   93.59   14.30
  -1  -2  20   40.10   11.60
  -1  -2  20   34.30   11.90
  -1   2  20   23.60   11.20
  -1   2  20   20.50   10.40
   0  -2  20   80.89   14.30
   0  -2  20   79.59   13.10
   0   2  20   67.19   12.60
   0   2  20   90.69   13.70
   1  -2  20  129.89   15.00
   1   2  20  133.89   16.40
   2  -2  20   73.39   13.60
  -4   3  20   -9.10   10.60
  -3  -3  20  260.77   22.10
  -3  -3  20  262.47   23.30
  -3   3  20  245.08   20.80
  -3   3  20  239.88   22.00
  -2  -3  20   33.00   11.50
  -2  -3  20   33.90   12.30
   2   3 -20   23.20   11.00
  -2   3  20   23.20   11.30
  -2   3  20    3.90   10.90
  -1  -3  20  199.98   18.80
  -1  -3  20  182.78   18.20
  -1   3  20  175.18   18.20
  -1   3  20  187.98   18.20
   1   3 -20  182.88   17.50
   0  -3  20  174.08   18.00
   0  -3  20  172.18   17.10
   0   3  20  201.58   19.10
   0   3  20  161.88   17.60
   0   3 -20  160.28   16.70
  -1   3 -20  140.49   17.30
   1   3  20  119.49   16.80
   2  -3  20   75.19   13.30
  -2   3 -20   90.79   16.30
  -3  -4  20   -2.80   10.60
  -3   4  20    1.20   10.20
  -3   4  20  -16.20   16.10
  -2  -4  20  130.39   17.60
  -2  -4  20  124.19   16.80
   2   4 -20  141.49   16.30
  -2   4  20  140.49   16.50
  -2   4  20  153.98   18.50
  -1  -4  20  255.97   21.40
  -1  -4  20  320.07   22.70
  -1   4  20  301.17   23.60
  -1   4  20  278.47   21.90
   1   4 -20  354.96   23.00
   0  -4  20   44.60   11.80
   0  -4  20   31.30   14.50
   0   4 -20   22.40   12.10
   0   4  20   49.80   13.40
   0   4  20   30.20   12.80
  -1   4 -20  264.67   22.90
  -2  -5  20   31.30   12.80
   2   5 -20   24.00   12.00
  -1  -5  20   58.59   13.30
  -1  -5  20   65.49   14.10
   1   5 -20   92.49   15.50
  -1   5  20   87.59   15.60
   0  -5  20  107.89   15.50
   0   5 -20  107.29   16.20
   0   5  20  128.99   17.50
  -3   0  21   83.79   15.20
  -3   0  21  104.69   16.90
  -2   0  21  416.06   25.20
  -2   0  21  334.97   23.00
  -1   0  21   76.09   13.60
  -1   0  21   72.79   13.00
   0   0  21    4.00    9.60
   0   0  21    3.80    9.60
   1   0  21   21.40   11.80
  -3  -1  21  119.79   17.00
  -3  -1  21  118.69   17.70
  -3   1  21  162.28   19.00
  -3   1  21   90.09   14.10
  -2  -1  21  464.15   26.50
  -2  -1  21  532.35   29.20
  -2   1  21  478.25   27.40
  -2   1  21  506.35   25.50
  -1  -1  21   82.09   14.00
  -1   1  21   96.39   15.10
  -1   1  21  110.59   14.90
   0  -1  21   53.09   12.50
   0  -1  21    9.40    9.80
   0   1  21   37.50   11.70
   0   1  21   46.50   12.10
   1  -1  21   37.20   11.90
   1   1  21   33.20   12.20
  -4   2  21   19.70   11.90
  -3  -2  21  205.18   21.30
  -3  -2  21  262.27   22.10
  -3   2  21  298.47   22.10
  -3   2  21  238.68   22.90
  -2  -2  21  522.35   29.20
  -2  -2  21  476.05   26.90
  -2   2  21  526.25   29.10
  -2   2  21  552.14   27.30
  -1  -2  21   40.30   13.60
  -1  -2  21   75.29   13.90
  -1   2  21   48.90   13.00
  -1   2  21   26.90   11.70
   0  -2  21  181.08   18.90
   0  -2  21  166.68   17.60
   0   2  21  209.88   19.60
   0   2  21  178.28   18.40
   1  -2  21   24.40   11.00
  -3   3  21   38.20   12.90
  -2  -3  21   43.40   12.60
  -2  -3  21   44.80   13.40
  -2   3  21   32.90   12.90
  -2   3  21   59.69   14.00
  -1  -3  21   64.79   14.70
  -1  -3  21   52.79   13.30
  -1   3  21   77.29   14.50
  -1   3  21   48.90   13.70
   0  -3  21   71.59   13.90
   0  -3  21   92.69   14.60
   0   3  21  107.59   17.80
   0   3  21  117.29   16.30
  -2  -4  21   55.19   14.50
   2   4 -21   27.90   12.10
  -1  -4  21   31.30   12.80
  -1  -4  21   25.00   12.10
  -1   4  21   22.70   12.50
   1   4 -21   32.10   12.60
   0  -4  21  163.18   17.70
   0   4 -21  156.48   18.30
   0   4  21  195.88   20.20
  -2   0  22   10.40   11.70
  -1   0  22   -0.50   10.00
  -1   0  22    1.40   10.10
   0   0  22    3.20   10.50
   0   0  22    7.60   10.20
  -2  -1  22   42.60   14.00
  -2  -1  22   33.70   12.40
  -2   1  22   42.60   12.80
  -2   1  22   51.49   13.70
  -1  -1  22  154.58   18.20
  -1   1  22  154.98   17.90
  -1   1  22  118.39   15.70
   0  -1  22   24.20   11.90
   0  -1  22   28.60   11.80
   0   1  22   42.20   12.60
   0   1  22   38.30   12.70
  -3   2  22  428.16   26.30
  -2  -2  22  230.98   31.00
  -2   2  22  235.58   33.30
  -2   2  22  215.98   20.00
  -1  -2  22   64.39   14.70
  -1  -2  22   40.60   12.50
  -1   2  22   62.39   13.90
  -1   2  22   65.19   14.30
   0  -2  22   72.29   14.50
   0  -2  22   79.89   15.50
   0   2  22   74.89   14.90
  -1  -3  22    2.90   11.20
  -1   0  23    6.40   11.50

_computing_structure_solution     'SHELXT 2014/4 (Sheldrick, 2014)'
;
_shelx_hkl_checksum              22781
loop_
_space_group_symop_operation_xyz
'x, y, z'
'-x, y+1/2, -z'
loop_
_atom_site_label
_atom_site_type_symbol
_atom_site_fract_x
_atom_site_fract_y
_atom_site_fract_z
_atom_site_U_iso_or_equiv
_atom_site_adp_type
_atom_site_occupancy
_atom_site_site_symmetry_order
_atom_site_calc_flag
_atom_site_refinement_flags_posn
_atom_site_refinement_flags_adp
_atom_site_refinement_flags_occupancy
_atom_site_disorder_assembly
_atom_site_disorder_group
S1 S 0.76340(9) 0.41098(7) 0.83018(3) 0.02504(14) Uani 1 1 d . . . . .
O1 O 0.6413(3) 0.3488(2) 0.76180(10) 0.0305(4) Uani 1 1 d . . . . .
O2 O 0.6654(3) 0.4354(2) 0.89524(10) 0.0353(4) Uani 1 1 d . . . . .
N1 N 0.8511(3) 0.5768(2) 0.80741(11) 0.0258(4) Uani 1 1 d D . . . .
C2 C 0.9912(12) 0.6616(17) 0.8689(4) 0.0324(13) Uani 0.849(7) 1 d D . P A 1
H2A H 1.0001 0.6090 0.9182 0.039 Uiso 0.849(7) 1 calc R U P A 1
H2B H 0.9388 0.7666 0.8737 0.039 Uiso 0.849(7) 1 calc R U P A 1
C3 C 1.2062(6) 0.6622(6) 0.8429(2) 0.0372(9) Uani 0.849(7) 1 d D . P A 1
H3A H 1.2981 0.7455 0.8672 0.045 Uiso 0.849(7) 1 calc R U P A 1
H3B H 1.2807 0.5638 0.8537 0.045 Uiso 0.849(7) 1 calc R U P A 1
C4 C 1.1411(5) 0.6884(5) 0.7582(2) 0.0336(8) Uani 0.849(7) 1 d D . P A 1
H4B H 1.2504 0.6479 0.7306 0.040 Uiso 0.849(7) 1 calc R U P A 1
H4A H 1.1227 0.7984 0.7471 0.040 Uiso 0.849(7) 1 calc R U P A 1
C5 C 0.9291(6) 0.6031(4) 0.7344(2) 0.0240(10) Uani 0.849(7) 1 d D . P A 1
H5 H 0.9579 0.5024 0.7121 0.029 Uiso 0.849(7) 1 calc R U P A 1
C2' C 1.011(8) 0.653(11) 0.8666(18) 0.0324(13) Uani 0.151(7) 1 d D . P A 2
H2'1 H 1.0708 0.5797 0.9068 0.039 Uiso 0.151(7) 1 calc R U P A 2
H2'2 H 0.9466 0.7391 0.8899 0.039 Uiso 0.151(7) 1 calc R U P A 2
C3' C 1.181(4) 0.708(3) 0.8229(13) 0.040(7) Uiso 0.151(7) 1 d D . P A 2
H3'1 H 1.1626 0.8182 0.8124 0.048 Uiso 0.151(7) 1 calc R U P A 2
H3'2 H 1.3236 0.6923 0.8540 0.048 Uiso 0.151(7) 1 calc R U P A 2
C4' C 1.166(3) 0.621(3) 0.7488(10) 0.028(5) Uiso 0.151(7) 1 d D . P A 2
H4'1 H 1.2641 0.5335 0.7542 0.034 Uiso 0.151(7) 1 calc R U P A 2
H4'2 H 1.1968 0.6883 0.7077 0.034 Uiso 0.151(7) 1 calc R U P A 2
C5' C 0.932(4) 0.568(4) 0.7333(10) 0.0240(10) Uani 0.151(7) 1 d D . P A 2
H5' H 0.9192 0.4622 0.7124 0.029 Uiso 0.151(7) 1 calc R U P A 2
C6 C 0.7692(7) 0.6936(4) 0.6755(3) 0.0243(9) Uani 0.849(7) 1 d D . P A 1
H6 H 0.8407 0.7287 0.6331 0.029 Uiso 0.849(7) 1 calc R U P A 1
C7 C 0.6854(5) 0.8304(3) 0.71365(17) 0.0252(8) Uani 0.849(7) 1 d D . P A 1
H7 H 0.6066 0.8122 0.7531 0.030 Uiso 0.849(7) 1 calc R U P A 1
C8 C 0.7163(6) 0.9716(4) 0.6950(2) 0.0369(9) Uani 0.849(7) 1 d D . P A 1
H8A H 0.7945 0.9930 0.6557 0.044 Uiso 0.849(7) 1 calc R U P A 1
H8B H 0.6605 1.0526 0.7206 0.044 Uiso 0.849(7) 1 calc R U P A 1
C6' C 0.780(4) 0.672(2) 0.687(3) 0.0243(9) Uani 0.151(7) 1 d D . P A 2
H6' H 0.8569 0.6682 0.6425 0.029 Uiso 0.151(7) 1 calc R U P A 2
C7' C 0.806(3) 0.844(2) 0.6956(10) 0.033(5) Uiso 0.151(7) 1 d D . P A 2
H7' H 0.9287 0.8950 0.6845 0.040 Uiso 0.151(7) 1 calc R U P A 2
C8' C 0.655(3) 0.919(3) 0.7192(12) 0.045(5) Uiso 0.151(7) 1 d D . P A 2
H8'1 H 0.5338 0.8658 0.7299 0.054 Uiso 0.151(7) 1 calc R U P A 2
H8'2 H 0.6645 1.0260 0.7256 0.054 Uiso 0.151(7) 1 calc R U P A 2
N9 N 0.5949(4) 0.5934(3) 0.64628(13) 0.0337(5) Uani 1 1 d D . . . .
H9 H 0.566(4) 0.525(4) 0.6765(15) 0.031(8) Uiso 1 1 d . . . . .
C10 C 0.4366(4) 0.6311(3) 0.58489(13) 0.0244(5) Uani 1 1 d . . . . .
C11 C 0.4569(4) 0.7497(3) 0.53408(13) 0.0264(5) Uani 1 1 d . . . . .
H11 H 0.5786 0.8136 0.5428 0.032 Uiso 1 1 calc R U . . .
C12 C 0.3000(4) 0.7741(3) 0.47107(14) 0.0281(5) Uani 1 1 d . . . . .
H12 H 0.3162 0.8538 0.4367 0.034 Uiso 1 1 calc R U . . .
C13 C 0.1195(4) 0.6829(3) 0.45795(13) 0.0259(5) Uani 1 1 d . . . . .
C14 C 0.0961(4) 0.5665(3) 0.50803(15) 0.0311(5) Uani 1 1 d . . . . .
H14 H -0.0266 0.5037 0.4995 0.037 Uiso 1 1 calc R U . . .
C15 C 0.2537(4) 0.5425(3) 0.57095(15) 0.0307(5) Uani 1 1 d . . . . .
H15 H 0.2359 0.4632 0.6054 0.037 Uiso 1 1 calc R U . . .
O16 O -0.0265(3) 0.7158(2) 0.39309(10) 0.0334(4) Uani 1 1 d . . . . .
C16 C -0.2215(4) 0.6323(4) 0.38256(16) 0.0392(6) Uani 1 1 d . . . . .
H16A H -0.3177 0.6721 0.3383 0.059 Uiso 1 1 calc R U . . .
H16B H -0.2876 0.6430 0.4277 0.059 Uiso 1 1 calc R U . . .
H16C H -0.1928 0.5245 0.3745 0.059 Uiso 1 1 calc R U . . .
C17 C 0.9859(4) 0.2911(3) 0.85887(14) 0.0253(5) Uani 1 1 d . . . . .
C18 C 1.0682(4) 0.2772(3) 0.93583(14) 0.0308(5) Uani 1 1 d . . . . .
H18 H 1.0020 0.3271 0.9726 0.037 Uiso 1 1 calc R U . . .
C19 C 1.2487(4) 0.1893(3) 0.95793(15) 0.0339(6) Uani 1 1 d . . . . .
H19 H 1.3050 0.1788 1.0104 0.041 Uiso 1 1 calc R U . . .
C20 C 1.3489(4) 0.1164(3) 0.90513(15) 0.0315(6) Uani 1 1 d . . . . .
C21 C 1.2622(4) 0.1306(3) 0.82868(15) 0.0323(6) Uani 1 1 d . . . . .
H21 H 1.3283 0.0801 0.7920 0.039 Uiso 1 1 calc R U . . .
C22 C 1.0805(4) 0.2172(3) 0.80473(14) 0.0286(5) Uani 1 1 d . . . . .
H22 H 1.0222 0.2256 0.7524 0.034 Uiso 1 1 calc R U . . .
C23 C 1.5518(5) 0.0270(4) 0.93033(19) 0.0454(7) Uani 1 1 d . . . . .
H23A H 1.5356 -0.0379 0.9734 0.068 Uiso 0.849(7) 1 calc R U P . .
H23B H 1.6701 0.0977 0.9455 0.068 Uiso 0.849(7) 1 calc R U P . .
H23C H 1.5808 -0.0366 0.8884 0.068 Uiso 0.849(7) 1 calc R U P . .
H23D H 1.5213 -0.0823 0.9254 0.068 Uiso 0.151(7) 1 calc R U P . .
H23E H 1.6091 0.0510 0.9834 0.068 Uiso 0.151(7) 1 calc R U P . .
H23F H 1.6561 0.0544 0.8985 0.068 Uiso 0.151(7) 1 calc R U P . .
loop_
_atom_site_aniso_label
_atom_site_aniso_U_11
_atom_site_aniso_U_22
_atom_site_aniso_U_33
_atom_site_aniso_U_23
_atom_site_aniso_U_13
_atom_site_aniso_U_12
S1 0.0226(3) 0.0248(3) 0.0271(3) 0.0007(2) 0.00266(19) -0.0021(2)
O1 0.0276(9) 0.0287(9) 0.0322(9) 0.0009(7) -0.0036(7) -0.0050(7)
O2 0.0349(9) 0.0374(11) 0.0358(10) 0.0009(8) 0.0126(7) -0.0002(8)
N1 0.0256(10) 0.0246(10) 0.0263(10) 0.0000(8) 0.0017(8) -0.0005(8)
C2 0.034(2) 0.028(2) 0.0326(14) -0.0052(11) -0.0020(12) -0.003(2)
C3 0.0246(18) 0.038(2) 0.044(2) -0.0002(19) -0.0076(15) -0.0045(15)
C4 0.0214(16) 0.036(2) 0.043(2) -0.0024(16) 0.0061(13) -0.0053(14)
C5 0.0216(11) 0.021(3) 0.0292(12) 0.0018(12) 0.0044(9) -0.0005(14)
C2' 0.034(2) 0.028(2) 0.0326(14) -0.0052(11) -0.0020(12) -0.003(2)
C5' 0.0216(11) 0.021(3) 0.0292(12) 0.0018(12) 0.0044(9) -0.0005(14)
C6 0.0292(13) 0.0197(15) 0.022(3) 0.0066(15) -0.0002(11) -0.0032(13)
C7 0.0195(15) 0.0261(17) 0.0293(16) -0.0010(12) 0.0023(12) -0.0014(11)
C8 0.0355(19) 0.0268(16) 0.047(2) -0.0016(15) 0.0030(16) -0.0002(14)
C6' 0.0292(13) 0.0197(15) 0.022(3) 0.0066(15) -0.0002(11) -0.0032(13)
N9 0.0318(11) 0.0314(11) 0.0341(12) 0.0101(9) -0.0045(9) -0.0072(9)
C10 0.0251(11) 0.0221(11) 0.0254(11) -0.0019(9) 0.0024(9) 0.0023(9)
C11 0.0245(12) 0.0258(12) 0.0290(12) -0.0004(10) 0.0046(10) -0.0040(10)
C12 0.0299(13) 0.0287(12) 0.0262(12) 0.0038(10) 0.0065(10) 0.0014(10)
C13 0.0234(11) 0.0292(12) 0.0247(12) -0.0048(9) 0.0029(9) 0.0046(10)
C14 0.0271(12) 0.0286(13) 0.0366(14) -0.0041(10) 0.0027(11) -0.0052(10)
C15 0.0338(13) 0.0255(12) 0.0327(13) 0.0032(10) 0.0054(11) -0.0037(10)
O16 0.0266(9) 0.0393(10) 0.0315(9) -0.0002(8) -0.0027(7) 0.0016(8)
C16 0.0255(13) 0.0520(17) 0.0382(15) -0.0086(13) 0.0006(11) 0.0012(12)
C17 0.0243(12) 0.0224(11) 0.0282(12) 0.0030(9) 0.0019(9) -0.0043(9)
C18 0.0383(14) 0.0278(13) 0.0257(12) 0.0008(10) 0.0040(10) -0.0020(11)
C19 0.0370(14) 0.0335(13) 0.0271(12) 0.0060(10) -0.0059(10) -0.0058(11)
C20 0.0290(13) 0.0216(11) 0.0409(15) 0.0051(10) -0.0026(11) -0.0055(10)
C21 0.0323(14) 0.0286(13) 0.0357(14) -0.0003(10) 0.0053(11) 0.0009(11)
C22 0.0314(13) 0.0268(12) 0.0260(12) 0.0001(9) -0.0001(10) -0.0007(10)
C23 0.0332(15) 0.0389(16) 0.0588(19) 0.0104(14) -0.0065(13) 0.0022(13)
loop_
_atom_type_symbol
_atom_type_description
_atom_type_scat_dispersion_real
_atom_type_scat_dispersion_imag
_atom_type_scat_source
C C 0.0033 0.0016 'International Tables Vol C Tables 4.2.6.8 and 6.1.1.4'
H H 0.0000 0.0000 'International Tables Vol C Tables 4.2.6.8 and 6.1.1.4'
N N 0.0061 0.0033 'International Tables Vol C Tables 4.2.6.8 and 6.1.1.4'
O O 0.0106 0.0060 'International Tables Vol C Tables 4.2.6.8 and 6.1.1.4'
S S 0.1246 0.1234 'International Tables Vol C Tables 4.2.6.8 and 6.1.1.4'
loop_
_geom_angle_atom_site_label_1
_geom_angle_atom_site_label_2
_geom_angle_atom_site_label_3
_geom_angle
O2 S1 O1 119.96(11)
O2 S1 N1 106.69(11)
O1 S1 N1 106.47(11)
O2 S1 C17 107.21(11)
O1 S1 C17 108.06(11)
N1 S1 C17 107.95(11)
C2 N1 C5 108.7(3)
C2' N1 C5' 110.5(14)
C2 N1 S1 116.6(5)
C2' N1 S1 116(3)
C5 N1 S1 122.37(19)
C5' N1 S1 111.0(13)
N1 C2 C3 103.5(4)
N1 C2 H2A 111.1
C3 C2 H2A 111.1
N1 C2 H2B 111.1
C3 C2 H2B 111.1
H2A C2 H2B 109.0
C4 C3 C2 101.6(5)
C4 C3 H3A 111.4
C2 C3 H3A 111.4
C4 C3 H3B 111.4
C2 C3 H3B 111.4
H3A C3 H3B 109.3
C3 C4 C5 106.1(3)
C3 C4 H4B 110.5
C5 C4 H4B 110.5
C3 C4 H4A 110.5
C5 C4 H4A 110.5
H4B C4 H4A 108.7
N1 C5 C4 104.1(3)
N1 C5 C6 113.1(4)
C4 C5 C6 112.4(3)
N1 C5 H5 109.0
C4 C5 H5 109.0
C6 C5 H5 109.0
N1 C2' C3' 103.8(18)
N1 C2' H2'1 111.0
C3' C2' H2'1 111.0
N1 C2' H2'2 111.0
C3' C2' H2'2 111.0
H2'1 C2' H2'2 109.0
C4' C3' C2' 110(2)
C4' C3' H3'1 109.6
C2' C3' H3'1 109.6
C4' C3' H3'2 109.6
C2' C3' H3'2 109.6
H3'1 C3' H3'2 108.2
C3' C4' C5' 102.9(18)
C3' C4' H4'1 111.2
C5' C4' H4'1 111.2
C3' C4' H4'2 111.2
C5' C4' H4'2 111.2
H4'1 C4' H4'2 109.1
C6' C5' N1 100(3)
C6' C5' C4' 116(2)
N1 C5' C4' 107.2(14)
C6' C5' H5' 111.2
N1 C5' H5' 111.2
C4' C5' H5' 111.2
N9 C6 C7 109.4(4)
N9 C6 C5 108.0(3)
C7 C6 C5 109.9(4)
N9 C6 H6 109.8
C7 C6 H6 109.8
C5 C6 H6 109.8
C8 C7 C6 123.5(4)
C8 C7 H7 118.3
C6 C7 H7 118.3
C7 C8 H8A 120.0
C7 C8 H8B 120.0
H8A C8 H8B 120.0
N9 C6' C5' 112.4(17)
N9 C6' C7' 126.2(19)
C5' C6' C7' 120.2(16)
N9 C6' H6' 93.4
C5' C6' H6' 93.4
C7' C6' H6' 93.4
C8' C7' C6' 117(3)
C8' C7' H7' 121.4
C6' C7' H7' 121.4
C7' C8' H8'1 120.0
C7' C8' H8'2 120.0
H8'1 C8' H8'2 120.0
C10 N9 C6 123.2(2)
C10 N9 C6' 134.0(13)
C10 N9 H9 117.4(19)
C6 N9 H9 116.1(19)
C6' N9 H9 106(3)
C15 C10 N9 118.7(2)
C15 C10 C11 118.0(2)
N9 C10 C11 123.3(2)
C12 C11 C10 120.4(2)
C12 C11 H11 119.8
C10 C11 H11 119.8
C11 C12 C13 120.6(2)
C11 C12 H12 119.7
C13 C12 H12 119.7
C14 C13 O16 124.2(2)
C14 C13 C12 119.7(2)
O16 C13 C12 116.0(2)
C13 C14 C15 119.5(2)
C13 C14 H14 120.3
C15 C14 H14 120.3
C10 C15 C14 121.9(2)
C10 C15 H15 119.1
C14 C15 H15 119.1
C13 O16 C16 116.6(2)
O16 C16 H16A 109.5
O16 C16 H16B 109.5
H16A C16 H16B 109.5
O16 C16 H16C 109.5
H16A C16 H16C 109.5
H16B C16 H16C 109.5
C22 C17 C18 121.0(2)
C22 C17 S1 120.00(19)
C18 C17 S1 119.00(19)
C19 C18 C17 118.9(2)
C19 C18 H18 120.5
C17 C18 H18 120.5
C18 C19 C20 121.5(2)
C18 C19 H19 119.3
C20 C19 H19 119.3
C19 C20 C21 118.5(2)
C19 C20 C23 120.6(2)
C21 C20 C23 120.9(3)
C20 C21 C22 121.4(2)
C20 C21 H21 119.3
C22 C21 H21 119.3
C17 C22 C21 118.8(2)
C17 C22 H22 120.6
C21 C22 H22 120.6
C20 C23 H23A 109.5
C20 C23 H23B 109.5
H23A C23 H23B 109.5
C20 C23 H23C 109.5
H23A C23 H23C 109.5
H23B C23 H23C 109.5
C20 C23 H23D 109.5
H23A C23 H23D 57.0
H23B C23 H23D 141.1
H23C C23 H23D 55.5
C20 C23 H23E 109.5
H23A C23 H23E 55.5
H23B C23 H23E 57.0
H23C C23 H23E 141.1
H23D C23 H23E 109.5
C20 C23 H23F 109.5
H23A C23 H23F 141.1
H23B C23 H23F 55.5
H23C C23 H23F 57.0
H23D C23 H23F 109.5
H23E C23 H23F 109.5
loop_
_geom_bond_atom_site_label_1
_geom_bond_atom_site_label_2
_geom_bond_distance
S1 O2 1.4326(18)
S1 O1 1.4405(18)
S1 N1 1.638(2)
S1 C17 1.773(2)
N1 C2 1.493(4)
N1 C2' 1.495(13)
N1 C5 1.498(4)
N1 C5' 1.507(13)
C2 C3 1.527(7)
C2 H2A 0.9900
C2 H2B 0.9900
C3 C4 1.520(5)
C3 H3A 0.9900
C3 H3B 0.9900
C4 C5 1.543(4)
C4 H4B 0.9900
C4 H4A 0.9900
C5 C6 1.554(5)
C5 H5 1.0000
C2' C3' 1.527(14)
C2' H2'1 0.9900
C2' H2'2 0.9900
C3' C4' 1.518(13)
C3' H3'1 0.9900
C3' H3'2 0.9900
C4' C5' 1.545(13)
C4' H4'1 0.9900
C4' H4'2 0.9900
C5' C6' 1.48(4)
C5' H5' 1.0000
C6 N9 1.445(4)
C6 C7 1.526(6)
C6 H6 1.0000
C7 C8 1.308(5)
C7 H7 0.9500
C8 H8A 0.9500
C8 H8B 0.9500
C6' N9 1.452(13)
C6' C7' 1.525(13)
C6' H6' 1.0000
C7' C8' 1.300(13)
C7' H7' 0.9500
C8' H8'1 0.9500
C8' H8'2 0.9500
N9 C10 1.399(3)
N9 H9 0.85(3)
C10 C15 1.391(3)
C10 C11 1.405(3)
C11 C12 1.390(3)
C11 H11 0.9500
C12 C13 1.391(3)
C12 H12 0.9500
C13 C14 1.385(4)
C13 O16 1.389(3)
C14 C15 1.391(4)
C14 H14 0.9500
C15 H15 0.9500
O16 C16 1.431(3)
C16 H16A 0.9800
C16 H16B 0.9800
C16 H16C 0.9800
C17 C22 1.390(4)
C17 C18 1.393(3)
C18 C19 1.388(4)
C18 H18 0.9500
C19 C20 1.388(4)
C19 H19 0.9500
C20 C21 1.391(4)
C20 C23 1.517(4)
C21 C22 1.393(4)
C21 H21 0.9500
C22 H22 0.9500
C23 H23A 0.9800
C23 H23B 0.9800
C23 H23C 0.9800
C23 H23D 0.9800
C23 H23E 0.9800
C23 H23F 0.9800
loop_
_geom_hbond_atom_site_label_D
_geom_hbond_atom_site_label_H
_geom_hbond_atom_site_label_A
_geom_hbond_distance_DH
_geom_hbond_distance_HA
_geom_hbond_distance_DA
_geom_hbond_angle_DHA
N9 H9 O1 0.85(3) 2.17(3) 2.962(3) 155(3)
loop_
_geom_torsion_atom_site_label_1
_geom_torsion_atom_site_label_2
_geom_torsion_atom_site_label_3
_geom_torsion_atom_site_label_4
_geom_torsion
O2 S1 N1 C2 53.3(5)
O1 S1 N1 C2 -177.5(5)
C17 S1 N1 C2 -61.7(5)
O2 S1 N1 C2' 60(3)
O1 S1 N1 C2' -171(3)
C17 S1 N1 C2' -55(3)
O2 S1 N1 C5 -169.0(2)
O1 S1 N1 C5 -39.7(3)
C17 S1 N1 C5 76.1(3)
O2 S1 N1 C5' -172.5(12)
O1 S1 N1 C5' -43.3(12)
C17 S1 N1 C5' 72.5(12)
C5 N1 C2 C3 -30.1(10)
S1 N1 C2 C3 113.1(6)
N1 C2 C3 C4 39.6(10)
C2 C3 C4 C5 -35.3(7)
C2 N1 C5 C4 8.0(7)
S1 N1 C5 C4 -132.7(2)
C2 N1 C5 C6 -114.4(7)
S1 N1 C5 C6 105.0(3)
C3 C4 C5 N1 17.5(4)
C3 C4 C5 C6 140.3(4)
C5' N1 C2' C3' 7(7)
S1 N1 C2' C3' 135(4)
N1 C2' C3' C4' -20(7)
C2' C3' C4' C5' 24(5)
C2' N1 C5' C6' -113(4)
S1 N1 C5' C6' 116.5(14)
C2' N1 C5' C4' 8(5)
S1 N1 C5' C4' -122.7(19)
C3' C4' C5' C6' 92(3)
C3' C4' C5' N1 -19(3)
N1 C5 C6 N9 -73.2(5)
C4 C5 C6 N9 169.2(4)
N1 C5 C6 C7 46.1(4)
C4 C5 C6 C7 -71.5(4)
N9 C6 C7 C8 -124.2(4)
C5 C6 C7 C8 117.3(4)
N1 C5' C6' N9 -91(3)
C4' C5' C6' N9 154(3)
N1 C5' C6' C7' 78(4)
C4' C5' C6' C7' -37(5)
N9 C6' C7' C8' 50(5)
C5' C6' C7' C8' -117(3)
C7 C6 N9 C10 69.3(5)
C5 C6 N9 C10 -171.1(3)
C5' C6' N9 C10 -163.4(14)
C7' C6' N9 C10 29(6)
C6 N9 C10 C15 -166.9(4)
C6' N9 C10 C15 -166(3)
C6 N9 C10 C11 16.3(5)
C6' N9 C10 C11 18(3)
C15 C10 C11 C12 -1.5(3)
N9 C10 C11 C12 175.3(2)
C10 C11 C12 C13 0.9(4)
C11 C12 C13 C14 -0.1(4)
C11 C12 C13 O16 -179.4(2)
O16 C13 C14 C15 179.3(2)
C12 C13 C14 C15 0.0(4)
N9 C10 C15 C14 -175.5(2)
C11 C10 C15 C14 1.4(4)
C13 C14 C15 C10 -0.7(4)
C14 C13 O16 C16 6.3(3)
C12 C13 O16 C16 -174.4(2)
O2 S1 C17 C22 163.94(19)
O1 S1 C17 C22 33.3(2)
N1 S1 C17 C22 -81.5(2)
O2 S1 C17 C18 -18.5(2)
O1 S1 C17 C18 -149.16(19)
N1 S1 C17 C18 96.1(2)
C22 C17 C18 C19 0.7(4)
S1 C17 C18 C19 -176.83(19)
C17 C18 C19 C20 0.5(4)
C18 C19 C20 C21 -1.2(4)
C18 C19 C20 C23 177.1(3)
C19 C20 C21 C22 0.8(4)
C23 C20 C21 C22 -177.5(3)
C18 C17 C22 C21 -1.1(4)
S1 C17 C22 C21 176.4(2)
C20 C21 C22 C17 0.3(4)
