#------------------------------------------------------------------------------
#$Date: 2017-09-28 15:55:47 +0300 (Thu, 28 Sep 2017) $
#$Revision: 201420 $
#$URL: file:///home/coder/svn-repositories/cod/cif/1/54/74/1547418.cif $
#------------------------------------------------------------------------------
#
# This file is available in the Crystallography Open Database (COD),
# http://www.crystallography.net/
#
# All data on this site have been placed in the public domain by the
# contributors.
#
data_1547418
loop_
_publ_author_name
'Anuradha R. Pallipurath'
'Jonathan M. Skelton'
'Mark R. Warren'
'Naghmeh Kamali'
'Patrick McArdle'
'Andrea Erxleben'
_publ_section_title
;
 Sulfamerazine: Understanding the Influence of Slip Planes in the
 Polymorphic Phase Transformation through X-Ray Crystallographic Studies
 and ab Initio Lattice Dynamics
;
_journal_name_full               'Molecular Pharmaceutics'
_journal_page_first              3735
_journal_page_last               3748
_journal_paper_doi               10.1021/acs.molpharmaceut.5b00504
_journal_volume                  12
_journal_year                    2015
_chemical_absolute_configuration ad
_chemical_formula_moiety         'C11 H12 N4 O2 S'
_chemical_formula_sum            'C11 H12 N4 O2 S'
_chemical_formula_weight         264.31
_chemical_name_common            Sulfamerazine
_chemical_name_systematic        4-amino-N-(4-methylpyrimidin-2-yl)
_space_group_crystal_system      orthorhombic
_space_group_IT_number           33
_space_group_name_Hall           'P 2c -2n'
_space_group_name_H-M_alt        'P n a 21'
_symmetry_space_group_name_Hall  'P 2c -2n'
_symmetry_space_group_name_H-M   'P n a 21'
_atom_sites_solution_hydrogens   mixed
_cell_angle_alpha                90
_cell_angle_beta                 90
_cell_angle_gamma                90
_cell_formula_units_Z            8
_cell_length_a                   14.47340(10)
_cell_length_b                   8.19210(10)
_cell_length_c                   21.8397(3)
_cell_measurement_reflns_used    11724
_cell_measurement_temperature    200
_cell_measurement_theta_max      29.5000
_cell_measurement_theta_min      1.8040
_cell_volume                     2589.48(5)
_computing_cell_refinement
;
CrysAlisPro, Agilent Technologies,
Version 1.171.37.35 (release 13-08-2014 CrysAlis171 .NET)
(compiled Aug 13 2014,18:06:01)
;
_computing_data_collection
;
CrysAlisPro, Agilent Technologies,
Version 1.171.37.35 (release 13-08-2014 CrysAlis171 .NET)
(compiled Aug 13 2014,18:06:01)
;
_computing_data_reduction
;
CrysAlisPro, Agilent Technologies,
Version 1.171.37.35 (release 13-08-2014 CrysAlis171 .NET)
(compiled Aug 13 2014,18:06:01)
;
_computing_molecular_graphics    OSCAIL
_computing_structure_refinement  'SHELXL-2014/7 (Sheldrick, 2014)'
_computing_structure_solution    SHELXT
_diffrn_ambient_temperature      200
_diffrn_measured_fraction_theta_full 0.999
_diffrn_measured_fraction_theta_max 0.998
_diffrn_measurement_device       'CrystalLogic Kappa (3 circle)'
_diffrn_measurement_device_type  'Rigaku Saturn724+ (2x2 bin mode)'
_diffrn_measurement_method
;
omega rotation with 1 degree frames
;
_diffrn_measurement_specimen_support 'MiTeGen loop'
_diffrn_radiation_monochromator  'double crystal Silicon 111'
_diffrn_radiation_source         'Diamond Light Source Beamline I19'
_diffrn_radiation_type           Synchrotron
_diffrn_radiation_wavelength     0.68890
_diffrn_reflns_av_R_equivalents  0.0465
_diffrn_reflns_av_unetI/netI     0.0434
_diffrn_reflns_Laue_measured_fraction_full 0.999
_diffrn_reflns_Laue_measured_fraction_max 0.998
_diffrn_reflns_limit_h_max       20
_diffrn_reflns_limit_h_min       -13
_diffrn_reflns_limit_k_max       11
_diffrn_reflns_limit_k_min       -11
_diffrn_reflns_limit_l_max       27
_diffrn_reflns_limit_l_min       -31
_diffrn_reflns_number            23279
_diffrn_reflns_point_group_measured_fraction_full 0.988
_diffrn_reflns_point_group_measured_fraction_max 0.967
_diffrn_reflns_theta_full        24.415
_diffrn_reflns_theta_max         29.474
_diffrn_reflns_theta_min         1.808
_exptl_absorpt_coefficient_mu    0.250
_exptl_absorpt_correction_T_max  1.00000
_exptl_absorpt_correction_T_min  0.97342
_exptl_absorpt_correction_type   multi-scan
_exptl_absorpt_process_details
;
CrysAlisPro, Agilent Technologies,
Version 1.171.36.28 (release 01-02-2013 CrysAlis171 .NET)
Empirical absorption correction using spherical harmonics,
implemented in SCALE3 ABSPACK scaling algorithm.
;
_exptl_crystal_colour            Colourless
_exptl_crystal_density_diffrn    1.356
_exptl_crystal_description       Parallelepiped
_exptl_crystal_F_000             1104
_exptl_crystal_size_max          0.50
_exptl_crystal_size_mid          0.40
_exptl_crystal_size_min          0.20
_refine_diff_density_max         0.288
_refine_diff_density_min         -0.352
_refine_diff_density_rms         0.050
_refine_ls_abs_structure_details
;
 Flack x determined using 2471 quotients [(I+)-(I-)]/[(I+)+(I-)]
 (Parsons, Flack and Wagner, Acta Cryst. B69 (2013) 249-259).
;
_refine_ls_abs_structure_Flack   -0.06(5)
_refine_ls_extinction_coef       .
_refine_ls_extinction_method     none
_refine_ls_goodness_of_fit_ref   1.032
_refine_ls_hydrogen_treatment    mixed
_refine_ls_matrix_type           full
_refine_ls_number_parameters     344
_refine_ls_number_reflns         7648
_refine_ls_number_restraints     1
_refine_ls_restrained_S_all      1.032
_refine_ls_R_factor_all          0.0570
_refine_ls_R_factor_gt           0.0451
_refine_ls_shift/su_max          0.000
_refine_ls_shift/su_mean         0.000
_refine_ls_structure_factor_coef Fsqd
_refine_ls_weighting_details
'w=1/[\s^2^(Fo^2^)+(0.0541P)^2^+0.3587P] where P=(Fo^2^+2Fc^2^)/3'
_refine_ls_weighting_scheme      calc
_refine_ls_wR_factor_gt          0.1075
_refine_ls_wR_factor_ref         0.1178
_reflns_Friedel_coverage         0.893
_reflns_Friedel_fraction_full    0.976
_reflns_Friedel_fraction_max     0.935
_reflns_number_gt                6328
_reflns_number_total             7648
_reflns_threshold_expression     'I > 2\s(I)'
_cod_data_source_file            Exp_Form-I2FSynchrotron_Form-I_200K.cif
_cod_data_source_block           200k_smz-f1_a
_cod_database_code               1547418
_shelx_space_group_comment
;
The symmetry employed for this shelxl refinement is uniquely defined
by the following loop, which should always be used as a source of
symmetry information in preference to the above space-group names.
They are only intended as comments.
;
_shelx_estimated_absorpt_t_min   0.885
_shelx_estimated_absorpt_t_max   0.952
_shelx_res_file
;
    200k_smz-f1_a.res created by SHELXL-2014/7
TITL 200k_smz-f1_a.res in Pna2(1)
REM Old TITL 012_200K_SulfamerazineF1_ in Pna2(1)
REM SHELXT solution in Pna2(1)
REM R1 0.093,  Rweak 0.022,  Alpha 0.002,  Orientation as input
REM Flack x =  0.009 ( 0.043 ) from Parsons' quotients
REM Formula found by SHELXT:  C25 N5 O4 S2
CELL  0.68890  14.4734   8.1921  21.8397   90.000   90.000   90.000
ZERR    8.000   0.0001   0.0001   0.0003    0.000    0.000    0.000
REM SG 33 4 4 Pna21 PGmm2 Orthorhombic
LATT -1
REM SG  ASUN  1  .5 .5 1.
REM SG  ORGN  on 2(1)
SYMM -X,-Y,0.5+Z
SYMM 0.5+X,0.5-Y,Z
SYMM 0.5-X,0.5+Y,0.5+Z
SFAC C H N O S
UNIT 88.00 96.00 32.00 16.00 8.00
L.S. 10
SIZE    0.50  0.40  0.20
BOND $H
FMAP 2
PLAN 20
ACTA
CONF
EQIV $1 x, y-1, z
HTAB N5 O4_$1
EQIV $2 -x+3/2, y+1/2, z-1/2
HTAB N1 O4_$2
EQIV $3 x, y+1, z
HTAB N1 O1_$3
HTAB N2 N8
HTAB N6 N4
LIST 4
WGHT    0.054100    0.358700
FVAR       0.52243   0.35344
S1    5    0.644784    0.494869    0.343859    11.00000    0.02418    0.02836 =
         0.02598    0.00233   -0.00126   -0.00141
S2    5    0.577939    0.497230    0.653023    11.00000    0.02353    0.02757 =
         0.02469    0.00272   -0.00109   -0.00172
O1    4    0.687999    0.370426    0.308064    11.00000    0.04088    0.02812 =
         0.03537   -0.00434   -0.00040   -0.00260
O2    4    0.547415    0.522273    0.337262    11.00000    0.02530    0.04275 =
         0.03275    0.00564   -0.00459   -0.00382
O3    4    0.675533    0.470009    0.659420    11.00000    0.02326    0.04314 =
         0.03182    0.00692   -0.00362   -0.00309
O4    4    0.535587    0.624560    0.688127    11.00000    0.03808    0.02847 =
         0.03465   -0.00136   -0.00100   -0.00098
N1    3    0.841686    1.117087    0.312270    11.00000    0.03471    0.02847 =
         0.05519   -0.00680    0.01572   -0.00466
N2    3    0.654017    0.447545    0.417203    11.00000    0.02166    0.04075 =
         0.02776    0.00684   -0.00091    0.00108
N3    3    0.813618    0.408745    0.417018    11.00000    0.02442    0.03385 =
         0.03369    0.00339    0.00134    0.00413
N4    3    0.727696    0.430704    0.509547    11.00000    0.03041    0.07017 =
         0.02904    0.00425   -0.00282    0.01230
N5    3    0.380022   -0.120389    0.694921    11.00000    0.04218    0.02943 =
         0.07880   -0.00318    0.01565   -0.00708
AFIX  93
H5A   2    0.407139   -0.211916    0.687923    11.00000   -1.30000
H5B   2    0.323766   -0.119094    0.707589    11.00000   -1.30000
AFIX   0
N6    3    0.568183    0.539697    0.579618    11.00000    0.02235    0.04511 =
         0.02621    0.00911    0.00144    0.00189
N7    3    0.409402    0.587368    0.580414    11.00000    0.02528    0.03702 =
         0.03428    0.00205    0.00101    0.00289
N8    3    0.495351    0.565720    0.487209    11.00000    0.03215    0.06903 =
         0.03017    0.00420   -0.00260    0.01061
C1    1    0.703754    0.677314    0.333678    11.00000    0.02319    0.02665 =
         0.02534    0.00163   -0.00021    0.00081
C2    1    0.793527    0.679140    0.310182    11.00000    0.02395    0.02962 =
         0.02465   -0.00063    0.00057    0.00222
AFIX  43
H2    2    0.822214    0.581843    0.299231    11.00000   -1.30000
AFIX   0
C3    1    0.839424    0.824920    0.303264    11.00000    0.02297    0.03239 =
         0.02239   -0.00193    0.00298    0.00147
AFIX  43
H3    2    0.899498    0.825583    0.288154    11.00000   -1.30000
AFIX   0
C4    1    0.796299    0.973030    0.318841    11.00000    0.02894    0.02791 =
         0.02590   -0.00134   -0.00035   -0.00196
C5    1    0.705517    0.969614    0.342543    11.00000    0.02824    0.02913 =
         0.03382   -0.00367    0.00531    0.00172
AFIX  43
H5    2    0.676238    1.066600    0.353189    11.00000   -1.30000
AFIX   0
C6    1    0.660293    0.823259    0.349924    11.00000    0.02538    0.03340 =
         0.03179    0.00059    0.00780    0.00162
AFIX  43
H6    2    0.600656    0.821472    0.365764    11.00000   -1.30000
AFIX   0
C7    1    0.736344    0.428037    0.448892    11.00000    0.02417    0.03076 =
         0.03031    0.00471    0.00133    0.00180
C8    1    0.806173    0.405842    0.540743    11.00000    0.04418    0.10319 =
         0.03020    0.00004   -0.00644    0.02176
AFIX  43
H8    2    0.803866    0.403449    0.583289    11.00000   -1.30000
AFIX   0
C9    1    0.889665    0.383817    0.512378    11.00000    0.03102    0.09520 =
         0.04264   -0.00415   -0.00926    0.01692
AFIX  43
H9    2    0.943250    0.366368    0.534948    11.00000   -1.30000
AFIX   0
C10   1    0.891676    0.388341    0.449481    11.00000    0.02743    0.04006 =
         0.04564   -0.00197   -0.00095    0.00565
C11   1    0.978360    0.368684    0.413299    11.00000    0.02927    0.06554 =
         0.05968   -0.00443    0.00270    0.00861
AFIX 137
H11A  2    0.983764    0.257547    0.399826    11.00000   -1.30000
H11B  2    1.030518    0.396139    0.438426    11.00000   -1.30000
H11C  2    0.976594    0.439712    0.378356    11.00000   -1.30000
AFIX   0
C12   1    0.518859    0.316411    0.665895    11.00000    0.02393    0.02458 =
         0.02748    0.00131    0.00214    0.00037
C13   1    0.563567    0.168893    0.655482    11.00000    0.02491    0.03037 =
         0.04662   -0.00068    0.00837    0.00248
AFIX  43
H13   2    0.624438    0.168138    0.641847    11.00000   -1.30000
AFIX   0
C14   1    0.517843    0.023762    0.665331    11.00000    0.03335    0.02661 =
         0.05502   -0.00130    0.00507    0.00502
AFIX  43
H14   2    0.548136   -0.074545    0.658224    11.00000   -1.30000
AFIX   0
C15   1    0.426239    0.022728    0.685928    11.00000    0.03293    0.02828 =
         0.03657   -0.00096    0.00354   -0.00163
C16   1    0.381975    0.172687    0.696561    11.00000    0.02629    0.03185 =
         0.02779   -0.00457    0.00307   -0.00212
AFIX  43
H16   2    0.321187    0.174120    0.710352    11.00000   -1.30000
AFIX   0
C17   1    0.428023    0.318058    0.686693    11.00000    0.02601    0.02625 =
         0.02835   -0.00296    0.00152    0.00229
AFIX  43
H17   2    0.398334    0.416863    0.693945    11.00000   -1.30000
AFIX   0
C18   1    0.486537    0.565884    0.548440    11.00000    0.02656    0.03302 =
         0.02859    0.00321   -0.00146    0.00231
C19   1    0.417550    0.596322    0.456637    11.00000    0.04080    0.10748 =
         0.03108    0.00237   -0.00616    0.02132
AFIX  43
H19   2    0.419760    0.598994    0.414091    11.00000   -1.30000
AFIX   0
C20   1    0.334476    0.624035    0.484868    11.00000    0.03560    0.09920 =
         0.04566   -0.00759   -0.01260    0.02659
AFIX  43
H20   2    0.281674    0.648055    0.462337    11.00000   -1.30000
AFIX   0
C21   1    0.331981    0.614971    0.548236    11.00000    0.02766    0.04357 =
         0.04605   -0.00172   -0.00312    0.00735
C22   1    0.245178    0.636118    0.584489    11.00000    0.03018    0.06883 =
         0.06551   -0.00503    0.00404    0.00843
AFIX 137
H22A  2    0.247654    0.737562    0.606434    11.00000   -1.30000
H22B  2    0.239084    0.547606    0.613012    11.00000   -1.30000
H22C  2    0.193062    0.636765    0.557301    11.00000   -1.30000
AFIX   0
H1N1  2    0.891992    1.122697    0.290428    11.00000    0.03846
H2N1  2    0.810682    1.199953    0.317239    11.00000    0.04832
H1N2  2    0.613494    0.484549    0.438491    11.00000    0.04133
H1N6  2    0.621085    0.508617    0.560199    11.00000    0.05768
HKLF 4
REM  200k_smz-f1_a.res in Pna2(1)
REM R1 =  0.0451 for    6328 Fo > 4sig(Fo)  and  0.0570 for all    7648 data
REM    344 parameters refined using      1 restraints
END
WGHT      0.0521      0.3946
REM Highest difference peak  0.288,  deepest hole -0.352,  1-sigma level  0.050
Q1    1   0.5437  0.4000  0.6671  11.00000  0.05    0.29
Q2    1   0.6726  0.6065  0.3303  11.00000  0.05    0.28
Q3    1   0.6800  0.7500  0.3407  11.00000  0.05    0.27
Q4    1   0.5469  0.2533  0.6537  11.00000  0.05    0.25
Q5    1   0.8153  0.7554  0.3190  11.00000  0.05    0.25
Q6    1   0.8206  0.8883  0.3205  11.00000  0.05    0.24
Q7    1   0.4080  0.1010  0.6911  11.00000  0.05    0.24
Q8    1   0.4452  0.6166  0.5683  11.00000  0.05    0.21
Q9    1   0.7556  0.9493  0.3329  11.00000  0.05    0.21
Q10   1   0.4480  0.4905  0.5857  11.00000  0.05    0.21
Q11   1   0.2566  0.6596  0.6281  11.00000  0.05    0.20
Q12   1   0.6943  0.8860  0.3524  11.00000  0.05    0.20
Q13   1   0.4717  0.2942  0.6714  11.00000  0.05    0.19
Q14   1   0.6952  0.4387  0.4301  11.00000  0.05    0.19
Q15   1   0.5721  0.8322  0.3914  11.00000  0.05    0.19
Q16   1   0.7888  0.4923  0.5997  11.00000  0.05    0.19
Q17   1   0.7581  0.7030  0.3365  11.00000  0.05    0.19
Q18   1   0.5301  0.1063  0.6497  11.00000  0.05    0.19
Q19   1   0.3819  0.6490  0.4724  11.00000  0.05    0.19
Q20   1   0.4153  0.5937  0.6176  11.00000  0.05    0.19
;
_shelx_res_checksum              12472
_shelx_hkl_file
;
   0   0 -29   -5.57    4.52
   0   0 -28  432.70   25.55
   0   0 -27    4.45    3.76
   0   0 -26  837.89   34.30
   0   0 -25    1.55    3.03
   0   0 -24    3.83    3.83
   0   0 -23    0.87    1.55
   0   0 -22   72.56    9.44
   0   0 -21   -0.23    2.62
   0   0 -20  837.82   29.92
   0   0 -19    0.37    1.63
   0   0 -18   75.62    8.56
   0   0 -17    0.14    1.44
   0   0 -16  446.74   19.52
   0   0 -15    0.18    1.23
   0   0 -14   51.14    6.38
   0   0 -13    1.86    2.18
   0   0 -12 4286.38   52.74
   0   0 -11   -0.15    1.04
   0   0 -10  351.84   13.74
   0   0  -9    0.52    0.90
   0   0  -7    0.19    0.69
   0   0  -5    1.09    0.95
   0   0  -4 4676.36   31.57
   0   0  -3    0.58    0.35
   0   0  -2  254.71    5.19
   0   0   4 4642.23   24.01
   0   0   5    0.46    0.24
   0   0   7   -0.17    0.45
   0   0   9    1.15    0.85
   0   0  10  380.99   10.95
   0   0  11    0.21    0.61
   0   0  12 4451.29   40.76
   0   0  13    0.51    0.93
   0   0  14   60.10    5.27
   0   0  15   -0.07    1.21
   0   0  16  441.76   15.17
   0   0  17    1.26    0.91
   0   0  18   69.46    6.40
   0   0  19    0.70    1.06
   0  -1 -31   16.65    4.87
   0  -1 -30   -2.53    2.57
   0  -1 -29    5.68    2.95
   0  -1 -28   -2.07    1.87
   0  -1 -27    2.29    1.93
   0   1 -26   -1.02    1.91
   0  -1 -26    0.31    2.05
   0  -1 -25    6.16    4.04
   0   1 -25    1.67    3.63
   0   1 -24    5.00    3.22
   0  -1 -24    1.71    1.52
   0   1 -23    3.81    2.13
   0  -1 -23    1.50    2.34
   0  -1 -22   -0.70    1.64
   0   1 -22   -1.61    2.78
   0  -1 -21  147.80   12.92
   0   1 -21  145.93   12.66
   0  -1 -20    2.13    2.59
   0   1 -20    0.40    1.20
   0   1 -19   39.42    6.21
   0  -1 -19   40.26    6.22
   0  -1 -18    0.12    1.66
   0   1 -18    0.77    2.23
   0  -1 -17   20.87    4.81
   0   1 -17   29.17    5.32
   0   1 -16    1.29    1.48
   0  -1 -16   -0.43    1.53
   0  -1 -15  103.03    9.40
   0   1 -15   90.43    8.32
   0   1 -14    1.73    1.84
   0  -1 -14    0.07    1.41
   0   1 -13  141.32    9.68
   0  -1 -13  160.58   10.99
   0  -1 -12   -0.55    0.80
   0   1 -12   -0.74    1.40
   0  -1 -11   49.22    5.77
   0   1 -11   48.54    5.09
   0  -1 -10   -0.37    0.72
   0   1 -10   -0.29    1.04
   0   1  -9 1944.52   18.39
   0  -1  -9 1965.25   32.41
   0   1  -8    0.52    0.25
   0  -1  -8   -0.48    0.69
   0   1  -8    0.16    0.64
   0   1  -7 1701.51   16.26
   0   1  -7 1698.51   23.44
   0   1  -6    0.69    0.84
   0  -1  -6    0.34    0.72
   0   1  -6    0.11    0.30
   0   1  -5 2932.01   20.08
   0  -1  -5 2901.02   29.38
   0  -1  -5 2864.61   30.76
   0   1  -5 2828.53   25.13
   0  -1  -4   -0.03    0.34
   0   1  -4    0.37    0.49
   0  -1  -4   -0.28    0.37
   0   1  -4    0.07    0.29
   0  -1  -3 1435.32   18.71
   0   1  -3 1461.91   14.34
   0  -1  -2    0.21    0.27
   0  -1  -2    0.41    0.46
   0   1  -2    0.30    0.36
   0   1  -1  455.70    8.41
   0  -1  -1  469.27    9.25
   0  -1   0    0.18    0.46
   0   1   0    0.36    0.44
   0   1   1  465.84    8.99
   0  -1   1  485.12    7.89
   0  -1   2    0.16    0.17
   0   1   2   -0.03    0.38
   0  -1   5 2872.95   17.43
   0  -1   6    0.06    0.31
   0  -1   7 1734.82   15.28
   0   1   8    0.27    0.74
   0  -1   8    0.13    0.38
   0   1   9 1909.74   28.21
   0  -1   9 1928.06   18.85
   0   1  10    0.78    0.67
   0  -1  10   -0.06    0.37
   0  -1  11   50.17    3.43
   0   1  11   53.92    5.15
   0   1  12    0.50    0.69
   0  -1  12    0.40    0.62
   0  -1  13  157.13    6.82
   0   1  13  158.07    9.33
   0   1  14    1.22    1.67
   0  -1  14   -0.92    0.86
   0  -1  15   94.38    5.83
   0   1  15   97.90    7.86
   0   1  16   -0.14    0.71
   0  -1  16    0.06    0.62
   0   1  16    0.48    0.97
   0   1  17   25.20    3.49
   0  -1  17   22.86    3.12
   0   1  17   29.67    4.42
   0   1  18   -0.48    1.77
   0   1  18    0.58    0.72
   0   1  19   32.25    5.23
   0   1  20    0.55    1.01
   0  -2 -30  127.46   14.58
   0  -2 -29    0.34    3.57
   0  -2 -28   38.27    7.44
   0  -2 -27   -1.06    1.74
   0  -2 -26  187.51   16.37
   0  -2 -25   -3.10    3.56
   0  -2 -24   23.34    5.60
   0  -2 -23   -1.10    3.37
   0  -2 -22  145.18   13.42
   0  -2 -21   -0.87    1.76
   0  -2 -20  174.93   14.18
   0   2 -19   -0.50    1.09
   0  -2 -19    0.47    1.75
   0   2 -18  136.71   11.24
   0  -2 -18  124.79   11.16
   0  -2 -17   -0.59    1.89
   0   2 -17   -0.51    2.11
   0   2 -16 1040.68   28.53
   0  -2 -16  986.40   30.46
   0   2 -15    0.67    1.15
   0  -2 -15   -1.80    0.93
   0   2 -14  318.43    9.65
   0   2 -14  324.93   15.11
   0  -2 -14  313.16   16.24
   0   2 -13    0.99    0.84
   0  -2 -13    0.62    1.00
   0   2 -13    0.19    1.15
   0   2 -12 2108.61   34.28
   0   2 -12 2142.11   24.62
   0   2 -11   -0.60    0.60
   0   2 -11    0.00    0.59
   0  -2 -11   -0.18    1.50
   0  -2 -10 2423.83   40.12
   0   2 -10 2436.81   26.67
   0  -2  -9    1.27    1.12
   0   2  -9    0.03    0.52
   0  -2  -8  130.04    8.40
   0   2  -8  163.01    6.77
   0   2  -7    1.83    0.71
   0  -2  -7   -0.17    0.88
   0  -2  -7    1.09    1.39
   0  -2  -6 1865.58   29.65
   0  -2  -6 1925.98   29.61
   0   2  -6 1922.26   23.27
   0  -2  -5    0.46    1.04
   0   2  -5    1.64    0.98
   0  -2  -5   -0.31    1.21
   0  -2  -4 1803.86   27.36
   0   2  -4 1768.70   22.82
   0  -2  -3    0.56    0.74
   0   2  -3    0.70    0.64
   0  -2  -3    0.30    0.56
   0  -2  -2  675.05   13.28
   0  -2  -2  709.77   15.98
   0   2  -2  668.41   14.44
   0  -2  -1   -0.44    0.60
   0   2  -1    0.82    0.48
   0  -2  -1    0.72    0.69
   0  -2   1    1.28    0.61
   0  -2   1   -0.23    0.38
   0   2   1    0.56    0.61
   0  -2   2  700.24    9.18
   0   2   2  711.22   15.63
   0   2   3    0.21    0.86
   0  -2   3    1.31    0.88
   0  -2   4 1823.30   20.12
   0   2   4 1762.12   25.56
   0  -2   5    0.09    0.45
   0   2   5    0.24    0.55
   0  -2   6 1911.29   19.49
   0   2   7    0.54    1.31
   0  -2   7    0.40    0.56
   0   2   8  177.90    8.97
   0  -2   8  179.54    5.73
   0  -2   9   -0.17    0.48
   0   2   9   -0.11    1.19
   0  -2  11    0.23    0.63
   0   2  11    0.76    1.16
   0   2  11    0.44    0.92
   0   2  12 2076.05   37.01
   0   2  12 2050.68   32.81
   0   2  13   -0.60    1.30
   0   2  13    2.32    2.06
   0  -2  13    0.15    0.38
   0  -2  14  312.96    8.56
   0   2  14  335.50   15.60
   0   2  15    0.87    0.77
   0  -2  15    0.87    0.83
   0   2  15    0.34    0.74
   0   2  16  954.84   24.60
   0   2  16 1011.74   28.32
   0   2  17   -1.08    0.92
   0   2  17   -0.40    1.14
   0   2  18  132.49    9.44
   0   2  18  119.41   10.19
   0   2  19   -0.15    1.76
   0   2  19   -0.94    1.57
   0   2  20  147.07   11.87
   0   2  21    0.68    1.78
   0   2  22  147.43   12.60
   0  -3 -30   -0.31    2.53
   0  -3 -29    0.90    2.95
   0  -3 -28    0.24    3.02
   0  -3 -27   22.84    5.53
   0  -3 -26   -1.18    2.89
   0  -3 -25    5.15    3.29
   0  -3 -24   -1.05    2.72
   0  -3 -23    2.61    3.97
   0  -3 -22    6.00    2.41
   0  -3 -21   98.58   10.93
   0  -3 -20   -0.93    2.66
   0  -3 -19  180.91   14.20
   0  -3 -18   -0.50    2.52
   0  -3 -17   61.26    7.79
   0  -3 -16   -0.72    2.14
   0  -3 -15  133.86   11.21
   0   3 -14    0.15    0.98
   0  -3 -14   -1.52    1.31
   0   3 -13  179.55    8.91
   0  -3 -13  218.95   13.69
   0   3 -12   -0.03    0.74
   0  -3 -12    1.64    1.57
   0   3 -11  170.58    8.54
   0  -3 -11  189.19   12.02
   0  -3 -10    0.44    1.42
   0   3 -10    0.21    1.05
   0   3  -9 3237.97   37.96
   0  -3  -9 3155.52   47.25
   0  -3  -8    1.02    1.25
   0  -3  -8    0.60    0.82
   0   3  -8    0.47    0.98
   0  -3  -7   28.01    4.07
   0  -3  -7   29.90    4.31
   0   3  -7   22.31    3.18
   0  -3  -6    1.12    1.55
   0   3  -6    0.68    0.81
   0  -3  -6    0.54    1.46
   0   3  -5  605.43   16.45
   0  -3  -5  604.39   17.15
   0  -3  -5  581.93   19.08
   0  -3  -4    0.81    1.01
   0  -3  -4    0.05    0.92
   0   3  -4    0.41    1.24
   0   3  -3  878.04   20.29
   0  -3  -3  899.64   21.91
   0  -3  -2    0.86    0.64
   0  -3  -2   -0.19    0.71
   0   3  -2    1.35    1.12
   0   3  -1 1804.98   29.66
   0  -3  -1 1751.75   29.32
   0  -3   0   -0.25    0.62
   0  -3   0    0.17    0.48
   0  -3   1 1898.00   29.19
   0   3   1 1877.48   30.38
   0  -3   2   -0.34    0.89
   0   3   2    0.62    0.74
   0  -3   3  905.85   12.72
   0   3   3  895.28   21.01
   0   3   4   -0.12    0.74
   0  -3   4   -0.08    0.83
   0  -3   4    0.09    0.30
   0  -3   5  612.26   14.92
   0   3   5  615.53   18.20
   0   3   6    2.11    1.63
   0  -3   6    0.84    0.49
   0   3   7   27.54    3.94
   0  -3   7   34.81    3.23
   0   3   8    1.69    1.34
   0  -3   8    0.03    0.41
   0  -3   9 3276.33   30.89
   0   3   9 3189.92   44.09
   0  -3  10   -0.58    0.68
   0   3  10    0.38    1.51
   0  -3  11  161.09    6.51
   0   3  11  152.52    9.99
   0   3  12    0.60    1.40
   0  -3  12   -0.31    0.71
   0   3  13  161.26   10.56
   0  -3  13  169.80    6.37
   0   3  14    1.49    1.80
   0  -3  14    0.41    0.52
   0   3  14   -0.73    1.91
   0   3  15  127.38    9.88
   0   3  15  100.16    9.73
   0   3  16    1.17    0.88
   0   3  16    0.53    1.05
   0   3  17   77.66    8.79
   0   3  17   61.46    7.14
   0   3  18   -0.54    1.35
   0   3  18    0.37    1.45
   0   3  19  194.02   14.20
   0   3  19  174.66   12.41
   0   3  20   -1.08    2.09
   0   3  21  119.10   12.22
   0   3  22   -3.65    2.92
   0   3  23    0.38    1.91
   0  -4 -29   -5.79    4.24
   0  -4 -28    9.98    4.86
   0  -4 -27    0.26    1.57
   0  -4 -26   84.53   11.29
   0  -4 -25    4.58    3.72
   0  -4 -24   -0.92    1.74
   0  -4 -23    2.71    3.07
   0  -4 -22  423.28   23.63
   0  -4 -21   -0.50    1.52
   0  -4 -20   48.74    7.70
   0  -4 -19    4.91    3.55
   0  -4 -18  277.21   17.89
   0  -4 -17    0.63    2.15
   0  -4 -16  979.57   32.31
   0  -4 -15    0.13    1.37
   0   4 -14  186.23   10.92
   0  -4 -14  199.19   13.97
   0  -4 -13    1.08    1.18
   0   4 -13    1.48    1.23
   0  -4 -12 1112.21   31.48
   0   4 -12  923.36   23.98
   0  -4 -11    1.45    1.58
   0   4 -11    2.65    1.69
   0  -4 -10 2431.27   46.05
   0   4 -10 2369.68   37.81
   0   4  -9    0.79    1.34
   0  -4  -9    0.07    1.54
   0  -4  -8  617.07   22.40
   0  -4  -8  651.11   21.48
   0   4  -8  622.06   19.71
   0   4  -7   -0.39    1.21
   0  -4  -7   -0.41    1.87
   0  -4  -7    0.46    1.22
   0  -4  -6 1217.81   30.06
   0   4  -6 1263.51   27.77
   0  -4  -6 1240.94   27.55
   0   4  -5    0.12    1.04
   0  -4  -5    2.04    1.54
   0  -4  -5    1.09    2.26
   0   4  -4 2265.50   37.68
   0  -4  -4 2264.93   40.26
   0  -4  -3    1.08    1.42
   0   4  -3   -0.79    1.47
   0  -4  -3    0.67    1.34
   0  -4  -2  770.28   18.14
   0  -4  -2  747.81   22.20
   0  -4  -1    0.21    0.65
   0  -4  -1   -0.73    0.79
   0   4  -1    0.07    1.41
   0  -4   0  367.32   15.03
   0   4   0  380.83   15.57
   0  -4   0  382.36   11.30
   0  -4   1    1.99    1.39
   0   4   1    0.32    1.12
   0  -4   1   -0.13    0.78
   0   4   2  685.42   21.24
   0  -4   2  701.69   20.19
   0  -4   2  696.19   13.34
   0   4   3    0.77    0.71
   0  -4   3    1.74    0.73
   0  -4   3    0.46    1.42
   0  -4   4 2301.82   35.50
   0  -4   4 2264.57   22.50
   0  -4   5    1.08    1.00
   0  -4   5   -0.35    0.89
   0   4   5    0.89    1.30
   0  -4   6 1286.76   17.73
   0   4   6 1249.54   29.33
   0  -4   6 1267.28   25.56
   0  -4   7    0.16    0.89
   0   4   7    0.56    0.80
   0  -4   7    0.76    0.61
   0  -4   8  664.17   17.77
   0   4   8  677.60   22.19
   0   4   9    3.11    2.47
   0  -4   9   -0.65    0.95
   0  -4  10 2452.33   33.13
   0   4  10 2445.62   43.63
   0   4  11    1.18    1.19
   0  -4  11    0.13    0.86
   0  -4  12  936.73   19.48
   0   4  12 1013.06   28.48
   0   4  13    1.77    2.39
   0  -4  13    0.26    0.79
   0   4  14  192.50   13.97
   0   4  14  197.94   13.09
   0   4  15   -0.37    0.99
   0   4  15   -1.49    2.36
   0   4  16 1092.45   33.90
   0   4  16 1014.64   30.49
   0   4  17   -0.60    1.33
   0   4  17   -1.92    1.53
   0   4  18  308.31   18.71
   0   4  18  254.86   16.18
   0   4  19    0.40    2.59
   0   4  19    5.09    3.20
   0   4  20   47.16    7.11
   0   4  20   44.67    7.77
   0   4  21   -1.13    1.68
   0   4  22  384.20   22.41
   0   4  23    1.44    3.63
   0   4  24    3.06    2.50
   0  -5 -28    1.10    1.93
   0  -5 -27   -1.64    1.98
   0  -5 -26   -5.25    3.69
   0  -5 -25   10.18    5.62
   0  -5 -24   -3.00    2.53
   0  -5 -23   34.38    6.61
   0  -5 -22    0.44    2.14
   0  -5 -21    4.34    3.57
   0  -5 -20    0.83    2.05
   0  -5 -19    4.77    2.69
   0  -5 -18   -0.45    2.24
   0  -5 -17    5.13    3.18
   0  -5 -16    0.01    1.41
   0  -5 -15   18.53    5.05
   0  -5 -14    0.02    2.21
   0  -5 -13   62.03    8.39
   0   5 -13   61.22    6.97
   0   5 -12   -1.47    1.99
   0  -5 -12   -0.74    1.57
   0  -5 -11   26.44    4.90
   0   5 -11   29.09    4.94
   0  -5 -10    0.12    1.76
   0  -5 -10   -0.62    1.74
   0   5 -10    0.80    1.60
   0  -5  -9    3.10    2.55
   0  -5  -9    0.10    1.59
   0   5  -9    0.78    1.24
   0  -5  -8   -1.44    1.21
   0  -5  -8   -0.31    1.26
   0   5  -8    0.08    0.84
   0  -5  -7  148.00   11.55
   0  -5  -7  163.27   11.20
   0   5  -7  166.02   11.26
   0  -5  -6    0.30    0.98
   0   5  -6    2.62    2.24
   0  -5  -6    0.75    1.23
   0  -5  -5  169.72   10.75
   0   5  -5  156.18   10.95
   0  -5  -5  152.37   11.58
   0   5  -4    4.06    2.40
   0  -5  -4   -0.53    1.48
   0  -5  -4   -0.43    2.14
   0   5  -3  233.61   13.43
   0  -5  -3  211.84   13.22
   0  -5  -2    1.03    1.52
   0   5  -2   -0.01    0.84
   0  -5  -2   -0.75    0.74
   0  -5  -1   56.18    6.95
   0   5  -1   61.32    6.98
   0  -5  -1   54.07    5.10
   0   5   0    0.92    1.37
   0  -5   0    0.01    0.56
   0  -5   0    0.37    1.20
   0  -5   1   55.18    6.39
   0   5   1   57.53    6.83
   0  -5   1   70.18    5.20
   0   5   2   -0.15    1.17
   0  -5   2    0.76    0.74
   0  -5   2    1.15    0.75
   0  -5   3  220.68    8.22
   0   5   3  211.55   13.16
   0   5   4    0.26    1.96
   0  -5   4    0.97    1.76
   0  -5   4   -0.66    0.61
   0   5   5  183.03   12.51
   0  -5   5  154.37   10.24
   0  -5   5  170.80    6.51
   0   5   6    1.03    1.59
   0  -5   6    1.41    1.81
   0  -5   6    0.74    0.67
   0  -5   7  158.43   10.19
   0   5   7  135.14   10.99
   0  -5   7  146.40    6.23
   0  -5   8    0.13    1.00
   0   5   8    1.48    1.78
   0  -5   8   -0.82    0.85
   0  -5   9    1.07    0.86
   0  -5   9    1.33    1.64
   0  -5  10    1.88    1.26
   0  -5  10   -0.31    0.85
   0   5  10   -1.75    2.67
   0   5  11   35.00    6.30
   0  -5  11   27.64    4.00
   0   5  12   -1.59    2.82
   0  -5  12    1.27    1.12
   0   5  14    1.91    2.97
   0   5  15   17.77    4.96
   0   5  15   21.33    4.28
   0   5  16    0.24    2.27
   0   5  16    2.72    2.34
   0   5  17    5.50    2.75
   0   5  17   12.22    5.08
   0   5  18   -2.45    2.17
   0   5  18   -1.12    1.60
   0   5  19    5.45    3.46
   0   5  19   10.06    3.84
   0   5  20   -2.07    3.72
   0   5  20    0.88    2.55
   0   5  21    7.04    4.22
   0   5  22    1.43    2.83
   0   5  23   30.92    6.33
   0   5  24   -4.68    3.13
   0   5  25    1.88    2.08
   0  -6 -26  145.70   14.77
   0  -6 -25    1.88    4.05
   0  -6 -24   50.03    9.03
   0  -6 -23    1.15    2.69
   0  -6 -22  306.98   20.57
   0  -6 -21    4.41    4.95
   0  -6 -20  107.27   12.14
   0  -6 -19    1.45    2.98
   0  -6 -18    4.07    2.24
   0  -6 -17    1.94    2.16
   0  -6 -16  282.82   18.33
   0  -6 -15    1.10    1.46
   0  -6 -14    9.91    3.91
   0   6 -13    2.07    1.27
   0  -6 -13    0.37    1.40
   0  -6 -12  356.93   19.39
   0   6 -12  370.74   18.74
   0   6 -11   -0.83    2.18
   0  -6 -11   -1.10    1.40
   0  -6 -10  436.26   20.54
   0  -6 -10  450.35   22.55
   0   6 -10  433.41   20.41
   0  -6  -9    0.22    1.53
   0  -6  -9    0.34    1.69
   0   6  -9    2.06    2.16
   0  -6  -8   61.88    7.37
   0  -6  -8   43.96    6.69
   0   6  -8   58.91    7.61
   0   6  -7    4.83    2.45
   0  -6  -7   -1.44    1.21
   0  -6  -7    1.03    2.38
   0  -6  -6 2422.39   43.83
   0  -6  -6 2465.77   49.86
   0   6  -6 2466.17   47.69
   0  -6  -5    1.92    3.21
   0  -6  -5    3.02    3.41
   0   6  -5    0.16    2.95
   0  -6  -4 1090.21   32.94
   0   6  -4 1084.58   32.23
   0  -6  -4 1046.25   27.41
   0   6  -3    0.10    3.16
   0  -6  -3    0.08    1.34
   0  -6  -3    2.33    3.10
   0   6  -2 1992.68   43.40
   0  -6  -2 1908.71   34.21
   0  -6  -2 1927.52   42.78
   0  -6  -1   -0.49    0.93
   0   6  -1    3.39    2.72
   0  -6  -1    0.76    2.56
   0  -6   0 1295.11   34.52
   0  -6   0 1233.11   25.76
   0  -6   1    2.38    1.70
   0   6   1    0.59    1.39
   0  -6   2 1975.79   28.52
   0   6   2 2038.20   44.06
   0  -6   3    1.08    1.37
   0  -6   3   -0.05    0.89
   0   6   3    3.42    2.68
   0  -6   4 1031.34   18.64
   0  -6   4 1073.53   30.58
   0   6   4 1110.82   33.19
   0   6   5    2.01    2.79
   0  -6   5   -0.06    0.78
   0  -6   5    5.07    3.18
   0  -6   6 2696.01   47.33
   0   6   6 2669.90   51.60
   0  -6   7   -1.53    1.72
   0   6   7    2.85    3.00
   0  -6   8   46.33    6.36
   0   6   8   59.62    8.33
   0   6   9   -0.07    2.10
   0  -6   9    1.39    1.58
   0   6  10  436.71   21.43
   0  -6  10  410.63   17.96
   0   6  11    6.99    3.69
   0  -6  11    2.30    2.44
   0   6  12  372.42   20.18
   0   6  13    2.64    2.87
   0   6  14   13.46    4.63
   0   6  15    4.15    3.19
   0   6  15    1.52    3.06
   0   6  16  326.37   20.46
   0   6  16  247.12   17.76
   0   6  17   -1.60    3.35
   0   6  17    1.50    2.59
   0   6  18    4.91    2.86
   0   6  18    4.48    1.79
   0   6  19    0.45    2.63
   0   6  19    3.64    3.12
   0   6  20  117.92   12.95
   0   6  20  122.67   12.99
   0   6  21   -1.53    3.71
   0   6  21   -2.59    3.34
   0   6  22  272.21   20.55
   0   6  23    3.45    3.00
   0   6  24   53.65    9.51
   0   6  25    7.39    5.16
   0   6  26  126.05   14.74
   0  -7 -24   -1.29    1.87
   0  -7 -23    9.67    5.24
   0  -7 -22   -0.53    3.62
   0  -7 -21   23.92    6.01
   0  -7 -20   -0.09    1.99
   0  -7 -19   24.26    5.96
   0  -7 -18   -0.87    2.84
   0  -7 -17    8.84    3.91
   0  -7 -16    2.03    1.79
   0  -7 -15   44.21    7.67
   0  -7 -14    1.08    2.63
   0  -7 -13   46.48    7.60
   0   7 -12    1.02    1.54
   0  -7 -12    3.60    2.89
   0   7 -11   23.60    4.86
   0  -7 -11   17.48    4.41
   0  -7 -10    0.56    1.55
   0   7 -10    0.97    2.35
   0  -7  -9  216.94   16.23
   0   7  -9  223.18   15.64
   0  -7  -9  243.75   15.72
   0  -7  -8    2.79    1.34
   0  -7  -8    0.60    1.88
   0   7  -8    0.18    1.81
   0  -7  -7  900.65   29.13
   0  -7  -7  901.43   32.98
   0   7  -7  899.95   31.41
   0   7  -6   -0.07    2.06
   0  -7  -6    0.91    2.91
   0  -7  -6    0.60    2.37
   0  -7  -5  475.45   23.48
   0   7  -5  507.40   23.54
   0  -7  -5  558.54   21.85
   0  -7  -4   -1.90    2.21
   0  -7  -4    1.17    1.95
   0   7  -4    0.48    1.38
   0  -7  -3   65.46    8.52
   0   7  -3   62.93    8.60
   0  -7  -3   55.13    6.63
   0   7  -2   -4.19    3.55
   0  -7  -2    1.35    1.96
   0  -7  -2    2.66    2.56
   0   7  -1 1679.32   43.04
   0  -7  -1 1615.93   41.97
   0  -7  -1 1731.27   34.35
   0  -7   0    7.84    4.26
   0   7   0   -0.57    1.66
   0  -7   0    5.09    2.36
   0   7   1 1666.58   42.82
   0  -7   1 1690.55   42.04
   0  -7   2   -0.21    2.62
   0   7   2    0.36    1.24
   0  -7   3   44.68    6.84
   0   7   3   54.14    8.32
   0  -7   4   -0.72    2.18
   0   7   4   -0.93    1.52
   0  -7   5  465.81   21.51
   0   7   5  490.32   23.51
   0  -7   6   -1.05    1.63
   0   7   6    4.20    2.57
   0   7   7  882.76   31.99
   0  -7   7  926.03   30.74
   0  -7   8    1.48    2.49
   0   7   8    3.26    2.64
   0   7   9  187.70   15.04
   0  -7   9  225.67   14.93
   0   7  10    1.69    3.15
   0  -7  10   -2.18    1.46
   0   7  11   17.98    4.96
   0   7  12    3.01    3.58
   0   7  13   52.07    8.38
   0   7  14    1.54    2.30
   0   7  15   58.67    9.67
   0   7  15   40.74    7.59
   0   7  16   -2.29    1.75
   0   7  16    0.51    2.30
   0   7  17    7.65    4.47
   0   7  17    7.13    4.35
   0   7  18    1.37    2.48
   0   7  18   -1.32    3.17
   0   7  19   21.59    5.75
   0   7  19   40.75    8.03
   0   7  20    1.05    3.23
   0   7  20    4.88    1.90
   0   7  21   18.67    5.60
   0   7  21   15.92    4.38
   0   7  22    0.95    2.83
   0   7  23    4.25    3.77
   0   7  24    4.41    5.32
   0   7  25   13.93    5.63
   0  -8 -22   37.97    7.09
   0  -8 -21   -1.40    4.10
   0  -8 -20   38.67    8.46
   0  -8 -19    3.63    3.31
   0  -8 -18    2.61    3.07
   0  -8 -17   -2.69    3.65
   0  -8 -16   63.84    9.41
   0  -8 -15   -2.35    2.42
   0  -8 -14    9.61    4.09
   0  -8 -13   -0.52    2.42
   0  -8 -12   18.09    5.07
   0   8 -12   35.69    7.32
   0   8 -11    2.78    3.23
   0  -8 -11   -0.53    2.06
   0   8 -10  101.01   11.43
   0  -8 -10   65.71    8.66
   0   8  -9    0.29    3.02
   0  -8  -9   -1.21    1.73
   0  -8  -8    2.31    2.13
   0   8  -8    0.20    1.55
   0  -8  -8    3.42    2.82
   0  -8  -7   -0.31    1.74
   0   8  -7    4.93    3.57
   0  -8  -7   -0.84    3.00
   0  -8  -6  224.43   15.21
   0   8  -6  193.97   15.74
   0  -8  -6  184.44   15.36
   0  -8  -5    2.02    3.18
   0   8  -5    3.18    2.81
   0  -8  -5    1.37    1.75
   0  -8  -4   68.32    9.42
   0   8  -4   89.08   10.51
   0  -8  -4   89.23    9.26
   0   8  -3   -1.89    2.38
   0  -8  -3   -0.74    1.40
   0  -8  -2   76.28   10.05
   0   8  -2   82.91   10.31
   0  -8  -1    1.55    2.34
   0   8  -1    1.31    1.66
   0   8   0  191.76   15.36
   0  -8   0  183.90   14.81
   0  -8   1    2.22    1.52
   0   8   1    1.63    2.75
   0  -8   2  110.71   11.33
   0   8   2  101.04   11.27
   0   8   3   -1.56    2.59
   0  -8   3   -0.19    1.43
   0  -8   4   85.19    9.95
   0   8   4   98.99   11.51
   0   8   5    2.09    1.85
   0  -8   5   -3.25    3.10
   0  -8   6  165.25   13.92
   0   8   6  176.46   14.94
   0  -8   7   -2.25    2.71
   0   8   7    3.01    2.56
   0  -8   8    3.85    1.96
   0   8   8    1.69    2.64
   0   8   9    1.07    1.95
   0  -8   9    1.86    2.04
   0   8  10  101.29   11.80
   0   8  11   -0.28    2.88
   0   8  12   24.13    5.50
   0   8  13    0.17    2.23
   0   8  14    5.09    1.84
   0   8  14    8.96    4.50
   0   8  15   -2.50    2.67
   0   8  15   -0.05    1.96
   0   8  16   68.69   10.42
   0   8  16   89.03   11.62
   0   8  17    0.14    4.21
   0   8  17    2.86    2.34
   0   8  18    7.96    4.61
   0   8  18    4.23    3.51
   0   8  19   -4.45    4.30
   0   8  19    0.80    3.65
   0   8  20   57.40   10.07
   0   8  20   51.74    9.07
   0   8  21    0.61    2.86
   0   8  21   -2.59    4.66
   0   8  22   42.00    8.72
   0  -9 -19    9.24    3.38
   0  -9 -18    1.09    2.88
   0  -9 -17   27.32    7.11
   0  -9 -16    1.89    2.49
   0  -9 -15    4.78    3.41
   0  -9 -14    0.33    2.03
   0  -9 -13    4.14    4.43
   0  -9 -12   -1.67    2.68
   0   9 -11   42.25    7.40
   0  -9 -11   40.45    7.85
   0  -9 -10   -1.35    2.96
   0   9 -10    2.32    1.85
   0   9  -9   34.87    7.12
   0   9  -8   -0.61    1.63
   0   9  -7   22.13    5.72
   0   9  -6   -0.26    1.90
   0  -9  -5    0.37    3.83
   0   9  -5    4.04    3.27
   0  -9  -4   -4.70    4.43
   0   9  -4   -0.05    1.98
   0  -9  -3   38.61    7.60
   0   9  -3   28.59    6.18
   0   9  -2    0.13    2.85
   0  -9  -2    1.31    2.11
   0   9  -1   12.30    5.09
   0  -9  -1    6.62    4.26
   0  -9   0   -1.41    2.37
   0   9   0   -1.31    2.03
   0   9   1    8.77    4.12
   0  -9   1   13.93    4.66
   0  -9   2    3.74    3.46
   0   9   2   -0.31    3.21
   0  -9   3   44.50    7.75
   0   9   3   26.49    5.58
   0  -9   4   -2.64    3.12
   0   9   4    0.26    2.78
   0  -9   5    1.95    1.96
   0   9   5    0.07    2.06
   0   9   6   -1.07    3.41
   0  -9   6   -0.79    1.91
   0   9   7   27.27    5.96
   0  -9   7    7.15    2.45
   0  -9   8   -0.27    1.97
   0   9   8    0.98    2.96
   0   9   9   30.76    6.65
   0   9  10    1.31    1.73
   0   9  11   47.24    8.32
   0   9  12   -0.79    2.91
   0   9  13    0.49    2.31
   0   9  13    3.87    2.87
   0   9  14   -0.61    2.80
   0   9  14   -2.59    3.68
   0   9  15   11.13    5.69
   0   9  15    3.06    3.79
   0   9  16    1.18    3.01
   0   9  16   -1.28    2.21
   0   9  17   34.87    8.21
   0   9  17   31.35    7.86
   0   9  18   12.86    5.46
   0   9  18    4.26    4.43
   0   9  19    7.99    4.48
   0   9  19    4.62    3.82
   0  10 -10   76.20   10.67
   0  10  -9    6.06    4.49
   0  10  -8    3.51    1.87
   0  10  -7   -1.30    2.12
   0  10  -6  138.38   14.86
   0  10  -5    1.18    2.28
   0  10  -4   67.48   10.34
   0  10  -3    2.54    4.29
   0  10  -2   35.62    7.17
   0 -10  -1    2.62    3.12
   0  10  -1   -0.21    2.88
   0  10   0  152.91   15.35
   0 -10   0  178.71   16.53
   0 -10   1    2.87    3.60
   0  10   1    0.42    2.50
   0 -10   2   31.55    6.90
   0  10   2   37.51    8.08
   0  10   3    0.83    3.30
   0 -10   3   -0.81    2.84
   0 -10   4   53.43    9.16
   0  10   4   52.30    9.04
   0 -10   5   -1.10    2.08
   0  10   5    4.16    4.30
   0 -10   6  132.70   14.53
   0  10   6  142.29   14.41
   0  10   7    4.44    4.48
   0  10   8    3.91    3.03
   0  10   9    0.19    2.02
   0  10  10   73.94   10.82
   0  10  11   -0.34    1.91
   0  10  11    3.61    3.76
   0  10  12   28.58    6.37
   0  10  12   45.03    8.70
   0  10  13   -1.75    2.63
   0  10  13   -2.63    3.55
   0  10  14   14.97    6.63
   0  10  14   14.60    5.30
   0  10  15   -1.68    3.43
   0  10  15    0.36    3.59
   0  10  16   34.72    8.05
   0  10  16   30.15    7.67
   0  11  -9    8.77    2.84
   0  11  -8   -3.41    3.21
   0  11  -7   -6.55    4.43
   0  11  -6   -4.19    4.42
   0  11  -5    2.46    3.68
   0  11  -4   -0.40    1.88
   0  11  -3   13.35    5.41
   0  11  -2    3.34    2.33
   0  11  -1    4.29    3.54
   0  11   0    4.02    2.96
   0  11   1    0.07    4.31
   0  11   2    1.56    2.12
   0  11   3   13.48    5.61
   0  11   4    1.83    3.24
   0  11   5    8.07    5.08
   0  11   6   -0.39    1.55
   0  11   7    2.34    2.00
   0  11   8    3.81    3.89
   0  11   8    1.54    3.94
   0  11   9   10.77    5.52
   0  11   9   12.23    4.33
   0  11  10   -2.75    3.35
   0  11  10   -1.61    2.22
   1   0 -31   -0.15    3.07
   1   0 -30    0.47    2.75
   1   0 -29    4.18    1.83
   1   0 -28    0.28    2.33
   1   0 -27   -1.13    1.59
   1   0 -26    1.39    2.74
  -1   0 -26    2.16    1.99
  -1   0 -25   -1.58    2.14
   1   0 -25    0.96    2.76
  -1   0 -24   -0.09    3.17
   1   0 -24   -0.68    1.54
  -1   0 -23    5.93    4.33
   1   0 -23    0.27    2.50
   1   0 -22    0.49    1.36
  -1   0 -22    0.04    1.85
  -1   0 -21   -0.79    2.04
   1   0 -21    0.06    1.30
   1   0 -20   -0.46    1.70
  -1   0 -20   -0.19    2.51
  -1   0 -19   -1.86    2.66
   1   0 -19    1.44    2.02
  -1   0 -18    1.83    2.11
   1   0 -18   -2.02    1.69
   1   0 -17   -0.24    1.21
  -1   0 -17    0.48    1.82
  -1   0 -16   -1.19    1.03
   1   0 -16   -0.35    1.47
  -1   0 -15    0.24    0.83
   1   0 -15    0.68    0.93
   1   0 -14    0.64    1.87
  -1   0 -14    0.49    1.54
  -1   0 -13    2.02    1.44
   1   0 -13    1.16    0.82
  -1   0 -12   -0.20    1.09
   1   0 -12   -0.65    1.17
   1   0 -11    0.27    1.06
  -1   0 -11    0.59    1.31
  -1   0 -10   -0.93    0.87
   1   0 -10   -0.46    1.11
  -1   0  -9    0.53    0.59
   1   0  -9    0.68    0.99
   1   0  -8    0.14    0.61
  -1   0  -8    0.52    0.57
   1   0  -7    1.01    0.96
  -1   0  -7    0.56    1.18
   1   0  -6    0.04    0.25
   1   0  -6   -0.27    0.57
  -1   0  -6    0.15    0.88
  -1   0  -5    0.40    0.46
   1   0  -5    0.30    0.32
   1   0  -5   -0.74    0.51
  -1   0  -4    0.30    0.61
   1   0  -4    0.38    0.46
   1   0  -4    0.79    0.35
   1   0  -3   -0.53    0.34
   1   0  -3   -0.33    0.50
  -1   0  -3    0.65    0.34
   1   0  -2   -0.16    0.18
   1   0  -2    0.43    0.37
   1   0  -1    0.09    0.28
   1   0   1   -0.05    0.15
   1   0   2    0.20    0.30
   1   0   3    0.47    0.48
   1   0   4    0.50    0.58
   1   0   5    0.92    0.39
   1   0   6    0.26    0.80
   1   0   7   -0.11    0.58
  -1   0   8    0.64    0.33
   1   0   8    0.09    0.26
   1   0   8   -0.06    0.32
   1   0   9   -0.01    0.26
  -1   0   9    0.10    0.41
   1   0   9    0.70    0.87
   1   0  10    0.04    0.35
  -1   0  10   -0.47    0.39
   1   0  10    0.69    1.04
  -1   0  11   -0.31    0.72
   1   0  11   -0.01    0.45
   1   0  11   -0.29    0.81
  -1   0  12    0.58    0.54
   1   0  12    0.64    0.43
   1   0  12    0.66    1.41
   1   0  13   -0.28    0.48
  -1   0  13    0.04    0.82
   1   0  13   -0.07    0.58
   1   0  14   -0.34    0.55
   1   0  14    0.92    0.83
  -1   0  14    0.05    0.57
   1   0  15    0.56    0.37
  -1   0  15   -0.22    0.79
   1   0  15    0.10    1.12
   1   0  16   -0.41    0.36
  -1   0  16   -0.44    0.84
   1   0  16    0.81    0.98
  -1   0  17   -1.18    1.64
   1   0  17   -0.73    0.79
   1   0  18    0.19    1.14
  -1   0  18    0.66    1.19
   1   0  19    0.68    1.94
   1  -1 -31    8.93    4.60
   1  -1 -30   55.88    9.85
   1  -1 -29   78.31   11.48
  -1  -1 -29   89.97   11.61
  -1  -1 -28   60.59    9.63
   1  -1 -28   64.83    9.64
   1   1 -28   60.66    9.32
   1  -1 -27    5.40    3.11
  -1  -1 -27    1.47    1.59
  -1  -1 -26  157.97   14.94
   1   1 -26  145.40   14.53
   1  -1 -26  132.13   13.73
  -1  -1 -25  160.22   14.66
   1   1 -25  150.28   14.31
   1  -1 -25  123.27   13.01
   1  -1 -24    9.83    4.03
  -1  -1 -24    3.54    2.54
   1   1 -24    9.38    4.05
   1  -1 -23  104.99   11.44
  -1  -1 -23   94.79   10.95
   1   1 -23   92.74   10.67
   1   1 -22   98.95   10.80
  -1   1 -22   98.72   11.35
   1  -1 -22   75.31    9.88
  -1  -1 -22   89.88   10.35
  -1  -1 -21   16.32    4.02
   1  -1 -21   16.22    4.25
   1   1 -21   17.35    4.74
  -1   1 -21   18.47    5.07
  -1  -1 -20  141.06   12.50
   1   1 -20  151.95   12.53
   1  -1 -20  142.39   12.42
  -1   1 -20  137.49   11.97
   1  -1 -19  198.04   14.42
  -1  -1 -19  199.25   14.42
  -1   1 -19  174.44   13.52
   1   1 -19  188.39   13.75
  -1  -1 -18   61.74    8.05
   1  -1 -18   55.44    7.56
  -1   1 -18   58.29    7.62
   1   1 -18   37.39    5.98
  -1   1 -17  147.22   11.63
   1  -1 -17  171.69   12.54
  -1  -1 -17  157.65   12.41
   1   1 -17  147.44   11.48
  -1  -1 -16  319.88   16.97
   1  -1 -16  320.57   17.01
   1   1 -16  313.91   15.96
  -1   1 -16  307.28   16.01
   1  -1 -15   20.98    4.60
  -1  -1 -15   22.60    4.35
   1   1 -15   20.47    4.32
  -1   1 -15   21.75    4.54
   1  -1 -14  114.09    9.68
   1   1 -14  126.52    9.38
  -1   1 -14  130.62    9.78
  -1  -1 -14  120.76    9.94
   1   1 -13  615.16   20.04
   1  -1 -13  583.62   21.21
  -1   1 -13  571.35   20.02
  -1  -1 -13  619.70   21.68
   1  -1 -12 1391.64   31.42
  -1   1 -12 1284.74   28.63
  -1  -1 -12 1287.12   30.22
   1   1 -12 1355.06   28.46
   1   1 -11  475.78   15.92
  -1  -1 -11  426.64   17.00
   1   1 -11  492.63   12.19
  -1   1 -11  457.86   16.26
   1  -1 -11  449.46   17.05
  -1   1 -10  739.49   19.43
  -1  -1 -10  747.90   21.29
   1  -1 -10  796.91   21.77
   1   1 -10  773.34   14.98
   1   1 -10  773.20   19.16
  -1  -1  -9  996.17   23.38
   1  -1  -9 1010.15   23.84
  -1   1  -9 1009.52   21.62
   1  -1  -9  987.93   20.17
   1   1  -9  997.40   20.55
   1   1  -9 1024.93   16.81
   1   1  -8  720.83   16.36
   1  -1  -8  725.54   19.12
   1   1  -8  747.08   13.97
  -1   1  -8  662.45   16.66
   1  -1  -8  734.40   16.62
  -1  -1  -8  680.34   18.45
   1   1  -7  990.52   15.50
   1  -1  -7  943.21   18.45
  -1  -1  -7  964.68   20.90
   1   1  -7  950.94   17.38
   1   1  -6 1732.04   20.05
   1  -1  -6 1686.41   23.51
   1   1  -6 1735.19   20.97
   1  -1  -6 1724.61   26.36
   1  -1  -5  900.67   18.15
  -1  -1  -5  942.06   17.92
   1   1  -5  916.22   14.30
   1  -1  -5  932.62   16.77
   1   1  -5  932.28   13.79
   1  -1  -4 2749.05   27.49
   1   1  -4 2748.11   20.21
   1  -1  -4 2713.43   29.00
   1   1  -4 2713.11   23.62
  -1   1  -4 2782.89   17.49
   1   1  -3 2047.87   20.28
   1  -1  -3 2041.75   22.84
  -1   1  -3 2095.95   16.35
   1  -1  -3 2043.26   23.29
   1   1  -2   65.43    2.61
  -1  -1  -2   65.08    3.48
   1   1  -2   61.54    3.47
   1  -1  -2   65.47    3.80
   1  -1  -2   67.00    3.81
   1   1  -1 3283.62   24.71
   1   1  -1 3273.60   20.96
   1  -1  -1 3266.53   25.30
   1  -1  -1 3297.07   25.89
   1  -1   0 9274.23   43.82
   1   1   1 3182.90   25.21
   1   1   1 3288.56   25.01
   1   1   2   65.18    3.59
   1  -1   2   66.84    3.53
   1   1   2   63.53    3.82
   1   1   3 2214.07   21.22
   1   1   3 2203.78   24.08
   1  -1   4 2807.46   22.94
   1   1   4 2726.17   28.00
   1   1   4 2756.99   24.23
   1  -1   5  927.58   13.47
   1   1   5  921.40   17.20
   1   1   5  945.41   14.34
   1   1   6 1696.02   19.81
   1   1   6 1721.21   24.32
   1  -1   6 1675.48   18.86
   1  -1   7  998.90   15.32
   1   1   7 1021.13   19.82
   1   1   8  737.80   13.91
   1  -1   8  705.50   13.45
   1   1   8  725.39   17.31
   1  -1   9 1018.68   16.68
   1   1   9 1001.63   21.15
   1   1   9  988.83   16.59
  -1  -1  10  739.90    9.75
   1   1  10  765.84   19.29
   1   1  10  761.46   15.09
  -1  -1  11  469.03    8.39
   1  -1  11  472.12   12.52
   1   1  11  471.26   12.12
   1   1  11  477.17   15.77
   1   1  12 1324.23   20.95
   1  -1  12 1318.00   21.81
   1   1  12 1399.43   27.62
  -1  -1  12 1306.28   15.46
  -1   1  12 1384.08   26.14
  -1   1  13  650.01   18.49
   1  -1  13  642.37   15.88
   1   1  13  612.49   14.60
   1   1  13  650.55   19.60
  -1  -1  13  602.13   11.12
   1  -1  14  114.73    6.91
   1   1  14  110.86    6.44
  -1   1  14  111.65    7.85
   1   1  14  129.29    8.95
  -1  -1  14  117.13    5.19
   1   1  15   27.42    4.48
   1   1  15   18.43    2.84
   1  -1  15   23.20    3.34
  -1   1  15   21.72    3.99
   1  -1  16  296.02   11.99
  -1   1  16  330.93   14.48
   1   1  16  335.94   15.42
  -1  -1  16  291.81    9.09
   1   1  16  284.58   10.76
   1   1  17  145.87    7.93
  -1   1  17  144.47    9.86
   1   1  17  165.59   10.97
   1  -1  17  145.15    8.75
   1  -1  18   47.60    5.33
   1   1  18   44.80    5.70
  -1   1  18   53.32    6.38
  -1   1  19  201.39   12.40
   1   1  19  199.19   12.82
  -1   1  20  133.78   10.26
   1   1  20  111.24    9.93
   1   1  21   13.60    4.23
  -1  -2 -30   13.62    4.48
   1  -2 -30   26.87    6.53
   1  -2 -29   28.85    7.22
  -1  -2 -29   13.46    4.17
   1  -2 -28   17.52    4.82
  -1  -2 -28   13.88    5.17
  -1  -2 -27   10.93    5.02
   1  -2 -27   15.83    5.26
  -1  -2 -26    7.14    3.72
   1  -2 -26   15.82    5.55
   1  -2 -25   36.00    7.23
  -1  -2 -25   29.95    6.39
   1   2 -24   13.98    4.39
   1  -2 -24   24.83    6.22
  -1  -2 -24   25.37    6.09
   1   2 -23   13.14    4.73
  -1  -2 -23   19.04    4.64
   1  -2 -23   15.81    3.86
  -1  -2 -22   14.98    4.48
   1  -2 -22   26.05    6.01
   1   2 -22   18.71    4.59
   1   2 -21   13.40    3.93
  -1  -2 -21   18.97    4.74
   1  -2 -21   16.59    4.97
   1  -2 -20   82.72    9.60
   1   2 -20   71.03    8.79
  -1  -2 -20   70.32    9.09
   1  -2 -19   43.09    6.97
  -1  -2 -19   35.82    6.21
   1   2 -19   33.77    5.91
  -1  -2 -18   26.10    5.35
   1  -2 -18   14.79    4.52
   1   2 -18   22.40    4.77
   1   2 -17   45.80    6.43
  -1  -2 -17   33.53    5.72
   1  -2 -17   48.29    7.12
   1   2 -16   52.10    6.58
   1  -2 -16   44.13    6.58
  -1  -2 -16   48.37    6.85
   1  -2 -15   11.44    3.23
   1   2 -15   13.41    2.43
  -1  -2 -15   18.78    4.32
   1   2 -15   13.88    3.41
   1   2 -14  107.19    8.47
   1   2 -14  126.28    7.06
  -1  -2 -14  123.89   10.35
   1  -2 -14  130.88   10.70
  -1   2 -13   25.16    2.14
  -1  -2 -13   18.34    3.81
   1  -2 -13   22.89    4.07
   1   2 -13   25.98    4.09
   1   2 -13   21.14    3.12
   1   2 -12   11.55    2.29
   1   2 -12   10.30    2.16
  -1  -2 -12    9.23    2.36
  -1   2 -12   10.21    1.49
   1  -2 -12   12.95    3.11
   1   2 -11    3.94    1.28
   1  -2 -11    5.69    1.97
  -1  -2 -11    1.25    1.01
  -1   2 -11    3.19    0.89
   1   2 -11    3.61    1.57
   1  -2 -11    4.48    1.45
   1   2 -10   51.15    4.70
  -1   2 -10   52.13    3.37
   1  -2 -10   52.93    5.55
   1   2 -10   47.15    4.23
   1  -2 -10   44.14    5.51
  -1  -2 -10   46.83    5.46
   1   2  -9  198.39    8.52
  -1  -2  -9  178.60   10.36
   1  -2  -9  198.94   11.18
   1   2  -9  200.69    8.49
   1  -2  -9  170.17    9.73
  -1   2  -8  128.74    5.49
   1  -2  -8  130.67    8.58
   1   2  -8  127.06    6.30
   1   2  -8  114.41    6.36
  -1  -2  -8  137.76    8.68
   1   2  -7  187.58    7.98
  -1   2  -7  177.42    6.65
   1   2  -7  196.48    6.97
  -1  -2  -7  200.31    9.97
   1  -2  -7  185.90    9.89
   1  -2  -7  167.18    9.34
  -1  -2  -6  257.30   10.79
   1   2  -6  233.40    8.88
   1   2  -6  258.47    6.99
   1  -2  -6  255.90   11.07
  -1   2  -6  237.52    7.91
   1  -2  -6  239.78   10.82
  -1  -2  -5   35.20    3.69
  -1   2  -5   33.26    3.02
   1  -2  -5   30.52    3.77
   1  -2  -5   29.45    3.69
  -1   2  -4  192.84    7.36
   1  -2  -4  194.81    8.81
  -1  -2  -4  181.32    7.98
   1  -2  -4  185.96    9.11
   1   2  -4  180.92    7.68
   1   2  -3 1443.49   21.63
   1  -2  -3 1371.52   23.52
  -1   2  -3 1381.88   19.94
   1  -2  -3 1350.28   22.26
  -1  -2  -3 1416.16   20.36
  -1  -2  -2 4629.42   41.14
   1  -2  -2 4577.97   37.51
   1   2  -2 4541.94   38.60
  -1   2  -2 4631.26   37.77
  -1   2  -1 4263.28   37.12
   1   2  -1 4225.62   38.56
  -1  -2  -1 4172.26   38.13
   1  -2   0 7530.70   50.08
   1   2   0 7488.04   50.83
  -1   2   0 8058.31   51.50
   1  -2   0 8100.25   45.00
  -1  -2   0 7620.27   48.53
   1  -2   1 4289.16   36.55
   1  -2   1 4213.27   31.81
  -1  -2   2 4585.10   34.57
   1  -2   2 4403.87   31.80
  -1  -2   3 1435.37   18.01
   1  -2   3 1425.08   20.82
   1  -2   4  196.97    7.48
  -1  -2   4  201.17    6.25
   1   2   4  184.73    8.27
   1   2   5   38.89    3.84
  -1  -2   5   37.12    2.52
   1  -2   5   37.00    3.35
   1  -2   6  249.90    8.60
  -1  -2   6  252.59    6.00
   1   2   6  247.02    9.78
   1   2   7  172.18    8.38
   1  -2   7  180.68    7.46
   1   2   7  188.54    9.91
   1   2   8  124.93    8.17
   1  -2   8  100.25    5.85
   1   2   9  170.81    9.87
   1   2   9  191.42    9.13
   1  -2   9  196.16    7.69
   1  -2  10   42.90    3.54
   1   2  10   52.29    4.76
   1   2  10   49.13    5.46
   1   2  11    2.47    1.23
   1   2  11    2.47    1.36
   1  -2  11    1.40    0.36
   1  -2  12   11.49    1.83
   1   2  12    7.83    2.35
   1   2  12   13.15    3.12
   1   2  13   26.07    4.48
   1  -2  13   31.09    3.37
   1   2  13   29.64    3.86
   1   2  14  123.72    9.48
   1  -2  14  122.25    6.72
   1   2  14  114.06    7.74
  -1   2  14  111.30    8.97
   1   2  15   16.79    3.25
  -1   2  15   17.18    3.72
   1  -2  15   15.81    2.34
   1   2  15   13.82    3.42
   1  -2  16   51.92    4.55
   1   2  16   49.78    5.27
  -1   2  16   63.52    7.01
   1   2  16   57.95    6.96
   1   2  17   43.03    4.88
   1   2  17   42.70    6.18
  -1   2  17   39.63    6.04
   1   2  18   22.17    4.01
   1   2  18   22.90    4.94
  -1   2  18   18.29    3.66
  -1   2  18   17.55    3.88
  -1   2  19   33.54    5.62
  -1   2  19   37.30    5.86
   1   2  19   38.80    6.25
  -1   2  20   72.97    8.41
   1   2  20   79.19    8.98
   1   2  21   17.32    4.63
  -1   2  21   13.14    3.63
   1   2  22   15.22    3.77
  -1  -3 -30   25.17    6.05
   1  -3 -30   40.18    8.18
   1  -3 -29   52.51    8.65
  -1  -3 -29   41.73    7.82
  -1  -3 -28   22.37    6.29
   1  -3 -28   22.15    5.60
  -1  -3 -27    9.15    3.29
   1  -3 -27   10.04    3.51
  -1  -3 -26  106.34   11.94
   1  -3 -26   97.78   11.86
  -1  -3 -25   55.10    9.10
   1  -3 -25   51.69    8.75
  -1  -3 -24   20.91    6.07
   1  -3 -24   24.85    6.36
   1  -3 -23   95.24   11.40
  -1  -3 -23   88.61   10.81
   1  -3 -22  213.94   16.51
  -1  -3 -22  214.21   16.38
  -1  -3 -21   48.12    7.80
   1  -3 -21   44.35    7.17
  -1  -3 -20  199.55   15.39
   1  -3 -20  232.92   16.54
  -1  -3 -19  198.28   15.00
   1  -3 -19  206.43   15.01
   1  -3 -18   76.73    9.19
  -1  -3 -18   66.01    8.33
   1  -3 -17  238.17   15.57
  -1  -3 -17  239.05   15.85
   1  -3 -16  923.36   30.60
  -1  -3 -16 1028.95   32.20
  -1  -3 -15   83.29    8.65
   1  -3 -15  111.54   10.63
   1   3 -14  646.68   18.37
  -1  -3 -14  643.67   24.10
   1  -3 -14  678.30   24.91
  -1  -3 -13 1014.98   29.50
  -1   3 -13  919.37   18.65
   1  -3 -13 1011.46   29.40
   1   3 -13  948.39   22.28
   1  -3 -12  458.80   19.34
   1   3 -12  440.78   14.93
   1  -3 -12  387.00   17.68
  -1  -3 -12  409.18   18.21
  -1   3 -12  418.24   12.45
   1  -3 -11  292.77   15.22
   1  -3 -11  283.29   14.54
  -1  -3 -11  290.15   15.04
  -1   3 -11  268.49   10.17
   1   3 -11  284.30   11.87
  -1   3 -10 1544.03   24.60
   1   3 -10 1451.25   26.82
   1  -3 -10 1472.39   32.73
   1  -3 -10 1509.36   33.48
  -1  -3 -10 1443.93   32.29
  -1   3  -9  357.52   11.95
   1  -3  -9  366.92   15.89
  -1  -3  -9  349.50   15.22
   1  -3  -9  353.35   15.77
  -1   3  -8  227.36    9.63
   1  -3  -8  208.56   11.96
   1   3  -8  212.85   10.42
  -1  -3  -8  225.22   11.58
   1  -3  -7  679.33   20.55
  -1   3  -7  627.82   16.55
  -1  -3  -7  665.46   19.41
   1   3  -7  673.13   17.92
  -1   3  -6   97.88    6.61
   1  -3  -6   98.69    7.52
   1  -3  -6   82.76    7.26
  -1  -3  -6   91.53    7.04
   1   3  -6   92.63    6.59
   1   3  -5  300.05   12.13
  -1   3  -5  291.79   11.49
  -1  -3  -5  343.32   12.75
   1  -3  -5  299.71   13.49
  -1  -3  -5  304.41   13.29
   1  -3  -5  287.04   12.26
  -1  -3  -4 1033.05   20.92
  -1   3  -4 1035.63   21.69
   1  -3  -4  999.98   22.00
   1  -3  -4 1057.06   24.75
   1   3  -4 1010.07   21.98
  -1  -3  -4 1026.30   24.04
   1  -3  -3  266.43   12.13
  -1  -3  -3  256.73   11.81
   1   3  -3  244.96   10.81
  -1   3  -3  231.35   10.34
   1  -3  -3  231.93   10.20
  -1  -3  -3  270.71    9.93
  -1  -3  -2  292.63    9.55
   1  -3  -2  297.25   10.79
   1  -3  -2  256.62   11.58
  -1   3  -2  261.72   10.90
   1   3  -2  254.75   11.21
  -1  -3  -2  246.67   11.22
  -1  -3  -1 1042.04   16.48
   1   3  -1 1053.26   22.90
  -1   3  -1 1014.04   21.99
   1  -3  -1 1047.01   23.08
   1  -3  -1 1071.18   19.59
   1  -3   0 2108.78   31.93
   1   3   0 2067.59   32.29
  -1  -3   0 2219.46   31.65
  -1  -3   0 2216.11   21.39
  -1   3   0 2086.71   32.02
   1  -3   0 2262.83   27.31
  -1  -3   1  990.73   12.31
   1  -3   1  989.54   17.72
  -1   3   1 1029.06   22.68
  -1  -3   1 1066.48   21.45
   1   3   1 1084.33   23.25
   1  -3   1 1086.63   22.38
  -1  -3   2  277.93   10.66
   1   3   2  278.89   11.94
  -1   3   2  271.04   11.63
   1  -3   2  263.64    8.75
   1  -3   2  257.54   10.77
  -1  -3   3  262.33    9.96
   1  -3   3  237.01   10.20
  -1   3   3  244.40   11.43
   1   3   3  253.10   11.42
   1  -3   3  231.70    8.30
  -1   3   4 1044.81   23.66
  -1  -3   4 1069.96   19.40
   1  -3   4 1088.40   17.63
   1  -3   4 1061.27   20.97
   1  -3   5  297.28   11.29
  -1   3   5  306.54   13.07
  -1  -3   5  328.97   10.39
   1   3   5  309.20   12.97
   1  -3   6   85.62    5.87
  -1  -3   6   94.06    5.46
   1   3   6   83.57    6.72
  -1  -3   7  660.75   13.57
   1  -3   7  626.80   15.77
   1   3   7  620.43   18.69
  -1  -3   8  205.76    7.25
   1   3   8  213.10   11.14
   1  -3   8  216.84    9.11
  -1  -3   9  363.75    9.05
   1   3   9  373.50   14.92
   1  -3  10 1463.50   23.69
  -1  -3  10 1415.39   16.64
   1   3  10 1465.64   33.27
   1   3  11  295.82   13.65
   1  -3  11  272.31   10.04
   1   3  11  304.70   15.38
   1   3  12  459.14   19.24
   1   3  12  396.55   16.07
   1  -3  12  435.02   12.71
  -1   3  12  401.56   16.83
   1  -3  13  976.60   19.09
   1   3  13  981.86   28.58
   1   3  13 1000.13   26.05
  -1   3  14  674.04   22.87
   1   3  14  620.12   20.77
   1  -3  14  626.27   15.77
   1   3  14  622.15   23.28
   1   3  15   98.58    8.65
   1   3  15   94.81    9.38
   1  -3  15  104.62    6.34
  -1   3  15   92.81    8.52
  -1   3  16  917.80   27.50
  -1   3  16  891.62   29.00
   1   3  16  950.06   29.81
   1   3  16  871.99   25.86
  -1   3  17  215.26   14.49
   1   3  17  215.80   14.64
  -1   3  17  250.98   14.60
   1   3  17  233.93   13.63
   1   3  18   71.60    8.47
  -1   3  18   68.54    8.15
   1   3  18   77.33    7.89
  -1   3  18   82.83    8.59
  -1   3  19  196.62   14.52
  -1   3  19  192.70   13.36
   1   3  19  188.67   12.46
   1   3  19  191.31   14.57
   1   3  20  219.39   15.27
  -1   3  20  202.82   14.69
  -1   3  20  227.08   14.74
  -1   3  21   25.73    5.55
   1   3  21   47.99    7.58
   1   3  22  214.34   16.34
  -1   3  22  170.64   14.50
   1   3  23   73.41   10.08
   1  -4 -29    4.14    3.93
  -1  -4 -29    5.60    3.21
  -1  -4 -28    0.38    2.06
   1  -4 -28    9.39    4.47
   1  -4 -27   -1.46    2.49
  -1  -4 -27    4.64    3.56
   1  -4 -26    1.23    1.86
  -1  -4 -26   12.40    4.61
  -1  -4 -25    3.09    3.35
   1  -4 -25    7.53    3.35
  -1  -4 -24   16.44    5.51
   1  -4 -24   28.57    7.12
   1  -4 -23   35.41    6.56
  -1  -4 -23   33.46    7.18
   1  -4 -22   49.62    8.13
  -1  -4 -22   51.06    8.08
   1  -4 -21   72.12    9.85
  -1  -4 -21   67.06    9.04
  -1  -4 -20   12.58    4.17
   1  -4 -20    4.96    2.99
  -1  -4 -19   18.24    5.13
   1  -4 -19    3.88    2.07
   1  -4 -18   25.84    6.07
  -1  -4 -18   42.71    7.12
  -1  -4 -17   40.89    6.88
   1  -4 -17   36.69    6.88
  -1  -4 -16   26.36    5.57
   1  -4 -16   24.86    5.65
   1  -4 -15   48.84    7.17
  -1  -4 -15   34.90    5.97
  -1  -4 -14   13.05    3.32
   1   4 -14    8.40    2.53
   1  -4 -14   10.32    3.20
   1  -4 -13   11.64    3.75
  -1   4 -13    7.98    2.33
  -1  -4 -13    6.34    2.58
   1   4 -13    9.09    2.63
   1  -4 -12  205.84   13.65
   1   4 -12  177.45   10.77
   1  -4 -12  209.39   13.88
  -1  -4 -12  203.40   13.48
  -1   4 -12  188.59   10.45
   1  -4 -11   69.04    7.73
  -1  -4 -11   70.37    7.51
   1   4 -11   67.50    6.77
  -1   4 -11   67.13    6.09
   1  -4 -11   57.99    7.26
  -1   4 -10  251.18   11.89
  -1  -4 -10  266.46   14.44
   1  -4 -10  283.37   15.04
   1  -4 -10  282.77   15.39
  -1   4  -9  445.34   16.09
   1  -4  -9  432.59   18.13
  -1  -4  -9  425.71   17.74
   1  -4  -8  196.04   11.99
   1   4  -8  202.33   11.31
  -1   4  -8  206.30   10.95
   1  -4  -8  195.80   12.73
  -1  -4  -8  236.57   12.85
   1  -4  -7    6.22    2.42
   1   4  -7   15.11    3.19
   1  -4  -7   11.84    3.31
  -1  -4  -7   14.80    3.19
  -1   4  -7   11.57    2.98
   1   4  -6  107.12    8.29
  -1  -4  -6  109.49    9.10
  -1  -4  -6  127.41    8.84
  -1   4  -6  107.21    8.21
   1  -4  -6  105.48    8.36
   1  -4  -6   95.72    8.56
   1  -4  -5  144.37   10.22
   1  -4  -5  121.92    8.69
  -1   4  -5  123.05    8.75
  -1  -4  -5  143.08   10.16
  -1  -4  -5  131.73    8.47
   1   4  -5  136.20    9.36
   1  -4  -4   82.49    7.71
   1  -4  -4   80.43    6.83
  -1   4  -4   82.37    7.21
   1   4  -4   93.50    7.57
  -1  -4  -4   90.72    7.77
  -1  -4  -4   83.52    6.45
  -1  -4  -3  109.15    6.94
  -1  -4  -3  103.03    8.31
   1   4  -3  102.57    8.17
  -1   4  -3   96.67    7.85
   1  -4  -3   96.32    7.14
   1   4  -2  322.75   14.45
  -1  -4  -2  328.93   14.50
   1  -4  -2  350.44   13.00
  -1  -4  -2  350.45   11.80
   1  -4  -2  342.47   15.28
  -1   4  -2  359.80   14.82
   1   4  -1  688.28   21.28
  -1  -4  -1  653.58   20.19
   1  -4  -1  637.75   16.83
  -1   4  -1  674.78   20.59
   1  -4  -1  671.89   20.97
  -1  -4  -1  703.24   15.44
  -1   4   0 1600.67   31.56
   1  -4   0 1642.42   32.45
   1  -4   0 1642.10   26.08
   1   4   0 1677.99   33.40
   1   4   1  682.90   21.33
   1  -4   1  687.21   16.10
  -1  -4   1  652.08   12.36
   1  -4   1  707.74   20.92
  -1   4   1  674.51   20.88
  -1  -4   1  636.10   19.36
  -1  -4   2  347.51    7.83
   1  -4   2  377.23   15.02
   1   4   2  331.04   14.72
  -1   4   2  312.80   14.60
   1  -4   2  368.43   11.75
  -1  -4   2  335.23   13.84
  -1  -4   3  117.81    7.83
  -1   4   3  105.09    8.49
   1   4   3   92.82    8.10
   1  -4   3   98.96    7.68
   1  -4   3  100.72    5.98
   1   4   4   85.60    7.60
   1  -4   4   82.80    5.37
   1  -4   4   82.41    7.02
  -1   4   4   75.66    7.24
  -1  -4   4   82.46    6.64
   1  -4   5  109.55    7.75
  -1  -4   5  130.56    8.26
   1   4   5  130.16    9.62
  -1   4   5  135.21    9.63
   1  -4   5  134.49    6.80
   1  -4   6   99.55    6.40
   1   4   6  119.46    9.38
  -1   4   6  113.46    8.86
   1  -4   6  130.37    8.33
  -1  -4   6  116.23    7.32
   1   4   7   16.89    3.52
   1  -4   7   11.52    2.30
  -1  -4   7   12.71    2.34
  -1   4   7   11.19    2.46
   1  -4   8  206.44   10.37
  -1   4   8  205.00   12.64
  -1  -4   8  214.47    9.54
   1   4   8  189.59   11.96
   1  -4   9  491.89   15.84
  -1  -4   9  485.01   13.80
   1   4   9  456.94   18.91
  -1   4  10  253.05   14.22
   1   4  10  281.04   14.83
   1  -4  10  290.15   12.01
  -1  -4  10  275.25    9.94
   1   4  11   64.51    7.34
  -1   4  11   64.63    7.55
   1  -4  11   64.22    5.74
   1   4  11   56.85    7.14
  -1  -4  11   61.86    4.62
  -1  -4  12  181.82    7.24
   1   4  12  203.50   13.03
   1   4  12  193.21   13.46
   1  -4  12  199.82    9.77
  -1   4  12  174.97   12.09
   1   4  13   15.17    3.99
  -1   4  13    6.78    3.09
   1  -4  13    6.83    2.06
   1   4  13    9.58    3.30
  -1   4  14    9.64    2.99
   1   4  14    5.31    2.56
   1   4  14   14.05    4.07
   1  -4  14    6.73    2.04
   1   4  15   33.24    6.23
  -1   4  15   42.94    6.24
   1   4  15   35.36    5.71
   1   4  16   14.48    4.12
  -1   4  16    8.06    3.11
   1   4  16   16.61    4.95
   1   4  17   32.28    5.65
  -1   4  17   35.52    5.25
   1   4  17   34.44    6.16
  -1   4  17   39.64    6.85
  -1   4  18   34.49    6.60
  -1   4  18   25.69    5.86
   1   4  18   48.53    7.44
   1   4  18   30.60    6.03
   1   4  19    9.59    4.23
   1   4  19   17.24    4.51
  -1   4  19   12.28    4.46
  -1   4  19   11.03    3.24
  -1   4  20    6.23    2.65
  -1   4  20    9.04    2.87
   1   4  20    6.29    3.11
  -1   4  21   60.35    9.57
   1   4  21   67.69    9.53
   1   4  22   54.88    8.71
  -1   4  22   48.37    8.11
   1   4  23   23.71    5.24
  -1   4  23   36.50    6.70
   1   4  24   15.13    4.69
   1  -5 -28   12.51    4.96
  -1  -5 -28   14.28    5.52
  -1  -5 -27   -4.33    4.11
   1  -5 -27   -0.27    2.81
  -1  -5 -26   40.54    8.68
   1  -5 -26   37.53    7.42
   1  -5 -25   31.24    6.74
  -1  -5 -25   24.69    7.13
   1  -5 -24   10.09    4.77
  -1  -5 -24   -0.29    1.71
  -1  -5 -23   62.97    9.30
   1  -5 -23   44.72    8.07
  -1  -5 -22   94.21   11.16
   1  -5 -22  133.37   13.89
   1  -5 -21   14.12    3.85
  -1  -5 -21   34.77    6.45
  -1  -5 -20   46.89    8.02
   1  -5 -20   31.11    6.55
  -1  -5 -19  119.74   12.21
   1  -5 -19  104.85   11.70
  -1  -5 -18   38.59    7.16
   1  -5 -18   52.12    7.37
  -1  -5 -17   31.31    5.95
   1  -5 -17   27.61    5.38
   1  -5 -16  319.83   19.09
  -1  -5 -16  321.62   18.89
   1  -5 -15   80.82    9.68
  -1  -5 -15   68.68    8.58
   1   5 -14   77.94    8.04
   1  -5 -14   73.99    8.87
  -1  -5 -14   81.95    9.05
   1   5 -13  261.14   14.79
   1  -5 -13  242.38   16.18
  -1  -5 -13  243.49   15.46
   1  -5 -13  228.16   15.23
   1  -5 -12  214.98   15.16
  -1   5 -12  195.78   12.14
   1   5 -12  219.34   13.41
   1  -5 -12  205.13   14.35
   1  -5 -11   43.68    6.87
   1   5 -11   35.20    5.51
  -1  -5 -11   54.80    7.16
  -1   5 -11   34.85    5.09
   1  -5 -11   43.48    6.60
   1  -5 -10  474.98   20.62
   1   5 -10  512.63   20.54
  -1  -5 -10  559.59   22.06
   1  -5 -10  516.61   22.64
  -1   5 -10  510.30   19.73
  -1   5  -9  314.43   15.51
   1  -5  -9  282.71   16.55
   1   5  -9  329.30   16.12
  -1  -5  -9  307.21   15.93
   1  -5  -9  328.00   16.92
   1   5  -8   64.77    7.16
   1  -5  -8   60.46    6.92
  -1  -5  -8   55.75    6.72
   1  -5  -8   53.15    7.60
  -1   5  -8   52.87    6.54
   1   5  -7  272.44   14.77
   1  -5  -7  315.40   17.13
  -1   5  -7  259.12   14.27
  -1  -5  -7  332.89   15.57
   1  -5  -7  367.90   16.86
   1  -5  -6  303.64   15.02
  -1   5  -6  280.31   14.74
   1  -5  -6  265.44   15.67
   1   5  -6  286.56   14.89
  -1  -5  -6  313.30   14.68
  -1  -5  -6  282.05   15.92
   1   5  -5   89.19    8.39
   1  -5  -5   82.98    7.62
  -1   5  -5   68.10    7.29
   1  -5  -5   84.12    8.51
  -1  -5  -5   70.12    7.97
  -1  -5  -5   68.65    6.46
   1  -5  -4  404.74   18.55
  -1  -5  -4  404.04   15.35
  -1  -5  -4  348.50   17.03
   1  -5  -4  336.26   14.92
  -1   5  -4  380.78   17.30
   1   5  -4  401.80   17.64
   1  -5  -3  527.32   18.05
  -1  -5  -3  538.20   16.77
  -1   5  -3  533.92   20.53
  -1  -5  -3  498.37   19.99
   1   5  -3  487.73   19.99
   1  -5  -3  548.26   21.40
  -1  -5  -2   83.44    6.53
  -1   5  -2  100.13    8.92
   1   5  -2   84.25    8.21
  -1  -5  -2   79.30    7.94
   1  -5  -2   94.33    7.43
   1  -5  -2   89.80    8.79
   1  -5  -1   44.17    6.19
   1  -5  -1   49.16    5.28
  -1  -5  -1   33.74    3.86
  -1  -5  -1   47.28    6.14
  -1   5  -1   41.34    5.72
   1   5  -1   38.13    5.38
   1   5   0  330.14   16.42
  -1  -5   0  316.70   10.84
  -1   5   0  290.09   15.00
  -1  -5   0  282.42   14.56
   1  -5   0  304.00   15.38
   1  -5   0  351.20   13.25
   1  -5   1   42.81    4.49
  -1   5   1   44.02    6.14
  -1  -5   1   45.34    5.59
   1  -5   1   50.37    6.38
   1   5   1   43.34    6.15
  -1  -5   1   47.16    3.80
   1   5   2  102.15    9.23
  -1  -5   2  104.13    5.10
  -1   5   2   78.93    7.89
   1  -5   2   97.32    8.50
  -1  -5   2  105.84    8.69
   1  -5   2  105.78    6.77
  -1   5   3  475.86   19.56
   1  -5   3  505.95   14.47
   1   5   3  491.85   20.39
  -1  -5   3  537.23   19.26
   1  -5   3  520.91   19.65
  -1  -5   3  480.50    9.65
  -1  -5   4  354.34    6.59
  -1  -5   4  396.65   16.24
  -1   5   4  406.22   18.37
   1  -5   4  411.93   13.12
   1   5   4  374.71   17.87
   1  -5   4  404.13   17.29
   1  -5   5   75.29    5.51
  -1   5   5   76.77    8.01
   1   5   5   81.30    8.58
  -1  -5   5   86.51    7.46
   1  -5   5   88.19    8.09
   1  -5   6  270.69   10.71
   1  -5   6  281.21   14.19
  -1  -5   6  306.24   13.99
  -1   5   6  292.47   15.70
   1   5   6  282.60   15.59
   1  -5   7  280.50   13.88
   1   5   7  300.96   16.27
   1  -5   7  303.54   11.18
  -1   5   7  285.97   15.79
  -1  -5   7  287.37   13.35
   1  -5   8   54.86    4.99
   1  -5   8   58.17    6.17
  -1   5   8   66.91    8.04
   1   5   8   58.01    7.15
  -1  -5   8   74.21    6.73
   1  -5   9  300.12   11.89
   1   5   9  327.97   17.42
   1  -5   9  290.58   14.01
  -1  -5   9  332.80   14.02
  -1   5   9  299.20   16.45
  -1  -5  10  510.24   16.97
  -1   5  10  459.03   20.58
   1   5  10  514.02   21.94
   1  -5  10  505.95   18.71
  -1   5  11   36.95    6.77
   1   5  11   35.80    6.13
   1  -5  11   40.85    5.17
  -1  -5  11   36.46    4.30
  -1  -5  12  217.37   10.19
   1   5  12  240.50   15.54
   1   5  12  218.75   15.26
   1  -5  12  204.39   11.56
  -1   5  12  217.16   14.36
   1   5  13  249.91   15.84
  -1   5  13  266.93   16.21
   1  -5  13  255.39   12.73
   1   5  13  254.63   16.70
   1   5  14   88.55   10.27
  -1   5  14  101.86    9.99
   1   5  14   90.56    9.87
   1   5  15   89.02   10.00
   1   5  15  102.97   10.95
  -1   5  15   82.13    9.29
   1   5  16  303.90   19.02
  -1   5  16  326.80   18.68
   1   5  16  337.09   19.34
   1   5  17   33.71    6.55
  -1   5  17   22.29    4.55
   1   5  17   31.47    6.22
  -1   5  17   30.58    6.35
   1   5  18   39.75    6.58
  -1   5  18   50.94    7.98
  -1   5  18   36.24    6.67
   1   5  18   31.97    6.18
  -1   5  19   91.19   11.20
   1   5  19  117.40   11.41
   1   5  19   84.37   10.76
  -1   5  19  100.54   10.81
   1   5  20   45.86    7.61
   1   5  20   37.77    7.48
  -1   5  20   62.97    9.05
  -1   5  20   42.29    7.64
  -1   5  21   26.39    6.01
   1   5  21   28.61    6.21
  -1   5  21   35.03    6.48
   1   5  22  128.90   13.88
  -1   5  22  111.54   12.66
  -1   5  23   54.90    9.54
   1   5  23   36.83    7.31
  -1   5  24   -3.72    2.21
   1   5  24   -3.48    4.32
   1   5  25   24.05    5.26
  -1  -6 -26    1.40    1.99
   1  -6 -26    2.05    4.41
  -1  -6 -25   11.12    5.11
   1  -6 -25    4.61    2.66
   1  -6 -24   -0.54    2.82
  -1  -6 -24    4.97    3.59
  -1  -6 -23    2.38    2.92
   1  -6 -23    7.26    3.61
  -1  -6 -22   11.47    3.97
   1  -6 -22   11.57    2.27
   1  -6 -21    4.21    2.39
  -1  -6 -21   11.90    4.77
   1  -6 -20   -1.07    3.55
  -1  -6 -20    3.94    3.57
  -1  -6 -19    9.59    3.40
   1  -6 -19    6.25    2.67
   1  -6 -18    2.01    2.05
  -1  -6 -18    2.21    1.81
  -1  -6 -17    7.83    2.85
   1  -6 -17   10.24    4.07
   1  -6 -16    0.86    1.94
  -1  -6 -16    2.90    1.85
   1  -6 -15   12.36    4.41
  -1  -6 -15   16.04    4.25
  -1  -6 -14   17.81    5.04
   1  -6 -14   11.46    3.67
   1  -6 -13   22.75    4.99
   1   6 -13   28.07    5.66
  -1  -6 -13   30.60    5.65
   1  -6 -13   14.57    4.97
   1  -6 -12   35.33    6.38
  -1   6 -12   48.82    6.79
   1  -6 -12   48.95    7.83
   1   6 -12   36.13    6.14
  -1  -6 -12   49.74    7.71
  -1  -6 -11   34.77    6.30
   1   6 -11   16.89    4.66
   1  -6 -11   19.09    4.51
  -1   6 -11   23.99    5.41
   1  -6 -11   24.70    4.94
   1  -6 -10   18.51    4.32
  -1   6 -10   21.74    4.83
   1  -6 -10   12.55    3.65
   1   6 -10   26.80    5.46
  -1  -6 -10   17.90    4.11
  -1   6  -9    7.77    2.97
   1   6  -9    9.13    3.20
   1  -6  -9    7.46    2.30
   1  -6  -9    7.50    1.72
  -1  -6  -9    1.01    1.99
  -1   6  -8    0.77    1.62
   1  -6  -8    0.56    1.66
   1  -6  -8    0.95    1.51
  -1  -6  -8    1.03    2.24
   1   6  -8    4.75    2.96
   1   6  -7   60.88    8.04
  -1  -6  -7   72.82    7.81
   1  -6  -7   85.32    8.74
   1  -6  -7   65.69    8.57
  -1   6  -7   69.24    8.19
  -1  -6  -6  127.53   11.39
   1  -6  -6  125.62   11.54
  -1  -6  -6  122.23    9.66
   1   6  -6  135.45   11.24
   1  -6  -6  118.29    9.83
  -1   6  -6  116.45   10.51
   1  -6  -5  123.01    9.95
   1   6  -5  117.91   10.67
   1  -6  -5  136.60   11.72
  -1  -6  -5  146.46   12.22
  -1  -6  -5  137.05    9.99
  -1   6  -5  121.35   10.57
  -1   6  -4  125.95   10.60
   1  -6  -4  130.92   11.80
  -1  -6  -4  149.31   10.09
   1   6  -4  125.93   10.96
   1  -6  -4  148.73   10.57
  -1  -6  -4  138.40   11.78
   1  -6  -3  122.66    9.30
  -1  -6  -3  103.65    8.40
  -1   6  -3  104.01   10.02
  -1  -6  -3  117.97   10.62
   1   6  -3  110.11   10.20
  -1  -6  -2  130.99    8.61
   1  -6  -2  114.52   10.42
  -1  -6  -2  118.00   10.35
   1  -6  -2  157.10   10.20
   1   6  -2  119.45   10.78
  -1   6  -2  126.41   11.03
   1   6  -1   23.28    4.85
   1  -6  -1   24.33    4.93
  -1  -6  -1   42.01    6.19
  -1  -6  -1   31.93    4.00
   1  -6  -1   31.32    4.41
  -1   6  -1   27.26    5.27
  -1   6   0   43.18    6.40
  -1  -6   0   47.06    6.78
  -1  -6   0   45.00    4.56
   1   6   0   54.44    7.37
   1  -6   0   46.59    5.27
   1  -6   0   45.50    6.46
  -1   6   1   34.20    5.83
  -1  -6   1   33.68    3.62
   1  -6   1   31.11    5.56
  -1  -6   1   29.85    5.26
   1   6   1   27.07    4.89
   1  -6   1   27.59    4.05
   1  -6   2  130.93   10.91
  -1  -6   2  111.62    9.98
   1   6   2  141.06   11.97
  -1  -6   2  136.66    6.62
   1  -6   2  143.74    8.48
  -1   6   2  135.78   11.66
  -1   6   3  120.52   10.72
  -1  -6   3  116.57    9.89
   1   6   3  119.87   10.73
   1  -6   3  132.55   10.84
   1  -6   3  128.33    7.91
  -1  -6   3  117.03    5.49
  -1  -6   4  140.69   10.62
  -1   6   4  143.55   11.84
   1   6   4  141.22   11.68
   1  -6   4  148.47    8.27
   1  -6   4  135.26   11.01
   1  -6   5  139.59    8.08
  -1  -6   5  137.19   10.62
   1  -6   5  122.60   10.66
   1  -6   6  109.33    9.84
   1  -6   6  136.09    7.61
   1   6   6  124.00   11.33
  -1  -6   6  119.33    9.78
  -1   6   6  118.41   11.14
   1  -6   7   65.28    7.48
   1   6   7   68.16    8.02
  -1   6   7   81.06    9.18
   1  -6   7   59.72    5.30
  -1  -6   7   66.10    6.97
   1   6   8    5.06    3.43
  -1   6   8    0.61    1.94
  -1  -6   8    2.13    1.70
   1  -6   8    5.59    2.64
  -1   6   9   11.81    3.35
   1   6   9    6.62    2.90
  -1  -6   9    3.48    1.62
   1  -6   9   11.47    3.13
  -1  -6  10   17.40    3.41
   1   6  10   21.69    4.77
  -1   6  10   10.38    3.92
   1  -6  10   15.81    3.85
   1   6  11   29.23    5.74
  -1   6  11   31.18    6.01
   1  -6  11   19.82    4.52
  -1  -6  11   20.32    3.81
   1   6  12   48.99    7.42
   1  -6  12   36.99    5.60
   1   6  12   38.40    6.74
  -1   6  12   35.18    6.67
   1   6  13   33.39    5.84
   1   6  13   28.06    6.03
  -1   6  13   27.52    5.64
  -1   6  14    5.31    2.54
   1   6  14   11.02    3.39
   1   6  14    6.94    2.54
   1   6  15   20.61    5.63
  -1   6  15    9.85    2.66
   1   6  15   13.47    3.87
  -1   6  16    1.01    1.70
   1   6  16    5.62    2.15
   1   6  16    4.20    2.92
   1   6  17    6.11    3.30
  -1   6  17    6.52    3.04
   1   6  17    3.48    3.31
  -1   6  17    9.51    3.97
  -1   6  18    1.58    3.53
   1   6  18   -1.63    1.86
   1   6  18    4.75    4.10
  -1   6  18   -2.14    2.21
  -1   6  19    4.71    1.77
   1   6  19    2.52    2.37
  -1   6  19    7.66    3.24
   1   6  19    7.83    3.06
  -1   6  20   -0.10    1.89
   1   6  20    1.18    2.46
  -1   6  21    8.19    3.68
  -1   6  21    2.41    1.89
   1   6  21   12.49    5.02
  -1   6  22    8.86    1.75
   1   6  22   14.40    4.57
   1   6  23    5.61    3.62
  -1   6  23    1.89    3.75
  -1   6  24   -0.10    2.96
   1   6  24   -2.67    2.58
  -1   6  25   11.39    6.32
   1   6  25    0.71    3.90
   1   6  26   -3.36    3.15
  -1  -7 -24   17.95    6.43
   1  -7 -24   13.60    5.30
  -1  -7 -23   65.89    9.80
   1  -7 -23   76.34   10.95
   1  -7 -22   52.41    8.26
  -1  -7 -22   44.46    7.82
  -1  -7 -21    4.23    2.51
   1  -7 -21   13.07    4.65
  -1  -7 -20   45.44    7.86
   1  -7 -20   39.18    7.48
  -1  -7 -19   33.97    7.01
   1  -7 -19   39.30    7.68
   1  -7 -18    4.90    2.49
  -1  -7 -18    3.41    1.74
   1  -7 -17   28.27    6.33
  -1  -7 -17   32.49    6.47
  -1  -7 -16   89.59   10.20
   1  -7 -16   84.27   10.28
   1  -7 -15    4.58    2.99
  -1  -7 -15   13.96    5.37
  -1  -7 -14   23.16    5.38
   1  -7 -14   19.27    5.10
   1   7 -13   46.92    7.55
  -1  -7 -13   43.03    6.57
   1  -7 -13   31.69    6.30
   1   7 -12   36.74    7.35
   1  -7 -12   35.92    6.76
  -1   7 -12   40.79    6.78
   1  -7 -12   42.79    6.49
  -1  -7 -12   37.80    6.87
   1   7 -11    2.40    1.86
  -1   7 -11    3.22    2.18
  -1  -7 -11    3.80    3.36
   1  -7 -11   10.93    4.43
   1  -7 -11    6.44    3.07
   1  -7 -10  147.55   13.59
  -1   7 -10  159.15   13.18
  -1  -7 -10  168.22   13.36
   1  -7 -10  151.48   12.96
   1   7 -10  150.67   13.01
  -1   7  -9   88.31   10.37
   1   7  -9  104.57   10.92
   1  -7  -9   76.76    9.53
  -1  -7  -9  122.11   10.95
   1  -7  -9   96.99   10.04
  -1   7  -8    5.13    3.28
   1   7  -8    2.57    1.55
   1  -7  -8    4.09    2.93
   1  -7  -8    5.71    2.89
  -1  -7  -8    3.72    3.03
   1  -7  -7  127.61   12.26
   1   7  -7  108.95   11.38
  -1   7  -7  120.69   11.57
  -1  -7  -7   92.75    9.18
   1  -7  -7  112.47   10.70
   1  -7  -6  307.60   18.82
   1   7  -6  290.62   17.79
  -1   7  -6  297.58   18.30
  -1  -7  -6  302.90   16.43
   1  -7  -6  280.20   16.11
   1   7  -5   67.89    8.61
  -1  -7  -5   73.82    7.58
  -1   7  -5   64.40    8.69
  -1  -7  -5   70.47    8.84
   1  -7  -5   75.92    9.28
   1  -7  -5   57.51    7.47
   1   7  -4  136.86   12.35
   1  -7  -4  148.84   11.22
  -1  -7  -4  166.02   13.75
   1  -7  -4  156.33   13.53
  -1  -7  -4  142.10   10.52
  -1   7  -4  163.00   13.71
  -1  -7  -3  374.25   16.43
   1   7  -3  341.17   19.37
   1  -7  -3  355.72   19.89
  -1  -7  -3  370.89   20.32
  -1   7  -3  361.57   19.99
   1  -7  -3  352.99   16.99
   1  -7  -2  151.08   10.93
  -1  -7  -2  167.14   10.59
  -1   7  -2  161.41   13.48
   1  -7  -2  171.59   13.68
  -1  -7  -2  162.94   13.36
   1   7  -2  154.58   13.34
  -1   7  -1    3.59    1.38
   1   7  -1    2.03    2.48
  -1  -7  -1    2.19    1.42
   1  -7  -1    6.74    2.62
   1  -7  -1    1.73    0.96
  -1  -7  -1    4.48    1.71
   1   7   0   71.05    8.66
   1  -7   0   63.94    8.43
  -1   7   0   89.59    9.85
   1  -7   0   67.71    6.80
  -1  -7   0   70.38    8.49
  -1  -7   0   79.83    6.62
   1  -7   1    3.91    2.64
   1  -7   1    2.84    2.01
  -1  -7   1    5.28    3.27
   1   7   1    5.86    3.58
  -1   7   1    5.44    3.65
   1  -7   2  176.53   10.81
  -1  -7   2  172.46   13.19
   1   7   2  164.12   13.42
   1  -7   2  157.90   13.09
  -1   7   2  161.11   13.38
   1  -7   3  392.58   20.11
  -1   7   3  395.82   20.75
   1   7   3  347.37   19.72
  -1  -7   3  337.50   18.59
   1  -7   4  112.88   11.00
   1   7   4  161.16   13.49
  -1  -7   4  144.22   11.97
  -1   7   4  151.22   13.43
   1  -7   5   54.44    7.97
   1   7   5   59.02    8.78
  -1   7   5   66.69    8.98
  -1  -7   5   68.56    8.41
   1   7   6  285.90   18.00
  -1   7   6  330.25   19.67
  -1  -7   6  288.13   16.91
   1  -7   6  315.57   17.92
  -1   7   7  130.11   12.32
  -1  -7   7  129.01   11.02
   1  -7   7  109.05   10.57
   1   7   7  120.27   12.11
   1  -7   8    1.97    1.30
  -1  -7   8    3.58    1.67
  -1   7   8    2.80    3.19
   1   7   8    6.73    3.46
  -1  -7   9  106.25    9.99
  -1   7   9  112.37   11.86
   1  -7   9  103.26   10.09
   1   7   9  113.93   11.42
   1   7  10  153.71   13.55
   1  -7  10  172.29   13.53
  -1  -7  10  156.32   12.03
  -1   7  10  190.78   14.83
  -1   7  11   11.63    3.73
   1   7  11    5.44    3.55
   1  -7  11    6.30    2.41
  -1   7  12   36.48    6.56
   1   7  12   44.06    7.81
   1   7  12   35.16    6.96
   1   7  13   39.42    7.48
  -1   7  13   34.22    6.72
   1   7  13   41.26    8.31
   1   7  14   25.36    5.60
   1   7  14   17.06    5.10
  -1   7  14   17.05    3.79
  -1   7  15   13.15    5.47
   1   7  15   20.26    5.17
   1   7  15   12.99    4.13
  -1   7  16   73.00   10.07
   1   7  16   72.56    9.72
   1   7  16   77.03   10.17
   1   7  17   29.20    6.81
  -1   7  17   31.04    6.48
   1   7  17   28.32    7.79
  -1   7  17   31.44    6.93
  -1   7  18   -0.22    2.76
  -1   7  18   -1.14    2.82
   1   7  18   -1.06    2.54
   1   7  18    2.64    2.45
  -1   7  19   43.61    8.45
   1   7  19   23.66    6.35
  -1   7  19   41.45    6.76
   1   7  19   33.66    7.70
  -1   7  20   48.08    8.92
  -1   7  20   32.43    7.03
   1   7  20   32.61    6.88
   1   7  20   22.93    6.70
  -1   7  21    4.82    4.07
   1   7  21    6.23    3.39
   1   7  21    2.66    2.27
  -1   7  21   15.32    6.53
  -1   7  22   39.82    9.08
   1   7  22   58.99    9.58
  -1   7  22   34.85    7.31
  -1   7  23   59.47   10.28
   1   7  23   63.50   10.73
   1   7  24   19.30    6.16
  -1   7  24   14.10    5.34
  -1  -8 -22   11.79    5.04
   1  -8 -22   11.00    5.77
  -1  -8 -21   -3.78    3.91
   1  -8 -21    0.08    2.43
  -1  -8 -20    4.42    3.51
   1  -8 -20    2.92    2.26
  -1  -8 -19    4.65    4.69
   1  -8 -19    2.31    3.77
   1  -8 -18    3.21    2.64
  -1  -8 -18   -0.75    2.31
   1  -8 -17    0.50    2.91
  -1  -8 -17    5.05    2.92
   1  -8 -16    1.14    2.31
  -1  -8 -16   -3.24    3.30
  -1  -8 -15   -0.44    2.29
   1  -8 -15    4.19    3.63
   1  -8 -14    9.24    4.63
  -1  -8 -14    8.51    4.48
   1  -8 -13   13.70    4.12
  -1  -8 -13    6.53    2.95
   1  -8 -12    0.42    1.79
   1   8 -12    3.00    3.66
  -1  -8 -12    2.43    2.56
  -1   8 -11   16.96    5.19
  -1  -8 -11   18.30    5.18
   1  -8 -11   18.78    5.45
   1   8 -11   10.02    3.59
   1  -8 -11   12.95    4.03
   1   8 -10   -1.00    1.72
  -1  -8 -10    1.46    2.72
  -1   8 -10    0.96    2.90
   1  -8 -10   -2.16    2.45
   1  -8 -10    3.21    2.69
   1  -8  -9    2.70    2.17
  -1   8  -9    5.27    4.25
   1   8  -9    2.98    1.86
  -1  -8  -9    0.78    2.60
   1  -8  -9   -0.37    1.36
   1  -8  -8    5.62    4.29
   1   8  -8    9.17    4.26
  -1  -8  -8    1.75    1.60
   1  -8  -8   10.72    2.91
  -1   8  -8   11.26    4.41
   1  -8  -7   -0.97    1.66
   1  -8  -7    0.52    2.12
  -1   8  -7    4.80    1.84
  -1  -8  -7    1.59    2.45
   1   8  -7    2.91    3.59
  -1   8  -6  103.97   11.90
   1   8  -6  110.84   11.89
  -1  -8  -6  116.51   10.79
   1  -8  -6  107.75   11.88
  -1  -8  -5   33.03    5.80
   1  -8  -5   26.01    4.90
  -1   8  -5   29.76    5.97
   1  -8  -5   35.90    7.00
   1   8  -5   29.87    6.06
   1   8  -4   12.16    4.54
   1  -8  -4   20.79    5.41
   1  -8  -4   20.92    5.06
  -1   8  -4   23.62    5.62
   1  -8  -3   40.27    7.38
   1   8  -3   33.82    6.83
  -1  -8  -3   36.50    6.80
  -1   8  -3   33.49    6.66
   1  -8  -3   29.48    5.32
   1  -8  -2   96.19   10.57
   1   8  -2   85.30    9.93
  -1   8  -2  108.40   11.76
  -1  -8  -2  113.13   12.00
   1   8  -1    6.41    2.78
   1  -8  -1   14.01    4.29
  -1  -8  -1    8.18    3.41
  -1   8  -1    7.12    2.75
  -1  -8   0   25.38    5.92
   1  -8   0   34.38    6.08
  -1   8   0   23.90    5.53
   1   8   0   34.99    6.88
   1   8   1   17.90    5.28
   1  -8   1   20.73    4.98
  -1   8   1   16.33    5.05
  -1  -8   1    9.54    3.13
  -1  -8   2  109.83   11.61
   1   8   2  104.52   11.39
   1  -8   2  109.73   11.51
  -1   8   2   87.96   10.71
   1  -8   3   30.87    6.74
  -1  -8   3   47.15    7.60
  -1   8   3   31.29    6.58
   1   8   3   33.18    6.49
   1   8   4   24.80    5.82
   1  -8   4   23.53    5.70
  -1   8   4   14.11    4.76
  -1  -8   4   29.05    6.43
   1   8   5   25.79    5.69
  -1  -8   5   36.60    6.54
   1  -8   5   37.96    6.62
  -1   8   5   28.80    6.31
  -1   8   6  110.24   11.87
  -1  -8   6  119.00   12.14
   1   8   6  107.12   11.79
   1  -8   6  115.36   11.80
   1  -8   7    2.08    2.21
  -1   8   7    3.48    2.78
   1   8   7   -1.42    3.61
  -1  -8   7    3.84    2.93
   1   8   8   15.51    4.70
   1  -8   8   11.86    3.82
  -1   8   8   13.58    4.84
  -1  -8   8    9.83    3.51
   1  -8   9    4.65    3.44
  -1   8   9    8.02    3.00
   1   8   9    0.29    1.91
   1   8  10    5.86    2.93
  -1   8  10    0.90    2.16
   1  -8  10    2.17    2.51
   1   8  11   22.66    5.93
   1   8  11   20.79    5.71
  -1   8  11   13.52    4.43
  -1   8  12    5.44    4.46
   1   8  12   -1.05    2.37
   1   8  12    4.19    1.70
   1   8  13   14.09    4.68
   1   8  13    5.25    3.64
   1   8  14   -0.40    2.39
  -1   8  14    8.52    4.22
   1   8  14    3.72    2.56
   1   8  15    1.97    2.85
   1   8  15    0.81    2.23
  -1   8  15    0.05    3.14
   1   8  16    2.64    3.24
  -1   8  16    5.42    4.13
   1   8  16    0.34    1.52
  -1   8  17    2.67    2.35
   1   8  17   -1.14    2.94
  -1   8  17    2.45    2.35
   1   8  17    5.80    4.19
   1   8  18    1.10    2.33
  -1   8  18    3.17    3.99
   1   8  18    5.96    3.90
  -1   8  18    2.72    2.48
   1   8  19   -0.36    1.91
  -1   8  19   -0.59    3.25
   1   8  19    8.70    5.13
  -1   8  19    3.27    4.53
  -1   8  20    0.71    1.93
   1   8  20   -0.30    2.42
   1   8  20   -0.96    3.20
  -1   8  20    7.42    3.36
   1   8  21   -0.13    2.14
   1   8  21   -1.42    2.80
  -1   8  21    5.10    4.10
  -1   8  21    7.83    5.02
  -1   8  22    1.84    2.62
   1   8  22    8.14    4.66
  -1   8  22    5.24    4.23
   1  -9 -19   44.48    8.24
  -1  -9 -19   14.36    5.69
   1  -9 -18    6.96    4.09
  -1  -9 -18    4.93    4.05
   1  -9 -17   43.20    9.00
  -1  -9 -17   38.59    8.35
  -1  -9 -16   64.00    9.41
   1  -9 -16   74.89   11.20
  -1  -9 -15   11.42    4.26
   1  -9 -15   15.01    4.11
  -1  -9 -14   24.34    6.37
   1  -9 -14   36.31    7.10
   1  -9 -13   70.01   10.70
  -1  -9 -13   41.40    8.54
  -1  -9 -12   34.67    7.53
   1  -9 -12   24.68    6.26
   1   9 -11   11.45    3.37
  -1   9 -11    6.15    4.66
   1  -9 -11   14.81    4.09
   1  -9 -10   97.27   11.44
  -1   9 -10   87.06   11.48
   1   9 -10   83.27   11.08
   1   9  -9   34.95    7.59
  -1   9  -9   20.93    5.25
   1  -9  -9   27.03    6.04
   1  -9  -9   40.25    8.00
  -1   9  -8    5.77    2.59
   1  -9  -8    6.02    4.60
   1   9  -8    6.89    3.86
   1  -9  -7   68.31    9.96
  -1   9  -7   63.00    9.18
   1   9  -7   72.28   10.22
  -1   9  -6  131.18   13.16
   1   9  -6  155.60   14.36
   1  -9  -6  132.62   13.69
   1  -9  -5    2.41    3.78
  -1   9  -5    7.35    5.14
   1   9  -5    1.64    1.54
  -1   9  -4   88.28   10.70
   1   9  -4   92.11   11.13
   1  -9  -4   90.14   11.28
   1   9  -3  109.05   12.52
  -1   9  -3  112.25   12.94
   1  -9  -3  115.82   12.56
  -1   9  -2   60.53    9.52
   1   9  -2   67.13    9.68
   1  -9  -2   54.35    8.96
  -1   9  -1   11.62    5.24
   1  -9  -1    9.45    4.33
   1   9  -1    6.64    3.97
  -1   9   0   73.26   10.03
   1   9   0   74.81   10.03
   1  -9   0  102.46   11.56
   1  -9   1    4.72    2.20
   1   9   1    8.41    3.51
   1   9   2   70.62   10.01
   1  -9   2   42.46    7.89
  -1   9   2   66.10    9.70
  -1   9   3  121.04   12.47
   1  -9   3   95.52   11.75
   1   9   3  115.30   12.22
   1  -9   4   74.68   10.42
  -1   9   4   84.23   10.71
   1   9   4  100.62   12.04
  -1   9   5    2.10    3.33
   1   9   5    6.50    3.08
   1  -9   5    6.32    4.19
  -1   9   6  150.04   14.12
   1  -9   6  141.95   13.99
   1   9   6  147.63   14.39
   1  -9   7   68.18    9.63
   1   9   7   70.99   10.04
  -1   9   7   72.22   10.77
  -1   9   8    7.27    4.49
   1  -9   8   11.87    5.21
   1   9   8    1.88    2.18
   1   9   9   38.95    7.70
  -1   9   9   35.64    7.43
  -1   9  10   84.01   10.89
   1   9  10   76.45   10.08
   1   9  10   99.85   11.98
   1   9  11   15.44    4.67
  -1   9  11   22.43    5.04
   1   9  11    8.56    4.64
   1   9  12   18.76    5.33
  -1   9  12   25.90    5.98
   1   9  12   28.25    6.93
  -1   9  13   45.40    8.81
   1   9  13   54.56    9.07
   1   9  13   58.15    9.02
   1   9  14   19.64    5.15
   1   9  14   30.10    7.31
  -1   9  14   20.11    5.79
   1   9  15   12.76    4.30
   1   9  15   16.61    6.14
  -1   9  15    3.38    3.27
  -1   9  16   63.88   10.27
   1   9  16   60.40    9.48
   1   9  16   71.75   11.13
  -1   9  16   45.03    8.06
  -1   9  17   37.79    8.73
   1   9  17   25.91    6.54
  -1   9  17   27.91    7.14
   1   9  17   38.77    8.49
   1   9  18    4.27    2.48
  -1   9  18    7.30    4.37
  -1   9  18    0.51    3.55
   1   9  18   11.55    5.27
   1   9  19   17.54    5.88
  -1   9  19   36.09    8.11
   1   9  19   36.47    7.94
  -1   9  19   38.05    7.86
   1  10 -11   27.44    8.23
  -1  10 -10   24.08    8.25
   1  10 -10   11.93    5.00
  -1  10  -9   30.12    6.97
   1  10  -9   20.48    5.32
  -1  10  -8    3.35    2.08
   1  10  -8    1.77    1.73
   1  10  -7   28.34    6.50
  -1  10  -7   29.47    7.29
  -1  10  -6   44.79    8.02
   1  10  -6   46.62    7.68
   1 -10  -6   64.25    9.90
   1  10  -5   10.35    6.04
  -1  10  -5   11.42    4.78
   1 -10  -5   11.95    5.62
  -1  10  -4   55.14    9.42
   1 -10  -4   35.26    7.83
   1  10  -4   51.23    8.44
  -1  10  -3    1.96    2.81
   1  10  -3    9.23    5.01
   1  10  -2   18.30    4.66
  -1  10  -2    7.87    3.87
   1 -10  -2   11.28    4.20
  -1  10  -1   13.26    5.15
   1  10  -1   10.32    4.63
   1 -10  -1    4.30    3.21
   1  10   0   11.92    4.73
   1 -10   0   15.38    5.52
  -1  10   0    5.77    4.18
   1  10   1    0.96    3.33
  -1  10   1    4.98    2.99
   1 -10   1   10.46    4.19
  -1  10   2    8.07    4.97
   1 -10   2   16.55    3.90
  -1  10   3   21.84    6.62
   1 -10   3   14.66    4.96
   1  10   3   13.12    5.40
   1  10   4   29.55    6.68
   1 -10   4   25.42    6.71
  -1  10   4   39.14    7.87
   1  10   5    7.85    4.25
  -1  10   5   10.13    4.26
   1 -10   5   11.22    3.54
  -1  10   6   50.97    8.98
   1 -10   6   51.05    8.91
   1  10   6   38.15    7.50
  -1  10   7   15.83    4.09
   1 -10   7   21.80    5.55
   1  10   7   20.36    6.24
   1  10   7   28.14    7.08
  -1  10   8    0.30    3.51
   1  10   8   -0.07    1.44
   1  10   8    6.28    4.01
   1  10   9   33.82    7.50
  -1  10   9   27.58    6.99
   1  10   9   15.55    4.86
   1  10  10   12.40    4.76
  -1  10  10    8.40    2.86
   1  10  11    8.87    4.22
  -1  10  11    6.75    1.75
   1  10  12   31.96    7.13
   1  10  12   28.63    7.17
  -1  10  12   34.70    7.03
   1  10  13    9.68    4.56
   1  10  13   17.50    5.82
  -1  10  13   15.59    5.54
   1  10  14    6.66    4.59
   1  10  14   10.51    6.22
  -1  10  14    7.68    4.54
  -1  10  14   11.38    3.92
  -1  10  15    7.44    4.63
   1  10  15    8.26    3.96
  -1  10  15   12.40    3.77
   1  10  15    6.83    2.87
  -1  10  16    5.08    4.23
   1  10  16    7.61    4.15
  -1  10  16    3.80    2.45
   1  10  16    0.54    3.01
  -1  11  -9   36.25   10.07
   1  11  -9   22.23    7.30
   1  11  -8    6.57    4.01
  -1  11  -8   -0.78    2.93
  -1  11  -7   34.03    8.39
   1  11  -7   24.95    6.43
   1  11  -6   58.21    9.43
  -1  11  -6   43.43    8.72
   1  11  -5    6.56    3.82
  -1  11  -5    7.88    4.10
   1  11  -4   16.89    5.62
  -1  11  -4   14.13    5.52
  -1  11  -3   36.00    8.49
   1  11  -3   28.46    6.44
   1  11  -2    4.91    5.21
  -1  11  -2   14.85    5.09
   1 -11  -2   14.10    4.65
   1  11  -1   18.26    5.26
   1 -11  -1   13.88    6.13
  -1  11  -1   14.14    5.18
  -1  11   0   23.85    6.38
   1 -11   0   24.94    7.17
  -1  11   1   12.02    5.60
   1  11   1   24.24    6.56
   1  11   1   15.56    5.20
   1 -11   1   23.66    6.93
   1  11   2   18.54    6.35
   1  11   2   21.29    7.05
  -1  11   2   13.95    5.96
   1 -11   2   15.99    5.43
   1  11   3   21.08    6.22
   1  11   3   27.87    6.97
   1 -11   3   32.15    7.84
  -1  11   3   39.25    7.94
   1  11   4   23.99    6.38
  -1  11   4   22.63    6.22
   1 -11   4   17.39    5.88
   1  11   4   26.06    6.49
   1  11   5    1.43    3.25
   1 -11   5   10.68    5.22
  -1  11   5   14.08    4.44
   1  11   5   12.38    5.85
  -1  11   6   46.07    8.66
   1  11   6   29.41    7.47
   1  11   6   30.46    6.88
  -1  11   7   26.46    6.85
   1  11   7   32.31    7.90
   1  11   7   30.93    7.91
   1  11   8    3.44    2.71
   1  11   8    9.32    5.00
  -1  11   8    5.66    5.06
  -1  11   9   29.32    6.61
   1  11   9   25.92    6.28
   1  11   9   28.70    7.40
   1  11  10   37.79    8.02
  -1  11  10   39.53    7.98
   1  11  10   20.10    5.53
   2   0 -31    3.60    2.72
   2   0 -30   52.73    9.31
   2   0 -29   44.39    9.03
   2   0 -28   71.46   10.54
   2   0 -27   23.13    6.50
   2   0 -26    1.25    1.57
   2   0 -25  149.95   14.04
   2   0 -24  112.55   12.02
   2   0 -23  296.46   19.08
   2   0 -22   50.73    7.37
  -2   0 -22   63.16    9.04
  -2   0 -21  233.74   16.50
   2   0 -21  216.08   15.76
  -2   0 -20   53.44    7.69
   2   0 -20   63.67    8.41
   2   0 -19  872.87   29.94
  -2   0 -19  892.08   30.44
   2   0 -18   17.95    4.63
  -2   0 -18   14.99    4.05
   2   0 -17  319.61   17.23
  -2   0 -17  357.17   18.33
   2   0 -16   40.65    5.83
  -2   0 -16   54.16    6.92
   2   0 -15  840.48   26.08
  -2   0 -15  769.17   25.62
  -2   0 -14   56.04    6.59
   2   0 -14   48.91    6.09
  -2   0 -13 5869.34   65.80
   2   0 -13 5783.93   63.89
   2   0 -12   97.87    7.99
  -2   0 -12   92.86    7.93
   2   0 -11  353.83   14.71
  -2   0 -11  376.74   15.48
  -2   0 -10 3055.62   42.06
   2   0 -10 3049.34   41.11
   2   0  -9 2336.22   34.32
  -2   0  -9 2256.79   34.52
   2   0  -9 2310.29   23.98
   2   0  -8  582.34   16.27
   2   0  -8  565.08   11.29
  -2   0  -8  568.66   16.50
   2   0  -7 8972.85   60.86
  -2   0  -7 9059.05   62.79
   2   0  -6  782.32   16.86
   2   0  -6  813.76   12.16
   2   0  -5 2579.29   20.62
   2   0  -5 2555.03   28.28
   2   0  -5 2557.44   26.21
   2   0  -4 9999.00   50.78
   2   0  -3 7726.19   43.47
   2   0  -1  547.35   10.38
   2   0  -1  570.23   10.64
   2   0  -1  548.53    9.59
   2   0   0    7.36    1.17
   2   0   0    5.50    1.09
   2   0   1  527.04   10.33
   2   0   1  592.57    9.68
   2   0   2 9125.02   44.97
   2   0   5 2575.12   27.43
   2   0   5 2539.30   16.04
   2   0   6  804.58   16.12
   2   0   7 9174.46   56.44
   2   0   8  578.65   14.91
   2   0   9 2165.11   30.19
   2   0  10 3032.62   36.80
   2   0  11  401.02   13.82
  -2   0  11  397.45   10.70
   2   0  12   94.23    7.03
  -2   0  12   99.59    5.59
  -2   0  13 5805.69   44.59
   2   0  13 5521.98   55.79
   2   0  14   46.20    5.14
  -2   0  14   48.95    4.17
   2   0  15  777.16   21.90
  -2   0  15  780.23   17.59
  -2   0  16   33.64    3.75
   2   0  16   38.66    5.31
   2   0  17  343.20   15.83
  -2   0  17  348.80   12.64
   2   0  18   24.15    4.20
   2   0  19  856.30   26.44
   2   0  20   58.72    6.92
   2  -1 -30    1.93    3.45
   2   1 -29   -7.24    1.35
   2  -1 -29    0.55    2.34
   2   1 -28   -0.60    2.27
   2  -1 -28    1.94    2.36
   2   1 -27    3.71    3.60
   2  -1 -27    3.11    3.43
   2   1 -26    0.74    1.95
   2  -1 -26   -0.72    1.50
  -2  -1 -26    1.92    3.04
  -2  -1 -25    5.16    4.01
   2  -1 -25   -3.34    3.52
   2   1 -25    3.47    3.14
   2  -1 -24    3.58    2.75
   2   1 -24    1.45    2.30
  -2  -1 -23   -0.45    1.28
   2  -1 -23    3.15    2.16
  -2  -1 -22   32.46    6.25
   2   1 -22   23.23    4.59
   2  -1 -22   18.93    5.72
  -2  -1 -21   19.13    5.40
   2   1 -21   20.57    5.38
   2  -1 -21   11.62    3.61
   2   1 -20   49.35    7.37
   2  -1 -20   40.14    6.90
  -2  -1 -20   46.66    7.53
   2   1 -19    7.16    2.74
  -2  -1 -19   13.35    3.92
   2  -1 -19    5.40    2.86
   2  -1 -18   41.47    6.62
   2   1 -18   48.26    6.92
  -2  -1 -18   60.62    7.73
   2   1 -17    4.32    2.70
   2  -1 -17    4.89    1.97
  -2  -1 -17   10.98    3.69
   2  -1 -16   50.46    6.73
   2   1 -16   53.31    6.40
  -2  -1 -16   63.28    7.47
   2   1 -15   51.37    6.32
  -2  -1 -15   60.23    7.24
   2  -1 -15   64.70    7.63
  -2  -1 -14  184.83   12.36
   2  -1 -14  204.84   12.94
   2   1 -14  178.65   11.25
  -2  -1 -13   60.21    6.89
   2  -1 -13   48.14    6.31
   2   1 -13   52.06    5.87
  -2  -1 -12  702.69   22.52
   2   1 -12  686.23   20.29
   2  -1 -12  751.11   22.96
   2  -1 -11   38.90    4.48
  -2  -1 -11   39.12    5.30
   2   1 -11   47.30    4.40
   2  -1 -11   43.08    5.43
   2   1 -11   45.19    5.08
   2   1 -10   46.39    4.74
   2  -1 -10   41.46    5.25
  -2  -1 -10   51.40    5.66
   2   1 -10   48.19    4.34
   2  -1 -10   47.27    4.58
   2   1  -9  105.80    6.33
   2   1  -9  110.76    6.80
  -2  -1  -9  105.50    8.03
   2  -1  -9  102.24    6.58
   2   1  -8  218.52    8.77
   2   1  -8  222.43    9.12
   2  -1  -8  194.80    8.72
  -2  -1  -8  205.02   10.29
   2  -1  -8  215.53   10.60
   2  -1  -7  110.85    6.38
  -2  -1  -7  110.05    7.22
   2   1  -7  120.45    6.13
   2   1  -7  114.58    6.19
   2  -1  -6 1047.20   21.48
   2   1  -6 1000.03   16.52
   2   1  -6  987.46   17.65
  -2  -1  -6 1013.42   20.62
   2  -1  -6 1006.19   18.64
  -2  -1  -5   23.03    2.83
   2  -1  -5   27.74    3.20
   2   1  -5   28.33    2.53
   2  -1  -5   28.29    2.99
   2   1  -5   27.28    3.00
   2  -1  -4  143.83    6.54
   2  -1  -4  143.03    7.14
  -2  -1  -4  135.89    6.68
   2   1  -4  147.03    5.14
   2   1  -4  154.80    6.65
  -2  -1  -3 1212.65   18.26
   2  -1  -3 1227.96   18.65
   2  -1  -3 1166.35   19.73
   2   1  -3 1284.47   12.67
   2   1  -3 1235.33   18.34
   2   1  -3 1215.72   13.68
   2  -1  -2  172.37    7.20
   2  -1  -2  145.16    6.34
   2   1  -2  158.26    4.98
   2   1  -2  149.19    6.16
   2   1  -2  163.09    4.64
   2  -1  -1   38.99    3.32
   2   1  -1   36.45    2.95
   2   1  -1   35.79    2.54
   2  -1  -1   40.90    3.23
   2   1   0   -0.02    0.55
   2   1   0   -0.16    0.31
   2  -1   0    0.70    0.96
   2  -1   0    0.22    0.36
   2  -1   1   35.76    3.01
   2   1   1   37.95    3.01
   2   1   1   37.72    3.09
   2   1   2  157.69    6.15
   2  -1   2  167.10    6.60
   2   1   2  148.88    6.58
   2   1   3 1201.47   19.27
   2   1   3 1252.58   17.14
   2  -1   3 1254.61   18.29
   2   1   4  139.76    5.74
   2  -1   4  139.01    6.20
   2   1   4  148.37    7.13
   2   1   5   24.90    3.08
   2   1   5   25.38    2.43
   2  -1   5   28.87    2.86
   2  -1   6 1022.84   17.57
   2   1   6 1001.57   15.77
   2   1   6 1020.92   20.04
   2  -1   7  120.67    6.17
   2   1   7  114.42    6.98
   2   1   7  110.57    5.31
   2  -1   8  190.23    8.09
   2   1   8  212.65    7.48
   2   1   8  195.80    9.61
   2   1   9  114.59    5.58
   2   1   9  115.52    7.73
   2  -1   9  118.52    6.56
   2   1  10   52.00    3.86
   2  -1  10   48.20    4.31
   2   1  10   47.30    5.17
   2   1  11   49.86    5.34
   2  -1  11   49.96    4.48
   2   1  11   39.43    3.44
   2   1  12  698.85   14.80
   2  -1  12  691.90   17.79
   2   1  12  693.22   20.42
   2   1  13   52.65    4.18
   2  -1  13   48.75    4.70
   2   1  13   61.35    6.26
   2  -1  14  178.94    9.56
   2   1  14  183.54   11.23
   2   1  14  187.01    7.86
  -2   1  14  186.32   10.02
  -2  -1  15   45.52    2.69
  -2   1  15   65.52    6.24
   2   1  15   60.63    4.69
   2   1  15   53.94    6.19
   2  -1  15   56.12    5.49
   2   1  16   51.95    4.26
   2  -1  16   56.70    5.62
   2   1  16   56.12    6.68
  -2   1  16   50.83    5.59
   2  -1  17    8.82    2.39
   2   1  17   11.79    3.43
  -2   1  17   15.68    3.64
   2  -1  18   49.06    5.63
  -2   1  18   48.00    5.64
   2   1  19    6.70    2.54
  -2   1  19    3.48    2.44
   2  -1  19    9.64    2.55
   2   1  20   38.94    5.97
   2   1  21   14.66    3.51
   2  -2 -30    4.63    3.93
  -2  -2 -29  114.56   13.49
   2  -2 -29  136.89   14.36
   2  -2 -28   44.62    8.24
  -2  -2 -28   38.34    7.44
   2  -2 -27   11.67    5.37
  -2  -2 -27   19.39    5.96
  -2  -2 -26   12.27    3.47
   2  -2 -26   11.31    4.49
   2  -2 -25  162.61   14.85
  -2  -2 -25  160.53   14.97
  -2  -2 -24   14.73    5.04
   2  -2 -24   15.59    4.49
   2   2 -24    5.79    2.47
   2   2 -23  279.55   18.28
  -2  -2 -23  248.02   17.81
   2  -2 -23  267.31   18.35
  -2  -2 -22    1.56    2.88
   2   2 -22    0.60    2.29
   2  -2 -22    7.80    3.68
   2  -2 -21   12.86    4.79
   2   2 -21    7.30    2.83
  -2  -2 -21    7.97    3.63
   2   2 -20   30.29    5.73
   2  -2 -20   20.96    4.20
  -2  -2 -20   21.00    5.52
   2   2 -19  368.72   18.95
  -2  -2 -19  315.12   19.17
   2  -2 -19  338.70   19.19
   2   2 -18   67.74    7.87
  -2  -2 -18   65.05    8.10
   2  -2 -18   73.00    8.70
   2  -2 -17  378.08   19.73
  -2  -2 -17  384.29   19.67
   2   2 -17  342.28   16.88
  -2  -2 -16    6.92    2.11
   2   2 -16    4.81    2.37
   2   2 -16    8.45    3.48
   2  -2 -16   12.39    3.19
   2   2 -15   71.78    6.33
   2   2 -15   72.75    7.29
   2  -2 -15   81.18    8.45
  -2  -2 -15   69.10    7.86
   2  -2 -14    8.61    3.52
  -2  -2 -14    6.76    2.70
   2   2 -14    9.88    2.95
   2   2 -14   12.41    2.53
  -2  -2 -13 1074.54   29.45
   2   2 -13 1084.33   23.49
   2   2 -13 1140.47   25.91
   2  -2 -13 1176.22   31.24
   2  -2 -13 1174.39   28.33
   2  -2 -12  242.57   13.52
   2   2 -12  250.02   11.00
  -2  -2 -12  275.95   14.44
   2   2 -12  231.33   11.10
   2  -2 -12  252.90   12.94
   2   2 -11    7.02    1.71
   2  -2 -11    1.33    1.27
   2  -2 -11    7.75    2.63
  -2  -2 -11    3.67    2.05
  -2   2 -11    2.54    0.58
   2   2 -11    6.70    1.83
  -2   2 -10  154.46    5.21
   2   2 -10  161.32    8.07
   2  -2 -10  173.50   10.16
   2   2 -10  163.00    8.50
  -2  -2 -10  155.18   10.20
   2  -2 -10  154.72   10.42
   2   2  -9  865.23   19.38
  -2  -2  -9  868.54   23.12
   2   2  -9  854.21   17.61
   2  -2  -9  811.57   23.09
   2  -2  -9  833.43   21.80
   2  -2  -8   63.69    6.26
   2   2  -8   63.16    5.19
  -2  -2  -8   60.21    5.80
  -2   2  -8   67.17    3.85
   2  -2  -8   66.13    6.00
   2   2  -8   65.35    4.38
   2   2  -7  698.93   17.07
   2   2  -7  719.53   13.18
  -2  -2  -7  683.25   18.84
   2  -2  -7  688.10   19.11
  -2   2  -7  714.73   13.17
   2   2  -6   51.83    4.48
  -2  -2  -6   51.38    5.01
   2   2  -6   50.68    2.69
  -2   2  -6   57.72    3.85
   2  -2  -6   44.20    4.86
   2   2  -6   58.13    3.32
   2  -2  -6   46.16    4.78
  -2  -2  -5  106.22    6.70
  -2   2  -5  103.99    5.30
   2   2  -5  100.00    6.19
   2   2  -5  101.70    4.19
   2  -2  -5  108.57    7.16
   2   2  -5  104.00    3.69
   2  -2  -5  106.18    7.13
  -2  -2  -4  225.92    9.18
   2  -2  -4  239.97   10.18
   2   2  -4  258.63    9.89
   2  -2  -4  240.74   10.32
   2   2  -4  257.08    7.21
  -2   2  -4  236.19    8.50
  -2  -2  -3 3536.81   32.84
   2   2  -3 3244.16   36.09
   2   2  -3 3428.12   28.40
   2  -2  -3 3545.46   38.40
   2  -2  -3 3347.32   37.80
   2   2  -2  412.03   12.31
   2   2  -2  428.58   10.74
  -2  -2  -2  400.59   10.16
   2  -2  -2  451.18   13.16
   2  -2  -2  418.05   13.13
   2   2  -1 1188.02   21.28
  -2  -2  -1 1212.23   15.68
   2  -2  -1 1209.15   21.76
   2  -2  -1 1147.67   20.28
   2   2  -1 1171.74   18.82
   2   2   0  208.74    8.29
   2  -2   0  213.21    8.52
   2   2   0  228.26    9.13
   2   2   1 1224.42   21.23
   2  -2   1 1181.03   19.54
   2  -2   1 1171.26   20.89
   2   2   2  408.88   12.62
   2  -2   2  445.34   12.82
   2   2   2  422.68   12.57
   2  -2   2  415.33   11.58
   2   2   3 3431.95   38.06
   2   2   3 3408.40   36.33
   2   2   4  247.48   10.48
   2   2   4  256.76   10.02
   2  -2   4  251.39    9.57
   2   2   5  103.03    6.28
   2  -2   5  102.38    6.18
   2   2   6   58.64    5.48
   2   2   6   51.64    4.62
   2  -2   6   57.27    4.59
   2  -2   7  729.10   16.76
   2   2   7  682.30   17.00
   2   2   7  713.82   19.70
   2   2   8   67.56    5.40
   2  -2   8   62.91    4.96
   2   2   8   62.26    5.98
   2  -2   9  873.39   18.78
   2   2   9  860.41   22.83
   2   2   9  862.56   19.54
   2   2  10  179.24   10.59
   2  -2  10  180.94    8.60
   2   2  10  181.42    9.15
   2   2  11    2.81    1.19
   2  -2  11    2.20    0.87
   2   2  12  232.76   10.84
   2  -2  12  260.18   10.78
   2   2  12  248.38   13.18
   2   2  13 1173.19   29.36
   2  -2  13 1113.85   22.97
   2   2  13 1157.01   24.16
   2   2  14    8.81    2.09
   2  -2  14    8.88    1.96
   2   2  14    5.26    2.31
   2   2  15   71.48    7.64
   2   2  15   68.47    6.31
   2  -2  15   67.71    5.83
   2   2  16    8.08    2.38
   2  -2  16    6.65    2.45
  -2   2  16    4.48    2.18
   2  -2  17  334.12   13.75
   2   2  17  353.75   17.86
   2   2  17  345.75   14.20
  -2   2  17  352.88   17.06
  -2   2  18   72.79    7.86
   2   2  18   65.72    7.81
  -2   2  19  321.68   17.16
   2   2  19  335.63   18.16
  -2   2  20   18.21    4.50
   2   2  20   33.07    6.08
   2   2  21    9.13    3.57
  -2   2  21   12.72    3.71
   2   2  22    9.52    3.86
   2   2  23  307.34   19.02
   2  -3 -29   25.77    6.37
  -2  -3 -29   19.58    5.73
   2  -3 -28    2.73    3.05
  -2  -3 -28    8.58    3.99
   2  -3 -27   -0.60    2.05
  -2  -3 -27   -0.59    3.00
   2  -3 -26    2.71    2.34
  -2  -3 -26    0.08    3.31
  -2  -3 -25   19.01    5.47
   2  -3 -25   19.81    5.14
   2  -3 -24   -0.67    1.51
  -2  -3 -24   -0.89    3.17
   2  -3 -23    2.30    2.04
  -2  -3 -23    7.03    3.73
   2  -3 -22    2.17    3.44
  -2  -3 -22    7.15    3.72
   2  -3 -21   26.99    5.10
  -2  -3 -21   24.99    6.07
  -2  -3 -20    7.77    2.67
   2  -3 -20   11.25    4.42
  -2  -3 -19    0.68    1.26
   2  -3 -19    0.59    2.47
   2   3 -18    2.39    1.41
  -2  -3 -18    2.84    3.30
   2  -3 -17    5.37    3.02
   2   3 -17    0.49    1.24
  -2  -3 -17    3.01    1.60
   2   3 -16    2.05    1.77
  -2  -3 -16    5.51    2.98
   2   3 -15   11.32    3.23
  -2  -3 -15    7.92    3.05
   2  -3 -15   11.05    3.46
   2   3 -15   12.79    2.90
  -2  -3 -14   23.97    4.58
   2  -3 -14   13.80    3.11
   2   3 -14   18.01    3.47
   2   3 -14   13.96    3.04
   2  -3 -14   13.17    3.46
   2  -3 -13    0.96    0.94
   2  -3 -13    1.70    0.92
  -2  -3 -13    0.26    2.19
  -2   3 -13    8.25    2.10
   2   3 -13    5.58    1.81
   2   3 -13    3.85    1.67
   2  -3 -12   49.57    6.17
  -2   3 -12   50.05    4.00
   2  -3 -12   48.61    6.51
   2   3 -12   53.94    5.71
  -2  -3 -12   56.10    6.52
   2   3 -12   45.52    4.64
   2  -3 -11   53.01    6.80
  -2   3 -11   63.71    4.76
   2  -3 -11   58.18    6.94
  -2  -3 -11   63.88    6.94
   2   3 -11   58.87    5.93
   2   3 -11   56.47    4.73
   2   3 -10   63.48    5.98
   2  -3 -10   53.35    6.38
   2   3 -10   59.52    4.52
  -2  -3 -10   56.70    6.65
  -2   3 -10   65.49    4.89
   2  -3  -9   60.25    6.64
   2   3  -9   80.47    6.49
   2  -3  -9   73.98    7.36
  -2   3  -9   83.55    5.70
   2   3  -9   72.53    4.44
  -2  -3  -9   68.34    6.81
   2   3  -9   66.14    3.41
   2   3  -8   12.70    1.71
   2  -3  -8   11.86    2.65
  -2   3  -8   14.55    2.58
   2   3  -8   13.20    2.76
   2  -3  -8   13.21    2.91
  -2  -3  -8   12.28    3.06
   2  -3  -7   57.42    6.07
   2   3  -7   50.79    5.25
  -2   3  -7   48.52    4.50
   2  -3  -7   56.10    6.17
   2   3  -7   54.05    3.65
  -2  -3  -7   50.84    5.38
  -2  -3  -6    3.94    1.81
   2  -3  -6    3.74    2.08
   2  -3  -6    3.51    1.61
  -2   3  -6    1.00    0.59
   2   3  -6    5.16    2.17
  -2   3  -5  246.20   10.43
   2   3  -5  269.38   11.81
   2  -3  -5  274.30   12.38
  -2  -3  -5  238.70   10.67
   2  -3  -5  257.10   12.75
   2   3  -4   25.89    3.52
  -2   3  -4   25.35    3.40
   2  -3  -4   31.76    4.24
   2  -3  -4   25.77    3.75
  -2  -3  -4   25.31    3.35
   2  -3  -3   29.97    4.19
   2  -3  -3   25.98    3.52
  -2   3  -3   31.30    4.00
   2   3  -3   22.06    3.40
  -2  -3  -3   27.16    3.14
   2  -3  -2   68.08    6.18
  -2  -3  -2   67.73    4.62
   2   3  -2   68.14    5.90
   2  -3  -2   64.26    5.42
   2  -3  -1 1689.26   27.28
   2  -3  -1 1839.01   31.14
  -2  -3  -1 1775.39   21.41
  -2   3  -1 1805.37   29.70
   2   3  -1 1738.86   29.96
   2  -3   0  188.63    8.94
   2  -3   0  176.51    9.53
  -2  -3   0  183.84    6.17
   2   3   0  187.72    9.84
   2   3   1 1882.33   31.21
   2  -3   1 1808.35   26.80
   2   3   2   59.28    5.55
   2  -3   2   64.48    4.97
   2  -3   2   63.04    5.54
   2  -3   3   21.17    2.89
   2  -3   3   24.72    3.53
   2   3   3   25.32    3.58
   2   3   4   31.73    4.39
   2   3   4   31.14    4.30
   2  -3   4   26.86    3.39
   2  -3   4   25.92    3.57
   2   3   5  241.23   11.62
   2   3   5  246.51   12.28
   2  -3   5  245.64   10.90
   2   3   6    1.41    0.75
   2  -3   6   -0.34    1.09
   2   3   6    0.93    1.20
   2  -3   7   56.63    5.07
   2   3   7   51.50    5.93
   2   3   7   51.25    5.44
   2  -3   8   12.29    2.33
   2   3   8   11.30    3.06
   2   3   8   13.18    2.80
   2  -3   9   69.57    5.77
   2   3   9   74.44    6.69
   2   3   9   71.78    7.13
   2   3  10   68.61    6.62
   2   3  10   71.47    7.33
   2  -3  10   67.02    5.68
   2  -3  11   69.32    5.85
   2   3  11   50.86    6.57
   2   3  11   68.74    6.42
   2  -3  12   44.41    4.68
   2   3  12   46.95    5.43
   2   3  12   43.67    5.97
   2  -3  13    2.48    0.78
   2   3  13   -0.19    1.77
   2   3  13    3.24    1.66
   2   3  14   18.70    3.62
   2   3  14   11.51    3.45
   2  -3  14   18.83    3.17
   2   3  15   15.00    3.54
   2  -3  15   10.33    2.63
   2   3  15   12.39    3.65
   2   3  16    6.84    2.09
   2  -3  16    6.30    2.09
   2   3  16   10.66    3.69
   2   3  17    1.38    2.04
   2   3  17   -1.15    1.25
   2   3  18    4.27    2.99
   2   3  18   12.03    3.68
  -2   3  18    5.42    2.32
  -2   3  19   -1.26    1.34
  -2   3  19   -1.53    1.73
  -2   3  20    8.04    3.40
   2   3  20   13.40    4.59
  -2   3  20   10.77    3.93
  -2   3  21   26.77    6.05
   2   3  21   28.63    5.31
  -2   3  22    3.92    2.29
   2   3  22    3.62    2.59
   2   3  23    1.27    2.15
   2   3  24    1.60    3.12
  -2  -4 -29   89.75   12.07
   2  -4 -29  102.02   13.09
  -2  -4 -28   32.68    7.05
   2  -4 -28   18.58    5.77
   2  -4 -27    0.76    1.91
  -2  -4 -27    6.40    3.98
   2  -4 -26    4.77    2.34
  -2  -4 -26    5.90    4.07
   2  -4 -25  134.32   13.69
  -2  -4 -25  144.63   14.57
  -2  -4 -24    6.25    3.69
   2  -4 -24    6.49    3.47
   2  -4 -23   95.20   11.14
  -2  -4 -23  108.58   11.86
   2  -4 -22    4.81    2.53
  -2  -4 -22    3.56    3.77
   2  -4 -21    0.78    2.29
  -2  -4 -21    3.06    3.43
   2  -4 -20   15.12    4.73
  -2  -4 -20   11.01    3.11
   2  -4 -19  368.94   21.28
  -2  -4 -19  347.57   20.41
   2  -4 -18  108.71   11.36
  -2  -4 -18   97.16   10.38
  -2  -4 -17  274.05   17.13
   2  -4 -17  253.90   16.90
  -2  -4 -16    8.95    3.81
   2  -4 -16    5.42    3.07
   2  -4 -15   83.33    9.09
  -2  -4 -15   93.56    9.77
   2  -4 -15   83.37    9.17
   2   4 -15   66.02    7.37
   2  -4 -14  134.83   11.61
  -2  -4 -14  108.39   10.33
   2  -4 -14  128.38   11.40
   2   4 -14  124.25    9.55
  -2  -4 -13  677.44   25.01
   2   4 -13  759.39   23.29
   2  -4 -13  742.90   26.68
   2  -4 -13  739.01   26.77
  -2  -4 -12  205.58   13.57
   2  -4 -12  232.76   14.68
   2  -4 -12  222.06   14.42
   2   4 -12  200.97   12.01
  -2   4 -12  206.35   10.40
   2  -4 -11  100.42    9.53
  -2   4 -11   67.32    6.12
   2   4 -11   75.24    7.29
  -2  -4 -11   61.66    7.32
   2  -4 -11   86.58    8.78
   2   4 -10   12.25    3.19
  -2   4 -10    9.35    2.51
   2   4 -10    8.66    1.64
   2  -4 -10   17.43    3.76
   2  -4 -10   10.14    3.13
  -2  -4 -10   15.74    3.43
  -2   4  -9  821.22   21.81
   2  -4  -9  855.85   26.18
  -2  -4  -9  903.73   25.70
   2  -4  -9  770.91   25.70
   2   4  -9  779.72   23.13
   2  -4  -8   71.69    7.45
  -2   4  -8   84.64    7.02
  -2  -4  -8   84.62    7.64
   2   4  -8   96.31    8.10
   2  -4  -8   86.78    8.47
   2   4  -7  201.10   11.80
   2  -4  -7  208.49   13.06
   2  -4  -7  215.07   12.66
  -2  -4  -7  205.54   11.56
  -2   4  -7  204.66   11.05
   2  -4  -6  112.69    9.48
   2  -4  -6  114.68    8.94
   2   4  -6  108.59    8.50
  -2  -4  -6  123.65    8.63
  -2   4  -6   98.63    7.67
  -2   4  -5   56.01    5.85
  -2  -4  -5   71.80    6.29
   2  -4  -5   68.05    7.34
   2  -4  -5   46.79    5.49
   2   4  -5   61.23    6.49
   2  -4  -4  236.96   13.31
  -2  -4  -4  229.17   10.46
   2  -4  -4  231.02   11.94
  -2   4  -4  214.57   11.50
   2   4  -4  219.18   12.09
   2  -4  -3  589.43   20.67
   2   4  -3  566.62   19.21
  -2   4  -3  570.67   18.78
  -2  -4  -3  565.05   16.01
   2  -4  -2   43.54    5.80
   2   4  -2   58.48    6.25
  -2   4  -2   55.91    6.09
  -2  -4  -2   51.15    4.54
   2  -4  -2   61.98    5.75
  -2   4  -1 2728.68   42.03
  -2  -4  -1 2756.76   29.68
   2   4  -1 2804.29   42.82
   2  -4  -1 2704.39   42.96
   2   4   0  280.52   13.59
   2  -4   0  274.79   13.44
  -2   4   0  292.10   13.78
  -2  -4   0  283.40    8.70
   2  -4   0  322.88   12.77
   2   4   1 2647.52   42.69
  -2   4   1 2781.13   42.55
   2  -4   1 2661.96   41.58
  -2  -4   2   53.44    2.65
   2  -4   2   47.79    4.80
   2   4   2   53.27    6.14
  -2  -4   2   53.12    5.61
   2  -4   2   53.68    5.87
  -2   4   2   35.68    5.21
   2   4   3  628.49   20.75
  -2  -4   3  593.67   17.69
   2  -4   3  563.49   16.17
   2  -4   3  557.52   18.36
  -2   4   3  573.79   20.32
   2   4   4  214.83   12.33
  -2  -4   4  238.90   11.01
   2  -4   4  230.21   10.18
   2   4   5   70.08    6.84
   2  -4   5   56.38    5.74
  -2   4   5   56.71    6.10
   2  -4   5   60.89    5.31
   2  -4   6  114.07    8.30
   2   4   6  102.90    8.57
   2  -4   6  101.07    7.02
   2   4   7  211.37   12.31
   2  -4   7  208.91   11.11
   2   4   7  201.44   12.78
   2   4   8   88.57    8.20
   2   4   8   79.14    8.26
   2  -4   8   84.85    7.12
   2  -4   9  759.21   21.37
   2   4   9  824.41   26.72
   2   4   9  830.34   24.98
   2  -4  10    7.53    2.14
   2   4  10   13.94    3.42
   2   4  10    7.78    3.01
   2   4  11   76.97    7.65
   2  -4  11   66.56    6.28
   2  -4  12  245.51   11.86
   2   4  12  247.66   14.28
   2  -4  13  737.21   20.97
   2   4  13  749.54   25.17
  -2   4  13  715.22   25.65
   2   4  13  756.44   27.02
  -2   4  14  123.23   10.78
   2   4  14  134.41   10.93
   2  -4  14  113.82    8.35
   2   4  14  129.24   11.64
   2   4  15   77.90    9.04
   2   4  15   95.19    9.24
   2  -4  15   86.63    7.33
  -2   4  16    7.10    3.81
   2   4  16    9.45    3.62
   2   4  16    9.85    3.61
   2   4  17  274.89   17.56
  -2   4  17  220.97   15.64
   2   4  17  267.17   16.11
  -2   4  18   80.54    9.52
   2   4  18   86.85   10.03
   2   4  18  114.01   10.38
  -2   4  19  364.25   20.79
  -2   4  19  351.02   19.93
   2   4  19  323.56   17.94
   2   4  19  318.54   19.81
  -2   4  20    5.23    2.37
   2   4  20   16.93    5.54
  -2   4  20   15.84    3.81
   2   4  21    4.04    2.91
  -2   4  21    0.96    3.22
  -2   4  21    2.07    3.58
  -2   4  22    4.80    2.77
   2   4  22    7.37    3.32
   2   4  23   84.08   10.78
  -2   4  23   94.63   11.60
   2   4  24    2.06    3.90
   2   4  25  161.67   15.78
  -2  -5 -28    1.01    2.81
   2  -5 -28    1.63    1.85
  -2  -5 -27   10.68    4.79
   2  -5 -27    7.56    2.92
   2  -5 -26   -1.76    2.30
  -2  -5 -26   -1.33    2.71
   2  -5 -25   16.06    5.55
  -2  -5 -25   22.12    4.90
   2  -5 -24    6.23    3.03
  -2  -5 -24   11.13    4.80
  -2  -5 -23   13.01    4.52
   2  -5 -23   11.74    4.78
   2  -5 -22   25.87    6.85
  -2  -5 -22   24.60    6.04
   2  -5 -21    2.31    3.15
  -2  -5 -21    9.74    2.73
  -2  -5 -20    1.57    3.48
   2  -5 -20    4.65    1.98
   2  -5 -19   27.56    6.13
  -2  -5 -19   25.19    6.19
   2  -5 -18    9.94    4.15
  -2  -5 -18    1.64    2.18
  -2  -5 -17    6.00    2.95
   2  -5 -17   10.47    3.49
   2  -5 -16   10.98    3.76
  -2  -5 -16   27.12    5.46
   2  -5 -15    7.44    3.36
  -2  -5 -15    2.98    1.51
   2  -5 -15    6.27    3.49
  -2  -5 -14   15.25    4.22
   2  -5 -14   16.08    2.98
   2  -5 -14   14.20    4.36
   2   5 -14    9.09    2.74
   2   5 -13  147.24   11.18
   2  -5 -13  155.88   12.61
  -2  -5 -13  171.83   13.39
   2  -5 -13  157.03   13.03
  -2  -5 -12   86.08    9.17
   2  -5 -12   72.85    8.76
   2   5 -12   75.98    8.28
   2  -5 -12   79.65    9.41
  -2  -5 -11    5.02    2.51
  -2   5 -11    1.74    1.14
   2  -5 -11    6.17    2.58
   2  -5 -11    3.76    2.74
   2   5 -11    7.97    2.68
  -2   5 -10   31.00    5.10
   2   5 -10   48.86    6.29
   2  -5 -10   41.09    6.54
  -2  -5 -10   39.88    5.72
   2  -5 -10   40.87    6.37
   2  -5  -9   34.68    5.49
   2   5  -9   29.59    4.98
  -2   5  -9   22.38    4.17
   2  -5  -9   26.57    5.14
  -2  -5  -9   31.90    5.20
   2   5  -8    5.37    2.08
   2  -5  -8    1.88    1.63
   2  -5  -8    2.01    2.86
  -2   5  -8    1.68    1.04
  -2  -5  -8    3.95    1.52
   2   5  -7    1.49    1.40
  -2  -5  -7   -1.11    1.90
   2  -5  -7   -0.78    1.88
  -2   5  -7    0.01    1.83
   2  -5  -7    1.42    2.38
  -2  -5  -6   13.75    3.08
   2   5  -6    9.36    2.85
   2  -5  -6   18.42    4.21
  -2   5  -6   12.91    3.98
   2  -5  -6   21.30    4.13
   2   5  -5   28.16    4.55
  -2   5  -5   36.49    5.48
   2  -5  -5   45.37    6.73
   2  -5  -5   32.04    4.91
  -2  -5  -5   37.06    4.88
   2  -5  -4  142.82   10.10
  -2   5  -4  128.89   10.16
   2   5  -4  147.82   10.99
  -2  -5  -4  156.64    9.34
   2  -5  -4  142.68   11.24
  -2  -5  -3  191.87    9.87
   2  -5  -3  148.41   10.19
  -2   5  -3  172.36   11.56
   2   5  -3  158.50   11.13
   2  -5  -3  148.45   11.41
   2  -5  -2   24.32    4.62
   2   5  -2   28.02    4.68
  -2   5  -2   32.93    5.45
  -2  -5  -2   24.84    3.36
   2  -5  -2   17.65    3.29
  -2  -5  -1  654.35   16.16
  -2   5  -1  612.88   21.99
   2   5  -1  644.28   22.65
   2  -5  -1  618.44   19.44
   2  -5  -1  613.56   22.74
  -2  -5   0   66.08    4.67
   2   5   0   66.51    7.30
  -2   5   0   52.34    6.32
   2  -5   0   49.91    6.61
   2  -5   0   63.02    5.98
   2  -5   1  632.13   22.45
  -2  -5   1  617.51   12.76
  -2   5   1  648.12   22.99
   2   5   1  652.02   23.12
   2  -5   1  654.73   19.16
   2  -5   2   18.27    3.88
   2   5   2   23.98    4.43
  -2   5   2   16.97    3.66
  -2  -5   2   17.93    3.75
   2  -5   2   28.28    3.96
  -2  -5   2   22.75    2.26
   2  -5   3  161.49    9.29
  -2  -5   3  151.39   10.24
  -2   5   3  150.09   11.19
   2   5   3  160.13   11.79
  -2  -5   4  139.05    9.63
   2  -5   4  141.20    8.76
  -2   5   4  143.74   11.16
   2   5   4  155.76   11.54
   2  -5   4  137.53   10.02
   2  -5   5   39.42    4.42
   2  -5   5   36.43    5.12
   2   5   5   39.15    5.93
  -2  -5   5   38.54    5.03
  -2   5   5   41.56    5.85
   2  -5   6   19.71    3.91
  -2  -5   6   21.40    3.62
   2  -5   6   17.50    3.04
  -2   5   6   15.43    4.07
   2   5   6   13.81    3.55
  -2   5   7    0.87    2.04
   2   5   7    1.61    1.81
   2  -5   7    0.63    1.29
   2  -5   7   -0.75    1.56
  -2   5   8    1.25    2.43
   2   5   8    5.47    1.79
   2   5   8    2.30    1.66
   2  -5   8    2.80    1.65
   2  -5   8    5.36    2.77
  -2   5   9   25.67    5.38
   2   5   9   37.14    5.78
   2   5   9   35.89    6.41
   2  -5   9   31.78    4.48
   2  -5   9   33.60    4.93
   2  -5  10   33.96    5.02
   2   5  10   30.18    5.31
  -2   5  10   47.14    6.68
   2   5  10   27.31    5.58
   2  -5  11    3.81    1.92
  -2   5  11    9.80    3.72
   2   5  11    2.82    1.56
   2   5  11    6.87    2.55
   2  -5  12   74.57    7.19
  -2   5  12   69.32    8.39
   2   5  12   54.39    7.80
   2   5  13  137.88   11.93
  -2   5  13  137.70   11.89
   2  -5  13  136.86    9.80
   2   5  13  136.25   12.10
   2   5  14    8.91    3.32
   2  -5  14   14.13    3.26
  -2   5  14   12.12    2.78
   2   5  14   16.97    4.29
   2   5  15   16.83    4.65
   2   5  15    7.79    3.21
  -2   5  15    6.16    3.30
  -2   5  16   18.10    5.22
   2   5  16   14.31    4.36
   2   5  16   19.90    4.62
   2   5  17   11.56    4.10
   2   5  17   12.43    4.71
  -2   5  17    6.21    3.58
  -2   5  18    2.79    1.91
   2   5  18    7.34    2.99
   2   5  18    8.73    4.25
   2   5  19   18.55    5.25
  -2   5  19   23.16    6.15
   2   5  19   25.95    5.82
  -2   5  19   14.45    4.62
  -2   5  20    1.94    2.24
   2   5  20    1.38    2.86
  -2   5  20    2.95    2.63
  -2   5  21    1.27    2.63
   2   5  21    2.65    3.07
  -2   5  21    0.74    1.92
  -2   5  22   22.62    6.34
   2   5  22   37.49    6.78
   2   5  23    5.76    3.37
  -2   5  23    5.06    3.21
  -2   5  24    8.34    4.13
   2   5  24   11.25    5.99
   2   5  25   29.53    7.98
   2   5  26   -3.64    3.77
  -2  -6 -26    6.71    5.02
   2  -6 -26    0.26    3.54
   2  -6 -25   78.06   10.66
  -2  -6 -25   77.07   11.58
  -2  -6 -24   36.25    8.62
   2  -6 -24   27.20    6.24
  -2  -6 -23   46.35    8.75
   2  -6 -23   23.94    4.55
  -2  -6 -22   35.50    7.18
   2  -6 -22   39.68    7.33
   2  -6 -21   25.60    6.34
  -2  -6 -21   25.40    6.31
  -2  -6 -20   18.64    5.64
   2  -6 -20   21.12    5.26
   2  -6 -19  278.17   19.35
  -2  -6 -19  259.41   18.61
   2  -6 -18    7.61    4.11
  -2  -6 -18    7.50    2.78
   2  -6 -17   90.34   11.26
  -2  -6 -17  105.98   11.28
   2  -6 -16   26.31    5.86
  -2  -6 -16   17.59    5.73
   2  -6 -15  221.10   16.82
  -2  -6 -15  191.41   15.20
   2  -6 -15  180.88   14.70
  -2  -6 -14   75.25    9.41
   2  -6 -14   63.16    9.05
   2   6 -14   55.63    7.66
   2  -6 -14   71.06    9.26
   2  -6 -13  903.42   31.74
   2   6 -13  859.34   29.73
  -2  -6 -13  827.78   30.03
   2  -6 -13  834.11   32.03
  -2  -6 -12   16.47    4.33
   2  -6 -12   25.91    6.04
   2  -6 -12   16.13    4.56
  -2   6 -12   21.54    4.81
   2   6 -12   16.73    4.45
   2  -6 -11  126.83   11.60
   2  -6 -11  139.76   12.88
  -2  -6 -11  147.81   12.32
   2   6 -11  141.89   12.06
  -2   6 -11  118.66   10.51
   2   6 -10   53.84    7.55
   2  -6 -10   60.34    8.13
  -2  -6 -10   52.06    7.33
   2  -6 -10   56.06    7.87
  -2   6 -10   58.86    7.46
   2  -6  -9  634.59   25.23
   2   6  -9  676.22   25.50
  -2  -6  -9  583.00   23.07
  -2   6  -9  678.33   25.26
   2  -6  -9  641.00   26.86
   2   6  -8  331.18   17.81
   2  -6  -8  316.40   18.89
   2  -6  -8  328.17   17.77
  -2  -6  -8  379.42   18.09
  -2   6  -8  351.12   18.05
   2  -6  -7  604.04   25.60
  -2   6  -7  638.03   24.63
   2  -6  -7  541.04   22.21
   2   6  -7  577.90   23.66
  -2  -6  -7  612.77   22.34
   2  -6  -6   11.00    3.44
   2  -6  -6    9.58    3.66
   2   6  -6   18.12    4.42
  -2  -6  -6   11.10    2.98
  -2   6  -6    9.65    2.93
   2   6  -5   67.60    8.28
   2  -6  -5   61.25    7.42
   2  -6  -5   45.09    7.16
  -2   6  -5   64.82    7.88
  -2  -6  -5   58.32    6.19
   2  -6  -4  676.95   26.39
   2   6  -4  663.12   25.33
  -2   6  -4  684.32   25.43
  -2  -6  -4  636.87   20.54
  -2   6  -3  495.53   21.56
  -2  -6  -3  506.32   17.36
   2   6  -3  476.32   21.14
   2  -6  -3  512.62   19.93
   2  -6  -3  491.48   22.62
   2  -6  -2  213.78   12.78
   2   6  -2  257.40   15.47
  -2  -6  -2  271.62   12.02
   2  -6  -2  224.28   15.07
  -2   6  -2  250.80   15.41
  -2   6  -1  558.95   22.70
   2  -6  -1  515.77   22.48
   2   6  -1  580.84   23.53
  -2  -6  -1  576.50   16.55
   2  -6   0   49.71    7.09
  -2  -6   0   49.39    4.45
   2  -6   0   54.13    6.03
   2   6   0   58.53    7.40
  -2   6   0   58.44    7.26
  -2   6   1  550.98   22.92
   2   6   1  552.57   23.15
   2  -6   1  551.65   22.76
  -2  -6   1  559.93   13.60
  -2  -6   2  257.68   15.00
  -2   6   2  250.48   15.51
   2   6   2  227.97   14.82
  -2  -6   2  212.44    7.44
   2  -6   2  227.09   11.95
   2  -6   2  253.58   15.51
  -2  -6   3  493.78   20.40
   2  -6   3  510.07   17.77
  -2   6   3  504.57   21.83
   2  -6   3  486.01   21.35
   2   6   3  461.07   21.26
   2   6   4  728.74   26.80
  -2   6   4  715.93   26.64
  -2  -6   4  705.18   24.19
   2  -6   4  669.19   20.05
   2  -6   4  639.48   24.38
  -2   6   5   66.20    8.22
   2   6   5   63.29    7.77
  -2  -6   5   54.41    6.71
   2  -6   5   60.27    6.04
   2  -6   5   66.21    7.81
   2   6   6   13.57    3.97
   2  -6   6   13.70    3.26
  -2   6   6   21.57    4.83
   2  -6   6   14.54    4.04
  -2   6   7  571.54   24.38
   2   6   7  622.25   25.40
   2  -6   7  594.79   18.64
   2  -6   7  629.69   23.81
  -2   6   8  368.42   19.86
   2  -6   8  349.30   14.55
   2  -6   8  377.14   18.43
   2   6   9  660.58   26.75
  -2   6   9  627.51   25.60
   2  -6   9  603.25   23.31
   2   6   9  669.26   26.51
   2   6  10   62.75    8.26
   2   6  10   45.91    7.06
  -2   6  10   58.54    8.02
   2  -6  10   45.85    6.52
   2   6  11  147.29   13.19
   2   6  11  136.55   12.16
  -2   6  11  122.38   11.51
   2  -6  11  110.25   10.09
   2  -6  12   17.87    4.26
  -2   6  12   25.38    5.69
   2   6  12   21.08    4.69
   2   6  12   19.92    5.15
   2   6  13  859.34   31.60
   2   6  13  869.75   32.36
  -2   6  13  814.18   30.72
   2   6  14   66.37    9.42
   2   6  14   71.21    9.33
  -2   6  14   44.12    6.77
   2   6  15  219.65   16.27
  -2   6  15  199.72   15.56
   2   6  15  200.77   16.00
   2   6  16   19.22    5.33
  -2   6  16   15.58    4.56
   2   6  16    4.54    2.79
   2   6  17  105.70   12.50
  -2   6  17   96.73   11.18
   2   6  17  125.65   12.51
   2   6  18   21.43    5.57
  -2   6  18    8.50    4.12
   2   6  18    9.60    3.92
   2   6  19  286.47   19.95
  -2   6  19  282.49   20.11
   2   6  19  297.03   20.04
  -2   6  19  271.38   19.29
  -2   6  20   21.96    5.23
   2   6  20   16.56    4.46
  -2   6  20   16.86    4.52
   2   6  20   32.85    7.24
  -2   6  21   19.51    5.57
  -2   6  21   24.00    6.14
   2   6  21   20.16    6.00
  -2   6  22   31.36    6.64
   2   6  22   32.88    5.90
  -2   6  22   39.78    8.00
  -2   6  23   35.36    7.47
   2   6  23   37.08    7.65
   2   6  24   32.83    7.77
  -2   6  24   32.74    7.88
  -2   6  25   69.26   11.20
   2   6  25   75.09   11.27
   2   6  26    4.73    3.17
  -2  -7 -24    1.05    2.45
   2  -7 -24    2.11    3.64
  -2  -7 -23    7.37    4.85
   2  -7 -23    0.61    3.19
   2  -7 -22    1.30    2.67
  -2  -7 -22    2.53    2.71
  -2  -7 -21    5.07    3.13
   2  -7 -21    3.64    2.02
   2  -7 -20   89.26   11.00
  -2  -7 -20   76.48   10.36
  -2  -7 -19   10.47    4.22
   2  -7 -19   17.86    5.80
  -2  -7 -18   34.80    6.72
   2  -7 -18   34.03    7.23
   2  -7 -17    9.92    4.38
  -2  -7 -17    3.55    1.72
  -2  -7 -16   16.49    4.40
   2  -7 -16   21.42    5.80
   2  -7 -15    1.82    2.72
  -2  -7 -15   -0.83    3.68
   2  -7 -14  121.60   12.38
   2  -7 -14  118.47   12.55
  -2  -7 -14  112.02   11.69
   2  -7 -13   30.12    6.67
   2  -7 -13   37.53    7.28
  -2  -7 -13   28.29    6.32
   2   7 -13   36.39    6.81
   2   7 -12  111.07   11.64
   2  -7 -12  105.41   11.66
  -2  -7 -12  112.34   11.33
   2  -7 -12   85.67    9.75
   2   7 -11   76.60    9.61
  -2  -7 -11   76.80    9.22
  -2   7 -11   76.18    9.62
   2  -7 -11  106.65   11.38
   2  -7 -11   86.04   10.67
  -2  -7 -10   83.24    9.28
  -2   7 -10   91.83   10.43
   2  -7 -10   81.83    9.48
   2  -7 -10   84.38   10.30
  -2   7  -9   90.50   10.04
   2   7  -9   77.04    9.42
   2  -7  -9   80.74    9.49
   2  -7  -9   89.73   10.59
  -2  -7  -9   97.57    9.89
   2  -7  -8  198.29   14.66
  -2  -7  -8  203.60   13.90
  -2   7  -8  199.85   14.96
   2  -7  -8  210.68   16.13
   2   7  -8  205.46   15.31
  -2   7  -7    2.10    3.17
   2  -7  -7   -0.80    1.96
   2  -7  -7    3.80    3.03
   2   7  -7   -0.77    1.29
  -2  -7  -7   -0.88    1.46
   2  -7  -6  183.74   13.28
  -2   7  -6  210.70   15.45
   2  -7  -6  245.02   17.04
  -2  -7  -6  238.68   14.65
   2   7  -6  224.76   15.96
  -2   7  -5  189.22   14.49
   2  -7  -5  161.73   12.44
   2  -7  -5  181.26   14.75
  -2  -7  -5  196.94   12.46
   2   7  -5  198.57   14.73
   2  -7  -4    6.43    3.48
  -2   7  -4   11.34    4.06
  -2  -7  -4    8.38    2.43
   2   7  -4   12.37    4.12
   2  -7  -4    3.03    1.80
  -2   7  -3  460.37   22.46
   2   7  -3  391.33   20.70
  -2  -7  -3  397.32   16.76
   2  -7  -3  391.36   18.61
   2  -7  -3  453.14   22.48
   2   7  -2   49.44    7.33
   2  -7  -2   52.28    6.50
  -2   7  -2   37.15    6.57
  -2  -7  -2   39.91    5.28
   2  -7  -2   45.27    7.15
   2   7  -1   27.85    5.10
  -2   7  -1   39.68    7.10
   2  -7  -1   35.92    5.62
   2  -7  -1   28.18    5.79
   2  -7   0    1.60    1.36
   2   7   0    2.76    1.18
   2  -7   0    7.46    3.43
  -2   7   0    2.47    2.13
   2  -7   1   24.68    4.42
   2  -7   1   36.75    6.86
  -2   7   1   29.18    5.69
   2   7   1   36.08    6.48
   2  -7   2   44.44    5.87
   2   7   2   48.85    7.61
   2  -7   2   43.72    7.13
  -2   7   2   41.31    6.68
   2   7   3  382.96   20.84
   2  -7   3  406.96   16.62
   2  -7   3  412.14   21.33
  -2   7   3  376.90   20.27
   2  -7   4   10.76    3.90
  -2   7   4   10.15    4.30
   2   7   4    7.11    2.33
  -2   7   5  180.47   14.40
   2   7   5  194.87   14.57
   2  -7   5  206.70   15.16
   2   7   6  222.04   16.01
   2  -7   6  213.79   15.35
  -2   7   6  226.91   15.42
   2   7   7   -2.15    2.56
   2  -7   7    0.28    2.14
  -2   7   7    1.77    1.65
   2   7   8  209.24   15.87
   2  -7   8  211.75   15.30
   2   7   8  176.43   14.55
  -2   7   8  224.91   16.34
  -2   7   9   69.23    9.34
   2   7   9   90.40   10.41
   2  -7   9   86.57    9.17
   2   7   9   80.86    9.75
   2   7  10   74.60    9.55
  -2   7  10   68.73    9.64
   2  -7  10   82.50    9.48
   2   7  10   65.81    8.59
   2  -7  11   77.35    9.05
   2   7  11   96.71   11.18
  -2   7  11   75.46   10.27
   2   7  11   90.54   10.72
   2   7  12  109.25   12.00
  -2   7  12   70.64    9.54
   2   7  12   95.71   11.23
   2   7  13   31.37    6.58
  -2   7  13   26.70    5.85
   2   7  13   32.91    7.04
  -2   7  14   95.90   11.61
   2   7  14  116.45   12.07
   2   7  14  105.34   11.85
   2   7  15    0.48    1.82
  -2   7  15    0.01    2.23
   2   7  15    0.63    2.15
   2   7  16   18.54    5.21
   2   7  16   25.20    5.72
  -2   7  16   28.16    6.49
   2   7  17    3.97    3.84
   2   7  17    7.75    3.40
  -2   7  17   10.24    3.52
   2   7  18   39.21    7.16
  -2   7  18   29.47    6.67
   2   7  18   47.14    8.39
  -2   7  19    6.29    3.60
   2   7  19    4.92    3.18
   2   7  19   14.51    4.87
  -2   7  19   10.54    3.92
   2   7  20   51.60    9.02
  -2   7  20   63.54    9.66
   2   7  20   70.58   11.01
  -2   7  20   49.72    8.68
  -2   7  21   16.21    4.89
   2   7  21    8.07    4.17
  -2   7  21    6.08    3.65
  -2   7  22    4.44    4.05
  -2   7  22   -2.58    3.08
   2   7  22    0.60    2.18
   2   7  23    9.77    4.69
  -2   7  23   -6.36    2.58
  -2   7  24   -3.35    4.36
   2   7  24    0.51    2.64
  -2  -8 -22   12.73    3.87
   2  -8 -22   21.50    4.89
   2  -8 -21    4.45    2.50
  -2  -8 -21    5.08    3.29
   2  -8 -20    5.63    2.21
  -2  -8 -20    8.12    4.36
   2  -8 -19   39.62    7.69
  -2  -8 -19   39.09    7.76
  -2  -8 -18   -0.30    3.26
   2  -8 -18   -2.66    4.18
  -2  -8 -17   39.83    7.60
   2  -8 -17   32.52    6.75
  -2  -8 -16   26.85    6.25
   2  -8 -16   31.92    7.17
   2  -8 -15    2.41    3.87
  -2  -8 -15    2.76    1.91
  -2  -8 -14   14.43    4.61
   2  -8 -14   11.91    4.18
   2   8 -13   45.01    8.65
   2  -8 -13   54.09    8.84
  -2  -8 -13   37.23    6.74
   2  -8 -13   58.65    9.19
   2   8 -12    3.55    2.90
  -2  -8 -12   -1.52    2.85
   2  -8 -12    7.07    3.83
   2  -8 -12    3.18    3.86
   2  -8 -11    2.51    2.50
  -2   8 -11    7.05    4.20
   2   8 -11   -0.45    2.53
  -2  -8 -11    1.86    1.70
   2  -8 -11   10.28    4.04
   2   8 -10   16.08    4.77
  -2   8 -10   12.26    4.95
   2  -8 -10   19.70    5.33
  -2  -8 -10   13.48    3.71
   2  -8 -10   16.21    5.22
   2  -8  -9   67.61    9.47
  -2  -8  -9   59.44    7.70
  -2   8  -9   87.24   10.84
   2  -8  -9   65.79    8.88
   2   8  -9   65.40    8.93
   2  -8  -8   12.51    4.39
  -2  -8  -8   11.54    3.32
   2  -8  -8    9.73    2.60
   2   8  -8   15.12    5.07
  -2   8  -8    4.81    2.60
   2   8  -7   87.23   10.39
  -2  -8  -7   83.13    9.62
   2  -8  -7   85.46   10.37
   2  -8  -7   80.82   10.65
  -2   8  -7   91.50   11.09
  -2  -8  -6   13.58    4.16
   2  -8  -6   18.51    5.04
  -2   8  -6   26.35    5.82
   2   8  -6   16.79    4.85
   2  -8  -6   20.31    4.83
  -2   8  -5   37.72    7.28
   2   8  -5   34.97    6.77
   2  -8  -5   47.96    6.99
   2  -8  -5   30.63    6.45
   2  -8  -4   98.10   11.63
   2   8  -4  108.86   11.99
  -2   8  -4   95.19   11.17
   2  -8  -4   94.36   10.11
  -2   8  -3  302.54   19.54
   2  -8  -3  351.38   18.76
   2   8  -3  306.13   19.35
   2  -8  -3  309.61   20.12
  -2   8  -2    3.73    1.95
   2  -8  -2    8.13    2.43
   2  -8  -2   10.19    2.97
   2   8  -2    1.96    2.32
   2   8  -1    6.80    2.18
   2  -8  -1    9.21    2.90
  -2   8  -1   13.13    3.98
   2   8   0   13.32    4.17
  -2   8   0    9.30    4.06
  -2   8   1   13.26    4.59
   2   8   1   10.80    3.91
   2  -8   1   13.04    4.69
   2  -8   2    8.26    2.73
  -2   8   2    6.46    3.48
   2   8   2    4.02    1.89
  -2   8   3  300.54   19.61
   2  -8   3  267.92   18.37
   2   8   3  303.02   19.09
   2  -8   4  101.43   11.37
  -2   8   4   95.95   11.16
   2   8   4   92.20   11.19
   2   8   5   29.91    6.25
  -2   8   5   32.47    6.94
   2  -8   5   26.62    5.72
  -2   8   6   23.28    5.65
   2  -8   6   15.83    4.10
   2   8   6   26.29    6.05
   2   8   7   98.78   10.95
   2   8   7   82.55   10.21
   2  -8   7   92.96   10.69
  -2   8   7  107.09   12.02
  -2   8   8    6.68    1.60
   2   8   8   11.32    3.70
   2   8   8   12.92    3.86
   2  -8   8    7.13    3.62
  -2   8   9   63.08    9.77
   2   8   9   73.98   10.31
   2  -8   9   69.90    8.86
   2   8   9   65.90    9.46
  -2   8  10   13.10    4.90
   2   8  10   12.36    2.89
   2   8  10    7.96    2.41
   2  -8  10   10.70    3.78
  -2   8  11    2.15    2.26
   2   8  11    1.80    2.47
   2   8  11   -3.30    3.07
   2   8  12   -0.39    1.77
  -2   8  12    1.23    2.29
  -2   8  13   34.35    7.31
   2   8  13   36.97    7.35
   2   8  13   36.72    7.77
   2   8  14    4.85    3.04
  -2   8  14    9.98    4.86
   2   8  14    8.74    4.19
   2   8  15   -0.40    2.72
   2   8  15    3.02    3.35
  -2   8  15    6.35    4.20
   2   8  16   40.39    7.56
  -2   8  16   39.20    8.57
   2   8  16   36.62    7.63
   2   8  17   31.97    7.34
  -2   8  17   37.56    8.14
   2   8  17   34.38    7.78
   2   8  18    3.26    2.81
   2   8  18   -4.22    2.34
  -2   8  18    2.20    2.76
  -2   8  19   55.65    9.58
   2   8  19   32.89    7.09
   2   8  19   42.63    8.69
  -2   8  20   10.81    4.97
  -2   8  20   16.05    6.98
   2   8  20    6.96    4.49
   2   8  20    5.51    4.55
  -2   8  21    3.81    2.24
   2   8  21    8.07    3.75
  -2   8  21    5.99    3.13
   2   8  22   28.14    7.58
  -2   8  22   26.11    7.11
  -2   8  22   10.68    4.90
  -2  -9 -19    3.07    2.41
   2  -9 -19    3.06    3.20
  -2  -9 -18   10.29    4.55
   2  -9 -18    1.79    2.58
  -2  -9 -17   -1.63    2.57
   2  -9 -17   -0.71    1.91
  -2  -9 -16    5.23    3.04
   2  -9 -16    8.20    4.05
   2  -9 -15   -5.54    4.22
  -2  -9 -15    0.66    1.95
  -2  -9 -14    5.00    4.38
   2  -9 -14    6.75    4.27
  -2  -9 -13    7.26    3.95
   2  -9 -13   -0.67    2.44
   2  -9 -12   -0.56    2.61
   2  -9 -12    3.62    3.63
   2   9 -12    8.41    3.73
   2  -9 -11    5.28    4.36
   2   9 -11    5.30    2.24
   2  -9 -11   15.63    5.18
  -2   9 -10   17.56    5.58
   2  -9 -10   16.26    5.11
   2   9 -10   23.58    6.12
   2  -9 -10   15.95    4.56
   2   9  -9   -0.67    3.30
  -2   9  -9    2.82    3.34
   2  -9  -9    1.06    2.99
   2  -9  -9    0.63    2.52
   2   9  -8    4.04    3.18
   2  -9  -8    4.00    3.26
  -2   9  -8   -3.42    3.21
   2  -9  -8    6.24    2.04
   2   9  -7    3.70    3.52
   2  -9  -7    5.77    4.05
   2  -9  -7    1.51    1.76
  -2   9  -7   -0.37    2.62
   2   9  -6   28.54    6.20
  -2   9  -6   14.06    4.04
   2  -9  -6   24.33    6.36
   2  -9  -5   22.94    6.03
  -2   9  -5   19.04    5.84
   2   9  -5   37.54    7.38
   2  -9  -4   15.28    4.72
   2   9  -4   25.20    6.47
  -2   9  -4   16.34    5.55
   2   9  -3   48.00    7.81
  -2   9  -3   28.95    6.06
   2  -9  -3   35.78    7.34
   2  -9  -2   10.64    4.23
  -2   9  -2   10.82    4.14
   2   9  -2   16.78    4.77
   2  -9  -1    6.28    4.05
   2   9  -1   10.20    4.14
  -2   9  -1    8.03    3.77
   2   9   0   17.07    4.89
  -2   9   0   13.14    4.85
   2  -9   0   10.08    4.53
   2   9   1    9.22    4.10
  -2   9   1   10.38    3.85
   2  -9   1   14.53    5.91
   2  -9   2   16.81    5.92
   2   9   2   18.97    5.13
  -2   9   2   14.99    4.87
  -2   9   3   30.08    7.48
   2   9   3   39.90    7.01
   2  -9   3   49.33    8.26
  -2   9   4   12.09    4.43
   2   9   4    9.09    3.65
   2   9   4    9.80    4.40
  -2   9   5   25.44    6.27
   2   9   5   38.68    7.38
   2  -9   5   12.22    4.06
   2   9   5   32.11    6.29
   2   9   6   26.29    5.50
   2   9   6   17.90    5.02
   2  -9   6   24.19    7.00
  -2   9   6   35.32    7.28
   2  -9   7   -2.94    2.67
   2   9   7   -0.58    1.84
  -2   9   7   -1.90    2.79
   2   9   7    3.53    2.55
   2   9   8    5.34    2.53
  -2   9   8    2.38    3.11
   2   9   8    0.50    1.60
   2  -9   8    0.03    3.09
   2   9   9    1.31    1.82
  -2   9   9    2.65    3.91
   2  -9   9   -3.88    3.18
   2   9   9    0.18    1.82
   2   9  10   27.28    6.68
   2   9  10   19.20    5.28
  -2   9  10   17.67    5.24
  -2   9  11    8.22    3.95
   2   9  11    6.51    4.30
   2   9  11    3.34    1.97
   2   9  12    7.52    4.96
   2   9  12    2.67    1.49
  -2   9  12    3.67    3.10
   2   9  13    4.41    3.26
  -2   9  13    7.04    4.75
   2   9  13    4.92    4.67
   2   9  14    4.25    4.11
  -2   9  14   13.77    5.82
   2   9  14    5.56    3.11
   2   9  15   -1.60    2.41
  -2   9  15    0.06    3.48
   2   9  15   -1.08    2.54
  -2   9  16    6.17    4.61
   2   9  16    7.25    3.95
   2   9  16    7.95    5.25
  -2   9  17    0.09    2.62
   2   9  17   -1.67    3.22
   2   9  17   -3.63    4.89
   2   9  18    5.89    3.41
  -2   9  18   15.99    6.24
   2   9  18   13.24    5.27
  -2   9  18   12.52    5.30
  -2   9  19    5.73    3.51
  -2   9  19    1.05    2.87
   2   9  19    5.17    3.97
   2   9  19    3.28    1.94
   2 -10 -15   10.71    4.29
   2  10 -11   25.60    6.98
   2  10 -10   11.84    5.22
   2 -10 -10    5.18    4.25
  -2  10  -9   18.04    5.05
   2 -10  -9   23.68    6.33
  -2  10  -8    9.06    2.77
   2  10  -8   11.45    3.69
   2 -10  -8   14.30    5.40
   2 -10  -7  150.66   15.31
  -2  10  -7  132.38   14.39
   2  10  -7  126.51   13.63
  -2  10  -6   18.98    5.71
   2  10  -6   23.70    5.58
   2 -10  -6   18.08    5.35
   2  10  -5   14.76    5.36
   2 -10  -5   -2.00    3.69
  -2  10  -5    8.51    4.46
  -2  10  -4   21.69    6.63
   2  10  -4   31.42    7.45
   2 -10  -4   20.88    6.06
   2 -10  -3   63.01    9.99
   2  10  -3   64.47    9.83
   2  10  -3   52.34    9.23
  -2  10  -3   72.95   10.76
   2 -10  -2   18.23    4.94
   2  10  -2   20.13    5.90
   2  10  -2   27.39    6.72
  -2  10  -2   24.77    6.36
   2 -10  -1    3.06    4.12
   2  10  -1    4.68    3.52
   2  10  -1   -1.10    1.99
  -2  10  -1    3.30    3.30
  -2  10   0   11.24    4.25
   2  10   0    6.16    3.79
   2 -10   0    7.97    4.02
   2  10   0    6.24    2.69
   2  10   1   -0.07    1.79
  -2  10   1    3.08    4.00
   2  10   1    8.27    3.82
   2 -10   1   -2.63    3.30
   2  10   2   16.46    4.84
   2  10   2   31.23    7.18
  -2  10   2   29.00    7.59
   2 -10   2   33.64    8.05
   2  10   3   66.62   10.08
  -2  10   3   58.68    9.15
   2  10   3   62.69    9.65
   2 -10   3   70.81   11.47
   2  10   4   28.31    6.69
   2  10   4   16.39    4.94
  -2  10   4   17.72    5.39
   2 -10   4   24.97    7.40
   2  10   5    9.92    4.94
   2 -10   5    4.59    3.72
  -2  10   5    5.37    3.47
   2  10   5    8.88    4.38
   2  10   6   27.73    7.33
  -2  10   6    7.23    3.40
   2  10   6   22.01    5.97
   2 -10   6   26.55    6.61
   2  10   7  139.67   14.73
  -2  10   7  125.35   13.86
   2 -10   7  132.07   14.60
   2  10   7  121.94   13.12
  -2  10   8    2.04    3.08
   2  10   8   10.66    4.39
   2  10   8    5.46    2.58
   2  10   9   23.32    5.95
  -2  10   9   23.61    5.93
   2  10   9   24.28    6.28
   2  10  10   12.94    4.37
  -2  10  10    8.83    2.12
   2  10  10    2.05    2.94
   2  10  11   26.20    6.84
  -2  10  11   31.72    7.21
   2  10  11   16.63    3.92
  -2  10  12   -0.60    3.26
   2  10  12   17.11    6.23
   2  10  12    8.55    4.87
   2  10  13   43.84    7.72
   2  10  13   51.77    9.59
   2  10  14   11.83    4.08
  -2  10  14   18.72    5.72
   2  10  14   27.94    6.46
   2  10  15    9.48    4.05
  -2  10  15   15.35    5.15
   2  10  15   14.84    6.03
   2  11 -10   -3.39    4.69
   2  11  -9    3.24    2.87
   2  11  -8   13.01    5.22
  -2  11  -8    0.05    2.71
  -2  11  -7    2.67    2.99
   2 -11  -7   -1.15    2.50
   2  11  -7    5.89    3.17
  -2  11  -6    9.04    5.34
   2  11  -6    6.84    3.72
   2 -11  -6    7.82    3.45
   2  11  -5    0.09    2.35
  -2  11  -5    0.79    2.50
   2 -11  -4    0.04    2.16
  -2  11  -4    1.97    3.44
   2  11  -4    5.57    3.11
   2 -11  -3   -2.84    3.09
   2  11  -3    0.27    3.12
  -2  11  -3    6.71    3.70
   2  11  -2    7.06    3.98
   2 -11  -2    3.61    2.56
   2  11  -2    0.02    2.79
  -2  11  -2    7.56    4.83
  -2  11  -1    5.41    3.13
   2  11  -1    2.52    2.91
   2 -11  -1    0.07    3.35
   2  11  -1   12.22    4.91
   2  11   0    5.71    4.16
   2 -11   0    2.62    3.83
   2  11   0    2.38    3.99
  -2  11   0   -0.75    1.94
   2 -11   1    8.13    4.68
   2  11   1    0.27    2.45
   2  11   1    8.90    4.20
  -2  11   1    3.77    2.92
   2  11   2    4.69    4.28
   2  11   2    3.65    3.89
  -2  11   2    0.71    2.65
   2 -11   2   -3.08    3.22
   2  11   3    6.22    3.21
   2  11   3    2.52    2.55
  -2  11   3    4.69    3.39
   2  11   4    2.78    3.76
   2  11   4   -0.47    3.46
  -2  11   4    1.54    2.97
   2 -11   4    2.85    3.12
   2  11   5   -0.26    2.77
   2  11   5    0.54    1.78
  -2  11   5    1.66    2.06
   2 -11   5   -6.75    5.29
   2  11   6    7.59    3.66
  -2  11   6   23.53    5.89
   2  11   6   19.97    6.32
   2  11   7    5.04    3.39
   2  11   7    2.96    3.52
  -2  11   7   -1.77    2.31
   2  11   8    3.37    3.32
   2  11   8    3.81    3.03
  -2  11   8    2.78    3.35
   2  11   9   -2.52    4.70
   2  11   9    4.71    3.09
  -2  11   9    3.02    2.60
  -2  11  10    5.38    3.77
   2  11  10    1.09    2.83
   2  11  10   10.59    5.26
   3   0 -30    0.77    2.28
   3   0 -29   -0.42    2.60
   3   0 -28   -2.53    2.30
   3   0 -27    2.39    3.48
   3   0 -26   -2.35    1.92
   3   0 -25   -2.40    3.34
   3   0 -24   -0.51    2.47
   3   0 -23    0.61    2.01
   3   0 -22   -0.94    2.01
   3   0 -21    1.11    3.00
   3   0 -20    1.12    1.78
   3   0 -19   -0.71    1.50
   3   0 -18    1.04    1.31
   3   0 -17   -0.09    1.49
   3   0 -16   -0.73    1.17
   3   0 -15    0.06    1.08
   3   0 -14    1.04    1.21
   3   0 -13    0.01    1.82
   3   0 -12   -0.05    0.90
   3   0 -12    0.52    1.76
   3   0 -11   -0.32    0.67
   3   0 -11   -1.12    1.73
   3   0 -10    0.91    0.94
   3   0 -10    0.28    1.12
   3   0  -9   -0.22    0.35
   3   0  -9    0.83    1.19
   3   0  -8    0.36    0.53
   3   0  -8   -0.35    0.76
   3   0  -7    0.05    0.41
   3   0  -7    0.76    0.60
   3   0  -6    0.02    0.54
   3   0  -6    0.23    0.46
   3   0  -6   -0.12    0.58
   3   0  -5   -0.27    0.75
   3   0  -5    0.26    0.65
   3   0  -5    0.08    0.43
   3   0  -4    0.40    0.74
   3   0  -4    0.74    0.56
   3   0  -4    0.09    0.40
   3   0  -3   -0.01    0.42
   3   0  -3   -0.40    0.48
   3   0  -2    0.52    0.73
   3   0  -2   -0.04    0.65
   3   0  -2    0.31    0.37
   3   0  -1   -0.33    0.60
   3   0  -1    0.12    0.65
   3   0  -1   -0.58    0.62
   3   0   0   -0.20    0.74
   3   0   0    0.52    0.72
   3   0   1   -0.30    0.41
   3   0   1    0.41    0.60
   3   0   2    0.76    0.74
   3   0   2    1.39    1.00
   3   0   3   -0.34    1.03
   3   0   3   -0.09    0.32
   3   0   4    0.63    0.98
   3   0   4   -0.24    0.43
   3   0   5   -0.32    0.92
   3   0   5    0.02    0.27
   3   0   6    0.36    0.40
   3   0   6   -0.20    1.00
   3   0   7   -0.34    0.56
   3   0   7    2.32    1.38
   3   0   8    0.13    0.86
   3   0   8    0.11    0.42
   3   0   9    0.19    0.67
   3   0   9   -0.10    0.21
   3   0  10   -0.48    0.90
   3   0  11    0.09    0.72
   3   0  12   -0.57    1.33
   3   0  13   -0.82    1.48
   3   0  14    1.97    0.97
  -3   0  14    1.00    0.96
  -3   0  15   -0.18    1.07
   3   0  15   -1.20    2.08
   3   0  16    0.46    1.08
  -3   0  16   -0.97    1.05
  -3   0  17   -1.53    0.94
   3   0  17    0.07    1.09
   3   0  18    0.42    1.52
   3   0  19    0.40    1.68
   3   0  20    0.94    2.62
   3   0  21    0.23    1.28
   3  -1 -30    4.36    2.59
   3  -1 -29   46.77    8.45
   3  -1 -28   33.91    7.89
   3   1 -28   27.39    7.00
   3   1 -27   27.25    6.11
   3  -1 -27   27.47    5.61
   3   1 -26    7.05    2.89
   3  -1 -26   17.08    4.89
   3  -1 -25   84.28   10.53
   3   1 -25   68.42    9.10
   3   1 -24   27.22    6.13
   3  -1 -24   34.34    6.78
   3  -1 -23  175.69   14.89
   3   1 -23  179.02   14.94
  -3  -1 -22   48.68    7.75
   3  -1 -22   53.93    8.36
   3   1 -21   11.30    3.81
   3  -1 -21    7.29    3.10
  -3  -1 -21    3.57    1.76
   3  -1 -20   88.82    9.98
   3   1 -20   74.17    8.73
  -3  -1 -20   81.66    9.71
  -3  -1 -19  206.00   15.03
   3   1 -19  184.40   13.56
   3  -1 -19  188.47   14.29
   3  -1 -18   23.38    5.02
   3   1 -18   14.36    4.22
  -3  -1 -18   21.11    4.15
   3  -1 -17  206.80   14.27
   3   1 -17  178.28   12.67
  -3  -1 -17  222.76   14.78
  -3  -1 -16   67.09    8.06
   3   1 -16   65.23    7.19
   3  -1 -16   58.88    7.47
  -3  -1 -15   36.54    5.77
   3   1 -15   45.13    5.90
   3  -1 -15   41.26    5.94
  -3  -1 -14  111.80    9.80
   3   1 -14  129.50    9.54
   3  -1 -14  119.56    9.92
   3  -1 -14  121.48    8.29
   3   1 -13  599.45   19.92
   3  -1 -13  568.55   21.32
   3  -1 -13  573.12   17.73
  -3  -1 -13  612.48   22.19
  -3  -1 -12  475.27   18.87
   3   1 -12  458.88   16.87
   3   1 -12  484.68   15.74
   3  -1 -12  469.41   15.70
   3  -1 -11  117.47    9.23
   3  -1 -11  107.83    7.27
  -3  -1 -11  130.58    9.58
   3   1 -11  111.31    7.43
   3   1 -11  109.15    7.86
   3   1 -10  246.96   11.19
   3  -1 -10  231.65   12.42
   3   1 -10  220.30   10.29
   3  -1 -10  232.82   10.58
  -3  -1 -10  247.12   12.60
   3  -1  -9  825.33   22.72
   3  -1  -9  792.04   18.96
  -3  -1  -9  816.09   22.15
   3   1  -9  843.78   19.66
   3   1  -9  833.81   19.59
  -3  -1  -8  267.24   12.12
   3  -1  -8  267.80   12.36
   3  -1  -8  247.94   10.31
   3   1  -8  255.22   10.62
   3   1  -8  251.95   10.22
   3   1  -7  465.44    7.71
   3   1  -7  434.16   13.60
   3   1  -7  474.08   13.10
   3  -1  -7  441.93   13.17
  -3  -1  -7  470.87   15.37
   3  -1  -7  471.78   15.90
   3   1  -6 1292.90   23.03
   3  -1  -6 1352.28   25.76
   3   1  -6 1324.65   13.94
   3  -1  -6 1312.39   22.43
   3   1  -6 1320.27   21.23
   3   1  -5   97.85    4.05
   3  -1  -5   99.86    6.09
   3   1  -5  104.90    6.35
   3   1  -5   96.29    5.24
   3  -1  -5  102.68    6.93
   3   1  -4  814.19   17.35
   3  -1  -4  815.45   17.08
   3   1  -4  828.30   12.42
   3   1  -4  848.71   14.99
   3  -1  -3 4180.38   38.09
   3   1  -3 4249.27   32.15
   3   1  -3 4077.00   29.97
   3  -1  -3 4052.22   40.57
   3  -1  -2 1585.60   23.29
   3  -1  -2 1536.82   24.36
   3   1  -2 1564.36   19.09
   3   1  -2 1609.57   23.53
   3  -1  -1  937.30   17.72
   3   1  -1  876.57   15.19
   3   1  -1  906.36   17.08
   3  -1  -1  842.61   17.65
   3  -1   0  856.55   17.09
   3  -1   0  885.39   17.86
   3   1   0  868.11   16.62
   3   1   0  815.90   15.40
   3  -1   1  805.38   16.70
   3   1   1  898.11   16.60
   3   1   2 1537.27   23.12
   3   1   2 1476.94   20.94
   3  -1   2 1476.66   22.86
   3   1   3 4231.51   39.43
   3  -1   3 4128.20   38.58
   3   1   4  830.93   15.59
   3   1   4  817.84   18.11
   3  -1   4  790.91   17.15
   3   1   5  103.67    6.81
   3   1   5  106.73    5.53
   3  -1   5  100.80    6.23
   3   1   6 1274.67   24.19
   3  -1   6 1272.15   22.35
   3   1   7  443.40   11.22
   3   1   7  447.79   14.78
   3  -1   7  434.66   13.52
   3   1   8  254.94    8.60
   3   1   8  245.76   11.39
   3  -1   8  241.64   10.31
   3   1   9  827.37   15.52
   3  -1   9  846.05   19.85
   3   1   9  821.02   21.29
   3   1  10  231.43   11.60
   3   1  10  228.57    8.14
   3  -1  10  224.16   10.36
   3   1  11  116.22    5.88
   3  -1  11  111.74    7.70
   3   1  11  114.17    8.26
   3   1  12  462.41   11.81
   3   1  12  444.81   17.12
   3  -1  12  457.02   15.66
   3   1  13  591.87   13.37
   3  -1  13  568.72   18.07
   3   1  13  563.42   19.74
   3   1  14  108.04    8.92
   3   1  14  110.39    5.89
   3   1  15   39.70    3.50
   3   1  15   43.40    5.86
   3  -1  15   30.34    4.29
   3  -1  16   62.92    6.58
   3   1  16   83.11    8.20
  -3   1  16   64.26    6.44
   3   1  16   62.20    4.43
  -3   1  17  192.54   11.25
   3  -1  17  210.09   12.20
   3   1  17  219.54   13.59
   3  -1  18   18.94    3.93
  -3   1  18   15.05    3.18
   3   1  19  184.52   13.06
  -3   1  19  158.32   10.74
   3  -1  19  170.49   11.70
   3   1  20   87.53    9.51
   3   1  21    9.63    3.43
   3   1  22   65.85    9.01
   3  -2 -30    2.43    2.90
   3  -2 -29   34.55    7.78
   3  -2 -28    8.22    2.92
   3  -2 -27   21.99    6.00
   3  -2 -26    3.94    3.35
  -3  -2 -25    4.90    2.64
   3  -2 -25    0.90    2.69
   3  -2 -24    3.74    3.16
  -3  -2 -24    4.91    1.52
   3   2 -23   20.58    5.43
   3  -2 -23   27.80    6.11
  -3  -2 -23   24.81    5.63
  -3  -2 -22    6.50    2.98
   3  -2 -22    5.42    3.57
   3   2 -22    2.50    2.63
   3  -2 -21   39.93    7.40
  -3  -2 -21   47.70    7.78
   3   2 -21   43.97    7.23
  -3  -2 -20   20.36    5.32
   3  -2 -20   14.80    4.39
   3   2 -20   19.98    4.34
  -3  -2 -19   34.68    6.41
   3   2 -19   27.93    5.28
   3  -2 -19   29.83    6.32
  -3  -2 -18    3.89    2.54
   3   2 -18    6.10    2.03
   3  -2 -18    9.17    3.27
   3  -2 -17    2.91    2.31
   3   2 -17    3.91    2.58
  -3  -2 -17    5.62    2.28
   3   2 -16   25.45    4.60
   3  -2 -16   23.89    5.35
  -3  -2 -16   22.57    4.55
   3   2 -16   26.49    3.87
   3  -2 -15   55.03    6.96
  -3  -2 -15   53.52    7.17
   3   2 -15   49.79    5.47
   3  -2 -15   54.20    6.55
   3   2 -15   64.11    6.83
   3   2 -14    3.63    1.76
   3  -2 -14    3.65    2.23
  -3  -2 -14    2.11    0.96
   3  -2 -14    8.99    3.72
   3   2 -14    3.70    1.74
   3   2 -13    1.18    0.86
   3  -2 -13    2.16    2.50
  -3  -2 -13    1.69    1.41
   3  -2 -13   -0.78    2.02
   3   2 -13    0.39    0.67
   3  -2 -12   41.76    5.42
   3   2 -12   39.65    4.65
  -3  -2 -12   50.02    6.46
   3   2 -12   48.12    5.20
   3  -2 -12   50.23    6.55
   3  -2 -11  274.70   14.46
   3   2 -11  293.17   11.95
   3   2 -11  291.48   12.64
  -3  -2 -11  301.06   14.96
   3  -2 -11  299.90   13.99
   3   2 -10   86.83    6.76
   3  -2 -10   93.09    8.26
  -3   2 -10   85.93    3.88
   3   2 -10   91.21    6.27
  -3  -2 -10   95.14    8.21
   3  -2 -10   90.04    7.51
  -3  -2  -9   17.28    3.22
  -3   2  -9   20.34    2.00
   3  -2  -9   17.40    3.56
   3   2  -9   23.33    2.89
   3  -2  -9   17.09    3.46
   3   2  -9   21.92    3.35
   3   2  -8   97.48    5.69
  -3  -2  -8   92.71    7.42
   3  -2  -8   91.28    7.31
   3   2  -8   87.49    6.57
   3  -2  -8   91.23    7.84
  -3   2  -8   85.34    4.54
   3   2  -7   54.51    5.20
  -3  -2  -7   56.35    5.42
  -3   2  -7   57.26    3.82
   3   2  -7   53.29    3.81
   3  -2  -7   52.80    5.51
   3  -2  -7   57.36    6.00
   3   2  -6  229.55   10.33
   3   2  -6  220.75    6.36
   3   2  -6  232.72    7.30
   3  -2  -6  254.67   11.89
  -3  -2  -6  236.49   10.89
   3  -2  -6  212.21   10.58
   3   2  -5  316.03    7.80
   3  -2  -5  308.66   12.49
   3   2  -5  320.57   12.12
  -3  -2  -5  319.39   12.01
   3   2  -5  314.77    8.22
   3  -2  -5  306.49   12.79
   3   2  -4   55.80    4.96
  -3  -2  -4   55.57    4.78
   3   2  -4   53.77    3.10
   3   2  -4   54.00    3.72
   3  -2  -4   49.85    5.01
   3  -2  -4   57.11    5.51
   3   2  -3 1708.20   22.89
   3  -2  -3 1766.62   29.47
   3   2  -3 1828.23   17.25
   3  -2  -3 1708.37   28.71
   3   2  -3 1819.54   28.31
   3  -2  -2 1013.61   21.66
   3   2  -2  905.15   19.90
   3   2  -2  926.96   17.22
   3  -2  -2 1000.22   21.79
   3   2  -1  399.03   11.80
   3  -2  -1  367.07   13.00
   3  -2  -1  401.26   13.44
   3   2  -1  389.90   12.98
   3  -2   0  328.81   12.27
   3   2   0  396.81   12.91
   3   2   0  314.45   11.09
   3  -2   0  381.56   12.87
   3   2   1  402.48   12.81
   3  -2   1  379.66   12.66
   3  -2   1  408.20   13.60
   3   2   2  945.62   20.33
   3   2   2  956.10   20.15
   3  -2   2  915.62   20.05
   3  -2   2  941.95   19.90
   3   2   3 1711.44   26.95
   3   2   3 1747.59   28.60
   3  -2   3 1783.45   28.04
   3  -2   4   49.95    4.86
   3   2   4   53.45    5.25
   3   2   4   60.24    5.04
   3   2   5  312.46   11.53
   3  -2   5  322.67   11.99
   3   2   5  300.46   12.51
   3   2   6  233.22   10.07
   3   2   6  245.40   11.79
   3  -2   7   48.50    4.84
   3   2   7   46.47    4.47
   3   2   7   50.83    5.41
   3   2   8  101.96    7.91
   3  -2   8   84.23    6.47
   3   2   8   91.08    6.28
   3   2   9   16.34    2.94
   3  -2   9   18.89    3.06
   3   2   9   19.38    3.06
   3   2  10   95.03    7.79
   3   2  10   87.00    6.37
   3  -2  10   84.72    6.64
   3   2  11  271.77   11.46
   3   2  11  299.15   14.45
   3  -2  11  286.86   12.38
   3   2  12   40.97    4.56
   3  -2  12   57.35    5.62
   3   2  12   50.52    6.11
   3   2  13    0.14    0.92
   3  -2  13    1.22    1.27
   3   2  13   -0.49    1.79
   3  -2  14    3.13    1.54
   3   2  14    6.02    2.13
   3   2  14    2.46    2.34
   3   2  15   60.69    5.71
   3   2  15   58.89    7.15
   3  -2  15   53.30    5.72
   3   2  16   23.43    3.42
   3  -2  16   20.55    3.65
   3   2  16   28.95    4.98
   3   2  17    1.25    1.85
   3   2  17    3.03    1.32
   3  -2  17    4.16    2.21
   3   2  18    5.36    1.80
   3  -2  18   11.00    3.18
  -3   2  18    6.55    2.66
   3   2  19   27.06    5.62
  -3   2  19   25.58    5.01
   3   2  20   22.73    4.55
  -3   2  20   12.11    4.23
   3   2  21   48.86    7.22
   3   2  22    1.32    2.17
   3   2  23   29.16    6.50
   3  -3 -29   88.75   12.00
   3  -3 -28   57.56   10.06
   3  -3 -27   85.23   11.65
  -3  -3 -27   87.16   11.53
  -3  -3 -26   53.79    8.63
   3  -3 -26   73.39   10.37
  -3  -3 -25   83.78   10.88
   3  -3 -25   60.19    9.25
  -3  -3 -24    1.23    2.54
   3  -3 -24    1.44    2.24
   3  -3 -23  132.52   13.33
  -3  -3 -23  104.26   11.69
  -3  -3 -22   17.23    5.21
   3  -3 -22   24.84    5.85
  -3  -3 -21    2.29    1.85
   3  -3 -21    0.76    2.11
   3  -3 -20   11.34    4.71
  -3  -3 -20   19.43    4.96
  -3  -3 -19   89.50   10.14
   3  -3 -19   95.61   10.81
   3  -3 -18  122.63   11.91
  -3  -3 -18  117.29   11.28
   3   3 -17   85.12    8.54
   3  -3 -17   89.84    9.80
  -3  -3 -17   95.55   10.38
  -3  -3 -16   82.10    9.43
   3   3 -16   77.95    7.88
   3  -3 -16   76.77    8.54
   3  -3 -16   63.04    8.29
   3   3 -16   68.45    6.95
  -3  -3 -15  162.59   12.59
   3  -3 -15  142.32   12.12
   3   3 -15  148.83   10.37
   3  -3 -15  155.17   12.09
   3   3 -15  170.86   10.41
   3  -3 -14   23.40    4.57
  -3  -3 -14   33.26    5.21
   3   3 -14   21.79    3.70
   3  -3 -14   33.37    6.01
   3   3 -14   33.09    5.01
   3   3 -13  554.61   16.94
   3  -3 -13  597.77   23.41
   3  -3 -13  567.72   21.81
  -3  -3 -13  552.95   22.02
   3   3 -13  556.75   19.44
   3   3 -12  894.20   25.00
   3  -3 -12  916.43   27.74
   3  -3 -12  987.71   29.95
  -3  -3 -12  935.61   27.91
   3   3 -12  918.57   20.54
  -3   3 -11   81.00    5.34
   3  -3 -11   88.65    8.47
  -3  -3 -11   86.52    8.10
   3  -3 -11   93.63    9.23
   3   3 -11   78.54    5.64
   3   3 -11   84.11    7.55
   3  -3 -10  292.13   14.97
   3   3 -10  291.89   13.55
  -3  -3 -10  303.62   15.11
  -3   3 -10  269.13   10.01
   3   3 -10  275.47    9.71
   3  -3 -10  265.29   14.94
   3  -3  -9 1429.22   32.88
  -3   3  -9 1388.13   23.43
  -3  -3  -9 1366.51   31.04
   3  -3  -9 1352.40   32.07
   3   3  -9 1417.63   19.84
   3   3  -9 1429.82   29.43
   3   3  -8   38.22    5.25
  -3   3  -8   43.66    4.22
  -3  -3  -8   35.88    4.83
   3  -3  -8   50.02    6.16
   3   3  -8   41.31    3.19
   3   3  -8   43.36    3.09
   3  -3  -8   37.45    5.48
  -3   3  -7  946.23   20.26
   3   3  -7  955.87   16.15
   3   3  -7  932.38   23.31
   3   3  -7  927.51   12.22
   3  -3  -7  902.58   25.29
  -3  -3  -7  978.76   24.20
   3  -3  -7  929.94   25.44
   3   3  -6 1130.24   25.81
   3  -3  -6 1081.55   26.95
  -3   3  -6 1135.56   22.33
   3  -3  -6 1103.76   26.77
   3   3  -6 1081.79   18.55
  -3  -3  -6 1070.40   24.29
  -3   3  -5  134.81    7.99
   3   3  -5  139.14    9.00
   3  -3  -5  141.52    9.51
   3  -3  -5  139.96    9.29
   3   3  -5  129.36    6.77
  -3  -3  -5  129.19    7.98
   3  -3  -4 1918.73   34.80
  -3  -3  -4 2014.87   29.86
   3   3  -4 1939.39   34.06
   3  -3  -4 1872.47   33.45
   3   3  -4 1909.31   27.50
   3   3  -3 3747.88   39.30
  -3  -3  -3 3689.59   39.14
   3  -3  -3 3746.37   47.23
   3  -3  -2  726.95   20.51
   3   3  -2  714.54   19.93
   3  -3  -2  670.35   19.23
   3   3  -2  673.32   17.07
  -3  -3  -2  705.30   15.40
   3   3  -1 1014.88   23.60
   3  -3  -1 1078.42   23.68
   3  -3  -1 1010.07   24.14
   3   3  -1  984.41   21.53
   3  -3   0  725.90   20.29
   3   3   0  706.54   18.70
   3  -3   0  746.79   19.42
   3   3   0  685.12   19.49
   3  -3   1  938.22   21.69
   3   3   1  996.93   22.66
   3  -3   1  980.43   23.30
   3   3   2  632.47   18.87
   3   3   2  659.39   19.23
   3  -3   2  709.92   19.76
   3  -3   2  694.04   18.53
   3   3   3 3768.86   45.71
   3   3   3 3705.20   46.52
   3  -3   3 3639.61   44.98
   3   3   4 1945.00   34.49
   3   3   4 2088.03   34.19
   3  -3   4 2032.80   33.53
   3  -3   4 1994.51   31.48
   3  -3   5  136.77    8.80
   3   3   5  148.16    9.66
   3   3   5  143.40    9.04
   3  -3   6 1120.77   24.84
   3   3   6 1113.72   25.38
   3   3   6 1109.54   27.16
   3  -3   7  961.37   23.05
   3   3   7  992.71   24.13
   3   3   7  918.33   25.55
   3  -3   8   43.11    4.90
   3   3   8   35.92    4.89
   3   3   8   38.43    5.51
   3   3   9 1401.02   29.69
   3   3   9 1435.68   32.86
   3  -3   9 1328.59   28.00
   3  -3  10  276.22   12.70
   3   3  10  301.15   15.30
   3   3  10  307.34   13.94
   3   3  11   87.08    7.52
   3  -3  11   90.52    7.38
   3   3  11   93.14    8.62
   3   3  12  896.35   24.63
   3   3  12  902.62   27.77
   3   3  13  556.01   22.22
   3   3  13  534.07   19.01
   3  -3  13  535.25   18.28
   3   3  14   28.04    5.20
   3  -3  14   31.35    4.54
   3   3  14   28.90    4.41
   3  -3  15  162.81   10.43
   3   3  15  161.68   10.91
   3   3  15  167.40   12.86
   3   3  16   69.50    7.04
   3   3  16   77.69    8.53
   3  -3  16   81.96    7.58
   3   3  17   83.82    9.37
   3   3  17   95.57    8.60
   3  -3  17   89.89    8.02
   3   3  18  102.08    8.98
   3   3  18  128.84   11.84
  -3   3  19   83.98    9.74
   3   3  19   95.55   10.40
   3   3  20   12.19    3.79
  -3   3  20    7.31    2.63
   3   3  21   -0.21    2.01
  -3   3  21    1.55    1.63
   3   3  22   16.35    4.71
   3   3  23  150.65   14.06
   3   3  24    2.61    3.94
   3  -4 -28    8.58    5.34
  -3  -4 -28    7.00    2.70
   3  -4 -27   44.08    8.03
  -3  -4 -27   28.40    6.54
  -3  -4 -26    9.41    3.67
   3  -4 -26    1.08    2.59
  -3  -4 -25   32.03    7.99
   3  -4 -25   43.44    8.00
   3  -4 -24    6.12    3.51
  -3  -4 -24    6.92    4.37
   3  -4 -23   13.08    4.44
  -3  -4 -23   13.22    4.63
   3  -4 -22   12.96    3.95
  -3  -4 -22    4.21    2.95
  -3  -4 -21   40.00    7.77
   3  -4 -21   23.25    5.42
  -3  -4 -20    4.31    2.16
   3  -4 -20    8.70    3.85
   3  -4 -19   70.52    9.13
  -3  -4 -19   54.26    8.80
   3  -4 -18   18.06    4.73
  -3  -4 -18   14.57    5.07
  -3  -4 -17    1.79    2.97
   3  -4 -17    2.83    2.10
   3  -4 -17   -0.33    1.89
   3  -4 -16   17.15    4.22
  -3  -4 -16   10.88    3.32
   3  -4 -16   10.58    3.38
   3   4 -15   38.38    5.36
  -3  -4 -15   38.21    6.36
   3  -4 -15   34.20    6.21
   3  -4 -15   37.62    6.63
  -3  -4 -14   -0.19    1.16
   3   4 -14    1.56    2.12
   3  -4 -14    2.50    2.80
   3  -4 -14    0.64    1.54
   3   4 -13   35.71    5.77
  -3  -4 -13   28.80    4.89
   3  -4 -13   37.88    6.11
   3  -4 -13   37.63    6.31
   3  -4 -12   14.28    3.71
  -3   4 -12   16.12    3.25
  -3  -4 -12   14.95    4.13
   3   4 -12   15.57    3.44
   3  -4 -12    8.64    2.65
  -3   4 -11   79.18    6.71
   3  -4 -11   71.40    8.24
   3   4 -11   81.55    7.83
   3  -4 -11   81.92    8.68
  -3  -4 -11   86.09    8.59
  -3   4 -10  149.12    9.25
   3  -4 -10  147.28   11.59
   3  -4 -10  149.63   11.76
   3   4 -10  144.36   10.42
  -3  -4 -10  144.46   10.62
   3   4 -10  140.57    6.62
  -3  -4  -9   74.78    7.65
   3  -4  -9   99.94    9.06
  -3   4  -9   69.70    6.35
   3  -4  -9   90.73    8.95
   3   4  -9   75.72    7.42
   3   4  -9   76.14    5.27
   3  -4  -8   57.68    7.06
   3   4  -8   66.86    6.96
  -3  -4  -8   72.10    7.24
  -3   4  -8   68.59    6.60
   3  -4  -8   78.04    8.01
   3   4  -8   62.94    5.02
   3   4  -7   62.12    5.21
   3  -4  -7   48.73    6.33
  -3  -4  -7   57.60    6.18
  -3   4  -7   75.51    6.78
   3   4  -7   70.20    6.91
   3  -4  -7   64.10    7.33
  -3  -4  -6   73.17    6.68
   3  -4  -6   93.91    8.72
   3  -4  -6   78.50    7.72
   3   4  -6   98.61    6.81
  -3   4  -6   95.42    7.60
   3   4  -6   86.56    7.75
   3   4  -5  396.58   16.79
   3  -4  -5  347.94   15.66
   3   4  -5  377.77   13.81
   3  -4  -5  402.06   17.83
  -3  -4  -5  393.32   14.81
  -3   4  -5  365.44   15.19
   3   4  -4  233.99   12.82
   3   4  -4  241.80   11.37
  -3   4  -4  254.40   12.77
   3  -4  -4  223.43   12.20
  -3  -4  -4  262.22   11.54
   3  -4  -4  262.02   13.93
  -3   4  -3  166.45   10.32
   3   4  -3  161.96   10.65
  -3  -4  -3  175.54    9.05
   3   4  -3  173.78    9.84
   3  -4  -3  160.95   10.98
   3  -4  -3  194.66   11.23
   3   4  -2  395.98   16.66
  -3   4  -2  404.17   16.04
   3   4  -2  393.33   15.34
  -3  -4  -2  391.39   12.43
   3  -4  -2  428.24   16.42
   3   4  -1  530.08   18.07
   3   4  -1  553.44   19.48
  -3  -4  -1  524.97   13.27
   3  -4  -1  509.93   17.72
  -3   4  -1  553.86   19.27
   3  -4  -1  513.01   18.99
   3  -4   0  197.97   11.77
   3   4   0  180.49   11.32
   3   4   0  191.23   10.99
   3  -4   0  193.53   10.74
   3   4   1  542.88   19.19
   3  -4   1  533.34   17.46
   3   4   1  542.03   19.80
   3  -4   1  539.14   19.30
   3  -4   2  368.63   15.98
   3   4   2  378.60   16.31
   3  -4   2  395.04   15.17
   3   4   2  388.00   16.45
   3   4   3  173.45   11.11
   3   4   3  187.36   11.43
   3  -4   3  174.44    9.86
   3  -4   3  181.39   10.87
   3   4   4  278.55   13.97
   3   4   4  233.70   13.11
   3  -4   4  258.27   12.07
   3  -4   4  243.75   12.76
   3   4   5  391.01   16.71
   3   4   5  354.03   16.55
   3  -4   5  351.97   14.53
   3  -4   5  409.54   16.48
   3  -4   6   87.67    7.67
   3   4   6   98.54    8.57
   3  -4   6   93.59    7.26
   3   4   6   86.01    8.36
   3   4   7   80.91    7.87
   3   4   7   70.72    7.68
   3  -4   8   53.38    6.16
   3   4   8   47.59    6.31
   3   4   8   55.44    6.66
   3   4   9   86.86    8.56
   3   4   9   65.42    7.18
   3  -4   9   73.69    7.20
   3   4  10  142.26   11.62
   3  -4  10  166.12   10.79
   3   4  10  157.08   11.16
   3   4  11   92.96    8.74
   3  -4  11   78.17    7.31
   3   4  12   23.05    4.72
   3   4  12   16.16    4.46
   3  -4  12    7.82    2.65
   3   4  13   39.33    5.92
   3   4  13   35.53    5.69
   3  -4  13   36.91    4.99
   3   4  14    1.36    1.13
   3  -4  14   -0.50    1.85
   3   4  14   -1.23    1.73
   3  -4  15   37.51    5.11
   3   4  15   42.22    6.95
   3   4  15   27.66    5.39
   3   4  16   11.02    3.73
   3   4  16   12.94    3.63
   3   4  17    0.07    1.77
   3   4  17    0.94    2.68
   3   4  18   10.78    4.00
   3   4  18   14.55    3.80
   3   4  19   59.99    8.29
   3   4  20    4.86    1.40
  -3   4  20    6.69    3.22
  -3   4  20    2.29    1.81
  -3   4  21   21.35    5.73
   3   4  21   29.89    6.68
  -3   4  21   18.78    4.13
  -3   4  22    9.59    2.75
   3   4  22   12.65    3.88
   3   4  23    5.71    4.12
   3   4  24    6.87    3.17
   3   4  25   31.15    6.96
  -3  -5 -27   11.90    4.81
   3  -5 -27   17.79    6.48
   3  -5 -26   19.89    6.33
  -3  -5 -26   23.17    5.79
  -3  -5 -25   62.85    9.25
   3  -5 -25   62.38    9.98
   3  -5 -24   15.76    4.72
  -3  -5 -24   19.87    5.86
  -3  -5 -23   29.62    6.36
   3  -5 -23   24.42    6.33
   3  -5 -22   13.79    5.52
  -3  -5 -22   16.07    4.48
  -3  -5 -21    7.40    3.94
   3  -5 -21   14.24    4.45
   3  -5 -20   73.41    9.90
  -3  -5 -20   44.80    7.51
   3  -5 -19   95.26   11.13
  -3  -5 -19  102.64   11.36
   3  -5 -18   49.11    7.91
  -3  -5 -18   41.29    6.84
   3  -5 -17   79.30   10.36
   3  -5 -17   98.70   11.30
  -3  -5 -17   72.11    9.33
   3  -5 -16   54.39    8.17
   3  -5 -16   59.57    8.81
  -3  -5 -16   48.51    7.61
   3  -5 -15   93.67   10.50
   3   5 -15   96.75   10.30
   3  -5 -15  104.70   10.98
  -3  -5 -15   90.41   10.11
  -3  -5 -14  117.20   11.35
   3  -5 -14  105.65   11.22
   3   5 -14   92.24    9.44
   3  -5 -14  117.35   11.43
   3   5 -13  370.02   18.47
  -3  -5 -13  371.72   19.57
   3  -5 -13  344.89   19.34
   3  -5 -13  351.32   19.91
  -3   5 -12  154.20   10.77
   3  -5 -12  180.92   13.56
   3  -5 -12  140.42   12.47
  -3  -5 -12  172.26   13.06
   3   5 -12  171.07   12.48
   3  -5 -11   58.91    7.78
   3   5 -11   66.95    7.84
  -3   5 -11   56.31    6.23
   3  -5 -11   55.79    7.85
  -3  -5 -11   72.10    7.95
  -3  -5 -10   84.31    8.48
  -3   5 -10   77.82    7.63
   3  -5 -10   67.62    8.24
   3  -5 -10   69.89    8.58
   3   5  -9  333.27   13.24
   3  -5  -9  312.87   18.02
  -3  -5  -9  333.48   16.78
   3   5  -9  277.59   15.77
   3  -5  -9  295.54   16.35
  -3   5  -9  317.90   15.67
   3  -5  -8   37.68    5.68
  -3   5  -8   22.87    4.39
   3   5  -8   26.42    5.09
  -3  -5  -8   26.94    4.80
   3  -5  -8   29.98    5.46
   3   5  -8   30.31    4.31
  -3   5  -7  146.41   10.81
   3  -5  -7  150.84   11.34
   3   5  -7  142.29   11.14
   3   5  -7  153.55    9.62
  -3  -5  -7  161.76   10.89
   3  -5  -7  136.75   11.70
   3  -5  -6   82.81    8.23
   3   5  -6  100.31    9.05
   3   5  -6  103.63    8.11
  -3   5  -6   85.80    8.26
   3  -5  -6  109.35   10.38
  -3  -5  -6  115.63    8.94
   3  -5  -5    7.25    2.32
  -3  -5  -5    8.50    2.43
   3   5  -5   15.28    3.51
  -3   5  -5   11.15    3.06
   3  -5  -5    8.05    2.06
   3   5  -5    9.63    2.93
   3  -5  -4   83.43    7.98
  -3   5  -4   79.97    7.77
   3  -5  -4   85.60    8.82
   3   5  -4   76.18    7.27
   3   5  -4   86.31    8.56
  -3  -5  -4   74.74    6.53
   3  -5  -3  335.42   15.55
   3   5  -3  291.64   14.58
   3   5  -3  286.02   15.48
  -3  -5  -3  290.08   12.41
  -3   5  -3  274.34   14.80
   3  -5  -3  306.08   16.68
   3   5  -2   12.27    3.73
  -3  -5  -2   14.24    2.71
   3  -5  -2    7.08    2.07
   3   5  -2   15.13    3.65
   3  -5  -2   15.66    3.85
  -3   5  -2    9.44    2.97
   3   5  -1  356.20   16.62
  -3   5  -1  345.74   16.82
   3  -5  -1  353.63   15.72
   3   5  -1  364.88   17.48
   3  -5  -1  398.19   18.59
  -3  -5  -1  374.53   12.12
   3   5   0  172.41   11.98
  -3   5   0  187.71   12.49
   3   5   0  162.80   11.53
   3  -5   0  173.63   12.08
   3  -5   0  205.28   12.02
   3   5   1  341.32   16.75
   3  -5   1  380.57   15.96
  -3   5   1  344.76   17.06
   3  -5   1  343.19   17.01
   3   5   1  360.41   17.01
   3  -5   2   15.29    3.98
   3  -5   2    8.41    2.11
   3   5   2   13.07    3.76
   3   5   2    8.79    2.77
  -3   5   2    6.42    2.62
   3  -5   3  267.09   14.52
   3   5   3  267.78   14.90
   3   5   3  302.03   15.89
   3  -5   3  294.47   13.97
  -3   5   3  276.04   15.49
   3  -5   4   95.23    8.66
  -3   5   4   96.78    9.54
   3  -5   4   95.85    7.77
   3   5   4   98.11    9.44
   3   5   4   79.03    8.10
   3   5   5    9.34    3.01
   3  -5   5    6.92    2.27
   3   5   5    9.91    3.39
   3  -5   5    7.84    1.90
  -3   5   5    9.59    3.27
   3   5   6   97.73    9.40
   3  -5   6  113.33    8.48
   3  -5   6  109.09    9.46
   3   5   6  120.42   10.31
  -3   5   6  129.05   11.20
   3   5   7  124.22   10.91
  -3   5   7  127.18   10.75
   3   5   7  152.20   11.54
   3  -5   7  142.22   10.48
   3  -5   7  143.67    9.89
   3  -5   8   20.39    4.28
   3  -5   8   25.23    4.24
   3   5   8   29.38    4.99
   3   5   8   17.66    4.80
  -3   5   8   29.47    5.54
   3   5   9  323.72   17.48
   3  -5   9  302.28   14.73
   3   5   9  317.76   17.87
   3  -5   9  287.02   15.07
  -3   5   9  305.80   16.98
   3   5  10   82.38    9.04
   3   5  10   80.68    8.72
   3  -5  10   82.00    8.10
  -3   5  10   84.00    9.15
   3   5  11   52.12    6.55
  -3   5  11   71.17    8.89
   3   5  11   60.11    8.09
   3  -5  11   71.20    7.47
   3  -5  12  181.44   12.04
   3   5  12  173.40   12.92
   3   5  12  175.80   13.55
   3   5  13  371.51   19.64
   3  -5  13  362.31   17.12
  -3   5  13  370.71   19.53
   3   5  13  353.59   19.61
   3   5  14   86.69    9.73
  -3   5  14   99.11   11.51
   3   5  14   90.05   10.40
   3  -5  14   95.06    8.91
  -3   5  15  104.04   10.81
   3   5  15   81.32    9.41
   3   5  15  108.85   11.27
   3   5  16   52.40    7.89
  -3   5  16   62.37    8.55
   3   5  16   53.34    8.15
   3   5  17   89.88   10.16
   3   5  17   67.06    9.06
   3   5  18   55.38    8.57
   3   5  18   37.60    6.93
  -3   5  18   33.64    6.15
   3   5  19   70.51    9.51
  -3   5  19   74.48    9.69
  -3   5  20   39.44    6.82
   3   5  20   39.09    7.82
  -3   5  21    6.43    2.50
  -3   5  21   14.41    4.05
   3   5  21   15.57    5.64
   3   5  22   17.49    4.99
  -3   5  22   22.67    6.67
  -3   5  22   16.76    4.72
  -3   5  23   23.45    6.29
   3   5  23   34.31    6.43
   3   5  24   12.92    4.90
   3   5  25   77.58   11.24
   3   5  26   26.94    6.58
  -3  -6 -26   -1.49    2.87
   3  -6 -26    6.52    3.68
   3  -6 -25   13.70    6.44
  -3  -6 -25   12.92    4.37
  -3  -6 -24    9.53    4.03
   3  -6 -24    9.43    4.07
  -3  -6 -23    2.35    3.60
   3  -6 -23    3.87    3.43
  -3  -6 -22    1.99    2.03
   3  -6 -22    3.22    2.15
   3  -6 -21   17.17    4.74
  -3  -6 -21   20.22    5.70
   3  -6 -20   10.15    4.08
  -3  -6 -20    5.51    4.05
   3  -6 -19   77.74   10.61
  -3  -6 -19   75.15   10.57
  -3  -6 -18   23.31    6.03
   3  -6 -18   45.38    7.65
  -3  -6 -17    2.68    3.28
   3  -6 -17    1.04    3.70
  -3  -6 -16   45.99    7.59
   3  -6 -16   45.69    7.80
   3  -6 -16   39.96    7.28
   3  -6 -15  103.89   11.25
  -3  -6 -15  101.56   11.06
   3  -6 -15   84.06   10.29
   3  -6 -14   28.56    6.07
   3   6 -14   23.61    5.05
  -3  -6 -14   24.29    6.15
   3  -6 -14   28.03    5.65
   3  -6 -13  244.53   17.46
  -3  -6 -13  237.44   15.87
   3   6 -13  238.29   16.03
   3   6 -12   16.38    5.11
   3  -6 -12    7.46    3.83
   3  -6 -12   16.93    4.52
   3   6 -11  122.11   11.52
  -3   6 -11   90.47    9.07
   3  -6 -11  120.40   11.97
  -3  -6 -11  114.01   11.04
   3  -6 -11  120.20   11.52
   3   6 -10   54.22    7.42
  -3  -6 -10   64.75    8.16
  -3   6 -10   45.49    6.57
   3  -6 -10   50.25    7.68
   3  -6  -9   47.76    7.46
   3   6  -9   46.64    7.08
  -3   6  -9   48.17    6.71
   3  -6  -9   57.40    7.73
  -3  -6  -9   50.43    6.63
   3   6  -8   37.09    6.19
  -3   6  -8   35.16    5.68
  -3  -6  -8   56.26    6.94
   3  -6  -8   50.79    6.65
   3  -6  -8   33.89    6.25
   3   6  -8   37.38    5.58
   3  -6  -7  156.77   13.07
   3   6  -7  156.34   10.93
  -3   6  -7  162.11   12.67
   3   6  -7  155.63   12.49
   3  -6  -7  161.68   12.36
  -3  -6  -7  152.30   11.13
   3   6  -6   38.21    5.81
  -3   6  -6   30.39    5.07
  -3  -6  -6   16.60    3.55
   3  -6  -6   20.26    4.60
   3   6  -6   27.80    4.97
   3  -6  -6   27.98    5.02
   3   6  -5  120.98   10.77
   3  -6  -5  104.65    9.85
   3  -6  -5   97.12   10.27
   3   6  -5   98.09    9.05
  -3  -6  -5   99.19    8.54
  -3   6  -5  111.05   10.37
  -3   6  -4   18.47    4.45
   3   6  -4   17.85    3.98
   3   6  -4   16.01    3.74
  -3  -6  -4   24.33    4.10
   3  -6  -4   25.69    5.82
   3  -6  -4   24.65    4.64
   3  -6  -3  152.45   11.44
   3  -6  -3  138.67   11.85
  -3   6  -3  128.36   11.11
   3   6  -3  135.21   11.31
   3   6  -3  127.38   10.46
  -3  -6  -3  134.31    8.90
  -3  -6  -2  136.95    8.65
   3   6  -2  149.83   12.12
   3   6  -2  157.70   11.66
   3  -6  -2  174.60   13.46
   3  -6  -2  155.34   11.15
  -3   6  -2  135.34   11.32
   3   6  -1  143.04   11.80
  -3   6  -1  131.76   11.35
   3  -6  -1  150.45   10.81
  -3  -6  -1  128.66    7.99
   3   6  -1  161.55   12.05
   3  -6  -1  133.86   11.44
   3   6   0    0.46    2.04
   3  -6   0   -1.05    1.70
   3   6   0    2.17    1.12
  -3  -6   0   -1.09    1.34
   3  -6   0    0.86    1.74
  -3   6   0    1.16    2.43
   3   6   1  150.02   11.88
  -3   6   1  136.97   11.61
   3   6   1  152.94   12.50
   3  -6   1  138.80   10.34
   3  -6   1  126.63   11.15
   3   6   2  158.32   12.49
  -3   6   2  147.61   12.04
   3   6   2  138.17   11.66
   3  -6   2  140.37   10.23
   3  -6   2  136.94   11.58
  -3   6   3  147.09   11.98
   3   6   3  123.47   11.00
   3   6   3  154.83   12.44
   3  -6   3  108.84    9.30
   3  -6   3  134.48   11.41
   3  -6   4   12.75    3.51
   3   6   4   17.41    4.55
   3   6   4   16.00    4.77
   3  -6   4   14.43    3.71
   3  -6   5   98.72    8.43
   3   6   5  101.47   10.09
   3   6   5   90.90    9.72
   3  -6   5  109.86    9.98
  -3   6   5  111.14   10.76
   3   6   6   24.09    5.12
  -3   6   6   24.85    5.38
   3   6   6   26.68    5.29
   3  -6   6   20.11    3.80
   3  -6   6   12.61    3.52
  -3   6   7  138.35   11.51
   3   6   7  132.06   12.16
   3   6   7  149.35   12.68
   3  -6   7  146.25   11.74
   3  -6   7  142.77   10.50
   3   6   8   37.31    6.32
   3  -6   8   33.68    5.53
   3   6   8   58.64    8.28
  -3   6   8   46.40    7.49
   3  -6   8   46.86    6.04
   3   6   9   55.39    7.56
   3   6   9   58.30    7.90
  -3   6   9   44.91    7.27
   3  -6   9   51.86    6.31
   3  -6   9   60.82    7.65
   3   6  10   52.12    7.63
   3  -6  10   44.36    6.12
  -3   6  10   45.27    7.22
   3  -6  10   52.49    7.07
   3   6  10   53.13    7.91
   3   6  11   86.11   10.29
   3   6  11  102.84   10.96
   3  -6  11   98.32    9.54
  -3   6  11  106.21   11.22
  -3   6  12   15.55    4.15
   3   6  12   12.51    4.67
   3  -6  12   20.52    4.71
   3   6  12   12.83    3.87
  -3   6  13  237.88   16.82
   3   6  13  236.23   16.47
   3  -6  13  259.15   15.65
   3   6  13  222.96   16.50
   3   6  14   27.44    5.98
   3   6  14   28.26    6.08
  -3   6  14   29.14    6.66
  -3   6  15   96.51   11.06
   3   6  15  104.41   11.18
   3   6  15   97.73   11.02
   3   6  16   47.15    7.91
  -3   6  16   52.33    8.52
   3   6  16   46.26    7.43
   3   6  17    9.08    4.77
  -3   6  17    6.43    3.51
   3   6  17   18.61    5.41
   3   6  18   42.35    8.16
  -3   6  18   32.73    7.38
   3   6  18   36.44    7.18
   3   6  19   73.73    9.74
   3   6  19   72.99    9.80
  -3   6  19   75.40   10.51
   3   6  20    4.55    2.12
  -3   6  20    9.00    2.35
  -3   6  21   23.06    6.38
   3   6  21   27.98    6.75
  -3   6  21   16.36    4.80
  -3   6  22    4.46    2.61
  -3   6  22    4.79    4.24
   3   6  22    1.56    2.18
  -3   6  23    3.57    2.75
   3   6  23    5.48    3.92
   3   6  24    7.65    4.09
  -3   6  24    8.12    4.79
   3   6  25   15.29    5.94
   3   6  26    1.34    2.32
   3  -7 -24   23.76    6.32
  -3  -7 -24   22.61    5.76
  -3  -7 -23   38.01    8.53
   3  -7 -23   23.88    6.15
   3  -7 -22   50.05    8.79
  -3  -7 -22   29.33    7.30
   3  -7 -21   10.70    4.17
  -3  -7 -21   12.50    4.28
   3  -7 -20   15.35    4.47
  -3  -7 -20   22.55    6.08
  -3  -7 -19   51.07    8.75
   3  -7 -19   49.84    8.70
   3  -7 -18    4.28    2.25
  -3  -7 -18    5.79    3.77
   3  -7 -17   57.50    8.72
  -3  -7 -17   55.80    9.05
  -3  -7 -16   85.89   10.67
   3  -7 -16  119.76   12.64
   3  -7 -16   93.79   11.33
   3  -7 -15   34.59    7.71
  -3  -7 -15   30.91    6.81
   3  -7 -15   28.77    5.70
   3  -7 -14   30.85    6.49
   3   7 -14   18.02    4.31
  -3  -7 -14   31.59    6.39
   3  -7 -14   24.13    5.97
   3   7 -13  104.95   11.38
   3  -7 -13  105.35   11.37
  -3  -7 -13   98.61   10.91
   3  -7 -13   86.56   10.76
   3   7 -12   30.64    6.16
  -3  -7 -12   28.53    5.86
   3  -7 -12   29.45    6.20
   3  -7 -12   26.21    5.47
   3   7 -11    0.40    1.37
   3  -7 -11    2.17    2.55
  -3   7 -11   -0.29    2.03
  -3  -7 -11    0.55    2.31
   3  -7 -11    3.17    2.20
   3  -7 -10   58.05    8.40
  -3   7 -10   45.86    7.41
   3  -7 -10   61.76    8.95
  -3  -7 -10   57.20    8.32
   3   7 -10   62.58    8.48
   3  -7  -9  177.90   15.07
  -3   7  -9  145.49   13.32
  -3  -7  -9  164.91   12.97
   3   7  -9  172.07   14.18
   3  -7  -9  170.25   13.97
  -3   7  -8   29.74    5.74
  -3  -7  -8   10.95    3.04
   3   7  -8   22.06    5.36
   3  -7  -8   34.42    6.30
   3  -7  -8   20.03    5.26
  -3   7  -7   46.03    7.11
   3  -7  -7   63.16    8.85
   3   7  -7   56.92    7.55
   3  -7  -7   43.91    6.73
  -3  -7  -7   65.41    7.58
   3   7  -7   48.66    7.81
   3   7  -6   90.87   10.28
   3  -7  -6  104.23   10.24
  -3   7  -6   76.89    9.26
   3   7  -6  114.09   10.74
  -3  -7  -6   83.24    8.38
   3  -7  -6  103.95   10.82
   3   7  -5   42.36    6.48
   3  -7  -5   40.09    7.02
  -3   7  -5   43.27    6.87
  -3  -7  -5   41.70    6.00
   3   7  -5   51.43    7.25
   3  -7  -5   47.44    7.14
   3   7  -4  186.20   14.45
  -3   7  -4  225.59   15.68
  -3  -7  -4  170.97   11.46
   3  -7  -4  181.27   15.00
   3   7  -4  180.54   13.72
   3  -7  -4  188.02   13.76
   3   7  -3  196.88   14.69
   3  -7  -3  200.74   13.92
  -3  -7  -3  188.26   11.20
   3   7  -3  176.32   13.67
   3  -7  -3  198.68   15.12
  -3   7  -3  199.12   14.83
   3   7  -2  107.86   11.25
  -3   7  -2   91.91    9.99
   3   7  -2  109.65   10.63
   3  -7  -2  109.07   11.22
   3  -7  -2   97.41    9.32
   3   7  -1  410.92   21.46
  -3   7  -1  370.84   20.25
   3  -7  -1  402.46   21.66
   3  -7  -1  360.81   17.91
   3   7  -1  385.09   20.10
   3  -7   0  252.98   17.16
   3   7   0  240.42   16.34
   3   7   0  280.26   17.41
  -3   7   0  264.96   17.09
   3  -7   0  240.85   14.60
   3   7   1  371.04   20.39
   3   7   1  400.38   21.00
  -3   7   1  421.38   21.61
   3  -7   1  387.41   20.92
   3  -7   1  374.01   17.71
   3  -7   2  108.13    9.50
   3   7   2  105.47   10.87
   3  -7   2  121.72   11.67
   3   7   2  130.94   11.89
  -3   7   2  122.54   11.72
   3  -7   3  194.05   12.67
   3  -7   3  200.70   15.18
   3   7   3  174.83   13.84
  -3   7   3  160.04   13.36
   3   7   3  171.27   14.08
   3   7   4  206.66   15.54
   3   7   4  183.21   14.45
  -3   7   4  193.87   14.88
   3  -7   4  155.00   11.34
   3  -7   4  176.98   14.08
   3   7   5   47.02    7.08
   3   7   5   33.40    6.31
   3  -7   5   38.22    5.93
   3  -7   5   52.75    7.90
  -3   7   5   37.33    6.13
   3   7   6   81.11    9.76
   3   7   6   88.67   10.30
  -3   7   6   81.57    9.82
   3  -7   6   88.65    9.84
   3   7   7   56.55    8.23
   3   7   7   54.67    7.89
   3  -7   7   62.70    8.45
  -3   7   7   55.32    8.05
  -3   7   8   19.29    4.67
   3   7   8   26.07    5.40
   3  -7   8   24.29    5.53
   3   7   8   19.35    4.85
   3  -7   9  188.95   14.57
   3   7   9  158.33   14.12
   3   7   9  179.13   14.55
  -3   7   9  165.97   14.07
   3   7  10   56.35    8.67
  -3   7  10   48.86    8.18
   3  -7  10   46.63    7.68
   3   7  10   58.14    8.44
   3  -7  11    7.69    3.54
   3   7  11    6.94    3.33
   3   7  11    2.15    1.44
  -3   7  11   -0.32    2.02
   3   7  12   30.21    6.58
  -3   7  12   23.51    5.79
   3   7  12   33.73    6.49
   3  -7  12   32.39    7.06
  -3   7  13   81.07    9.74
   3   7  13  110.60   11.89
   3   7  13  104.26   11.61
   3   7  14   34.47    7.42
   3   7  14   27.66    6.08
  -3   7  14   32.95    6.98
  -3   7  15   41.23    7.54
   3   7  15   28.11    6.02
   3   7  15   28.45    6.02
   3   7  16   86.23   10.81
  -3   7  16  110.83   12.06
   3   7  16  103.60   12.42
   3   7  17   53.72    8.77
  -3   7  17   64.14    9.81
   3   7  17   45.30    7.73
   3   7  18    4.77    4.23
  -3   7  18    0.82    2.64
   3   7  18    6.20    2.89
   3   7  19   58.43    9.92
   3   7  19   62.19    9.65
  -3   7  19   53.24    8.89
   3   7  20   17.19    4.78
  -3   7  20    8.28    3.63
   3   7  20   20.78    6.15
  -3   7  21   26.83    6.54
  -3   7  21   10.44    4.92
   3   7  21   20.10    5.85
  -3   7  22   38.67    8.59
  -3   7  22   31.86    6.98
   3   7  22   34.90    8.01
  -3   7  23   23.04    6.50
   3   7  23   27.62    8.10
   3   7  24    9.02    4.78
  -3   7  24   15.85    6.11
  -3  -8 -22    7.80    4.02
   3  -8 -22    6.83    3.97
  -3  -8 -21    7.17    4.31
   3  -8 -21    7.79    3.99
  -3  -8 -20    8.68    4.11
   3  -8 -20   12.41    5.61
  -3  -8 -19    9.92    4.62
   3  -8 -19    7.67    4.31
  -3  -8 -18   -3.61    3.65
   3  -8 -18    1.62    4.07
  -3  -8 -17   11.38    4.01
   3  -8 -17   18.12    6.14
  -3  -8 -16    9.12    4.09
   3  -8 -16   13.35    4.33
   3  -8 -15   26.81    6.42
  -3  -8 -15   37.36    7.20
   3  -8 -15   44.75    8.75
  -3  -8 -14   14.48    5.45
   3  -8 -14   21.91    5.90
   3  -8 -14   15.25    4.38
   3  -8 -13  100.23   12.01
   3  -8 -13  115.36   13.00
   3   8 -13   72.74   10.50
  -3  -8 -13   82.19   10.69
   3   8 -12   30.46    6.55
   3  -8 -12   35.00    6.83
  -3  -8 -12   14.44    5.44
   3  -8 -12   25.63    5.67
  -3  -8 -11    2.52    2.13
   3  -8 -11    4.66    3.34
   3   8 -11    1.21    2.42
   3  -8 -11    7.36    3.11
   3   8 -10   17.66    5.82
   3  -8 -10    8.48    3.31
  -3   8 -10   11.13    4.32
   3  -8 -10   15.04    4.49
   3   8  -9   48.70    7.66
  -3   8  -9   50.86    8.42
   3  -8  -9   53.15    8.39
  -3  -8  -9   49.83    7.38
   3  -8  -9   61.39    8.97
   3  -8  -8   21.00    5.14
  -3  -8  -8   21.55    5.08
  -3   8  -8   28.51    6.01
   3   8  -8   22.47    5.62
   3  -8  -8   18.28    4.73
   3   8  -7   24.73    5.72
  -3  -8  -7   34.54    6.55
  -3   8  -7   36.75    7.14
   3  -8  -7   26.71    6.10
   3  -8  -7   15.48    4.95
   3  -8  -6    3.47    2.32
  -3   8  -6    8.07    4.61
   3  -8  -6    5.91    4.22
   3   8  -6    4.99    3.06
   3   8  -6    1.30    1.69
   3  -8  -5   15.40    5.29
   3  -8  -5   12.68    3.77
   3   8  -5   22.94    5.10
   3   8  -5   20.22    4.70
  -3   8  -5   16.80    4.85
   3  -8  -4   66.23    9.46
  -3   8  -4   61.35    8.72
   3   8  -4   45.99    7.18
   3  -8  -4   71.30    8.95
   3   8  -4   62.71    8.60
  -3   8  -3   42.39    7.19
   3  -8  -3   29.84    6.37
   3   8  -3   20.65    5.11
   3   8  -3   26.77    5.71
   3  -8  -3   32.50    6.78
   3   8  -2    8.82    3.75
   3  -8  -2    7.50    3.91
   3   8  -2    5.48    4.26
   3  -8  -2    5.76    3.46
  -3   8  -2    7.29    3.47
   3  -8  -1   60.18    8.70
   3   8  -1   64.71    9.22
   3   8  -1   49.05    8.19
   3  -8  -1   59.89    7.75
  -3   8  -1   40.62    6.83
   3   8   0    4.68    2.81
   3   8   0   12.93    4.09
  -3   8   0   13.87    5.35
   3  -8   0    5.48    3.94
   3  -8   1   48.48    7.66
  -3   8   1   60.63    8.87
   3   8   1   57.99    8.62
   3   8   1   53.57    8.00
   3   8   2    8.43    4.17
   3   8   2   11.51    4.32
  -3   8   2    8.33    3.15
   3  -8   2    5.77    4.31
   3  -8   3   36.96    7.48
   3   8   3   30.64    6.80
   3   8   3   36.72    6.62
  -3   8   3   53.96    8.71
   3  -8   4   56.23    8.53
   3   8   4   52.18    7.95
   3   8   4   65.81    9.69
  -3   8   4   44.91    7.54
   3   8   5   26.84    5.53
  -3   8   5   21.57    5.16
   3  -8   5   16.78    5.52
   3   8   5   18.46    4.37
   3   8   6   10.69    4.35
   3  -8   6    2.64    1.83
   3   8   6    4.77    2.55
  -3   8   6    2.16    3.51
   3  -8   7   33.46    6.79
   3   8   7   20.38    5.36
   3   8   7   20.12    5.41
  -3   8   7   29.46    6.39
   3   8   8   12.78    4.49
   3   8   8   22.35    5.21
  -3   8   8   14.07    4.69
   3  -8   8   17.13    5.03
   3   8   9   55.47    8.63
   3   8   9   52.92    8.22
  -3   8   9   54.91    8.84
   3  -8   9   57.10    9.14
   3  -8  10   20.40    5.28
   3   8  10   27.92    6.24
  -3   8  10   21.24    4.81
   3   8  10   26.26    6.48
  -3   8  11    0.42    3.60
   3  -8  11    1.24    2.25
   3   8  11    6.09    2.76
   3   8  11    5.54    3.14
   3   8  12   31.34    6.69
  -3   8  12   31.42    6.88
   3   8  12   14.76    4.49
  -3   8  13   79.37   10.72
   3   8  13   81.68   10.85
   3   8  13   89.49   11.27
   3   8  14   22.74    6.44
  -3   8  14   15.06    4.74
   3   8  14   11.54    2.52
  -3   8  15   34.24    7.35
   3   8  15   27.18    6.44
   3   8  15   30.64    6.80
   3   8  16   14.54    4.69
  -3   8  16   15.68    5.78
   3   8  16   14.10    4.31
   3   8  17   20.34    6.33
  -3   8  17   22.18    6.51
   3   8  17   24.42    7.08
   3   8  18    4.00    3.24
   3   8  18    5.35    4.27
  -3   8  18    1.24    3.26
  -3   8  19    0.14    3.15
   3   8  19    4.22    3.50
   3   8  20   -0.10    3.56
  -3   8  20    5.50    3.69
   3   8  20    6.66    4.21
  -3   8  20   10.45    5.16
  -3   8  21    0.91    3.30
  -3   8  21    6.60    5.41
   3   8  21    8.84    4.66
  -3   8  22    8.84    6.18
  -3   8  22   -0.25    3.68
   3   8  22    3.63    3.43
   3  -9 -19   46.94    9.17
  -3  -9 -19   39.39    8.06
  -3  -9 -18    8.94    5.51
   3  -9 -18   12.57    5.24
   3  -9 -17    5.02    2.94
  -3  -9 -17    0.75    2.68
  -3  -9 -16   16.08    5.25
   3  -9 -16   14.99    6.80
  -3  -9 -15   15.26    4.62
   3  -9 -15   21.99    5.76
   3  -9 -14    7.36    3.04
   3  -9 -14   13.85    4.06
  -3  -9 -14   16.68    4.01
   3  -9 -13   23.52    5.51
   3  -9 -13   25.34    6.43
   3   9 -12    3.76    3.27
   3  -9 -12    1.60    3.66
   3   9 -11    9.29    4.33
   3  -9 -11   16.60    5.33
   3  -9 -11   23.95    6.46
   3   9 -10   34.24    8.72
  -3   9 -10   17.43    6.05
   3  -9 -10   28.29    6.89
   3  -9 -10   43.67    7.72
  -3   9  -9  122.49   13.18
   3  -9  -9  133.57   13.85
   3   9  -9  103.11   12.21
   3  -9  -9  111.50   12.65
  -3   9  -8   42.25    8.07
   3  -9  -8   48.38    7.64
   3   9  -8   54.06    9.52
   3  -9  -8   35.10    8.01
   3  -9  -7  108.52   12.21
   3  -9  -7  104.20   12.94
   3   9  -7   86.25   10.53
  -3   9  -7   86.41   11.30
   3  -9  -6   77.00   10.47
   3   9  -6   78.63   10.85
   3  -9  -6   79.55   10.12
  -3   9  -6   75.47   10.34
   3   9  -5   63.12    9.78
  -3   9  -5   95.96   11.10
   3  -9  -5   94.88   11.24
   3   9  -4  118.96   12.93
  -3   9  -4  155.88   15.13
   3   9  -4  122.73   13.25
   3   9  -3  180.77   15.52
  -3   9  -3  150.26   14.63
   3  -9  -3  154.23   15.13
   3   9  -3  173.30   15.54
   3   9  -2   31.91    6.82
   3  -9  -2   35.03    6.97
   3   9  -2   36.55    7.07
  -3   9  -2   37.31    6.65
   3   9  -1  114.39   12.84
   3   9  -1  114.04   12.36
  -3   9  -1  113.22   12.09
   3  -9  -1   93.88   11.56
   3   9   0   79.03   10.75
   3   9   0   72.21   10.27
  -3   9   0   76.09   10.43
   3  -9   0   52.42    9.25
   3   9   1  103.13   11.66
   3   9   1  128.74   13.37
  -3   9   1  120.37   13.06
   3  -9   1  107.04   12.39
  -3   9   2   37.69    7.78
   3   9   2   33.57    6.90
   3   9   2   48.30    8.21
   3  -9   2   49.35    7.93
   3   9   3  178.99   15.78
   3   9   3  156.40   14.89
   3  -9   3  164.30   15.76
  -3   9   3  184.18   16.10
   3   9   4  104.70   11.95
   3  -9   4  109.13   12.23
   3   9   4  102.46   11.98
  -3   9   4  126.11   13.42
  -3   9   5   94.99   11.86
   3   9   5   72.69   10.14
   3   9   5   91.71   11.29
   3  -9   5   83.61   10.97
  -3   9   6   70.81   10.29
   3   9   6   83.13   10.69
   3  -9   6   84.15   11.06
   3   9   6   69.37   10.43
   3   9   7   92.01   11.82
   3  -9   7  102.13   11.71
  -3   9   7   99.31   12.06
   3   9   7   99.78   11.72
   3   9   8   59.99    9.20
   3  -9   8   55.45    9.26
  -3   9   8   48.49    8.75
   3   9   8   46.79    8.77
   3   9   9  128.22   13.99
   3  -9   9  126.53   13.82
  -3   9   9  107.12   12.69
   3   9   9  118.65   13.20
  -3   9  10   44.26    8.37
   3   9  10   38.37    7.40
   3   9  10   36.43    7.70
   3   9  11   14.16    4.80
   3   9  11   14.80    4.93
  -3   9  11   20.50    6.30
   3   9  12    0.67    1.33
  -3   9  12    4.40    2.95
  -3   9  13   24.18    7.12
   3   9  13   31.75    7.18
   3   9  13   36.21    7.44
   3   9  14   11.23    3.30
  -3   9  14   26.27    7.09
   3   9  14   18.10    4.95
   3   9  15   19.57    6.00
  -3   9  15   17.13    5.54
   3   9  15   19.40    5.54
  -3   9  16   25.99    7.47
   3   9  16   17.14    6.61
   3   9  16    7.00    3.11
   3   9  17    3.46    2.40
   3   9  17    2.87    3.18
   3   9  18    0.68    2.68
  -3   9  18    5.97    3.79
   3   9  18    7.93    4.02
   3   9  19   24.19    5.81
  -3   9  19   33.65    8.20
   3   9  19   49.54    8.83
  -3   9  19   42.72    8.35
   3 -10 -15    7.24    4.61
   3 -10 -14   -2.09    2.89
   3  10 -12   -4.56    2.97
   3 -10 -12    9.07    5.02
   3  10 -11   46.12    8.82
   3 -10 -11   45.27    8.54
   3  10 -10   23.07    6.47
   3 -10 -10   16.53    5.40
   3  10  -9   15.79    5.06
  -3  10  -9   31.39    8.72
   3 -10  -9   14.83    5.53
   3  10  -8   25.04    6.87
   3 -10  -8   41.29    8.21
  -3  10  -8   31.20    7.26
   3  10  -7    2.13    2.24
  -3  10  -7   10.73    5.13
   3 -10  -7    3.91    4.47
   3  10  -6    5.97    4.42
  -3  10  -6   13.83    5.53
   3 -10  -6    4.77    2.64
   3 -10  -5   50.64    8.89
   3  10  -5   73.63   10.89
  -3  10  -5   49.74    8.84
   3  10  -4   57.08    9.75
   3 -10  -4   60.36   10.41
  -3  10  -4   54.06    9.05
   3  10  -3  192.48   16.94
   3  10  -3  217.24   18.00
  -3  10  -3  161.97   16.03
   3 -10  -3  160.60   15.99
   3 -10  -2   21.44    6.51
   3  10  -2   17.54    5.49
  -3  10  -2   27.47    7.35
   3  10  -2   20.06    6.39
   3  10  -1   10.17    4.29
   3  10  -1    8.78    1.57
  -3  10  -1   15.45    4.98
   3 -10  -1    6.01    3.11
   3  10   0   10.79    4.20
   3  10   0   18.13    5.36
  -3  10   0   13.74    4.97
   3 -10   0   21.27    5.88
   3  10   1   10.45    5.07
   3  10   1   18.23    5.89
   3 -10   1   13.11    4.38
  -3  10   1   11.75    4.90
   3  10   2   18.77    6.32
   3  10   2   25.75    7.01
  -3  10   2   20.58    5.48
   3 -10   2   12.47    4.60
   3  10   3  175.69   16.23
   3 -10   3  189.94   16.69
  -3  10   3  148.03   14.86
   3  10   3  176.06   16.24
   3  10   4   59.67    9.23
  -3  10   4   77.57   10.50
   3 -10   4   63.58    9.94
   3  10   4   53.35    8.82
  -3  10   5   37.17    8.10
   3  10   5   53.81    8.81
   3 -10   5   52.26    9.34
   3  10   5   50.13    8.59
   3  10   6    3.09    2.04
   3  10   6    6.18    3.26
   3 -10   6    8.42    4.85
  -3  10   6    2.33    1.71
   3  10   7    4.15    4.23
  -3  10   7    3.41    2.92
   3  10   7    0.81    3.26
   3 -10   7    4.36    2.16
  -3  10   8   29.30    6.34
   3  10   8   41.82    7.99
   3 -10   8   27.41    7.18
   3  10   8   35.78    7.52
   3  10   9   25.91    6.97
  -3  10   9   35.05    7.41
   3  10   9   18.02    5.99
   3  10  10   16.73    5.12
  -3  10  10    9.56    4.87
   3  10  10   12.93    4.07
   3  10  11   47.69    8.57
   3  10  11   44.02    8.10
  -3  10  11   49.66    8.74
  -3  10  12   -1.22    2.59
   3  10  12    6.03    5.08
   3  10  12    3.90    3.87
   3  10  13    0.16    2.83
   3  10  13    4.94    3.27
  -3  10  13    8.41    5.21
   3  10  14    5.82    5.10
   3  10  14    6.11    3.54
  -3  10  14    7.40    2.69
   3  10  15    7.35    5.57
  -3  10  15    7.98    4.80
   3  10  15    1.96    1.83
   3 -11  -9   19.03    5.89
   3  11  -9   15.97    6.27
  -3  11  -8   41.75   10.32
   3 -11  -8   53.73    9.92
   3  11  -8   51.94    9.45
   3  11  -7   40.63    8.32
  -3  11  -7   34.26    7.80
   3 -11  -7   46.93    8.53
  -3  11  -6   11.47    4.50
   3 -11  -6    9.37    3.44
   3  11  -5    8.22    4.08
  -3  11  -5   17.57    5.73
   3 -11  -5   19.51    6.45
   3 -11  -4   16.90    6.19
   3  11  -4   17.02    5.67
  -3  11  -4   15.14    4.92
   3  11  -3    3.70    3.38
   3 -11  -3   12.55    4.99
  -3  11  -3   12.42    5.58
   3  11  -2    1.90    3.00
  -3  11  -2    5.93    4.16
   3 -11  -2    6.92    3.54
  -3  11  -1    8.81    4.52
   3  11  -1    3.26    2.84
   3 -11  -1    4.02    2.78
   3  11  -1    6.52    4.09
   3  11   0    6.38    4.63
  -3  11   0    0.07    3.24
   3 -11   0   -0.44    2.46
   3  11   0    4.13    4.09
  -3  11   1    1.10    2.97
   3  11   1    6.40    4.04
   3 -11   1    1.94    3.83
   3  11   1    6.42    4.27
  -3  11   2    6.09    4.54
   3  11   2    4.82    2.97
   3 -11   2    5.00    2.80
   3  11   2    2.90    2.85
   3  11   3    5.86    3.80
  -3  11   3   10.05    3.91
   3 -11   3   -1.85    3.18
   3  11   3    1.48    3.04
   3  11   4    8.78    5.15
   3 -11   4   17.58    6.80
   3  11   4   13.76    5.16
  -3  11   4   15.67    5.41
   3  11   5   12.56    5.38
   3 -11   5   12.00    4.21
  -3  11   5   15.25    5.06
   3  11   5   12.87    4.75
   3  11   6    9.74    5.51
  -3  11   6   11.01    4.34
   3  11   6    8.75    4.81
   3 -11   6   15.59    5.55
   3  11   7   39.13    7.87
   3  11   7   46.04    8.94
  -3  11   7   42.36    8.78
   3  11   8   33.16    7.40
   3  11   8   57.58   10.28
  -3  11   8   50.81    8.59
   3  11   9   21.61    6.50
   3  11   9   12.06    3.90
  -3  11   9   18.21    6.71
   4   0 -30    8.20    3.35
   4   0 -29    2.09    3.23
   4   0 -28   12.45    4.14
   4   0 -27   76.81   10.25
   4   0 -26  155.47   14.95
   4   0 -25   35.53    7.29
   4   0 -24   38.74    7.54
   4   0 -23   82.91   10.35
   4   0 -22  122.27   12.12
   4   0 -21  132.06   12.47
   4   0 -20  129.68   12.00
   4   0 -19  186.42   14.23
   4   0 -18  246.63   15.76
   4   0 -17  907.77   29.29
   4   0 -16  192.18   13.21
   4   0 -15  333.71   16.81
   4   0 -14  261.10   14.46
   4   0 -14  262.55   10.26
   4   0 -13  167.29    8.29
   4   0 -13  172.28   11.55
   4   0 -12  131.42    9.75
   4   0 -12  139.98    7.36
   4   0 -11 1364.89   30.60
   4   0 -11 1441.72   22.81
   4   0 -10  130.94    9.03
   4   0 -10  101.49    6.02
   4   0  -9 1372.33   28.37
   4   0  -9 1405.84   21.60
   4   0  -8  363.98   14.11
   4   0  -8  390.21   11.37
   4   0  -7   51.08    4.20
   4   0  -7   50.70    5.08
   4   0  -7   61.62    5.45
   4   0  -6  172.36    7.43
   4   0  -6  179.13    9.45
   4   0  -6  159.26    8.69
   4   0  -5  396.34   11.30
   4   0  -5  379.40   13.11
   4   0  -5  400.23   13.30
   4   0  -4  155.39    8.25
   4   0  -4  166.07    7.39
   4   0  -4  167.49    8.40
   4   0  -3 1654.61   26.19
   4   0  -3 1642.55   23.41
   4   0  -3 1696.00   26.01
   4   0  -2 1194.49   20.12
   4   0  -2 1127.94   21.46
   4   0  -2 1155.15   20.92
   4   0  -1  610.33   14.53
   4   0  -1  621.29   15.72
   4   0   0  849.35   17.65
   4   0   0  846.26   17.50
   4   0   1  604.98   15.04
   4   0   1  603.26   14.34
   4   0   2 1122.30   19.23
   4   0   2 1158.38   21.42
   4   0   3 1638.21   22.26
   4   0   3 1707.62   26.80
   4   0   4  186.43    9.20
   4   0   4  174.57    7.05
   4   0   5  386.34   13.50
   4   0   5  406.72   10.38
   4   0   6  209.13   10.02
   4   0   6  172.15    6.64
   4   0   7   50.74    5.03
   4   0   7   57.22    3.77
   4   0   8  380.93    9.10
   4   0   8  391.35   14.47
   4   0   9 1350.06   27.68
   4   0   9 1365.24   16.69
   4   0  10   96.00    7.69
   4   0  10  103.59    4.37
   4   0  11 1397.94   29.71
   4   0  11 1357.45   14.67
   4   0  12  147.51    9.95
   4   0  13  170.68   10.93
   4   0  14  290.83   14.49
   4   0  15  334.87   16.22
   4   0  16  176.65   12.03
  -4   0  16  176.92    8.87
   4   0  17  910.09   27.95
   4   0  18  200.69   13.71
   4   0  19  174.61   13.04
   4   0  20  138.67   11.95
   4   0  21  108.13   10.55
   4  -1 -30    1.17    2.46
   4  -1 -29    2.47    3.10
   4  -1 -28    4.78    3.36
   4  -1 -27    0.08    2.74
   4   1 -27   10.80    6.76
   4  -1 -26    4.07    2.83
   4   1 -26    3.54    2.47
   4   1 -25    1.68    2.99
   4  -1 -25   10.88    4.16
   4  -1 -24   73.52   10.05
   4   1 -24   72.59    9.47
   4  -1 -23    4.16    3.01
   4   1 -23   15.40    4.93
   4   1 -22    8.67    3.86
   4  -1 -22   12.35    3.48
   4   1 -21    4.40    1.93
   4  -1 -21   11.12    4.25
   4  -1 -20   12.10    4.65
   4   1 -20    3.43    2.50
   4   1 -19   67.88    8.38
   4  -1 -19   61.50    8.06
   4  -1 -18   82.85    9.46
   4   1 -18   68.07    7.85
   4   1 -17   30.34    5.35
   4  -1 -17   26.95    5.34
   4  -1 -16  345.06   18.13
   4  -1 -16  352.54   15.16
   4   1 -16  374.69   17.99
   4   1 -15   10.40    2.92
   4  -1 -15   11.89    3.08
   4  -1 -15   10.90    3.07
   4   1 -14   34.78    5.48
   4  -1 -14   43.15    5.25
   4   1 -13   68.32    6.60
   4  -1 -13   63.36    7.21
   4   1 -13   64.78    7.04
   4  -1 -13   63.42    6.39
   4  -1 -12   95.34    7.40
   4   1 -12   92.24    7.51
   4  -1 -12   87.37    8.20
   4   1 -12   79.20    7.21
   4   1 -12   69.26    3.46
   4  -1 -11  105.25    7.92
   4  -1 -11  128.87    9.70
   4   1 -11  124.91    8.49
   4   1 -11  119.48    4.72
   4   1 -11  128.67    8.69
   4  -1 -10  783.13   20.36
   4   1 -10  775.78   20.88
   4  -1 -10  763.58   23.37
   4   1 -10  752.67   11.79
   4   1 -10  795.49   21.31
   4   1  -9    8.63    2.08
   4   1  -9    6.43    1.82
   4  -1  -9    6.37    2.58
   4   1  -9    9.13    1.34
   4  -1  -9    6.07    2.04
   4   1  -8  227.46    7.03
   4   1  -8  248.29   10.71
   4   1  -8  228.64   10.99
   4  -1  -8  226.09   10.28
   4  -1  -8  215.59   11.57
   4  -1  -7   80.28    6.78
   4  -1  -7   70.34    5.68
   4   1  -7   63.30    5.29
   4   1  -7   72.32    6.03
   4   1  -7   68.53    3.94
   4  -1  -6  140.07    7.86
   4   1  -6  132.79    7.38
   4  -1  -6  128.20    8.34
   4   1  -6  137.41    5.86
   4   1  -6  125.55    7.80
   4   1  -5  131.84    7.81
   4  -1  -5  126.20    7.38
   4   1  -5  123.02    6.79
   4   1  -5  120.35    5.65
   4  -1  -5  122.14    8.03
   4  -1  -4  452.27   13.89
   4  -1  -4  451.54   15.42
   4   1  -4  449.00   12.82
   4   1  -4  467.20   11.43
   4   1  -4  495.86   14.97
   4  -1  -3   48.88    4.48
   4   1  -3   46.74    4.00
   4  -1  -3   48.56    4.84
   4   1  -3   61.15    5.12
   4   1  -3   54.29    4.13
   4   1  -2  100.15    5.71
   4   1  -2  100.81    5.81
   4  -1  -2   84.94    6.04
   4  -1  -2   89.40    6.53
   4   1  -2   82.78    6.01
   4  -1  -1   19.58    2.72
   4   1  -1   25.08    3.12
   4  -1  -1   24.15    3.19
   4   1  -1   20.63    2.73
   4   1   0  269.43   10.33
   4   1   0  279.16   10.09
   4  -1   0  283.85   10.81
   4  -1   0  267.19   10.91
   4  -1   1   23.26    3.16
   4   1   1   24.56    2.98
   4   1   1   21.57    3.05
   4   1   2   99.55    6.04
   4   1   2   94.92    6.23
   4  -1   2  101.07    6.68
   4   1   3   53.70    4.44
   4  -1   3   60.37    5.14
   4   1   3   55.14    4.95
   4   1   4  447.87   12.57
   4   1   4  475.17   14.90
   4  -1   4  445.42   14.20
   4  -1   5  121.55    7.63
   4   1   5  125.29    6.54
   4   1   5  120.70    7.78
   4  -1   6  128.81    7.79
   4   1   6  142.53    7.01
   4   1   6  128.80    8.27
   4   1   7   64.95    4.63
   4  -1   7   65.75    5.90
   4   1   7   65.03    6.05
   4  -1   8  239.25   11.25
   4   1   8  215.48    8.64
   4   1   8  240.79   11.83
   4  -1   9    8.25    2.19
   4   1   9    7.97    2.45
   4   1   9    9.01    1.78
   4   1  10  826.12   16.58
   4   1  10  766.84   22.42
   4  -1  10  818.36   21.78
   4   1  11  123.38    6.41
   4   1  11  116.89    8.98
   4  -1  11  121.72    8.59
   4   1  12   87.03    5.34
   4   1  12   85.22    7.78
   4  -1  12   69.14    6.70
   4   1  13   69.70    7.22
   4   1  13   59.99    4.45
   4  -1  13   68.55    6.76
   4   1  14   45.16    3.84
   4  -1  14   53.60    6.22
   4   1  14   45.67    6.20
   4  -1  15   11.63    3.09
   4   1  15   11.10    1.84
   4   1  15   16.86    3.90
   4   1  16  365.51   17.75
   4  -1  16  358.68   16.59
   4  -1  17   23.48    4.49
   4   1  17   26.10    4.88
  -4   1  18   75.66    7.38
   4  -1  18   81.69    8.43
   4   1  18   90.68    9.43
   4   1  19   62.92    7.97
   4  -1  19   59.34    7.35
   4   1  20    4.40    3.07
   4  -1  20    1.73    1.68
   4   1  21   10.36    3.52
   4   1  22    1.29    1.98
   4  -2 -30    1.09    3.60
   4  -2 -29    5.53    2.85
   4  -2 -28    3.62    5.01
   4  -2 -27   67.94   10.05
   4  -2 -26   76.41   10.87
   4  -2 -25  104.87   12.07
   4  -2 -24   10.46    3.97
   4  -2 -23    8.25    3.82
   4   2 -22   75.45   10.11
   4  -2 -22   75.66    9.65
   4  -2 -21   80.52   10.48
   4   2 -21   87.01    9.69
   4   2 -20   11.03    3.84
  -4  -2 -20    8.18    4.24
   4  -2 -20    4.81    1.52
  -4  -2 -19  172.01   13.87
   4   2 -19  169.84   12.93
   4  -2 -19  161.48   13.65
   4  -2 -18   23.38    4.89
   4   2 -18   16.89    3.89
  -4  -2 -18   20.71    4.56
   4   2 -17   12.53    3.26
  -4  -2 -17   18.77    4.08
   4  -2 -17   19.32    4.46
   4   2 -17   16.08    3.98
   4  -2 -17   23.09    4.80
   4  -2 -16  277.69   15.09
  -4  -2 -16  268.32   16.25
   4   2 -16  285.04   15.05
   4  -2 -16  297.68   17.26
   4   2 -16  291.90   14.77
  -4  -2 -15  161.55   12.53
   4   2 -15  164.19   10.94
   4  -2 -15  169.86   13.10
   4  -2 -15  148.81   10.80
   4   2 -15  148.62   10.16
   4  -2 -14   57.28    6.62
   4   2 -14   52.35    6.07
   4  -2 -14   60.37    7.56
  -4  -2 -14   51.58    7.02
   4   2 -14   52.29    6.21
   4   2 -13  149.30    9.61
  -4  -2 -13  141.81   10.90
   4  -2 -13  148.28   10.46
   4  -2 -13  146.65   11.42
   4   2 -13  150.82   10.14
  -4  -2 -12  286.22   15.16
   4   2 -12  278.38   12.61
   4  -2 -12  283.77   14.37
   4  -2 -12  291.48   15.94
   4   2 -12  292.45   13.80
   4   2 -11   52.01    5.95
  -4  -2 -11   54.21    6.44
  -4   2 -11   50.28    3.00
   4   2 -11   72.64    6.05
   4  -2 -11   53.88    6.16
   4  -2 -11   64.00    7.28
   4   2 -10  312.35   12.10
  -4  -2 -10  335.06   15.51
   4   2 -10  313.86   13.84
  -4   2 -10  294.23    8.01
   4  -2 -10  271.63   13.51
   4   2  -9  100.74    3.60
   4   2  -9  117.37    8.26
  -4  -2  -9  123.05    9.03
   4   2  -9  115.78    6.95
   4  -2  -9  110.17    8.52
  -4   2  -9  108.69    5.30
   4   2  -8   20.39    2.01
   4   2  -8   24.23    3.12
   4  -2  -8   21.19    3.89
   4  -2  -8   24.74    3.90
   4   2  -8   21.81    3.75
   4  -2  -7    6.40    2.22
   4  -2  -7    4.10    1.77
   4   2  -7    8.57    1.47
   4   2  -7    6.18    1.54
   4   2  -7    8.75    2.74
   4   2  -6    8.16    2.05
   4  -2  -6    6.23    1.85
   4   2  -6    8.76    1.66
   4   2  -6    7.49    1.41
   4  -2  -6    7.73    2.30
   4   2  -5   46.64    3.76
   4   2  -5   43.75    4.81
   4  -2  -5   36.95    4.59
   4  -2  -5   41.92    5.22
   4   2  -4  946.22   22.00
   4  -2  -4  940.94   22.69
   4   2  -4  976.01   17.46
   4   2  -4  941.07   16.29
   4  -2  -4  943.82   23.68
   4   2  -3  313.53   12.49
   4  -2  -3  298.68   12.67
   4  -2  -3  321.94   13.54
   4   2  -3  311.31   10.33
   4   2  -3  323.55    9.25
   4  -2  -2  126.70    8.10
   4  -2  -2  129.36    8.55
   4   2  -2  140.87    8.29
   4   2  -1   71.41    5.97
   4  -2  -1   88.34    6.71
   4   2  -1   89.21    5.95
   4  -2  -1   72.35    6.36
   4   2   0   96.00    6.93
   4  -2   0  110.92    7.75
   4  -2   0  106.66    7.56
   4   2   0  114.37    6.98
   4   2   1   74.98    6.06
   4  -2   1   79.19    6.56
   4   2   1   82.80    6.10
   4   2   2  120.15    7.59
   4  -2   2  121.58    7.87
   4   2   2  112.44    7.43
   4   2   3  313.76   12.18
   4  -2   3  296.35   12.54
   4   2   3  289.14   12.24
   4   2   4  958.90   21.37
   4  -2   4  979.00   22.51
   4  -2   5   30.39    4.02
   4   2   5   34.07    3.92
   4   2   5   37.68    4.78
   4   2   6    6.54    1.50
   4  -2   6    5.02    1.76
   4   2   6    6.68    2.52
   4  -2   7    2.69    1.08
   4   2   7    3.53    1.49
   4   2   7    6.99    2.29
   4   2   8   19.96    3.09
   4  -2   8   26.58    4.10
   4   2   8   22.83    4.12
   4   2   9  110.38    7.26
   4  -2   9   96.69    7.58
   4   2   9  109.28    8.67
   4   2  10  307.75   12.28
   4  -2  10  273.99   12.91
   4   2  10  288.16   14.52
   4   2  11   59.70    6.77
   4   2  11   64.93    5.80
   4  -2  11   59.76    6.18
   4  -2  12  269.96   13.25
   4   2  12  269.44   11.86
   4   2  12  280.36   15.12
   4  -2  13  116.58    8.91
   4   2  13  140.05    8.56
   4   2  13  126.04   10.31
   4  -2  14   49.81    5.85
   4   2  14   47.32    6.40
   4   2  14   66.90    6.01
   4   2  15  168.22    9.47
   4   2  15  175.94   12.61
   4  -2  15  190.63   11.63
   4   2  16  269.72   12.26
   4  -2  16  279.30   14.63
   4   2  16  262.59   15.71
   4   2  17   23.12    4.80
   4  -2  17   22.06    3.97
   4   2  18   24.27    4.98
   4  -2  18   22.17    4.35
   4  -2  19  165.62   12.13
   4   2  19  179.12   13.83
   4   2  20   16.29    4.47
  -4   2  20   11.26    3.64
   4   2  21   91.38   10.08
   4   2  22   63.25    8.79
   4   2  23    5.70    2.83
   4   2  24   18.23    5.10
   4  -3 -29    7.14    4.37
   4  -3 -28    5.87    3.22
   4  -3 -27    8.10    3.75
   4  -3 -26    3.71    3.49
   4  -3 -25    3.22    2.81
   4  -3 -24    7.25    3.96
  -4  -3 -23    6.55    3.54
   4  -3 -23    3.20    3.32
  -4  -3 -22    1.17    1.58
   4  -3 -22    7.39    3.63
  -4  -3 -21    1.53    1.68
   4  -3 -21    0.21    1.41
  -4  -3 -20   -0.59    2.79
   4  -3 -20   -0.73    2.08
  -4  -3 -19    5.58    2.58
   4  -3 -19   10.05    4.20
   4  -3 -18   15.27    3.79
  -4  -3 -18   13.12    3.93
   4  -3 -18   13.72    3.35
  -4  -3 -17   44.18    7.30
   4  -3 -17   30.22    5.70
   4  -3 -17   38.01    6.23
  -4  -3 -16   20.66    4.63
   4  -3 -16   28.17    5.82
   4   3 -16   30.99    5.16
   4  -3 -16   17.92    4.30
   4   3 -16   20.02    4.00
   4  -3 -15   65.32    7.96
  -4  -3 -15   61.97    7.81
   4   3 -15   68.27    6.98
   4  -3 -15   81.15    9.20
   4   3 -15   66.50    7.42
  -4  -3 -14    0.73    1.22
   4   3 -14    1.41    1.39
   4  -3 -14    0.50    1.33
   4  -3 -14    2.04    2.76
   4   3 -14    3.28    1.48
   4   3 -13   33.06    5.00
   4   3 -13   32.17    4.37
   4  -3 -13   30.67    5.63
   4  -3 -13   29.63    5.27
  -4  -3 -13   39.30    6.37
   4  -3 -12   52.18    7.11
  -4   3 -12   52.21    4.36
  -4  -3 -12   48.41    6.40
   4   3 -12   41.62    4.50
   4  -3 -12   48.38    6.44
   4   3 -12   48.35    5.95
   4   3 -11    9.91    3.26
  -4  -3 -11   12.90    3.65
   4   3 -11   16.69    2.70
   4  -3 -11   14.74    3.65
   4  -3 -11    9.59    2.87
  -4   3 -11   13.09    2.23
   4   3 -10   24.23    4.35
  -4  -3 -10   19.16    3.96
   4  -3 -10   23.40    4.81
   4   3 -10   22.80    3.06
  -4   3 -10   21.04    3.12
   4   3 -10   16.83    1.62
   4  -3 -10   21.73    4.24
   4   3  -9   56.90    3.56
  -4  -3  -9   49.83    6.10
  -4   3  -9   60.41    5.01
   4  -3  -9   42.80    5.79
   4   3  -9   50.19    5.97
   4   3  -9   49.58    3.89
   4  -3  -9   52.37    6.41
   4   3  -8    5.57    1.95
  -4   3  -8    6.31    1.53
  -4  -3  -8    5.03    1.70
   4   3  -8    5.27    1.17
   4  -3  -8    7.39    2.74
   4  -3  -8    5.42    2.01
   4   3  -8    5.70    1.22
   4   3  -7   57.83    6.27
   4   3  -7   57.09    4.34
  -4  -3  -7   57.38    6.13
   4  -3  -7   55.20    6.34
   4  -3  -7   52.84    6.20
  -4   3  -7   52.71    4.98
   4   3  -6  451.22   12.77
   4   3  -6  464.29   17.23
  -4  -3  -6  445.51   16.07
   4  -3  -6  461.28   18.08
   4   3  -6  476.86    9.39
   4  -3  -6  431.18   17.57
   4   3  -5   67.60    6.48
   4   3  -5   63.42    3.26
   4  -3  -5   74.56    7.21
   4  -3  -5   69.58    6.89
   4   3  -5   76.45    5.46
   4   3  -4   20.56    1.95
   4  -3  -4   20.24    3.61
   4   3  -4   21.60    3.76
   4   3  -4   20.91    2.92
   4  -3  -4   21.59    3.93
   4   3  -3   80.53    6.02
   4  -3  -3   87.39    7.42
   4   3  -3   73.11    6.61
   4  -3  -3   69.46    6.86
   4   3  -3   73.75    3.90
   4   3  -2   71.69    6.57
   4   3  -2   66.90    5.76
   4  -3  -2   87.87    7.49
   4  -3  -2   72.90    6.86
   4  -3  -1  144.91    9.59
   4   3  -1  146.99    8.66
   4   3  -1  155.25    9.84
   4  -3  -1  175.98   10.38
   4   3   0  432.23   15.33
   4   3   0  419.98   16.17
   4  -3   0  444.47   16.51
   4  -3   0  451.49   16.75
   4  -3   1  142.28    9.24
   4  -3   1  159.81    9.71
   4   3   1  147.73    9.03
   4   3   1  152.96    9.52
   4  -3   2   74.35    6.72
   4   3   2   72.67    6.53
   4  -3   2   64.39    6.31
   4   3   2   78.25    6.84
   4  -3   3   76.32    6.89
   4   3   3   74.72    6.86
   4  -3   3   69.09    6.42
   4   3   3   77.91    6.79
   4  -3   4   21.84    3.75
   4   3   4   18.61    3.45
   4   3   4   20.99    3.71
   4  -3   4   16.15    3.27
   4  -3   5   79.33    7.05
   4   3   5   65.96    6.30
   4   3   5   61.04    6.42
   4  -3   6  432.54   16.61
   4   3   6  453.32   16.72
   4   3   6  477.63   18.45
   4   3   7   52.72    5.81
   4   3   7   66.04    7.12
   4  -3   7   57.98    6.02
   4  -3   8    5.93    2.22
   4   3   8    6.38    2.40
   4   3   8    6.61    1.81
   4   3   9   57.00    6.66
   4   3   9   56.00    5.90
   4  -3   9   40.88    5.46
   4   3  10   30.77    5.01
   4   3  10   22.12    3.71
   4  -3  10   17.61    3.80
   4   3  11   16.00    3.49
   4   3  11    9.68    2.58
   4  -3  11   10.86    2.93
   4   3  12   33.94    5.58
   4   3  12   52.19    5.87
   4  -3  12   44.72    5.64
   4   3  13   36.59    5.96
   4  -3  13   45.00    5.64
   4   3  13   24.55    3.80
   4  -3  14    3.19    1.32
   4   3  14    5.75    2.34
   4   3  14    4.09    2.98
   4   3  15   68.36    7.12
   4  -3  15   66.71    7.29
   4   3  15   77.48    8.93
   4   3  16   21.44    3.67
   4   3  16   17.66    4.27
   4  -3  16   20.50    4.30
   4   3  17   35.70    4.93
   4  -3  17   33.95    5.15
   4   3  17   39.69    6.42
   4   3  18   19.23    4.70
   4   3  19    5.63    2.51
   4   3  20    0.39    1.33
  -4   3  21    2.96    3.18
   4   3  21    0.47    2.81
   4   3  22    2.65    1.90
   4   3  23    6.57    3.89
   4   3  24    5.08    3.39
   4   3  25    1.53    3.43
   4  -4 -28    3.50    2.05
   4  -4 -27   54.00    9.56
   4  -4 -26   50.08    8.80
  -4  -4 -25   37.70    6.93
   4  -4 -25   31.38    6.33
   4  -4 -24    9.53    4.13
  -4  -4 -24   23.26    6.05
  -4  -4 -23   24.44    6.81
   4  -4 -23   28.93    6.50
  -4  -4 -22   30.54    5.66
   4  -4 -22   35.65    7.27
  -4  -4 -21  111.46   12.23
   4  -4 -21  114.43   12.58
  -4  -4 -20   70.25    9.14
   4  -4 -20   54.68    8.92
   4  -4 -19   15.90    3.71
  -4  -4 -19    7.05    2.56
  -4  -4 -18   15.87    4.32
   4  -4 -18   14.45    4.53
   4  -4 -18   21.41    4.88
   4  -4 -17   14.04    3.97
  -4  -4 -17   15.37    4.62
   4  -4 -17    9.83    3.12
   4  -4 -16  162.12   13.73
   4  -4 -16  196.57   14.83
  -4  -4 -16  155.76   12.97
   4   4 -16  170.16   12.68
  -4  -4 -15  699.51   27.33
   4  -4 -15  753.07   28.78
   4   4 -15  742.37   26.29
   4  -4 -14  117.41   11.47
   4  -4 -14  119.02   11.53
  -4  -4 -14  123.56   11.24
   4   4 -14  126.92   10.47
   4   4 -13   73.91    8.32
   4  -4 -13   65.12    8.16
   4  -4 -13   65.71    8.33
  -4  -4 -13   76.12    8.87
   4   4 -12  192.56   13.27
  -4  -4 -12  238.55   14.66
   4  -4 -12  246.64   16.00
   4  -4 -12  213.49   14.63
  -4   4 -11  183.37   10.25
  -4  -4 -11  194.44   13.12
   4  -4 -11  208.82   14.47
   4  -4 -11  214.36   14.39
   4   4 -11  194.33   12.60
   4  -4 -10  215.16   13.91
  -4  -4 -10  213.06   13.36
  -4   4 -10  198.31   10.88
   4  -4 -10  213.06   14.28
   4   4 -10  236.57   13.66
  -4  -4  -9  131.90   10.23
  -4   4  -9  133.53    9.11
   4  -4  -9  141.87   11.31
   4   4  -9  114.39    6.58
   4  -4  -9  148.18   11.69
   4   4  -8   20.25    3.79
  -4  -4  -8   26.08    4.62
  -4   4  -8   17.77    3.54
   4  -4  -8   17.81    3.90
   4  -4  -8   21.77    4.40
   4   4  -8   19.61    3.06
  -4   4  -7  217.66   11.64
   4   4  -7  221.03   10.16
   4  -4  -7  244.17   14.06
   4   4  -7  220.35   13.05
   4  -4  -7  222.40   13.93
   4   4  -6   26.30    4.83
   4   4  -6   17.98    3.08
  -4  -4  -6   19.71    3.51
  -4   4  -6   26.81    4.06
   4  -4  -6   22.79    4.20
   4  -4  -6   21.26    4.41
  -4  -4  -5  122.97    8.49
   4   4  -5  126.94    8.05
   4  -4  -5  137.89   10.35
  -4   4  -5  129.44    8.98
   4   4  -5  116.19    9.36
   4  -4  -5  123.37    9.93
   4  -4  -4  389.86   17.12
   4   4  -4  393.56   14.89
   4   4  -4  381.21   17.31
   4  -4  -4  411.33   18.28
   4  -4  -3  167.31   11.46
   4   4  -3  151.28   10.70
   4   4  -3  142.77    9.24
   4  -4  -3  160.81   10.89
   4   4  -2   14.60    3.13
   4  -4  -2   10.62    3.31
   4   4  -2   11.63    2.74
   4  -4  -2   11.14    3.03
   4  -4  -1    8.26    2.41
   4   4  -1    7.78    2.08
   4   4  -1    9.89    2.61
   4  -4  -1    8.05    2.70
   4   4   0   14.48    3.22
   4  -4   0   15.49    3.53
   4  -4   0   15.07    3.68
   4   4   0   18.67    3.77
   4  -4   1    6.34    2.53
   4   4   1    6.67    2.29
   4   4   1    4.07    2.60
   4  -4   1    6.07    2.34
   4  -4   2    8.64    2.73
   4   4   2   15.09    3.32
   4   4   2   11.23    2.75
   4  -4   2   11.74    3.09
   4  -4   3  150.43    9.93
   4   4   3  165.20   10.99
   4   4   3  161.58   10.80
   4  -4   3  167.03   11.10
   4  -4   4  405.15   17.38
   4   4   4  402.58   17.58
   4   4   4  422.18   17.56
   4  -4   4  463.11   17.40
   4  -4   5  118.42    9.51
   4   4   5  106.07    8.87
   4  -4   5  112.46    8.70
   4   4   5  110.80    9.50
   4  -4   6   30.69    4.88
   4   4   6   30.81    4.95
   4   4   6   25.15    4.22
   4  -4   6   29.29    4.63
   4  -4   7  202.10   12.18
   4   4   7  199.23   12.24
   4   4   7  227.70   13.78
   4  -4   8   26.95    4.57
   4   4   8   17.82    3.80
   4   4   8   20.05    4.06
   4   4   9  126.15    9.87
   4  -4   9  124.45    9.74
   4   4   9  121.11   10.44
   4   4  10  216.31   14.10
   4   4  10  225.97   13.47
   4  -4  10  185.61   12.22
   4  -4  11  209.29   12.62
   4   4  11  225.22   14.41
   4   4  11  197.37   12.66
   4  -4  12  184.47   11.96
   4   4  12  197.62   13.96
   4  -4  13   60.79    7.14
   4   4  13   68.77    8.52
   4   4  13   75.68    8.06
   4  -4  14  146.04   10.84
   4   4  14  126.43   11.70
   4   4  14  117.79   10.00
   4  -4  15  812.21   26.18
   4   4  15  726.28   25.42
   4   4  15  738.76   28.30
   4  -4  16  178.57   12.35
   4   4  16  182.80   14.34
   4   4  16  179.44   12.86
   4   4  17    8.33    3.08
   4   4  17   12.49    4.02
   4   4  18    9.97    3.60
   4   4  18   18.18    5.08
   4   4  19   11.69    4.20
   4   4  20   56.43    8.44
   4   4  21   99.93   11.76
   4   4  22   18.76    5.27
  -4   4  22   18.59    4.36
  -4   4  22   25.40    5.96
   4   4  23   33.39    6.83
   4   4  24   11.00    4.19
   4   4  25   22.27    6.50
   4   4  26   44.60    8.38
   4  -5 -27   10.71    4.64
   4  -5 -26   -2.08    2.19
  -4  -5 -26   -1.06    3.13
   4  -5 -25    6.17    3.43
  -4  -5 -25   10.51    3.68
  -4  -5 -24   39.10    7.49
   4  -5 -24   48.56    8.13
   4  -5 -23    5.84    3.40
  -4  -5 -23   -2.67    3.80
  -4  -5 -22   27.82    6.87
   4  -5 -22    8.58    3.89
  -4  -5 -21    0.84    2.84
   4  -5 -21    1.75    2.74
  -4  -5 -20   19.62    5.52
   4  -5 -20   24.90    6.45
  -4  -5 -19   13.76    4.49
   4  -5 -19   10.52    4.58
   4  -5 -18   17.02    5.10
   4  -5 -18   27.19    5.80
  -4  -5 -18   23.58    5.87
   4  -5 -17   83.06   10.13
  -4  -5 -17   82.27   10.02
   4  -5 -17   83.68   10.52
  -4  -5 -16  118.58   11.99
   4  -5 -16  123.01   12.50
   4  -5 -16  124.95   12.60
   4  -5 -15  241.11   16.81
  -4  -5 -15  234.84   16.45
   4  -5 -15  212.02   16.29
   4   5 -15  208.43   15.14
  -4  -5 -14   18.58    4.38
   4  -5 -14    9.37    4.04
   4   5 -14   14.07    4.12
   4  -5 -14   20.90    5.41
   4   5 -13  123.98   10.99
   4  -5 -13  120.43   11.74
  -4  -5 -13  144.05   12.15
   4  -5 -13  113.71   11.37
   4  -5 -12  176.13   13.61
   4   5 -12  159.20   12.38
  -4  -5 -12  152.11   12.25
   4  -5 -12  176.19   13.91
   4   5 -11    3.63    2.04
  -4  -5 -11    7.54    2.93
  -4   5 -11    4.49    2.66
   4  -5 -11    3.34    2.21
   4  -5 -11    2.38    2.04
   4   5 -10   83.27    8.41
  -4  -5 -10   97.88    9.19
  -4   5 -10   69.61    7.40
   4  -5 -10   94.84    9.89
   4  -5 -10   88.20    9.70
   4   5  -9   31.00    5.46
   4   5  -9   44.88    5.34
  -4   5  -9   36.68    5.96
   4  -5  -9   44.52    6.80
   4  -5  -9   48.13    7.33
  -4  -5  -9   34.63    5.79
  -4   5  -8   22.91    4.11
   4   5  -8   17.22    3.28
   4   5  -8   18.64    3.98
  -4  -5  -8   24.02    4.68
   4  -5  -8   25.18    4.40
   4  -5  -8   23.47    4.48
  -4  -5  -7   37.07    5.45
  -4   5  -7   34.67    5.29
   4   5  -7   38.07    5.18
   4   5  -7   39.19    5.67
   4  -5  -7   32.17    5.76
   4  -5  -7   40.38    6.19
   4   5  -6   17.94    3.67
   4  -5  -6   13.45    3.47
  -4   5  -6   15.37    3.63
   4   5  -6   12.00    3.59
  -4  -5  -6   13.47    3.31
   4  -5  -6   11.65    3.98
  -4  -5  -5   28.25    4.15
   4   5  -5   22.30    4.49
  -4   5  -5   25.47    4.59
   4  -5  -5   26.95    5.23
   4  -5  -5   25.18    4.50
   4   5  -5   30.25    4.55
   4   5  -4  152.93   11.62
   4  -5  -4  113.80   10.46
  -4  -5  -4  121.21    8.46
   4  -5  -4  115.80    9.62
   4   5  -4  125.48    9.43
  -4   5  -4  122.92    9.91
   4   5  -3   38.10    5.96
  -4   5  -3   27.45    5.14
   4  -5  -3   30.84    5.07
   4   5  -3   29.83    4.60
   4  -5  -3   29.64    5.25
   4  -5  -2    0.44    1.15
   4   5  -2    2.63    1.51
   4   5  -2    5.88    2.51
  -4   5  -2    5.03    2.53
   4  -5  -2    3.70    2.29
  -4   5  -1   95.03    8.97
   4   5  -1   92.46    9.11
   4  -5  -1   75.45    7.79
   4  -5  -1   85.69    8.91
   4   5  -1   91.94    8.41
   4   5   0   40.90    5.86
   4  -5   0   35.10    5.12
   4   5   0   35.32    5.17
   4  -5   0   31.27    5.27
  -4   5   0   35.06    5.51
   4   5   1   71.61    7.66
   4   5   1   72.63    7.88
   4  -5   1   85.77    8.52
   4  -5   1   84.70    7.94
   4  -5   2    0.23    1.46
   4  -5   2    2.51    2.05
   4   5   2    3.53    2.22
   4   5   2    3.92    2.23
   4   5   3   30.75    5.69
   4  -5   3   26.91    4.36
   4   5   3   32.28    5.38
   4  -5   3   32.55    5.39
   4  -5   4  133.63    9.95
   4   5   4  116.89   10.06
   4  -5   4  100.85    9.24
   4   5   4  127.53   10.62
   4   5   5   24.82    4.91
   4  -5   5   26.84    4.74
   4   5   5   34.31    5.89
   4  -5   5   23.22    4.76
   4   5   6   19.28    4.58
   4  -5   6   18.41    3.86
   4   5   6   14.34    3.32
   4  -5   6   13.19    3.11
   4  -5   7   39.62    5.64
   4   5   7   30.01    5.00
   4   5   7   30.85    5.80
   4  -5   7   34.64    5.49
   4  -5   8   21.15    4.34
   4   5   8   23.60    3.85
   4  -5   8   18.05    3.81
   4   5   8   23.04    4.90
   4   5   9   23.47    4.31
   4   5   9   37.00    6.06
   4  -5   9   28.43    4.97
   4   5  10   91.99    9.16
   4   5  10   75.60    9.46
   4  -5  10   99.51    9.50
   4  -5  11    3.79    1.66
   4   5  11    5.25    2.85
   4   5  11    8.07    3.80
   4  -5  12  159.49   12.07
   4   5  12  176.96   13.75
   4   5  12  149.37   12.37
   4  -5  13  140.47   11.25
   4   5  13  151.01   12.16
   4   5  13  154.35   13.16
   4   5  14   19.59    4.60
   4   5  14   28.06    5.84
   4  -5  14   16.14    4.24
   4  -5  15  209.27   13.95
   4   5  15  227.58   15.22
   4   5  15  214.57   16.11
   4   5  16  112.24   11.80
   4   5  16  107.24   10.76
   4   5  17  106.71   11.20
   4   5  17   98.12   10.45
   4   5  18   36.79    7.06
   4   5  18   36.51    7.34
  -4   5  18   26.75    6.52
  -4   5  19    6.86    2.96
   4   5  19    6.86    2.72
   4   5  20    5.76    3.18
  -4   5  20   10.99    4.62
   4   5  21    2.92    1.66
  -4   5  21    5.34    3.61
  -4   5  22    6.12    2.84
  -4   5  22    8.98    2.71
  -4   5  23    4.56    3.64
   4   5  23    5.82    2.42
   4   5  24   34.63    7.99
   4   5  25    9.73    5.31
   4   5  26   10.43    4.75
  -4  -6 -26   35.05    7.60
   4  -6 -26   24.64    5.82
   4  -6 -25   13.91    5.04
  -4  -6 -25   25.53    5.66
  -4  -6 -24   16.59    5.50
   4  -6 -24   28.58    7.46
  -4  -6 -23   55.05    9.10
   4  -6 -23   48.77    9.17
  -4  -6 -22   43.50    8.28
   4  -6 -22   30.32    6.94
  -4  -6 -21   84.99   10.87
   4  -6 -21   77.53   10.67
  -4  -6 -20  202.26   17.29
   4  -6 -20  213.47   17.27
   4  -6 -19   14.56    4.60
  -4  -6 -19   18.80    5.34
   4  -6 -18    7.93    4.08
  -4  -6 -18   17.93    5.32
   4  -6 -18    9.20    3.91
  -4  -6 -17   80.38   10.29
   4  -6 -17   77.18   10.29
   4  -6 -16   31.81    6.59
   4  -6 -16   30.68    6.39
  -4  -6 -16   44.94    7.61
   4  -6 -15  575.98   26.90
   4  -6 -15  539.25   26.77
  -4  -6 -15  552.31   25.93
   4   6 -15  525.68   25.48
   4   6 -14  145.17   13.18
  -4  -6 -14  140.76   12.62
   4  -6 -14  140.20   13.74
   4  -6 -14  151.62   13.48
   4   6 -13   31.44    6.30
  -4  -6 -13   27.55    5.99
   4  -6 -13   27.01    5.45
   4  -6 -13   41.24    7.59
   4   6 -12   41.18    6.50
  -4  -6 -12   33.09    6.10
   4  -6 -12   35.29    7.10
   4  -6 -12   24.34    5.58
   4   6 -11  491.19   23.14
  -4  -6 -11  460.68   22.10
   4  -6 -11  526.15   25.27
   4  -6 -11  516.79   24.20
  -4   6 -10  111.35   10.44
  -4  -6 -10  121.87   10.67
   4  -6 -10  135.44   12.32
   4   6 -10  122.82   11.72
   4  -6 -10  114.42   11.52
  -4   6  -9  200.90   13.86
  -4  -6  -9  159.53   12.20
   4  -6  -9  215.57   15.34
   4  -6  -9  217.66   15.86
   4   6  -9  172.71   13.57
   4  -6  -8   55.79    7.79
   4   6  -8   50.30    7.34
   4   6  -8   47.45    6.57
  -4   6  -8   50.28    7.05
  -4  -6  -8   40.29    6.15
   4  -6  -8   51.54    8.09
   4   6  -7   22.09    4.09
   4   6  -7   21.50    5.43
   4  -6  -7   25.70    5.22
  -4  -6  -7   19.84    4.28
  -4   6  -7   23.12    5.24
   4  -6  -7   25.58    5.28
   4   6  -6  254.50   16.24
   4  -6  -6  230.03   15.32
  -4  -6  -6  233.71   13.40
  -4   6  -6  232.18   15.04
   4   6  -6  222.46   13.58
   4  -6  -6  248.16   16.74
   4   6  -5  317.53   18.13
  -4   6  -5  287.91   16.58
   4  -6  -5  294.46   16.99
   4  -6  -5  288.23   17.69
   4   6  -5  306.69   16.25
  -4  -6  -5  303.15   14.98
  -4  -6  -4    7.03    2.25
   4   6  -4   10.32    3.23
   4   6  -4    9.72    3.04
   4  -6  -4   11.32    3.88
  -4   6  -4    2.56    1.82
   4  -6  -4    6.00    2.33
   4   6  -3  124.04   10.36
   4   6  -3  126.67   11.13
  -4   6  -3  132.76   11.12
   4  -6  -3  145.91   11.32
   4  -6  -3  134.39   11.98
   4   6  -2   32.16    5.49
  -4   6  -2   21.20    4.75
   4  -6  -2   33.30    6.22
   4  -6  -2   31.81    5.64
   4   6  -2   30.42    5.49
   4  -6  -1  156.85   11.74
   4   6  -1  162.35   12.63
   4  -6  -1  159.77   12.95
   4   6  -1  184.33   13.00
   4  -6   0  236.01   14.19
   4   6   0  250.36   15.75
   4   6   0  220.51   14.69
  -4   6   0  226.22   15.22
   4  -6   0  204.09   14.39
   4  -6   1  160.00   11.67
   4   6   1  170.98   12.99
  -4   6   1  169.65   13.08
   4  -6   1  170.65   13.08
   4   6   1  182.22   12.99
   4   6   2   27.76    5.27
   4  -6   2   27.24    5.43
   4  -6   2   31.31    5.01
  -4   6   2   29.10    5.75
   4   6   2   25.46    5.40
   4   6   3  109.90   10.31
   4  -6   3  106.66    9.67
   4   6   3   97.93   10.27
   4  -6   3  131.06   11.50
  -4   6   4    8.63    2.87
   4   6   4    5.97    3.20
   4  -6   4    7.54    2.81
   4  -6   4   10.20    3.72
   4   6   4    3.23    1.94
   4  -6   5  310.38   16.43
   4   6   5  264.34   16.54
  -4   6   5  313.70   18.96
   4  -6   5  250.55   15.43
   4   6   5  316.69   18.35
   4   6   6  255.93   16.45
   4  -6   6  239.14   14.00
  -4   6   6  235.94   15.93
   4   6   6  217.98   15.34
   4  -6   6  215.61   14.42
   4   6   7   25.82    5.56
   4  -6   7   21.42    4.34
   4   6   7   31.39    5.93
   4  -6   7   25.09    4.76
  -4   6   7   24.10    5.58
   4   6   8   55.92    7.65
   4   6   8   50.41    7.35
  -4   6   8   43.76    7.57
   4  -6   8   53.37    7.50
   4   6   9  174.25   14.14
   4   6   9  206.31   15.17
   4  -6   9  187.90   12.80
   4  -6   9  192.84   13.83
   4   6  10  110.59   11.01
   4  -6  10  106.89    9.98
   4   6  10  121.78   11.69
   4  -6  10  104.84   10.20
   4   6  11  461.13   23.36
   4   6  11  439.56   22.14
   4  -6  11  476.97   21.32
  -4   6  11  488.00   23.51
   4  -6  11  498.99   22.46
   4   6  12   39.24    7.00
   4   6  12   45.71    7.12
  -4   6  12   28.11    6.44
   4  -6  12   35.85    5.92
   4  -6  12   43.96    6.46
   4  -6  13   22.73    4.71
   4   6  13   32.15    6.50
  -4   6  13   35.05    6.73
   4   6  13   27.76    6.01
   4   6  14  140.97   12.83
  -4   6  14  119.40   11.85
   4   6  14  124.60   12.59
   4  -6  14  123.70   11.24
   4   6  15  560.63   26.91
  -4   6  15  506.68   25.66
   4   6  15  529.74   25.15
  -4   6  16   40.45    7.48
   4   6  16   37.99    7.16
   4   6  16   40.24    7.36
   4   6  17   87.39   10.95
   4   6  17   95.82   11.34
  -4   6  18    9.48    4.25
   4   6  18   20.38    5.42
   4   6  18   11.16    4.28
   4   6  19   12.96    5.78
   4   6  19   16.73    4.91
  -4   6  19   12.27    3.94
  -4   6  20  187.53   16.65
   4   6  20  197.07   17.24
   4   6  21   99.67   12.07
  -4   6  21  102.61   12.95
  -4   6  22   24.65    6.52
  -4   6  22   37.78    8.45
   4   6  22   35.81    6.69
  -4   6  23   43.13    8.79
   4   6  23   70.42   10.75
  -4   6  24   28.32    7.10
   4   6  24   28.28    7.17
   4   6  25   18.24    5.59
   4   6  26   21.54    6.19
  -4  -7 -24    2.09    2.33
   4  -7 -24    3.22    4.03
   4  -7 -23    6.21    2.73
  -4  -7 -23    5.49    4.06
  -4  -7 -22    3.33    1.93
   4  -7 -22    5.47    3.24
  -4  -7 -21    2.21    2.93
   4  -7 -21   -2.13    2.64
   4  -7 -20   23.53    6.76
  -4  -7 -20   25.83    5.67
   4  -7 -19   23.30    6.93
  -4  -7 -19   41.51    7.38
   4  -7 -18   60.27    9.50
  -4  -7 -18   46.55    7.89
   4  -7 -18   57.46    9.48
   4  -7 -17   14.09    3.40
  -4  -7 -17   30.11    6.72
   4  -7 -17   20.65    5.96
   4  -7 -16   14.40    5.15
  -4  -7 -16   19.61    5.56
  -4  -7 -15   20.74    5.12
   4  -7 -15   21.42    6.17
   4  -7 -15   25.76    6.04
   4   7 -14    9.12    3.54
  -4  -7 -14   15.65    4.95
   4  -7 -14    9.72    2.98
   4   7 -13   70.35    9.47
  -4  -7 -13   77.44    9.80
   4  -7 -13   68.05    9.36
   4  -7 -13   80.70   10.43
   4   7 -12   14.70    4.52
  -4  -7 -12   15.12    3.77
   4  -7 -12   15.66    4.71
   4  -7 -12   13.92    4.54
   4   7 -11   54.48    7.70
  -4  -7 -11   56.96    8.01
   4  -7 -11   56.16    8.27
   4  -7 -11   61.44    9.22
   4  -7 -10   93.18   10.74
   4  -7 -10  108.04   12.20
   4   7 -10  106.15   11.53
  -4  -7 -10   98.95   10.71
  -4   7 -10  108.21   10.90
  -4  -7  -9    8.58    3.72
   4   7  -9    8.69    3.70
  -4   7  -9    7.63    2.88
   4  -7  -9    6.68    3.71
   4  -7  -9    1.09    2.23
   4   7  -8  104.49   11.49
   4  -7  -8   92.68   10.24
  -4   7  -8  102.49   11.01
  -4  -7  -8  115.90   10.75
   4  -7  -8  104.03   11.75
   4  -7  -7    2.70    2.37
   4   7  -7    6.09    3.44
  -4  -7  -7    3.78    1.59
  -4   7  -7    0.77    1.38
   4  -7  -7    2.48    2.97
   4  -7  -6   23.89    5.00
   4   7  -6   36.07    6.65
  -4  -7  -6   23.36    4.30
   4   7  -6   18.29    4.64
   4  -7  -6   38.02    7.04
  -4   7  -6   25.17    5.20
   4   7  -5   40.51    7.25
   4   7  -5   25.55    4.84
  -4   7  -5   43.48    6.93
   4  -7  -5   37.61    6.37
  -4  -7  -5   27.26    4.69
   4  -7  -5   29.86    6.00
  -4  -7  -4   10.72    3.20
   4   7  -4    8.96    3.67
   4  -7  -4   11.69    4.44
  -4   7  -4    7.34    3.16
   4  -7  -4   14.43    4.28
   4   7  -4   11.69    3.26
   4   7  -3   22.62    5.68
  -4   7  -3   19.90    5.15
   4  -7  -3   21.86    5.37
   4  -7  -3   15.86    3.48
   4   7  -3   20.46    5.04
   4  -7  -2   12.44    3.74
  -4   7  -2   10.87    2.78
   4   7  -2   15.46    4.70
   4   7  -2   11.79    3.59
   4  -7  -2    6.75    2.62
   4   7  -1    9.72    3.11
  -4   7  -1   22.04    5.27
   4   7  -1   13.06    4.92
   4  -7  -1   10.84    3.40
   4  -7  -1   12.31    3.50
   4   7   0   45.43    7.04
   4  -7   0   43.97    7.40
  -4   7   0   55.52    7.86
   4   7   0   58.98    7.79
   4  -7   0   36.42    5.82
   4  -7   1   11.08    3.54
   4   7   1    9.99    3.62
   4   7   1   16.00    4.98
  -4   7   1   13.66    4.24
   4  -7   1   11.88    4.48
  -4   7   2    5.92    3.50
   4   7   2    9.06    3.71
   4   7   2    9.71    3.22
   4  -7   2    7.33    2.71
   4  -7   2    9.46    3.01
   4   7   3   25.05    5.39
   4   7   3   16.21    3.68
   4  -7   3   24.09    4.96
  -4   7   3   25.89    5.35
   4  -7   3   20.18    4.90
   4   7   4    7.50    3.52
   4  -7   4   14.77    3.96
  -4   7   4    7.22    2.96
   4  -7   4    5.96    2.64
   4   7   4    8.74    3.80
   4   7   5   37.82    7.01
   4   7   5   39.09    6.92
   4  -7   5   44.91    6.76
  -4   7   5   38.79    6.74
   4  -7   5   40.79    7.23
   4  -7   6   19.49    5.43
   4   7   6   29.58    6.08
   4   7   6   31.04    6.04
  -4   7   6   19.64    4.53
   4  -7   6   24.07    5.09
  -4   7   7    3.89    2.79
   4   7   7    7.56    3.77
   4  -7   7    3.13    1.67
   4   7   7    4.54    1.46
   4   7   8   84.09   10.28
   4   7   8  119.83   12.04
  -4   7   8  113.70   11.95
   4  -7   8  106.54   11.57
   4   7   9    2.93    2.12
   4  -7   9   12.19    4.12
   4   7   9   10.74    3.67
  -4   7   9    5.08    2.25
   4   7  10  125.60   12.31
   4   7  10  108.17   11.86
  -4   7  10   82.55   10.28
   4  -7  10  103.50   11.18
   4  -7  11   49.61    7.32
   4   7  11   51.06    7.74
   4   7  11   30.90    6.38
  -4   7  11   51.15    8.79
   4  -7  12   15.93    4.70
   4   7  12   17.51    5.16
   4   7  12   12.02    3.58
  -4   7  12   21.72    5.61
   4   7  13   79.49   10.05
  -4   7  13   80.96   10.37
   4   7  13   82.34   10.60
   4   7  14   11.60    3.85
  -4   7  14   12.83    3.84
   4   7  14   10.43    5.16
   4   7  15   22.82    5.98
   4   7  15   17.20    4.44
  -4   7  15   10.36    3.44
   4   7  16   30.16    6.68
  -4   7  16   27.40    6.42
   4   7  16   22.68    6.49
  -4   7  17   14.89    4.60
   4   7  17   18.87    5.82
   4   7  17   16.55    5.40
   4   7  18   49.91    8.71
   4   7  18   53.89    8.76
  -4   7  18   74.24   10.80
   4   7  19   18.12    6.11
  -4   7  19   30.86    7.27
   4   7  20   21.57    6.60
  -4   7  20   14.92    4.76
   4   7  21   -1.63    3.54
  -4   7  21   -2.37    2.64
  -4   7  22   12.88    5.44
  -4   7  22    4.90    4.79
   4   7  22   10.69    4.22
  -4   7  23    6.19    4.05
  -4   7  23    4.56    2.48
   4   7  23   11.16    5.73
  -4   7  24   -0.75    3.13
   4   7  24    5.52    4.49
  -4  -8 -21   36.60    7.89
   4  -8 -21   37.23    8.64
  -4  -8 -20   32.61    8.02
   4  -8 -20   29.29    7.01
   4  -8 -19   52.51    9.37
  -4  -8 -19   49.66    9.39
   4  -8 -18   70.53   10.72
  -4  -8 -18   48.00    7.99
   4  -8 -17   -3.02    2.75
  -4  -8 -17   -0.09    2.85
   4  -8 -17    2.28    2.93
   4  -8 -16   31.03    7.10
   4  -8 -16   25.45    6.46
  -4  -8 -16   20.77    6.18
   4  -8 -15    8.72    3.59
   4  -8 -15    4.92    3.57
  -4  -8 -15    5.02    1.81
   4  -8 -14    4.78    3.37
  -4  -8 -14    7.85    4.14
   4  -8 -14    1.03    2.41
   4  -8 -13   20.99    5.75
   4  -8 -13   19.32    5.36
   4   8 -13   33.44    6.97
  -4  -8 -13   36.08    7.71
   4  -8 -12    8.61    4.15
   4  -8 -12    5.43    3.31
   4   8 -12    9.18    4.54
  -4  -8 -12   -2.28    2.05
   4   8 -11    5.46    3.69
   4  -8 -11    5.11    3.13
   4  -8 -11   15.03    5.21
  -4  -8 -11   16.28    5.05
   4  -8 -10  188.12   16.31
   4   8 -10  169.97   15.09
  -4   8 -10  159.04   14.84
  -4  -8 -10  194.02   15.53
   4  -8 -10  152.05   14.64
   4   8  -9   32.20    7.04
  -4  -8  -9   16.72    4.22
  -4   8  -9   25.48    6.02
   4  -8  -9   33.56    7.15
   4  -8  -9   34.26    6.55
   4   8  -8   13.72    4.06
  -4   8  -8   12.81    3.72
   4  -8  -8    9.79    3.82
  -4   8  -7  104.57   11.79
   4  -8  -7  127.81   12.23
   4  -8  -7  110.07   12.50
   4   8  -7   95.39   11.25
  -4   8  -6  180.09   15.38
   4  -8  -6  168.78   15.29
   4  -8  -6  180.28   14.88
   4   8  -6  193.81   15.77
   4  -8  -5   33.36    6.18
   4   8  -5   34.25    6.64
  -4   8  -5   48.03    8.01
   4  -8  -5   43.99    7.81
   4   8  -5   27.42    5.74
   4   8  -4   23.09    5.95
  -4   8  -4   11.31    4.35
   4  -8  -4   25.59    5.41
   4   8  -4   14.98    4.97
   4  -8  -4   22.21    5.58
   4   8  -3   21.14    5.28
  -4   8  -3   11.14    4.21
   4  -8  -3    4.30    1.51
   4   8  -3   14.11    5.16
   4  -8  -3   13.26    4.57
  -4   8  -2   12.73    4.44
   4   8  -2   14.62    4.60
   4  -8  -2    9.39    4.00
   4  -8  -2   16.62    4.81
   4   8  -2   13.54    4.71
   4   8  -1  146.02   13.41
  -4   8  -1  142.21   13.48
   4  -8  -1  128.22   12.83
   4  -8  -1  138.76   12.49
   4   8  -1  153.54   13.78
   4   8   0  184.03   15.26
   4   8   0  213.87   16.44
  -4   8   0  204.81   16.47
   4  -8   0  206.45   16.46
   4   8   1  158.12   14.31
  -4   8   1  160.78   14.28
   4  -8   1  152.09   12.61
   4   8   1  156.90   14.21
   4   8   2   13.00    4.70
   4   8   2   11.35    3.42
  -4   8   2    6.34    2.63
   4  -8   2    9.88    3.90
   4   8   3   21.08    5.64
   4  -8   3    9.64    3.18
   4   8   3    9.36    3.66
  -4   8   3    8.80    3.84
  -4   8   4   11.07    4.46
   4   8   4   12.56    4.97
   4   8   4   11.73    3.87
   4  -8   4   18.82    5.59
   4   8   5   52.84    8.55
  -4   8   5   47.75    8.00
   4  -8   5   50.30    7.85
   4   8   5   49.58    7.98
   4  -8   6  173.68   15.31
  -4   8   6  201.81   16.08
   4   8   6  209.75   16.35
   4   8   7  108.48   12.09
  -4   8   7   97.04   11.35
   4   8   7  102.76   11.47
   4  -8   7  106.58   12.07
   4   8   8    7.10    3.43
   4   8   8   16.58    4.79
  -4   8   8   18.52    5.96
   4  -8   8   14.02    4.79
   4   8   9   41.15    7.59
  -4   8   9   28.21    5.75
   4   8   9   43.25    7.18
   4  -8   9   35.67    7.13
   4   8  10  160.86   14.63
  -4   8  10  179.02   15.47
   4   8  10  142.81   14.26
   4  -8  10  184.67   16.06
  -4   8  11    7.06    2.99
   4   8  11   15.67    4.80
   4   8  11   15.21    5.37
   4  -8  11    2.79    2.10
   4   8  12    2.69    4.00
   4   8  12    5.87    3.61
  -4   8  12    5.33    1.67
  -4   8  13   16.86    5.51
   4   8  13   25.29    6.38
   4   8  13   18.58    5.54
   4   8  14    6.91    2.31
   4   8  14    3.29    3.96
  -4   8  14    7.13    4.22
   4   8  15    1.07    1.95
  -4   8  15   14.55    5.93
   4   8  15   12.27    5.71
   4   8  16   35.42    7.30
   4   8  16   29.69    7.25
  -4   8  17    1.24    1.94
   4   8  17    1.16    2.99
   4   8  17    2.64    2.48
   4   8  18   62.30    9.82
   4   8  18   47.88    8.60
  -4   8  18   45.32    9.32
   4   8  19   47.92    8.26
  -4   8  19   36.60    7.42
   4   8  19   55.05    9.15
   4   8  20   19.15    5.81
  -4   8  20   36.73    7.94
  -4   8  21   31.45    7.76
   4   8  21   37.44    8.28
   4  -9 -19    5.99    4.51
  -4  -9 -18    1.65    4.32
   4  -9 -18    3.46    4.04
   4  -9 -17   12.48    4.75
  -4  -9 -17    5.77    2.59
  -4  -9 -16    3.68    2.86
   4  -9 -16    8.06    5.17
   4  -9 -16   -1.61    1.94
   4  -9 -15    4.58    3.11
   4  -9 -15    7.15    3.77
   4  -9 -14   10.59    5.00
   4  -9 -14    0.43    3.07
   4   9 -13   10.83    5.05
   4  -9 -13   18.83    6.56
   4  -9 -13   17.44    5.50
   4  -9 -12   37.94    7.88
   4  -9 -12   37.87    7.41
   4   9 -12   28.38    7.47
   4   9 -11    6.12    4.76
   4  -9 -11    2.98    2.51
   4  -9 -11    4.46    2.91
   4   9 -10   -0.89    2.01
   4  -9 -10    6.94    4.55
   4  -9 -10    6.79    4.65
   4  -9  -9   18.39    5.25
   4   9  -9   18.07    5.04
  -4   9  -9   13.06    5.17
   4  -9  -9   13.47    4.10
   4  -9  -8   26.90    5.94
  -4   9  -8   38.68    8.19
   4  -9  -8   21.62    4.70
   4   9  -7   21.60    5.69
  -4   9  -7   26.62    6.81
   4  -9  -7   14.16    4.40
   4  -9  -7   22.28    6.13
   4   9  -6    8.79    4.50
  -4   9  -6    9.50    3.91
   4  -9  -6    6.18    1.67
   4  -9  -6    6.23    3.47
  -4   9  -5   -0.52    2.36
   4  -9  -5   -1.95    2.17
   4   9  -5   -1.34    2.57
   4  -9  -5   -2.03    2.56
  -4   9  -4   14.61    4.34
   4   9  -4   23.52    6.89
   4  -9  -4   14.02    4.76
   4   9  -4   19.52    4.55
   4   9  -3   15.57    4.27
  -4   9  -3   23.42    6.15
   4   9  -3   23.97    5.96
   4  -9  -3   21.06    5.29
   4  -9  -2    4.48    3.66
  -4   9  -2    6.66    3.84
   4   9  -2    0.45    3.46
   4   9  -2    5.65    3.66
   4   9  -1   20.34    5.79
   4   9  -1   24.77    6.52
   4  -9  -1   36.26    7.33
  -4   9  -1   17.19    5.19
   4   9   0   82.98   10.53
   4   9   0   82.59   11.28
  -4   9   0   94.89   11.28
   4  -9   0   89.26   11.36
  -4   9   1   19.09    5.59
   4   9   1   10.79    3.59
   4  -9   1   10.62    3.13
   4  -9   2    4.49    3.88
   4   9   2    4.28    2.01
  -4   9   2    8.17    4.49
   4   9   2    0.02    1.62
   4   9   3   21.83    5.79
  -4   9   3   16.77    5.13
   4   9   3   28.75    6.98
   4  -9   3   17.64    5.59
   4   9   4   18.68    4.15
  -4   9   4   24.24    6.27
   4   9   4   23.52    5.92
   4  -9   4   16.72    5.36
   4   9   5    1.36    2.07
   4   9   5    4.58    5.38
  -4   9   5    1.58    3.60
   4  -9   5    2.38    2.59
  -4   9   6    7.53    3.11
   4   9   6    0.98    2.08
   4   9   6    4.69    4.46
   4  -9   6    4.15    2.60
   4   9   7   13.81    4.51
   4   9   7   22.40    5.51
  -4   9   7   14.93    4.25
   4  -9   7   11.05    4.60
   4   9   8   53.41    8.79
   4   9   8   35.76    7.11
  -4   9   8   36.83    6.94
   4  -9   8   40.87    7.84
   4   9   9   21.94    5.97
   4   9   9   17.75    4.88
  -4   9   9   25.08    7.00
   4  -9   9   24.21    6.13
   4   9  10   -1.09    2.00
   4   9  10    0.08    1.87
  -4   9  10    2.70    4.28
   4  -9  10    0.30    3.77
  -4   9  11    0.13    2.61
   4   9  11    1.93    2.24
   4   9  11    5.31    4.66
   4   9  12   43.21    8.28
   4   9  12   48.59    8.78
  -4   9  12   46.19    9.23
  -4   9  13   30.36    7.35
   4   9  13   23.76    6.15
   4   9  13   27.67    7.28
  -4   9  14   10.89    5.27
   4   9  14    2.51    2.54
   4   9  14    3.58    3.93
   4   9  15    0.01    3.17
  -4   9  15   -0.41    2.52
   4   9  15    0.90    4.75
   4   9  16    0.96    2.40
   4   9  16   -2.60    3.35
  -4   9  16    2.90    1.97
   4   9  17    6.34    4.49
  -4   9  17   -0.81    2.80
   4   9  17    5.75    3.02
   4   9  18   -0.71    3.35
  -4   9  18    2.22    3.19
   4   9  18    2.64    3.89
   4   9  19    8.91    5.11
   4   9  19    9.99    5.25
  -4   9  19    5.39    4.69
   4 -10 -15    6.51    3.38
   4 -10 -14    9.13    4.53
   4 -10 -14    6.59    4.86
   4 -10 -13   17.59    6.64
   4 -10 -13   14.22    4.53
   4 -10 -12   -0.20    4.54
   4  10 -12    4.91    4.52
   4 -10 -12    2.86    2.01
   4  10 -11   31.96    7.24
   4 -10 -11   21.62    5.28
   4  10 -10   40.38    8.28
   4 -10 -10   30.52    7.24
   4  10  -9   80.85   11.25
   4 -10  -9   96.14   13.04
   4  10  -8   24.15    6.54
   4 -10  -8    9.36    4.44
  -4  10  -8   14.12    4.43
   4  10  -7   32.38    7.69
  -4  10  -7   32.44    7.82
   4 -10  -7   21.27    6.54
   4  10  -6   34.95    7.95
  -4  10  -6   38.47    7.59
   4 -10  -6   27.94    6.65
  -4  10  -5   59.44   10.07
   4  10  -5   51.06    8.80
   4 -10  -5   38.20    8.18
  -4  10  -4   25.46    6.58
   4 -10  -4   26.36    6.72
   4  10  -4   28.59    6.55
   4  10  -3   10.47    4.40
   4  10  -3   -5.56    3.65
  -4  10  -3   11.99    5.05
   4 -10  -3   12.83    6.22
   4  10  -2    9.14    5.42
   4 -10  -2    5.00    1.93
  -4  10  -2    4.47    4.41
   4  10  -2    2.05    2.54
   4  10  -1   28.64    6.87
  -4  10  -1   16.48    6.28
   4  10  -1   21.89    5.74
   4 -10  -1   15.05    4.59
  -4  10   0   89.81   11.90
   4  10   0   93.73   12.20
   4 -10   0   87.79   11.90
   4  10   0   55.47    8.97
   4  10   1   27.88    6.71
  -4  10   1   20.93    5.53
   4  10   1    6.09    2.82
   4 -10   1   16.68    6.12
   4  10   2    3.70    3.30
  -4  10   2    5.04    4.57
   4  10   2    9.04    3.98
   4 -10   2    8.68    4.33
   4  10   3   10.45    4.25
   4  10   3    7.12    2.41
   4 -10   3    8.59    4.51
  -4  10   3    9.03    2.03
   4  10   4   39.13    8.57
   4  10   4   30.71    7.08
   4 -10   4   25.53    6.15
  -4  10   4   47.01    7.80
   4 -10   5   36.61    8.04
   4  10   5   57.25    9.69
   4  10   5   34.31    6.59
  -4  10   5   38.91    7.12
   4  10   6   39.27    7.59
  -4  10   6   29.77    6.85
   4  10   6   42.91    8.08
   4 -10   6   33.71    7.79
   4  10   7   13.89    5.31
   4  10   7   14.87    4.50
   4 -10   7   19.98    5.21
  -4  10   7   23.60    6.26
   4  10   8   18.87    6.51
   4  10   8   17.84    5.70
   4 -10   8   26.90    7.23
  -4  10   8   12.05    5.09
  -4  10   9   73.90   11.10
   4  10   9   88.88   11.66
   4  10   9   79.24   11.18
   4  10  10   32.30    7.05
   4  10  10   23.26    6.48
  -4  10  10   34.30    7.68
   4  10  11   10.52    4.49
   4  10  11   28.72    7.03
  -4  10  11   28.34    6.99
   4  10  12    1.60    2.88
   4  10  12    3.79    2.42
  -4  10  12    2.11    2.85
   4  10  13   12.63    5.82
  -4  10  13    5.20    2.91
   4  10  13    8.54    3.46
  -4  10  14    5.18    3.46
   4  10  14   11.28    4.58
   4  10  14    8.48    4.99
  -4  10  15   22.62    6.47
   4  10  15   10.14    6.12
   4  10  15   11.92    5.62
   4 -11  -8   10.04    3.80
   4  11  -8    9.27    2.75
   4 -11  -7   23.62    6.52
  -4  11  -7   18.61    6.10
   4  11  -7   28.63    8.13
   4  11  -6   10.78    4.01
  -4  11  -6   15.68    6.91
   4 -11  -6    9.54    5.12
   4  11  -5    5.98    4.62
  -4  11  -5    2.65    4.78
   4 -11  -5    3.00    2.34
  -4  11  -4    2.22    2.56
   4 -11  -4    2.61    2.68
   4  11  -4    2.51    2.45
  -4  11  -3    2.39    3.16
   4 -11  -3    2.22    2.31
   4  11  -3    8.62    4.25
  -4  11  -2    4.98    4.16
   4  11  -2    1.90    2.08
   4 -11  -2   -0.33    2.77
   4  11  -1   32.27    7.50
   4  11  -1   25.24    7.98
  -4  11  -1   25.30    7.16
   4 -11  -1   37.74    8.18
   4  11   0   15.33    4.78
   4  11   0   12.48    4.88
  -4  11   0    9.50    5.32
   4 -11   0   19.54    7.06
   4  11   1   25.18    5.90
   4  11   1   26.60    7.82
  -4  11   1   11.07    3.03
   4 -11   1   20.08    6.95
   4  11   2    3.09    3.69
   4  11   2    7.86    4.31
  -4  11   2   10.36    4.82
   4 -11   2    1.03    3.39
   4  11   3    4.93    3.53
   4  11   3    8.31    4.50
  -4  11   3    1.84    2.14
   4 -11   3    3.82    2.77
   4  11   4    1.87    2.12
   4  11   4    1.06    2.49
  -4  11   4    0.19    2.12
   4 -11   4    4.49    3.03
   4  11   5   -0.17    2.44
   4  11   5    3.10    4.26
   4 -11   5    1.07    2.75
  -4  11   5    0.98    3.08
   4  11   6    4.17    3.83
   4  11   6    7.56    3.97
  -4  11   6   15.38    5.29
   4 -11   6   14.04    6.01
   4  11   7   31.48    7.42
  -4  11   7   25.76    6.57
   4  11   7   26.91    6.96
   4  11   8    9.98    4.15
   4  11   8   15.86    5.67
  -4  11   8    2.67    2.50
   5   0 -30   15.05    6.67
   5   0 -29    0.23    2.26
   5   0 -28    1.86    2.55
   5   0 -27   -2.00    2.13
   5   0 -26   -0.91    2.55
   5   0 -25    2.80    2.83
   5   0 -24   -1.35    2.67
   5   0 -23   -0.63    2.23
   5   0 -22    1.67    2.39
   5   0 -21    4.75    3.15
   5   0 -20   -1.83    1.96
   5   0 -19    1.63    2.25
   5   0 -18   -1.17    1.95
   5   0 -17   -0.89    1.31
   5   0 -16    2.51    1.96
   5   0 -15    0.40    1.43
   5   0 -14   -0.56    1.80
   5   0 -14    0.41    0.63
   5   0 -13   -0.53    1.89
   5   0 -13    0.77    1.21
   5   0 -12    1.05    2.25
   5   0 -12   -0.27    0.88
   5   0 -11    0.15    1.29
   5   0 -11   -0.34    0.66
   5   0 -10    0.00    1.01
   5   0 -10    0.44    1.17
   5   0  -9    0.41    0.58
   5   0  -9    1.91    1.63
   5   0  -8   -0.24    1.15
   5   0  -8    0.27    0.69
   5   0  -8   -0.02    0.87
   5   0  -7    1.17    1.23
   5   0  -7    0.08    1.04
   5   0  -7    0.37    0.67
   5   0  -6   -0.05    0.53
   5   0  -6   -0.68    0.69
   5   0  -6   -0.98    1.04
   5   0  -5   -0.10    0.88
   5   0  -5   -0.22    0.78
   5   0  -5    0.29    0.75
   5   0  -4    0.45    1.05
   5   0  -4    1.37    1.71
   5   0  -4   -0.09    0.81
   5   0  -3    0.14    0.84
   5   0  -3   -0.04    0.66
   5   0  -3   -0.60    1.08
   5   0  -2   -0.24    0.69
   5   0  -2    0.34    1.08
   5   0  -2    0.52    1.27
   5   0  -1   -0.81    1.34
   5   0  -1    1.53    1.44
   5   0  -1    0.25    0.91
   5   0   0   -0.42    1.25
   5   0   0    0.14    0.93
   5   0   1   -0.05    0.86
   5   0   1    0.41    1.09
   5   0   2   -0.03    1.21
   5   0   2    0.59    1.16
   5   0   3   -0.12    0.67
   5   0   3    0.03    0.66
   5   0   4   -0.02    0.61
   5   0   4    0.21    0.54
   5   0   5    1.52    1.52
   5   0   5   -0.49    0.45
   5   0   6   -0.17    1.03
   5   0   6    1.16    1.11
   5   0   7    0.56    0.41
   5   0   7   -0.43    0.62
   5   0   8    0.16    0.90
   5   0   8   -0.24    0.82
   5   0   9    0.66    1.18
   5   0   9    0.24    0.73
   5   0  10    1.22    2.26
   5   0  10    0.15    0.41
   5   0  11   -0.50    1.65
   5   0  11    1.06    0.72
   5   0  12    0.12    0.47
   5   0  12   -0.59    0.86
   5   0  13   -0.03    0.25
   5   0  13    0.50    0.78
   5   0  14   -0.50    1.34
   5   0  15    2.41    2.39
   5   0  16   -1.10    2.21
   5   0  17    2.33    2.31
   5   0  18    0.35    1.64
   5   0  19    0.19    1.29
   5   0  20   -0.69    2.24
   5   0  21   -1.43    1.84
   5   0  22   -1.49    3.23
   5  -1 -30   17.07    6.21
   5  -1 -29   27.80    6.81
   5  -1 -28   26.67    5.97
   5  -1 -27   74.36   10.88
   5   1 -26  120.56   13.80
   5  -1 -26  113.68   12.72
   5   1 -25   89.94   11.40
   5  -1 -25   91.21   11.23
   5   1 -24   12.62    3.36
   5  -1 -24   12.89    4.39
   5   1 -23    4.58    2.85
   5  -1 -23    8.26    3.31
   5   1 -22   35.79    7.20
   5  -1 -22   34.43    7.17
   5  -1 -21   62.84    9.12
   5   1 -21   69.26    9.00
   5   1 -20    4.12    2.99
   5  -1 -20    5.78    3.07
   5   1 -19   54.11    7.69
   5  -1 -19   49.57    8.12
   5   1 -18   54.11    7.34
   5  -1 -18   56.38    7.59
   5  -1 -17   66.89    8.69
   5   1 -17   60.82    7.72
   5   1 -16  689.97   24.70
   5  -1 -16  675.39   26.07
   5  -1 -15  352.03   18.36
   5   1 -15  351.42   17.55
   5  -1 -15  354.86   15.32
   5   1 -14  249.26   14.03
   5  -1 -14  240.24   14.97
   5  -1 -14  253.08   12.68
   5   1 -13   99.83    8.61
   5  -1 -13  109.29    8.37
   5   1 -13  117.40    9.69
   5  -1 -13  100.62    9.61
   5  -1 -12  186.91   12.53
   5   1 -12  172.96   11.03
   5   1 -12  165.71    6.61
   5  -1 -12  165.69   10.25
   5   1 -12  154.11   10.41
   5  -1 -11  230.14   13.52
   5  -1 -11  243.58   11.91
   5   1 -11  245.09    8.14
   5   1 -11  233.92   12.54
   5   1 -10  612.82   19.33
   5   1 -10  664.74   20.71
   5  -1 -10  595.32   18.21
   5  -1 -10  615.24   21.59
   5   1 -10  620.11   13.34
   5   1  -9   31.45    3.04
   5   1  -9   31.13    4.31
   5  -1  -9   27.44    4.40
   5   1  -9   30.57    4.16
   5  -1  -9   31.60    4.19
   5  -1  -8   34.55    4.88
   5   1  -8   28.65    4.12
   5   1  -8   36.99    3.46
   5   1  -8   24.42    4.09
   5  -1  -8   39.72    4.56
   5  -1  -7   18.27    2.98
   5   1  -7   20.12    3.36
   5   1  -7   16.79    2.48
   5   1  -7   16.14    3.17
   5  -1  -7   13.52    3.33
   5  -1  -6 1356.91   26.26
   5   1  -6 1294.88   21.17
   5  -1  -6 1355.77   29.58
   5   1  -6 1330.33   25.37
   5   1  -6 1294.39   27.35
   5   1  -5  401.77   13.76
   5  -1  -5  380.68   14.07
   5  -1  -5  369.10   15.02
   5   1  -5  354.93   13.92
   5   1  -5  403.20   11.99
   5  -1  -4 2122.73   33.14
   5  -1  -4 2122.49   35.81
   5   1  -4 2187.07   28.61
   5   1  -4 2175.40   31.34
   5   1  -4 2232.14   34.39
   5   1  -3  276.59   11.91
   5  -1  -3  267.09   11.78
   5  -1  -3  267.03   12.51
   5   1  -3  281.43   11.14
   5   1  -3  267.21   10.31
   5  -1  -2   31.92    4.07
   5   1  -2   31.48    3.76
   5   1  -2   31.23    3.56
   5  -1  -2   34.57    4.24
   5   1  -2   35.12    4.27
   5   1  -1   56.78    5.16
   5  -1  -1   56.35    5.37
   5  -1  -1   50.53    5.27
   5   1  -1   49.88    4.92
   5   1   0   41.73    4.30
   5  -1   0   39.99    4.60
   5   1   0   44.88    4.73
   5  -1   0   49.68    5.35
   5  -1   1   52.03    5.23
   5   1   1   45.82    4.62
   5   1   2   36.95    4.32
   5   1   2   38.04    4.17
   5   1   3  270.42   11.05
   5   1   3  297.87   12.50
   5  -1   3  278.10   12.17
   5   1   4 2155.69   30.81
   5   1   4 2105.98   33.96
   5  -1   4 2111.84   33.80
   5   1   5  415.49   13.34
   5   1   5  420.52   15.44
   5  -1   5  437.04   15.59
   5   1   6 1267.31   23.20
   5   1   6 1290.23   27.83
   5  -1   7    8.50    2.54
   5   1   7    8.90    1.70
   5   1   8   30.69    3.57
   5   1   8   37.05    5.04
   5  -1   8   31.72    4.49
   5   1   9   27.46    3.47
   5   1   9   33.61    4.72
   5  -1   9   25.39    3.94
   5   1  10  634.28   21.37
   5   1  10  643.05   15.99
   5  -1  10  605.90   20.00
   5   1  11  275.44   10.31
   5   1  11  258.77   13.96
   5  -1  11  263.21   13.61
   5   1  12  183.17    8.45
   5  -1  12  160.58   10.84
   5   1  12  154.23   11.09
   5   1  13  107.80    6.41
   5   1  13  111.69    9.51
   5  -1  13   97.92    8.67
   5   1  14  230.89    9.22
   5   1  14  240.20   14.43
   5  -1  14  261.74   14.26
   5   1  15  321.63   10.76
   5  -1  15  337.98   16.56
   5   1  15  350.54   17.68
   5  -1  16  646.01   23.55
   5   1  16  747.93   26.39
   5   1  17   63.88    8.05
   5  -1  17   61.79    7.70
   5   1  18   57.11    8.11
   5  -1  18   43.99    6.38
   5   1  19   44.55    7.22
   5  -1  19   34.09    6.06
   5  -1  20    5.02    2.33
   5   1  20    2.54    2.02
   5   1  21   61.87    8.73
   5   1  22   42.85    6.69
   5   1  23    6.15    1.86
   5  -2 -29    9.73    4.98
   5  -2 -28    6.99    3.88
   5  -2 -27    3.51    4.02
   5  -2 -26   29.91    6.80
   5  -2 -25   52.22    8.36
   5  -2 -24   14.49    4.39
   5  -2 -23   57.46    9.07
   5  -2 -22   24.58    5.80
   5   2 -21   11.52    5.61
   5  -2 -21    7.29    4.26
   5   2 -20   18.19    4.95
   5  -2 -20   19.40    5.09
   5  -2 -19  209.65   15.83
   5   2 -19  186.90   13.98
   5  -2 -18   45.37    7.29
   5   2 -18   46.45    6.71
   5  -2 -17   57.07    7.68
   5   2 -17   50.59    6.58
   5  -2 -17   49.16    6.62
   5   2 -17   63.71    7.23
   5   2 -16  109.40    9.60
   5  -2 -16   94.50    8.78
   5  -2 -16  104.13   10.63
   5   2 -16  108.95    9.59
   5   2 -15  823.40   25.83
   5   2 -15  880.07   25.91
   5  -2 -15  867.47   29.67
   5  -2 -15  884.87   27.62
   5  -2 -14  145.40   11.00
   5   2 -14  145.62   10.37
   5   2 -14  130.71   10.07
   5  -2 -14  158.35   12.43
   5  -2 -13  426.38   20.04
   5  -2 -13  440.99   18.65
   5   2 -13  432.20   17.09
   5   2 -13  436.36   18.28
   5   2 -12   13.52    3.38
   5   2 -12   20.61    3.64
   5  -2 -12   11.49    3.20
   5  -2 -12   17.45    4.17
   5   2 -11   94.50    7.36
   5  -2 -11  109.72    9.10
   5  -2 -11   89.81    9.06
  -5   2 -11   93.59    4.81
   5   2 -11   99.96    8.42
   5  -2 -10    1.60    0.99
   5   2 -10    3.30    1.10
   5   2 -10    2.48    1.28
   5   2 -10    3.13    1.60
   5  -2 -10    0.25    1.01
   5   2  -9   12.31    3.15
   5  -2  -9   12.21    3.02
   5   2  -9   13.81    1.90
   5   2  -9   13.12    2.66
   5  -2  -9   11.31    3.02
   5  -2  -8  102.35    8.78
   5   2  -8  111.12    6.97
   5   2  -8   95.14    7.97
   5  -2  -8  107.16    8.37
   5   2  -8  108.92    5.60
   5   2  -7  676.35   16.87
   5   2  -7  678.91   14.88
   5  -2  -7  660.17   20.76
   5   2  -7  707.92   21.12
   5   2  -6  350.70   15.05
   5  -2  -6  384.56   16.72
   5   2  -6  393.83   12.54
   5   2  -6  407.89   11.96
   5  -2  -6  380.48   15.70
   5   2  -5  106.03    8.07
   5  -2  -5  112.40    8.34
   5   2  -5  127.79    6.92
   5  -2  -5  116.67    9.04
   5   2  -5  108.43    6.53
   5  -2  -4   50.59    5.60
   5   2  -4   68.79    5.04
   5   2  -4   70.92    5.33
   5  -2  -4   70.69    6.98
   5   2  -4   65.48    6.36
   5  -2  -3  351.94   15.13
   5  -2  -3  327.65   14.08
   5   2  -3  323.32   11.73
   5   2  -3  336.81   14.05
   5   2  -3  338.84   11.28
   5  -2  -2  162.42    9.93
   5   2  -2  161.54    8.52
   5   2  -2  173.25    9.94
   5  -2  -2  153.63    9.87
   5   2  -1   68.64    6.08
   5   2  -1   68.68    5.71
   5  -2  -1   74.37    6.63
   5  -2  -1   61.78    6.15
   5  -2   0  459.05   16.54
   5   2   0  461.11   15.23
   5  -2   0  426.55   16.22
   5   2   1   66.25    5.84
   5  -2   1   63.63    6.14
   5  -2   1   64.40    6.39
   5   2   1   58.07    5.54
   5  -2   2  173.40   10.16
   5  -2   2  156.87    9.65
   5   2   2  177.17    9.78
   5   2   3  370.80   13.97
   5   2   3  352.48   14.28
   5   2   4   60.11    5.50
   5  -2   4   61.11    6.11
   5   2   4   66.65    6.18
   5   2   5  111.41    7.67
   5  -2   5  115.73    8.46
   5   2   5  109.80    8.41
   5   2   6  396.56   14.51
   5  -2   6  382.84   15.48
   5   2   6  402.71   16.29
   5   2   7  673.35   18.90
   5  -2   7  648.60   20.49
   5   2   7  684.45   21.75
   5   2   8  122.30    8.14
   5  -2   8   93.97    8.09
   5   2   8  109.45    8.93
   5   2   9   15.64    2.98
   5  -2   9   13.58    3.16
   5   2   9   12.08    3.33
   5  -2  10   -0.05    1.09
   5   2  10    2.26    1.83
   5   2  10    2.84    1.67
   5  -2  11  100.33    8.44
   5   2  11   98.12    7.31
   5   2  11   93.06    8.76
   5   2  12   18.23    3.24
   5   2  12    9.83    3.24
   5  -2  12    9.54    2.48
   5  -2  13  408.76   17.70
   5   2  13  431.37   19.41
   5   2  13  455.55   15.97
   5   2  14  148.23    9.06
   5   2  14  132.92   11.11
   5  -2  14  159.37   11.07
   5   2  15  868.88   22.39
   5  -2  15  893.96   27.63
   5   2  16   89.89    7.14
   5  -2  16  103.12    9.42
   5   2  16  103.11   10.03
   5   2  17   51.47    7.39
   5  -2  17   50.59    6.53
   5   2  18   56.88    7.95
   5  -2  18   38.92    5.75
   5  -2  19  165.47   13.09
   5   2  19  214.47   15.55
   5   2  20   22.20    5.17
   5   2  21    8.98    3.40
   5   2  22   18.81    5.43
   5   2  23   68.61    9.61
   5   2  24   19.96    5.54
   5  -3 -29    8.66    4.11
   5  -3 -28   37.52    8.09
   5  -3 -27   98.58   12.47
   5  -3 -26   26.99    6.98
   5  -3 -25  149.96   14.79
   5  -3 -24   18.01    4.80
   5  -3 -23    7.27    3.44
   5  -3 -22  175.92   15.46
   5  -3 -21  151.35   13.93
   5  -3 -20  103.08   11.38
   5  -3 -19  161.93   14.00
   5  -3 -19  165.26   13.97
   5  -3 -18   35.44    6.48
   5  -3 -18   31.27    6.38
   5  -3 -17   16.63    4.56
   5  -3 -17   23.21    5.40
   5   3 -17   29.31    5.51
   5  -3 -16  169.68   13.63
   5  -3 -16  189.27   15.14
   5   3 -16  189.48   13.29
   5  -3 -15  651.14   26.46
   5   3 -15  633.97   23.85
   5  -3 -15  611.24   24.89
   5   3 -14  124.86    8.95
   5  -3 -14  116.74   11.43
   5  -3 -14  111.40   10.50
   5   3 -14  103.06    9.34
   5   3 -13   25.75    4.64
   5  -3 -13   28.40    5.37
   5  -3 -13   13.03    3.81
   5   3 -13   18.31    3.41
   5   3 -12   79.11    7.90
   5   3 -12   60.42    5.70
   5  -3 -12   68.45    8.46
   5  -3 -12   69.05    8.03
  -5   3 -11  129.31    7.40
   5  -3 -11  127.22   10.87
   5   3 -11  150.35    8.36
   5  -3 -11  143.75   11.32
   5   3 -11  141.72   10.45
   5  -3 -10  256.05   14.72
   5   3 -10  242.20    7.61
   5  -3 -10  248.38   14.98
  -5   3 -10  280.11   11.01
   5   3 -10  270.07   10.58
   5   3 -10  277.54   14.65
   5   3  -9   63.60    4.36
   5  -3  -9   65.03    7.25
   5  -3  -9   76.72    8.09
   5   3  -9   66.13    7.05
   5  -3  -8   22.51    4.07
   5   3  -8   23.01    2.86
   5   3  -8   19.49    2.50
   5  -3  -8   18.27    4.20
   5   3  -8   20.62    4.26
   5   3  -7  144.53   10.07
   5   3  -7  147.85    6.71
   5   3  -7  149.55    7.58
   5  -3  -7  136.45   10.34
   5  -3  -7  148.23   10.72
   5   3  -6  673.16   21.63
   5   3  -6  669.79   14.01
   5   3  -6  685.99   16.99
   5  -3  -6  697.59   23.58
   5  -3  -6  643.17   22.10
   5   3  -5  535.00   12.28
   5   3  -5  563.36   16.02
   5  -3  -5  565.03   20.97
   5  -3  -5  554.45   20.12
   5   3  -5  591.80   20.26
   5   3  -4  268.24   13.76
   5  -3  -4  288.67   14.80
   5   3  -4  304.47    9.43
   5  -3  -4  270.08   13.94
   5   3  -4  284.56   11.78
   5  -3  -3  177.01   11.34
   5   3  -3  158.09   10.23
   5  -3  -3  180.50   11.50
   5   3  -3  187.10    7.73
   5   3  -3  178.89    9.53
   5  -3  -2  456.82   17.87
   5   3  -2  474.66   17.78
   5   3  -2  438.84   15.39
   5  -3  -2  459.90   18.06
   5  -3  -1 1609.34   33.45
   5  -3  -1 1571.74   33.16
   5   3  -1 1556.54   32.15
   5   3  -1 1500.33   29.41
   5  -3   0 1161.42   29.06
   5  -3   0 1115.93   27.70
   5   3   0 1162.61   26.45
   5  -3   1 1620.63   33.68
   5   3   1 1503.60   31.58
   5  -3   1 1530.67   32.37
   5   3   1 1527.86   31.08
   5   3   2  494.58   18.16
   5  -3   2  441.28   17.59
   5  -3   2  441.60   17.19
   5   3   3  190.25   11.34
   5  -3   3  219.99   12.35
   5   3   3  188.83   11.34
   5  -3   3  191.76   11.58
   5   3   4  253.26   13.37
   5   3   4  283.95   13.87
   5  -3   4  301.79   14.55
   5  -3   4  291.72   14.21
   5   3   5  575.86   19.41
   5   3   5  542.88   19.88
   5  -3   5  590.67   20.51
   5   3   6  690.29   22.97
   5  -3   6  713.65   22.35
   5   3   7  126.40   10.01
   5   3   7  147.04    9.77
   5  -3   7  159.38   10.65
   5   3   8   21.61    4.48
   5   3   8   27.38    4.41
   5  -3   8   26.93    4.67
   5   3   9   59.55    6.39
   5  -3   9   53.06    6.27
   5   3   9   61.07    7.32
   5   3  10  273.60   13.52
   5  -3  10  278.24   14.37
   5   3  10  299.92   16.22
   5   3  11  146.48   10.05
   5  -3  11  137.20   10.23
   5   3  11  150.71   11.69
   5   3  12   65.55    6.66
   5  -3  12   83.49    8.07
   5   3  12   68.27    8.27
   5   3  13   21.66    4.18
   5  -3  13   14.69    3.42
   5   3  14  116.12    9.17
   5  -3  14  106.40    9.41
   5   3  14  123.77   11.05
   5   3  15  630.39   21.68
   5  -3  15  699.66   24.62
   5   3  15  652.27   25.88
   5   3  16  156.07   11.12
   5   3  16  176.67   13.84
   5   3  17   19.82    4.00
   5  -3  17   27.54    5.36
   5   3  17   36.64    6.70
   5  -3  18   25.89    5.34
   5   3  18   35.71    6.41
   5   3  19  163.88   14.01
   5   3  20   95.02   10.83
   5   3  21  158.12   14.44
   5   3  22  168.82   15.40
   5   3  23   11.33    2.19
   5   3  24    5.26    3.47
   5   3  25  155.24   15.49
   5  -4 -28   10.67    4.28
   5  -4 -27   -5.47    3.93
   5  -4 -26    2.29    1.79
   5  -4 -25   17.96    5.01
   5  -4 -24   57.86    9.21
   5  -4 -23   26.05    6.27
   5  -4 -22    2.30    2.26
   5  -4 -21   20.74    5.87
   5  -4 -20   84.95   10.29
   5  -4 -20   96.32   11.22
   5  -4 -19    7.82    3.54
  -5  -4 -19    8.73    4.37
   5  -4 -19    8.53    3.57
  -5  -4 -18   15.97    3.81
   5  -4 -18   20.71    5.44
   5  -4 -18   16.50    5.15
   5  -4 -17  306.13   19.38
  -5  -4 -17  343.37   19.96
   5  -4 -17  335.88   19.91
  -5  -4 -16  132.37   12.45
   5  -4 -16  112.25   11.45
   5  -4 -16  119.02   11.54
   5   4 -16  139.10   11.66
  -5  -4 -15   55.75    7.69
   5  -4 -15   65.50    8.99
   5   4 -15   55.27    7.45
   5  -4 -15   58.82    8.38
   5   4 -14   30.18    5.31
  -5  -4 -14   19.34    4.50
   5  -4 -14   17.83    4.45
   5  -4 -14   23.87    4.87
   5   4 -13  119.88   10.94
  -5  -4 -13  150.80   12.17
   5  -4 -13  141.61   12.54
   5  -4 -13  114.56   11.17
   5   4 -12  205.78   13.61
  -5  -4 -12  181.21   13.33
   5  -4 -12  203.91   14.56
   5  -4 -12  199.94   14.38
   5   4 -11   49.79    6.70
  -5  -4 -11   48.40    6.87
   5  -4 -11   50.27    7.18
  -5   4 -11   47.53    5.34
   5  -4 -11   52.17    7.13
  -5   4 -10   19.55    3.99
   5   4 -10   17.11    3.89
   5  -4 -10   20.67    5.17
   5  -4 -10   21.25    4.61
   5   4  -9  154.13   11.35
   5   4  -9  146.12    7.85
  -5   4  -9  155.42    9.77
   5  -4  -9  135.39   11.57
   5   4  -8   33.32    5.22
  -5   4  -8   31.38    4.68
   5   4  -8   27.24    3.67
   5  -4  -8   29.81    5.48
   5  -4  -8   34.39    5.65
   5   4  -7   80.66    8.29
  -5   4  -7   78.22    7.23
   5   4  -7   81.38    6.44
   5  -4  -7   85.60    8.97
   5  -4  -7   94.67    9.13
   5   4  -6  271.57   14.64
   5  -4  -6  230.18   14.16
   5   4  -6  231.51   11.28
   5  -4  -6  227.25   14.14
   5   4  -5   68.74    7.51
   5  -4  -5   73.81    8.00
   5   4  -5   64.72    3.03
   5   4  -5   79.82    6.75
   5   4  -4  139.81    9.32
   5   4  -4  129.87   10.17
   5  -4  -4  138.26   11.00
   5  -4  -4  123.25   10.27
   5   4  -4  123.05    4.99
   5  -4  -3    7.20    2.91
   5   4  -3    8.07    2.23
   5   4  -3    9.43    2.89
   5   4  -3    7.13    1.21
   5  -4  -3    6.13    2.44
   5   4  -2   42.62    5.65
   5  -4  -2   31.51    5.28
   5  -4  -2   36.98    5.39
   5   4  -2   37.31    5.20
   5  -4  -1    2.39    2.73
   5   4  -1    1.41    1.26
   5   4  -1    4.32    2.28
   5  -4  -1    2.92    2.21
   5   4   0  120.00    9.32
   5   4   0  103.15    8.91
   5  -4   0  117.07    9.49
   5  -4   0  129.61   10.19
   5   4   1    2.95    2.25
   5  -4   1    3.47    1.55
   5  -4   1    4.70    2.07
   5  -4   2   31.72    5.05
   5   4   2   33.16    5.18
   5   4   2   44.96    5.69
   5  -4   2   36.72    5.38
   5   4   3    7.59    2.55
   5  -4   3    6.03    2.16
   5  -4   3    6.47    2.78
   5   4   3    9.36    3.20
   5  -4   4  119.23    9.81
   5   4   4  130.30   10.23
   5   4   4  124.08    9.74
   5  -4   4  128.46    9.80
   5  -4   5   76.85    7.88
   5   4   5   95.27    8.61
   5   4   5   70.17    7.71
   5  -4   5   74.69    7.76
   5   4   6  266.10   14.50
   5   4   6  226.81   14.03
   5  -4   6  219.17   13.38
   5  -4   6  252.98   14.35
   5  -4   7   79.95    8.21
   5   4   7   71.78    7.43
   5   4   7   76.58    8.19
   5  -4   8   25.15    4.75
   5   4   8   27.01    4.58
   5   4   8   21.67    4.37
   5   4   9  156.86   11.34
   5   4   9  136.42   11.20
   5  -4   9  146.41   11.15
   5   4  10   18.61    3.77
   5  -4  10   25.01    4.50
   5   4  10   10.45    3.04
   5   4  11   50.01    7.53
   5  -4  11   51.59    6.45
   5   4  11   47.17    6.29
   5  -4  12  195.82   12.99
   5   4  12  218.29   13.85
   5   4  12  187.10   14.04
   5  -4  13  147.03   11.31
   5   4  13  136.59   11.01
   5   4  13  122.92   11.31
   5   4  14   22.60    5.40
   5   4  14   24.04    5.24
   5  -4  14   18.02    4.17
   5  -4  15   60.97    7.66
   5   4  15   62.12    7.39
   5   4  15   59.63    8.49
   5  -4  16  121.19   10.64
   5   4  16  134.69   11.11
   5   4  16  108.55   11.12
   5  -4  17  295.95   17.35
   5   4  17  317.54   19.65
   5   4  17  323.82   17.70
   5   4  18   17.27    4.53
   5   4  19   16.69    4.40
   5   4  20  103.32   11.34
   5   4  21   26.36    5.58
   5   4  22    6.30    4.04
   5   4  23   25.65    6.41
   5   4  24   73.24   10.75
   5   4  25   10.81    4.86
   5   4  26   -0.04    2.36
   5  -5 -27    4.95    3.28
   5  -5 -26   17.15    5.07
   5  -5 -25   23.79    6.44
   5  -5 -24   91.04   11.63
   5  -5 -23   14.58    4.96
   5  -5 -22    6.22    1.89
  -5  -5 -21   71.04    9.70
   5  -5 -21   65.30   10.16
  -5  -5 -20  136.40   13.70
   5  -5 -20  146.37   14.61
   5  -5 -20  123.70   12.57
  -5  -5 -19   13.15    4.54
   5  -5 -19   12.53    5.73
   5  -5 -19   16.12    4.49
  -5  -5 -18    3.19    3.02
   5  -5 -18   17.03    4.47
   5  -5 -18   14.19    4.52
   5  -5 -17   78.09   10.63
   5  -5 -17   73.71   10.20
  -5  -5 -17   77.48   10.27
   5   5 -16    0.66    1.81
  -5  -5 -16    2.85    2.82
   5  -5 -16   -0.28    3.09
   5  -5 -16    4.25    2.25
   5   5 -15  173.05   13.71
   5  -5 -15  174.82   15.21
  -5  -5 -15  166.95   13.99
   5  -5 -15  180.90   14.85
   5  -5 -14   70.86    8.83
  -5  -5 -14   72.20    8.51
   5  -5 -14   85.69   10.31
   5   5 -14   76.26    9.04
   5   5 -13    2.19    2.34
  -5  -5 -13    2.38    2.68
   5  -5 -13    2.08    1.77
   5  -5 -13    2.61    3.03
   5   5 -12   18.81    4.80
  -5  -5 -12   24.43    4.93
   5  -5 -12   24.35    5.75
   5  -5 -12   20.26    5.15
   5  -5 -11  160.52   13.28
   5   5 -11  195.07   13.91
  -5   5 -11  179.47   11.93
   5  -5 -11  216.85   15.95
  -5  -5 -11  201.21   13.95
  -5  -5 -10   67.57    8.12
  -5   5 -10   62.00    7.07
   5  -5 -10   78.13    9.21
   5  -5 -10   49.44    7.45
   5   5 -10   76.31    8.72
   5   5  -9  124.70   10.71
   5  -5  -9  109.29   10.79
  -5  -5  -9  136.87   10.83
   5  -5  -9  114.93   11.24
  -5   5  -9  123.24   10.06
   5  -5  -8   27.04    5.60
   5   5  -8   29.92    5.47
  -5   5  -8   35.35    5.48
   5  -5  -8   16.55    5.00
   5   5  -8   25.56    4.03
   5   5  -7   26.61    4.26
   5   5  -7   20.39    3.88
  -5   5  -7   25.27    4.67
   5  -5  -7   39.85    6.70
   5  -5  -7   27.61    5.17
   5   5  -6  381.85   16.25
   5   5  -6  370.48   18.59
  -5   5  -6  409.30   18.57
   5  -5  -6  389.58   19.98
   5  -5  -6  409.21   19.61
   5   5  -5  201.61   13.46
   5   5  -5  210.41   12.44
  -5   5  -5  187.76   12.46
   5  -5  -5  227.24   14.40
   5  -5  -5  201.04   14.01
   5  -5  -4   10.16    3.24
   5   5  -4   13.55    3.76
   5   5  -4   13.61    3.42
   5  -5  -4    7.37    2.47
  -5   5  -4   18.86    3.74
   5   5  -3   42.51    6.50
   5   5  -3   30.69    4.94
   5  -5  -3   38.29    6.19
   5  -5  -3   34.82    5.73
   5   5  -2   33.21    5.63
   5   5  -2   41.17    5.76
   5  -5  -2   33.66    5.85
   5  -5  -2   41.42    6.23
   5   5  -1   67.89    8.01
   5   5  -1   56.81    6.67
   5  -5  -1   62.37    7.66
   5  -5  -1   70.34    7.82
   5  -5   0  236.35   14.80
   5   5   0  225.54   14.17
   5   5   0  225.50   13.72
   5  -5   0  208.89   13.43
   5   5   1   73.37    7.72
   5   5   1   78.33    8.51
   5  -5   1   57.25    7.32
   5  -5   1   63.81    7.55
   5   5   2   39.21    5.99
   5  -5   2   38.70    5.72
   5   5   2   27.15    5.04
   5  -5   2   34.79    5.75
   5  -5   3   48.60    6.76
   5  -5   3   53.63    6.64
   5   5   3   31.54    4.80
   5   5   3   40.66    6.28
   5  -5   4   12.91    3.05
   5   5   4    9.89    2.32
   5   5   4   19.24    3.94
   5  -5   4   17.37    4.32
   5   5   5  158.44   12.05
   5   5   5  197.61   13.77
   5  -5   5  189.43   12.53
   5  -5   5  205.78   13.88
   5  -5   6  402.55   19.44
   5   5   6  389.31   18.85
   5   5   6  413.70   19.79
   5  -5   6  375.77   17.93
   5  -5   7   33.01    5.61
   5   5   7   30.28    5.29
   5   5   7   34.32    5.79
   5  -5   7   35.42    5.31
   5  -5   8   30.93    5.73
   5   5   8   23.97    5.18
   5   5   8   28.09    5.43
   5  -5   8   25.70    5.01
   5  -5   9  127.56   10.80
   5   5   9  108.27   10.42
   5   5   9  129.73   11.63
   5  -5   9  128.64   10.85
   5   5  10   54.95    7.25
   5   5  10   68.72    8.98
   5  -5  10   72.76    8.33
   5   5  11  193.95   13.78
   5   5  11  197.46   14.94
   5  -5  11  209.98   14.26
   5   5  12   27.67    5.39
   5  -5  12   21.61    5.00
   5   5  12   34.25    5.92
   5  -5  13    3.12    2.64
   5   5  13    3.11    2.58
   5   5  13    3.61    2.20
   5  -5  14   93.17    9.73
   5   5  14   83.44    9.17
   5   5  14   64.42    9.05
   5  -5  15  170.97   13.43
   5   5  15  179.37   13.98
   5   5  15  175.44   14.69
   5   5  16    0.07    3.17
   5   5  16    1.31    2.19
   5   5  17   68.22    9.34
   5   5  17   64.32    8.28
   5   5  18   13.31    4.87
   5   5  18   17.73    5.40
   5   5  19    8.15    3.25
   5   5  20  178.14   15.90
   5   5  21   70.93   10.10
  -5   5  21   62.43    9.70
  -5   5  22   17.82    5.27
   5   5  22   14.69    5.42
  -5   5  23    3.05    3.05
   5   5  23   12.89    3.62
   5   5  24   99.57   12.20
   5   5  25   10.12    3.72
   5   5  26   16.39    7.40
   5   5  27   14.47    6.16
   5  -6 -25    4.86    3.84
   5  -6 -24   15.59    6.23
   5  -6 -23   -2.85    3.23
   5  -6 -22   16.41    5.24
  -5  -6 -21   -0.08    2.35
   5  -6 -21   -1.03    2.46
   5  -6 -20   -0.01    2.18
   5  -6 -20    2.51    2.44
  -5  -6 -20    4.41    3.36
   5  -6 -19    1.67    2.80
  -5  -6 -19   -1.90    1.94
   5  -6 -19    0.56    2.47
  -5  -6 -18    7.99    3.12
   5  -6 -18   16.62    4.84
   5  -6 -18    9.70    3.08
   5  -6 -17   19.24    6.02
  -5  -6 -17   26.69    6.59
   5  -6 -17   26.74    6.61
   5  -6 -16   45.51    8.09
  -5  -6 -16   54.84    8.56
   5  -6 -16   43.95    7.20
   5  -6 -15   45.93    8.28
   5   6 -15   46.87    7.72
   5  -6 -15   67.15    9.97
  -5  -6 -15   58.08    8.43
   5   6 -14   12.79    3.81
  -5  -6 -14   13.97    3.66
   5  -6 -14   11.36    4.11
   5  -6 -14    2.61    2.29
   5   6 -13   19.24    4.66
  -5  -6 -13   30.04    6.11
   5  -6 -13   18.90    5.69
   5  -6 -13   20.31    5.05
   5   6 -12   96.35   10.48
  -5  -6 -12   88.55    9.73
   5  -6 -12  109.05   11.89
   5  -6 -12   89.09   10.96
  -5  -6 -11    7.09    3.11
   5   6 -11   16.69    4.13
   5  -6 -11   12.25    5.01
   5  -6 -11   16.13    4.58
   5  -6 -10   11.08    3.71
   5   6 -10   10.27    3.22
  -5  -6 -10    7.71    3.40
  -5   6 -10    8.57    2.73
   5  -6 -10   11.42    4.41
   5   6  -9   56.13    8.10
  -5  -6  -9   43.69    6.63
   5  -6  -9   34.84    6.13
   5  -6  -9   52.81    8.37
  -5   6  -9   35.13    6.52
   5   6  -8   42.27    6.64
  -5   6  -8   42.85    6.81
   5  -6  -8   56.91    8.03
   5  -6  -8   50.15    7.97
   5  -6  -7  121.47   12.06
   5   6  -7  143.90   10.87
  -5   6  -7  117.98   10.83
   5   6  -7  122.03   11.37
   5  -6  -7  120.86   11.12
  -5   6  -6    7.61    3.10
   5   6  -6    5.39    2.33
   5  -6  -6    5.02    1.64
   5  -6  -6    8.13    3.73
   5   6  -6    4.00    2.33
   5  -6  -5   18.68    4.21
   5   6  -5   13.27    4.65
  -5   6  -5   18.52    4.00
   5  -6  -5   17.26    4.88
   5   6  -5   12.32    2.83
   5   6  -4  153.03   12.72
   5   6  -4  159.84   11.93
  -5   6  -4  156.69   12.52
   5  -6  -4  172.16   14.00
   5  -6  -4  137.39   11.66
   5   6  -3   36.42    6.20
   5  -6  -3   36.53    6.33
  -5   6  -3   29.58    5.65
   5   6  -3   37.01    5.79
   5  -6  -3   25.02    5.64
   5   6  -2   85.74    9.13
   5  -6  -2   70.15    8.60
   5  -6  -2   66.94    7.85
   5   6  -2   71.42    7.96
   5   6  -1   86.39    9.10
   5   6  -1   88.32    9.56
  -5   6  -1  105.18   10.67
   5  -6  -1   94.02    9.51
   5  -6  -1   91.35    9.70
   5   6   0   89.24    9.71
   5   6   0   96.81    9.90
  -5   6   0   84.68    9.29
   5  -6   0   88.88    9.54
   5  -6   0   90.12    9.57
   5   6   1  102.07    9.63
  -5   6   1   87.09    9.84
   5   6   1   96.25   10.06
   5  -6   1   95.44    9.58
   5  -6   1   87.53    9.52
   5   6   2   81.36    8.90
   5   6   2   76.68    8.77
  -5   6   2   54.81    7.97
   5  -6   2   72.48    8.22
   5  -6   2   73.01    8.52
   5   6   3   32.45    5.65
   5   6   3   29.38    5.52
  -5   6   3   30.15    5.80
   5  -6   3   24.65    4.85
   5  -6   3   39.01    6.54
   5   6   4  191.72   13.98
   5   6   4  162.49   12.91
   5  -6   4  166.19   12.57
   5  -6   4  164.87   13.02
   5  -6   5   14.78    2.89
   5   6   5   17.98    4.46
   5   6   5   17.01    4.04
   5  -6   5   16.07    4.20
   5   6   6    7.02    2.85
   5  -6   6    5.80    2.04
   5   6   6    8.19    3.37
   5  -6   6    1.68    1.04
   5  -6   7  111.75   10.68
   5   6   7  117.33   11.11
   5   6   7  144.37   12.36
   5  -6   7  131.19   11.90
   5  -6   8   41.43    5.99
   5  -6   8   35.84    6.24
   5   6   8   30.99    5.96
   5   6   8   40.42    6.97
   5  -6   9   35.07    6.14
   5   6   9   37.26    6.21
   5  -6   9   28.93    5.72
   5   6   9   25.60    5.55
   5  -6  10    9.87    3.11
   5   6  10   12.67    4.92
   5   6  10   10.69    3.68
   5  -6  10    9.18    3.27
   5  -6  11    8.66    3.63
   5   6  11   17.41    5.20
   5   6  11   12.56    4.51
   5  -6  11   10.36    2.97
   5   6  12  115.84   11.43
   5  -6  12  101.82   10.44
   5   6  12  100.76   11.19
   5  -6  13   17.70    5.34
   5   6  13   26.04    5.97
   5  -6  13    7.89    2.95
   5   6  13   22.57    5.66
   5  -6  14   15.21    5.21
  -5   6  14    8.28    3.77
   5   6  14    8.22    3.76
   5   6  14    6.69    3.24
   5   6  15   41.72    6.94
  -5   6  15   35.30    6.45
   5   6  16   46.00    8.06
   5   6  16   46.04    7.77
  -5   6  16   23.05    6.04
   5   6  17   14.78    4.00
   5   6  17   14.13    4.59
  -5   6  17   27.12    6.94
   5   6  18   10.54    4.07
   5   6  18   10.21    4.21
  -5   6  18   10.22    4.94
   5   6  19    1.71    3.24
  -5   6  19    0.68    1.77
  -5   6  20    7.39    4.81
   5   6  20    7.52    4.30
   5   6  21    2.95    1.79
  -5   6  21    1.22    3.72
   5   6  22   13.83    4.87
  -5   6  22   12.87    4.50
  -5   6  23   -2.50    3.22
   5   6  23   -1.33    2.62
   5   6  24   11.27    2.16
   5   6  25    4.73    2.25
   5  -7 -23   -0.08    2.88
   5  -7 -22   29.59    7.05
   5  -7 -21   73.90   10.85
   5  -7 -20   22.63    5.99
  -5  -7 -20   24.78    6.57
   5  -7 -19   35.57    7.49
  -5  -7 -19   51.78    8.93
   5  -7 -19   42.26    8.70
  -5  -7 -18   64.53    9.58
   5  -7 -18   58.97    9.04
   5  -7 -18   47.29    9.26
  -5  -7 -17   73.75   10.43
   5  -7 -17   57.80    9.27
   5  -7 -17   75.45   10.53
   5  -7 -16   79.54   10.64
   5  -7 -16   75.01   10.69
  -5  -7 -16   78.85   10.56
   5   7 -15   11.61    5.11
  -5  -7 -15    9.61    5.48
   5  -7 -15    7.61    3.38
   5  -7 -15    1.71    3.34
  -5  -7 -14   38.37    6.83
   5  -7 -14   26.92    6.70
   5  -7 -14   28.71    6.60
   5   7 -14   21.08    6.11
   5   7 -13   36.54    7.56
   5  -7 -13   27.17    6.26
   5  -7 -13   37.15    7.48
   5  -7 -12   42.48    7.54
   5   7 -12   40.14    7.35
   5  -7 -12   40.26    7.57
  -5  -7 -12   38.43    6.56
   5   7 -11  116.44   12.02
  -5  -7 -11  114.71   11.36
   5  -7 -11  150.83   13.94
   5  -7 -11  121.91   13.20
   5   7 -10  199.09   15.64
  -5   7 -10  168.60   14.23
  -5  -7 -10  185.30   14.18
   5  -7 -10  175.72   14.71
   5  -7 -10  187.51   16.04
   5   7  -9   99.27   11.10
  -5   7  -9  114.35   11.50
  -5  -7  -9  115.95   11.19
   5  -7  -9  118.97   11.97
   5  -7  -9  114.46   12.23
   5  -7  -8  119.31   11.87
   5   7  -8  114.35   11.72
  -5   7  -8  105.88   11.06
   5  -7  -8   87.70   10.72
   5   7  -7  130.13   12.41
  -5   7  -7  134.91   12.23
   5  -7  -7  137.38   13.55
   5  -7  -7  146.49   13.26
   5   7  -6   69.93    9.01
   5  -7  -6   88.14   10.05
   5   7  -6   66.04    8.22
  -5   7  -6   55.62    7.83
   5  -7  -6   66.38    9.06
   5   7  -5  131.73   12.58
  -5   7  -5  146.82   12.85
   5  -7  -5  136.08   12.20
   5   7  -5  129.40   11.47
   5  -7  -5  148.20   13.51
   5   7  -4   49.07    7.48
   5  -7  -4   44.63    7.60
  -5   7  -4   43.36    7.40
   5   7  -4   47.33    6.97
   5  -7  -4   45.49    6.82
   5   7  -3    7.90    4.01
   5  -7  -3   10.19    4.43
   5   7  -3    0.49    1.52
  -5   7  -3    5.30    3.30
   5  -7  -3    4.50    2.70
   5   7  -2   36.39    6.20
   5   7  -2   29.14    6.11
   5  -7  -2   43.50    6.93
   5  -7  -2   55.55    8.49
  -5   7  -2   38.43    6.44
   5  -7  -1   85.77   10.20
   5  -7  -1   95.78    9.46
   5   7  -1  102.87   10.92
  -5   7  -1   98.24   10.85
   5   7  -1  109.59   10.83
   5   7   0   13.93    4.60
   5  -7   0   24.62    5.27
   5   7   0   21.23    5.47
  -5   7   0   10.99    4.08
   5  -7   0   20.85    5.36
   5   7   1  109.21   11.15
   5  -7   1  110.11   10.70
   5  -7   1  119.55   11.92
  -5   7   1  136.07   12.30
   5   7   1  110.91   10.96
   5  -7   2   32.27    6.20
   5  -7   2   34.50    6.60
   5   7   2   34.14    6.77
  -5   7   2   38.38    6.93
   5   7   2   38.65    6.29
   5  -7   3    4.96    3.02
   5   7   3    0.31    1.74
   5   7   3    2.15    2.01
  -5   7   3    7.40    3.23
   5  -7   3    8.26    2.97
   5   7   4   45.68    6.94
  -5   7   4   47.25    7.71
   5   7   4   38.39    6.41
   5  -7   4   39.54    7.00
   5  -7   4   41.88    6.52
   5   7   5  116.66   11.63
   5   7   5  160.67   13.82
   5  -7   5  114.48   10.85
   5  -7   5  148.11   12.83
   5   7   6   61.12    8.40
   5   7   6   42.42    7.00
   5  -7   6   55.42    7.84
  -5   7   6   66.26    9.09
   5  -7   6   58.75    7.99
   5   7   7  133.26   12.86
   5  -7   7  123.43   11.43
   5   7   7  148.01   13.25
   5  -7   7  150.15   13.60
  -5   7   7  130.48   12.79
   5   7   8  119.04   12.24
   5  -7   8  127.47   12.69
   5   7   8  127.71   12.32
  -5   7   8  102.58   11.48
   5   7   9  122.26   12.37
   5   7   9  119.17   12.22
  -5   7   9   96.09   11.53
   5  -7   9  107.77   11.35
   5   7  10  201.23   16.32
   5   7  10  171.73   14.99
  -5   7  10  179.48   15.02
   5  -7  10  198.52   15.57
   5   7  11  112.10   11.97
   5   7  11  120.79   12.82
  -5   7  11  120.46   12.41
   5  -7  11  127.98   11.93
   5  -7  12   29.58    5.56
  -5   7  12   36.33    6.80
   5   7  12   25.77    6.41
   5  -7  13   24.46    5.23
   5   7  13   36.65    6.97
   5   7  13   46.40    8.03
  -5   7  13   38.01    7.41
   5   7  14   37.01    7.74
   5   7  14   24.22    5.94
  -5   7  14   29.57    6.40
   5   7  15    6.19    4.22
   5   7  15    8.52    2.61
  -5   7  15    2.06    2.61
   5   7  16   85.79   10.90
   5   7  16   77.36   10.25
  -5   7  16   77.86   10.44
   5   7  17   69.93   10.24
   5   7  17   76.23   10.37
  -5   7  17   48.88    8.91
   5   7  18   47.69    8.97
   5   7  18   57.04    9.41
  -5   7  18   70.29   10.16
   5   7  19   47.08    9.25
   5   7  19   32.05    7.35
  -5   7  19   61.19   10.25
   5   7  20   23.59    6.51
  -5   7  20   47.03    8.15
  -5   7  21   57.61    9.64
   5   7  21   59.05    9.55
   5   7  22   22.68    6.83
  -5   7  22   18.11    5.57
  -5   7  23   -3.71    3.39
  -5   7  23   -4.33    3.21
   5  -8 -21   -0.47    2.85
   5  -8 -20    2.54    4.52
   5  -8 -19   -0.77    2.31
   5  -8 -19   -0.42    1.73
  -5  -8 -18    5.95    3.42
   5  -8 -18    0.01    3.03
   5  -8 -18    2.39    2.59
  -5  -8 -17   11.75    5.26
   5  -8 -17   13.22    5.10
   5  -8 -17   14.18    5.39
   5  -8 -16    9.98    4.85
  -5  -8 -16   12.14    4.09
   5  -8 -16    9.02    5.04
   5  -8 -15   25.89    6.20
   5  -8 -15   39.40    7.97
  -5  -8 -15   48.96    8.77
   5  -8 -14   10.18    4.56
   5   8 -14    4.93    3.88
  -5  -8 -14    3.27    3.46
   5  -8 -14   15.50    5.20
   5  -8 -13   -0.12    2.92
   5   8 -13    2.69    3.85
  -5  -8 -13    2.89    2.26
   5  -8 -13    0.34    2.96
   5   8 -12   24.86    5.88
   5  -8 -12   22.15    6.22
  -5  -8 -12   19.31    4.35
   5  -8 -12   24.95    6.48
   5   8 -11    3.56    2.93
   5  -8 -11   -1.33    2.68
   5  -8 -11   -0.79    2.71
   5   8 -10    3.81    2.59
   5  -8 -10    6.58    2.88
   5   8  -9    0.93    2.26
  -5   8  -9   -2.50    2.73
   5  -8  -9    0.50    2.34
   5  -8  -9    0.15    2.51
   5   8  -8   33.42    6.67
  -5   8  -8   21.77    4.93
   5  -8  -8   30.44    6.61
   5  -8  -8   36.20    7.05
   5   8  -7   16.50    5.49
  -5   8  -7   21.27    5.82
   5  -8  -7   29.37    6.82
   5  -8  -7   25.22    5.70
   5   8  -6   44.78    8.16
  -5   8  -6   45.11    7.77
   5  -8  -6   39.78    7.27
   5  -8  -6   34.96    7.36
  -5   8  -5    0.87    3.81
   5  -8  -5    1.64    2.69
   5   8  -5    1.83    2.31
   5  -8  -5    2.80    2.81
   5   8  -5    2.94    2.94
   5   8  -4   26.89    5.45
   5   8  -4   23.14    5.55
   5  -8  -4   26.07    5.96
  -5   8  -4   22.12    4.56
   5  -8  -4   32.94    6.69
   5   8  -3   15.96    4.46
   5   8  -3    6.50    3.01
  -5   8  -3    7.47    3.13
   5  -8  -3    9.16    3.84
   5  -8  -3   12.33    4.52
   5  -8  -2   35.66    6.58
   5   8  -2   24.31    5.59
   5   8  -2   22.74    5.31
  -5   8  -2   20.25    5.54
   5  -8  -2   15.76    5.34
   5   8  -1    4.66    2.80
   5   8  -1    5.65    3.58
  -5   8  -1    3.49    1.40
   5  -8  -1    8.65    4.16
   5  -8  -1    7.03    4.93
   5  -8   0  147.01   12.83
   5   8   0  133.08   13.18
  -5   8   0  115.31   12.44
   5   8   0  147.11   13.11
   5  -8   0  139.81   13.50
   5   8   1   -1.14    1.87
   5   8   1    5.82    3.91
  -5   8   1    5.83    3.42
   5  -8   1    0.37    2.16
   5  -8   1   -0.05    1.59
  -5   8   2   23.65    5.84
   5   8   2   16.58    4.54
   5   8   2   19.70    4.96
   5  -8   2   20.20    4.82
   5  -8   2   25.59    6.53
   5   8   3    1.24    1.53
   5   8   3    1.67    2.16
  -5   8   3    3.26    2.34
   5   8   4   23.21    5.64
   5   8   4   16.94    4.80
  -5   8   4   24.98    5.17
   5  -8   4   28.15    6.82
   5  -8   5   -0.44    2.55
   5   8   5   -0.21    1.68
   5   8   5    1.88    3.21
  -5   8   5    0.52    2.89
   5   8   6   64.60    8.89
  -5   8   6   46.17    7.88
   5  -8   6   40.27    7.08
   5   8   6   41.50    7.54
   5   8   7   33.92    6.97
   5   8   7   21.08    5.48
  -5   8   7   22.63    5.72
   5  -8   7   31.89    6.80
   5   8   8   20.93    5.31
   5   8   8   18.27    5.07
  -5   8   8   29.43    6.34
   5  -8   8   22.19    5.73
   5   8   9    6.11    3.79
  -5   8   9   -1.29    1.70
   5   8   9    2.02    2.16
   5  -8   9   -0.13    2.37
   5   8  10   13.33    4.49
  -5   8  10   13.06    4.55
   5   8  10   10.05    3.30
   5  -8  10   13.71    4.97
   5  -8  11    2.66    3.30
   5   8  11   -1.54    1.95
  -5   8  11    0.20    2.66
   5   8  11    3.15    2.99
   5   8  12   21.97    5.49
  -5   8  12   24.14    6.47
   5   8  12   27.88    6.36
  -5   8  13    0.24    1.76
   5   8  13   -0.69    1.39
   5   8  14    4.68    2.24
  -5   8  14    5.65    2.91
   5   8  14    8.09    4.10
   5   8  15   29.74    7.16
  -5   8  15   39.80    8.45
   5   8  15   37.77    7.84
   5   8  16   11.78    4.36
   5   8  16    6.83    3.79
  -5   8  16   11.84    5.00
   5   8  17    7.80    3.47
   5   8  17    5.18    3.34
   5   8  18    2.25    3.17
   5   8  18    3.29    3.24
  -5   8  18    5.52    4.14
  -5   8  19    2.65    4.15
   5   8  19   -1.65    2.69
   5   8  19    1.75    2.85
  -5   8  20    3.13    3.54
   5   8  20    5.53    3.04
   5   8  21    2.28    3.82
  -5   8  21    1.15    3.91
   5  -9 -18   32.10    7.35
   5  -9 -18   17.75    5.04
   5  -9 -17   30.60    8.20
   5  -9 -17   34.53    7.11
   5  -9 -16   56.57   10.06
   5  -9 -16   76.59   11.25
   5  -9 -15    9.30    4.96
   5  -9 -15   21.03    5.49
   5  -9 -14   18.30    6.36
   5  -9 -14    3.50    3.64
   5  -9 -13   21.12    5.71
   5   9 -13    6.92    4.27
   5  -9 -13   22.68    6.22
   5   9 -12   36.69    7.38
   5  -9 -12   60.97    9.61
   5  -9 -12   48.21    8.72
   5   9 -11   67.97   10.71
   5  -9 -11   72.16   10.66
   5  -9 -11   50.94    9.01
   5   9 -10   63.02    9.82
   5  -9 -10   88.38   11.95
   5  -9 -10   79.60   11.35
   5   9  -9   52.22    8.98
   5  -9  -9   49.71    8.95
   5  -9  -9   56.15    9.29
   5   9  -8   48.49    8.79
   5  -9  -8   47.10    8.44
  -5   9  -8   20.80    6.07
   5  -9  -8   46.25    8.29
  -5   9  -7  108.22   12.99
   5   9  -7   82.17   10.57
   5  -9  -7   98.07   12.14
   5  -9  -7  106.94   12.56
   5  -9  -6   32.09    7.55
   5   9  -6   30.42    7.56
  -5   9  -6   27.54    6.82
   5  -9  -6   25.44    6.20
   5   9  -5  120.58   12.97
  -5   9  -5  124.26   13.35
   5  -9  -5  129.82   13.93
   5  -9  -5  127.80   13.66
   5  -9  -4   38.40    7.43
   5   9  -4   65.17    9.40
  -5   9  -4   48.00    8.17
   5  -9  -4   66.38    9.34
   5   9  -3   -1.31    1.85
   5   9  -3   -0.34    3.06
  -5   9  -3    0.75    2.56
   5  -9  -3    4.01    3.55
   5   9  -2   23.07    6.01
  -5   9  -2   37.96    8.03
   5   9  -2   25.21    5.60
   5  -9  -2   27.04    6.70
   5   9  -1  144.27   14.29
  -5   9  -1  140.63   14.34
   5   9  -1  152.40   14.72
   5  -9  -1  191.58   16.93
   5   9   0   68.68    9.13
  -5   9   0   37.93    7.75
   5   9   0   46.05    8.37
   5  -9   0   53.40    8.91
   5   9   1  163.41   15.24
  -5   9   1  156.60   14.51
   5   9   1  138.82   13.70
   5  -9   1  171.11   15.71
  -5   9   2   27.86    6.52
   5   9   2   19.18    5.41
   5   9   2   27.42    6.33
   5  -9   2   24.57    6.14
   5   9   3    2.37    2.97
   5   9   3    6.49    3.88
  -5   9   3    2.56    3.20
   5  -9   3    4.43    3.66
  -5   9   4   48.47    8.68
   5   9   4   52.53    8.94
   5  -9   4   43.41    7.89
   5   9   5  114.87   12.71
  -5   9   5  141.98   14.02
   5  -9   5  140.10   14.37
   5   9   5   99.19   11.94
   5   9   6   23.39    7.19
   5   9   6   31.29    7.04
  -5   9   6   21.99    5.36
   5  -9   6   24.31    5.85
   5   9   7  104.07   12.20
  -5   9   7  122.88   12.83
   5   9   7   82.09   11.19
   5  -9   7  119.28   13.48
   5   9   8   54.77    9.36
  -5   9   8   32.33    7.40
   5   9   8   52.53    8.62
   5  -9   8   39.18    8.04
   5   9   9   68.20   10.19
  -5   9   9   50.46    8.76
   5   9   9   48.81    8.62
   5  -9   9   58.98    9.89
   5   9  10   83.47   10.95
  -5   9  10   79.32   10.49
   5  -9  10   76.74   10.58
   5   9  10   71.25   10.52
   5   9  11   74.13   10.72
  -5   9  11   76.40   10.43
   5   9  11   52.03    9.04
   5   9  12   61.71    9.72
   5   9  12   56.61    8.85
  -5   9  12   66.43   10.02
   5   9  13   26.37    6.89
  -5   9  13   29.00    6.92
   5   9  13   11.22    4.82
   5   9  14   12.51    4.48
  -5   9  14    8.41    3.81
   5   9  14   15.70    5.60
   5   9  15   18.11    5.62
   5   9  15   13.63    4.06
  -5   9  15   14.65    5.46
   5   9  16   71.32   10.16
   5   9  16   72.64   10.49
  -5   9  16   48.66    9.16
   5   9  17   15.36    4.74
  -5   9  17   28.59    8.04
   5   9  18   27.96    7.33
   5   9  18   30.14    7.63
  -5   9  18   30.56    7.04
   5 -10 -14   -4.81    5.12
   5 -10 -14   -1.43    2.15
   5 -10 -13    4.58    3.71
   5 -10 -13   -0.36    2.66
   5  10 -12    8.59    4.57
   5 -10 -12    3.44    1.84
   5 -10 -12    7.24    4.85
   5  10 -11    3.57    3.53
   5 -10 -11    3.57    3.05
   5 -10 -11    5.00    2.02
   5  10 -10   27.16    6.25
   5 -10 -10   24.17    6.41
   5 -10  -9   -4.34    4.41
   5  10  -9    2.27    3.69
   5  10  -8    3.76    2.57
   5 -10  -8    2.81    2.74
   5  10  -7    4.05    2.45
  -5  10  -7    5.42    3.02
   5 -10  -7    5.09    2.77
   5  10  -6   -0.17    1.84
  -5  10  -6    2.73    3.97
   5 -10  -6   -2.01    2.41
   5  10  -5   11.10    4.61
  -5  10  -5   15.31    4.97
   5 -10  -5   10.04    4.68
   5 -10  -4    4.32    3.09
   5  10  -4   -3.19    3.45
  -5  10  -4   -0.55    2.10
  -5  10  -3    6.03    2.85
   5  10  -3   14.86    5.33
   5 -10  -3    8.28    3.73
   5  10  -2   13.82    4.49
  -5  10  -2   17.73    6.47
   5 -10  -2   21.87    6.56
   5  10  -2   10.19    5.30
   5  10  -1   17.68    4.92
   5  10  -1   20.19    6.02
  -5  10  -1   29.24    6.96
   5 -10  -1   30.33    6.68
   5  10   0    1.11    1.78
  -5  10   0    1.47    3.99
   5  10   0   -1.25    2.28
   5 -10   0    3.62    3.85
  -5  10   1   18.47    5.27
   5  10   1   24.93    6.32
   5  10   1   25.70    6.80
   5 -10   1   18.15    5.80
   5  10   2   15.17    5.82
  -5  10   2   10.23    4.18
   5  10   2   19.29    5.54
   5 -10   2   19.60    5.54
   5  10   3    5.61    3.06
   5  10   3    2.06    2.06
  -5  10   3    6.52    3.49
   5 -10   3    9.65    3.47
   5  10   4    0.15    2.33
   5  10   4   -2.41    3.62
  -5  10   4    4.21    3.28
   5 -10   4   -4.15    3.55
   5  10   5   10.20    4.50
  -5  10   5   14.36    6.45
   5  10   5   12.44    4.14
   5 -10   5   12.87    5.54
   5  10   6   -1.86    1.60
   5  10   6    0.76    2.75
  -5  10   6    4.56    4.54
   5 -10   6    1.03    3.53
   5  10   7   11.02    4.15
  -5  10   7    9.05    4.52
   5 -10   7    6.35    4.56
   5  10   7    9.05    4.69
   5 -10   8   -0.89    2.24
  -5  10   8    2.07    2.89
   5  10   8    3.06    2.55
   5  10   8    3.63    3.49
   5  10   9    2.33    3.15
   5  10   9    1.18    2.25
   5  10  10   32.26    7.15
  -5  10  10   28.74    7.52
   5  10  10   31.08    7.62
   5  10  11    1.48    1.97
   5  10  11    0.44    2.09
  -5  10  11   -4.58    3.13
   5  10  12    9.04    4.29
  -5  10  12   12.43    4.10
   5  10  12    6.12    4.77
   5  10  13   -2.89    3.96
  -5  10  13   -0.76    3.80
   5  10  13    2.04    2.26
   5  10  14    1.69    2.42
   5  10  14   -6.10    4.75
  -5  10  14    3.79    4.95
   5  11  -7    0.59    3.47
  -5  11  -7    2.72    6.70
   5 -11  -7    0.07    3.05
   5  11  -6    6.06    2.61
  -5  11  -6    9.09    4.10
   5 -11  -6   15.18    5.80
   5  11  -5   19.40    5.60
  -5  11  -5   19.79    6.35
   5 -11  -5   21.94    6.23
   5  11  -4    4.79    4.43
  -5  11  -4    9.42    4.77
   5 -11  -4    8.55    6.14
   5  11  -3    1.84    3.78
  -5  11  -3   -0.46    3.55
   5 -11  -3    2.06    2.47
   5  11  -2    8.22    4.67
  -5  11  -2   13.02    5.48
   5 -11  -2    6.86    4.38
  -5  11  -1    4.20    4.49
   5  11  -1    2.20    2.88
   5 -11  -1    3.25    4.86
   5  11   0   39.86    7.82
  -5  11   0   27.75    6.01
   5 -11   0   24.86    6.79
   5  11   0   26.80    6.42
   5  11   1   -0.70    4.08
   5 -11   1    5.62    4.19
  -5  11   1    2.59    2.11
   5  11   1    2.03    2.61
   5  11   2    9.24    4.50
   5  11   2    7.62    3.95
  -5  11   2    5.90    4.08
   5 -11   2    8.22    4.30
   5  11   3    6.04    4.00
  -5  11   3    9.51    5.11
   5 -11   3    6.22    5.06
   5  11   3    6.24    4.89
   5 -11   4   -2.35    2.94
   5  11   4    5.23    5.73
   5  11   4    6.54    4.25
   5  11   5   44.74    8.54
  -5  11   5   20.62    5.62
   5 -11   5   41.30    8.68
   5  11   5   37.60    8.73
   5  11   6   19.37    6.40
  -5  11   6   12.24    3.42
   5  11   6   14.84    5.76
   5 -11   6    6.59    4.21
   5  11   7    1.60    3.29
   5 -11   7   -0.24    3.08
   5  11   7    3.47    3.46
   6   0 -29   29.92    8.57
   6   0 -28  279.80   21.01
   6   0 -27   78.26   10.81
   6   0 -26   12.33    4.74
   6   0 -25   51.17    9.28
   6   0 -24  219.98   17.91
   6   0 -23   17.36    4.36
   6   0 -22  198.78   16.29
   6   0 -21   35.88    7.23
   6   0 -20    4.82    3.22
   6   0 -19   39.15    7.16
   6   0 -18   14.14    4.07
   6   0 -17  217.89   14.92
   6   0 -16 2050.58   45.25
   6   0 -15  497.36   21.72
   6   0 -14 1180.05   32.83
   6   0 -13  243.46   14.50
   6   0 -13  227.03   11.14
   6   0 -12  199.64   12.77
   6   0 -12  191.83    9.81
   6   0 -11  152.90    8.73
   6   0 -11  161.53   11.24
   6   0 -10  716.43   23.18
   6   0 -10  743.84   19.52
   6   0  -9  573.90   16.79
   6   0  -9  509.05   19.00
   6   0  -8  193.12    9.84
   6   0  -8  181.86   11.47
   6   0  -8  175.10   10.87
   6   0  -7  121.88    9.37
   6   0  -7  145.23    8.47
   6   0  -7  130.30    9.22
   6   0  -6  760.04   22.38
   6   0  -6  758.75   19.65
   6   0  -6  707.00   21.05
   6   0  -5 2175.03   33.00
   6   0  -5 2155.65   37.29
   6   0  -5 2060.10   35.68
   6   0  -4 1245.58   25.19
   6   0  -4 1265.43   27.46
   6   0  -4 1221.59   27.64
   6   0  -3 1066.41   25.29
   6   0  -3 1055.97   23.32
   6   0  -3 1029.98   24.21
   6   0  -2 5435.90   53.02
   6   0  -2 5465.98   57.06
   6   0  -2 5421.12   54.87
   6   0  -1 2061.74   33.32
   6   0  -1 1982.47   32.79
   6   0  -1 1975.80   34.20
   6   0   0  679.59   19.04
   6   0   0  641.76   18.66
   6   0   1 1926.77   32.68
   6   0   1 1995.46   32.30
   6   0   2 5331.10   51.12
   6   0   2 5476.84   55.27
   6   0   3 1099.25   25.36
   6   0   3 1074.13   22.64
   6   0   4 1247.68   27.39
   6   0   4 1219.33   24.25
   6   0   5 2130.92   31.00
   6   0   5 2103.97   37.13
   6   0   6  755.80   18.05
   6   0   6  744.36   22.03
   6   0   7  129.31    7.50
   6   0   7  135.68    9.68
   6   0   8  172.47    8.39
   6   0   8  172.30   11.03
   6   0   9  541.25   14.48
   6   0   9  504.46   19.44
   6   0  10  765.85   24.21
   6   0  10  745.67   16.59
   6   0  11  161.49   11.30
   6   0  11  149.30    7.22
   6   0  12  204.09   12.92
   6   0  12  190.30    7.77
   6   0  13  213.86    7.73
   6   0  13  238.79   14.40
   6   0  14 1118.14   31.65
   6   0  15  498.63   21.47
   6   0  16 1927.68   44.23
   6   0  17  196.13   13.87
   6   0  18   12.72    4.06
   6   0  19   37.81    6.88
   6   0  20    2.93    1.92
   6   0  21   60.42    8.64
   6   0  22  171.06   14.47
   6  -1 -29   10.13    4.60
   6  -1 -28   13.55    5.33
   6  -1 -27    7.08    4.10
   6  -1 -26   20.22    5.40
   6   1 -25   29.37    7.75
   6  -1 -25   27.35    6.21
   6   1 -24    8.93    4.01
   6  -1 -24   19.47    5.59
   6   1 -23   48.85    8.13
   6  -1 -23   36.46    7.37
   6   1 -22   17.56    3.89
   6  -1 -22   27.49    6.06
   6   1 -21   43.80    7.52
   6  -1 -21   51.65    8.50
   6   1 -20  137.27   12.91
   6  -1 -20  132.28   12.90
   6   1 -19   54.15    8.08
   6  -1 -19   61.70    8.35
   6   1 -18   22.90    5.16
   6  -1 -18   27.55    5.88
   6   1 -17   23.79    4.35
   6  -1 -17   26.22    5.37
   6   1 -16   31.53    5.52
   6  -1 -16   35.99    6.25
   6  -1 -15  151.46   10.22
   6  -1 -15  169.24   13.10
   6   1 -15  147.91   11.76
   6   1 -14  373.29   17.82
   6  -1 -14  376.24   16.70
   6  -1 -13   36.38    5.86
   6   1 -13   41.34    5.82
   6  -1 -13   34.61    4.92
   6   1 -13   33.65    5.29
   6  -1 -12  116.03   10.16
   6   1 -12  102.00    8.86
   6  -1 -12   83.86    7.63
   6   1 -12  103.15    9.01
   6   1 -12   90.09    5.75
   6   1 -11   99.80    6.21
   6   1 -11  101.85    8.72
   6  -1 -11  111.10   10.00
   6   1 -11  116.86    9.54
   6  -1 -11  100.79    8.28
   6  -1 -10    6.70    3.08
   6  -1 -10    4.79    1.84
   6   1 -10    4.47    1.32
   6   1 -10    2.58    1.22
   6   1 -10    9.00    3.01
   6   1  -9   67.48    5.27
   6  -1  -9   62.98    7.03
   6   1  -9   59.38    6.24
   6   1  -9   73.99    7.11
   6  -1  -9   63.76    6.27
   6   1  -8   58.30    5.97
   6  -1  -8   52.24    5.64
   6   1  -8   56.25    4.82
   6  -1  -8   51.87    6.46
   6   1  -8   47.92    5.91
   6   1  -7  361.14   14.71
   6  -1  -7  347.88   14.60
   6   1  -7  390.74   12.92
   6  -1  -7  355.03   16.39
   6   1  -7  380.18   16.00
   6  -1  -6  553.91   18.28
   6  -1  -6  596.27   20.74
   6   1  -6  563.89   18.06
   6   1  -6  574.37   19.52
   6   1  -6  583.59   16.32
   6  -1  -5  738.48   21.21
   6   1  -5  731.92   18.28
   6   1  -5  708.88   21.32
   6  -1  -5  713.92   22.49
   6   1  -5  763.40   20.69
   6  -1  -4  179.58   10.31
   6  -1  -4  146.29   10.05
   6   1  -4  159.56    9.40
   6   1  -4  162.14    8.72
   6   1  -4  139.18    9.39
   6  -1  -3  131.34    8.75
   6   1  -3  127.98    8.35
   6  -1  -3  108.38    8.54
   6   1  -3  118.83    7.45
   6   1  -3  110.34    8.15
   6   1  -2    1.09    0.61
   6  -1  -2    1.10    1.29
   6   1  -2    2.98    1.37
   6  -1  -2    2.13    1.42
   6   1  -2    3.72    1.39
   6   1  -1   14.94    2.72
   6  -1  -1   17.13    3.18
   6  -1  -1   14.05    3.14
   6   1  -1   23.06    3.59
   6   1   0    1.46    1.24
   6   1   0    1.16    0.83
   6  -1   0    0.32    1.08
   6  -1   0    1.47    1.06
   6   1   1   19.54    3.32
   6  -1   1   17.97    3.39
   6   1   1   19.17    3.37
   6   1   2    4.06    1.49
   6   1   2    3.20    1.77
   6  -1   2    2.73    1.46
   6   1   3  116.48    7.88
   6   1   3  127.78    8.87
   6  -1   3  124.74    8.90
   6   1   4  171.63   10.37
   6  -1   4  171.42   10.52
   6   1   4  156.78    9.01
   6   1   5  724.31   22.21
   6   1   5  766.28   19.77
   6  -1   5  767.44   22.19
   6   1   6  535.17   16.53
   6   1   6  569.08   19.72
   6  -1   6  593.85   19.67
   6   1   7  352.20   13.25
   6  -1   7  339.52   15.31
   6   1   7  355.17   15.88
   6   1   8   54.89    5.28
   6   1   8   43.08    5.34
   6  -1   8   55.70    6.47
   6   1   9   64.84    5.70
   6   1   9   53.90    6.38
   6  -1   9   65.47    6.91
   6  -1  10    8.25    2.83
   6   1  10    6.54    1.88
   6   1  10    5.94    2.11
   6   1  11  106.08    7.08
   6   1  11  108.19    9.45
   6  -1  11  121.85    9.54
   6   1  12  110.22    7.01
   6   1  12  101.68    9.36
   6  -1  12   92.39    8.60
   6   1  13   38.17    4.07
   6   1  13   33.88    5.62
   6  -1  13   32.77    5.48
   6   1  14  379.62   18.93
   6   1  14  382.39   12.91
   6  -1  14  394.35   18.52
   6   1  15  125.40   11.44
   6  -1  15  144.73   11.53
   6   1  16   29.80    5.41
   6  -1  16   37.13    6.18
   6   1  17   32.35    6.22
   6  -1  17   35.24    6.06
   6  -1  18   16.66    4.52
   6   1  18   14.96    4.40
   6   1  19   68.37    9.19
   6  -1  19   57.05    7.57
   6   1  20  152.96   13.60
   6  -1  20  114.19   11.66
   6  -1  21   38.08    7.08
   6   1  21   43.58    7.75
   6   1  22   13.69    5.13
   6   1  23   55.64    9.11
   6  -2 -29    1.12    2.50
   6  -2 -28   82.09   11.47
   6  -2 -27   18.92    5.94
   6  -2 -26    7.26    3.18
   6  -2 -25    1.49    2.85
   6  -2 -24   78.29   10.75
   6  -2 -23    2.44    2.49
   6  -2 -22    8.29    3.20
   6  -2 -21    4.54    2.82
   6   2 -20   48.46    7.91
   6  -2 -20   43.94    7.76
   6  -2 -19    8.81    4.40
   6   2 -19    0.03    1.56
   6   2 -18   37.63    6.18
   6  -2 -18   24.56    5.66
   6  -2 -17   -1.95    1.09
   6   2 -17    1.82    1.20
   6  -2 -17   -1.15    2.40
   6   2 -17    1.59    2.22
   6  -2 -16  256.21   16.77
   6  -2 -16  242.89   15.06
   6   2 -16  272.33   15.51
   6   2 -16  272.55   15.94
   6   2 -15  189.13   12.52
   6  -2 -15  188.48   14.10
   6  -2 -15  181.75   12.81
   6   2 -15  168.15   12.50
   6   2 -14  598.63   21.62
   6  -2 -14  679.94   26.67
   6  -2 -14  662.04   24.02
   6   2 -14  630.99   23.71
   6  -2 -13   67.64    8.71
   6   2 -13   53.97    6.36
   6  -2 -13   61.52    7.41
   6   2 -13   61.81    7.20
   6   2 -12   88.82    7.94
   6  -2 -12   88.70    9.20
   6  -2 -12   85.60    8.54
   6  -2 -11   97.35    9.20
   6   2 -11   95.45    7.83
   6  -2 -11   87.15    8.12
   6   2 -11   81.83    8.42
   6   2 -10   49.88    4.14
   6  -2 -10   68.17    7.81
   6  -2 -10   60.63    6.95
   6   2 -10   56.39    7.06
   6   2 -10   69.77    6.63
   6   2  -9    3.75    2.27
   6  -2  -9    4.75    2.10
   6   2  -9    7.14    1.97
   6  -2  -9    5.68    2.80
   6   2  -9    4.33    1.34
   6  -2  -8   20.78    4.44
   6   2  -8   21.38    2.90
   6   2  -8   19.13    3.26
   6   2  -8   28.83    4.75
   6  -2  -8   19.53    4.03
   6   2  -7   17.54    3.44
   6  -2  -7   18.82    3.58
   6   2  -7   20.82    3.32
   6   2  -7   19.13    2.94
   6  -2  -7   15.93    3.41
   6  -2  -6  270.59   13.69
   6   2  -6  250.08   11.30
   6  -2  -6  269.58   14.74
   6   2  -6  254.12   10.67
   6   2  -6  255.79   13.47
   6   2  -5   79.84    7.36
   6  -2  -5   91.60    7.89
   6   2  -5   75.11    5.98
   6  -2  -5   80.02    7.84
   6   2  -5   77.91    6.20
   6   2  -4    7.18    2.82
   6   2  -4    9.05    1.93
   6  -2  -4    4.78    1.94
   6   2  -4    8.56    2.34
   6  -2  -4    4.51    2.23
   6  -2  -3   46.97    5.88
   6   2  -3   48.10    5.02
   6  -2  -3   52.19    6.16
   6   2  -3   48.91    4.85
   6   2  -2  448.44   17.28
   6  -2  -2  451.03   17.62
   6   2  -2  486.20   15.34
   6  -2  -2  462.55   18.52
   6   2  -1   77.58    7.17
   6   2  -1   85.47    6.92
   6  -2  -1   80.92    7.37
   6   2   0    3.58    2.21
   6  -2   0    4.40    2.50
   6   2   0    0.93    0.77
   6  -2   0    2.42    1.35
   6   2   1   74.67    6.71
   6  -2   1   86.99    7.68
   6   2   1   80.31    6.82
   6  -2   1   71.58    7.02
   6  -2   2  423.87   16.87
   6   2   2  418.31   16.29
   6  -2   2  433.48   17.62
   6   2   2  454.75   16.53
   6   2   3   39.29    4.88
   6  -2   3   44.76    5.82
   6   2   3   49.42    5.54
   6   2   4    8.18    2.72
   6  -2   4   10.48    2.72
   6   2   4    5.75    1.92
   6   2   5   77.85    6.92
   6  -2   5   72.37    7.29
   6   2   5   66.68    6.82
   6   2   6  232.48   11.70
   6  -2   6  238.72   13.02
   6   2   6  235.60   13.15
   6   2   7   13.62    3.40
   6  -2   7    9.36    2.32
   6   2   8   16.39    3.40
   6   2   8   22.14    4.29
   6  -2   8   15.97    3.89
   6   2   9    5.43    2.11
   6   2   9    7.04    2.06
   6  -2   9    4.94    2.29
   6  -2  10   62.79    7.11
   6   2  10   77.00    6.59
   6   2  10   66.98    7.32
   6   2  11  100.44    9.38
   6  -2  11   78.56    8.00
   6   2  11   86.59    7.09
   6   2  12   87.03    7.21
   6   2  12   85.50    9.32
   6  -2  12   91.02    8.74
   6   2  13   43.24    6.29
   6   2  13   61.93    6.10
   6  -2  13   62.03    7.33
   6   2  14  652.40   19.79
   6   2  14  632.19   25.24
   6  -2  14  633.09   23.93
   6   2  15  186.36   10.64
   6   2  15  178.64   13.36
   6  -2  15  171.30   12.70
   6   2  16  251.67   16.30
   6  -2  16  250.87   15.81
   6  -2  17    2.82    2.25
   6   2  17    3.69    2.64
   6  -2  18   29.22    5.76
   6   2  18   36.49    6.30
   6  -2  19    3.76    2.85
   6   2  19    7.19    3.73
   6   2  20   50.45    7.89
   6  -2  20   49.77    7.25
   6   2  21   11.15    4.31
   6   2  22   11.16    4.27
   6   2  23    2.95    2.56
   6   2  24   63.11    9.89
   6  -3 -28   -3.13    2.38
   6  -3 -27   16.35    5.80
   6  -3 -26   44.34    8.18
   6  -3 -25   71.13   10.95
   6  -3 -24    8.55    3.65
   6  -3 -23    4.27    3.25
   6  -3 -22    0.36    2.95
   6  -3 -21   11.30    4.06
   6  -3 -20   32.95    7.31
   6  -3 -19  139.48   13.49
   6  -3 -18   76.23    9.61
   6  -3 -18   72.16    9.24
   6   3 -18   85.48    9.71
   6  -3 -17  183.97   14.75
   6   3 -17  202.46   14.42
   6  -3 -16   72.65    8.94
   6  -3 -16   60.26    8.80
   6   3 -16   80.56    9.06
   6  -3 -15   49.44    7.22
   6  -3 -15   49.35    7.68
   6   3 -15   45.69    6.81
   6  -3 -14  234.56   15.83
   6  -3 -14  214.37   14.88
   6   3 -14  224.15   14.77
   6   3 -13   62.11    6.15
   6  -3 -13   79.29    9.23
   6  -3 -13   66.30    7.96
   6   3 -13   68.55    7.89
   6   3 -12   93.93    9.18
   6   3 -12   95.16    7.34
   6  -3 -12   94.43    9.98
   6  -3 -12   89.36    9.17
  -6   3 -11  187.54    9.46
   6   3 -11  207.79   10.38
   6  -3 -11  191.31   13.59
   6  -3 -11  176.71   12.62
   6   3 -11  190.51   13.04
   6   3 -10   25.53    3.69
   6   3 -10   20.48    2.93
   6  -3 -10   14.41    4.06
   6   3 -10   25.52    4.97
   6  -3  -9   83.06    8.74
   6   3  -9   86.26    6.29
   6   3  -9   74.14    5.33
   6   3  -9   81.43    8.44
   6  -3  -9   76.16    8.13
   6   3  -8   81.37    7.97
   6  -3  -8   83.50    8.66
   6  -3  -8   70.71    7.67
   6   3  -8   83.72    6.06
   6   3  -8   77.86    5.80
   6  -3  -7  367.51   17.98
   6   3  -7  385.21   13.50
   6   3  -7  390.84   17.79
   6   3  -7  400.95   12.73
   6  -3  -7  378.25   17.77
   6  -3  -6  394.61   18.55
   6   3  -6  407.83   12.77
   6   3  -6  410.71   18.04
   6  -3  -6  391.25   17.78
   6   3  -5  489.38   19.21
   6   3  -5  491.52   14.31
   6  -3  -5  517.46   20.90
   6   3  -5  478.70   16.10
   6  -3  -5  479.37   19.54
   6  -3  -4  357.58   16.81
   6   3  -4  318.56   15.37
   6   3  -4  354.16   11.99
   6   3  -4  320.40   13.35
   6  -3  -4  350.47   17.15
   6  -3  -3  786.48   24.84
   6   3  -3  777.74   24.58
   6   3  -3  812.31   21.79
   6  -3  -3  768.33   25.00
   6   3  -3  799.55   18.52
   6  -3  -2  105.18    8.95
   6   3  -2   95.08    7.74
   6  -3  -2  111.64    9.46
   6   3  -1   95.54    7.78
   6  -3  -1  100.87    8.61
   6   3  -1   74.03    7.39
   6  -3  -1   96.60    8.67
   6   3   0   59.21    6.55
   6  -3   0   54.69    6.67
   6   3   0   53.28    5.84
   6  -3   0   70.27    7.56
   6   3   1   80.47    7.28
   6  -3   1   72.89    7.46
   6  -3   1   99.20    8.79
   6   3   1   89.39    7.85
   6   3   2  102.08    8.31
   6  -3   2   93.57    8.54
   6   3   2  101.57    8.40
   6  -3   2  113.49    9.69
   6   3   3  780.80   23.44
   6  -3   3  791.16   24.95
   6   3   3  718.86   22.90
   6  -3   3  795.19   24.90
   6  -3   4  356.51   16.58
   6   3   4  356.37   16.49
   6   3   4  349.74   15.85
   6   3   5  461.69   18.22
   6  -3   5  463.25   19.02
   6   3   5  454.68   19.05
   6   3   6  379.78   16.46
   6  -3   6  356.88   16.88
   6   3   6  402.46   18.07
   6   3   7  393.05   16.71
   6  -3   7  392.52   17.61
   6   3   7  386.22   17.98
   6   3   8   87.39    7.94
   6  -3   8   74.46    7.81
   6   3   8   83.34    8.39
   6   3   9   98.93    8.56
   6   3   9   86.14    8.91
   6   3  10   26.46    4.81
   6   3  10   25.98    4.39
   6  -3  10   22.35    4.37
   6   3  11  214.23   12.58
   6  -3  11  177.36   12.43
   6   3  11  195.33   13.71
   6  -3  12   85.63    8.85
   6   3  12   89.56    9.34
   6   3  12   93.68    8.34
   6   3  13   79.79    7.76
   6  -3  13   62.55    7.59
   6   3  13   85.09    9.31
   6   3  14  255.50   14.08
   6  -3  14  253.34   15.32
   6   3  14  246.59   16.15
   6   3  15   41.61    6.83
   6   3  15   39.98    5.52
   6  -3  15   57.62    7.41
   6   3  16   70.41    7.59
   6  -3  16   66.86    8.06
   6   3  16   83.02    9.71
   6  -3  17  167.96   13.11
   6   3  17  147.69   13.23
   6  -3  18   94.50    9.83
   6   3  18   83.72   10.08
   6   3  19  130.58   12.93
   6   3  20   46.50    8.46
   6   3  21    7.61    1.84
   6   3  22    9.64    5.03
   6   3  23    9.30    4.47
   6   3  24    9.70    4.12
   6   3  25   61.04   10.30
   6  -4 -27    4.90    3.32
   6  -4 -26    7.07    3.26
   6  -4 -25   10.34    4.62
   6  -4 -24   84.24   11.72
   6  -4 -23   19.56    5.50
   6  -4 -22   40.47    7.61
   6  -4 -21   39.99    7.03
   6  -4 -20   30.78    6.26
   6  -4 -20   -2.90    1.80
   6  -4 -19    0.18    1.72
   6  -4 -19    5.08    2.73
   6  -4 -18  285.67   19.12
   6  -4 -18  281.77   18.94
   6  -4 -17   97.99   11.14
   6  -4 -17   80.02   10.28
   6   4 -17   93.79   10.24
   6  -4 -16   52.27    8.54
   6   4 -16   68.80    8.86
   6  -4 -16   42.98    6.86
   6  -4 -15   42.52    6.75
   6  -4 -15   42.37    7.25
   6   4 -15   40.43    6.59
   6   4 -14    8.25    2.93
   6  -4 -14   15.50    5.01
   6  -4 -14   10.52    4.05
   6  -4 -13   76.78    8.93
   6  -4 -13  102.98   10.71
   6   4 -13   89.06    9.19
   6  -4 -12  481.69   23.08
   6  -4 -12  436.27   22.22
   6   4 -11  167.74   12.95
  -6   4 -11  173.23   10.93
   6  -4 -11  160.51   13.04
   6  -4 -11  186.27   14.00
   6   4 -10   35.48    5.70
  -6   4 -10   33.27    4.80
   6  -4 -10   40.67    6.52
   6  -4 -10   37.13    6.69
   6  -4  -9  138.07   11.95
   6   4  -9  135.97    8.39
  -6   4  -9  135.94    9.60
   6  -4  -9  134.47   11.54
   6   4  -9  133.91   11.20
   6   4  -8  549.29   22.34
   6   4  -8  539.39   17.08
   6  -4  -8  499.51   21.94
   6  -4  -8  566.40   23.31
   6   4  -7   43.18    6.04
   6   4  -7   39.16    4.83
   6  -4  -7   35.69    5.54
   6   4  -6   90.32    8.98
   6   4  -6   78.03    6.97
   6   4  -6   88.36    5.04
   6  -4  -6  107.04   10.10
   6  -4  -6   76.20    8.44
   6  -4  -5  566.90   22.74
   6   4  -5  623.39   23.04
   6   4  -5  591.75   19.34
   6  -4  -5  599.43   23.57
   6   4  -5  539.33   12.67
   6  -4  -4   -0.36    1.56
   6   4  -4    0.76    1.06
   6   4  -4    2.18    1.97
   6  -4  -4   -0.74    1.22
   6   4  -4    1.87    0.63
   6   4  -3  216.82   13.55
   6  -4  -3  242.19   14.57
   6   4  -3  233.16   12.66
   6   4  -3  237.09    9.40
   6  -4  -3  228.69   14.35
   6   4  -2  117.35    9.67
   6  -4  -2   94.66    9.33
   6   4  -2  107.51    8.76
   6  -4  -2   95.25    9.20
   6  -4  -1   81.23    8.37
   6   4  -1   85.03    8.27
   6  -4  -1   81.47    8.27
   6   4  -1   85.94    7.83
   6  -4   0  170.76   12.28
   6   4   0  177.04   11.96
   6  -4   0  166.14   11.95
   6   4   0  168.07   11.20
   6  -4   1   86.16    8.61
   6   4   1   79.30    8.20
   6  -4   1  108.57    9.53
   6   4   1   91.41    8.52
   6  -4   2  113.84    9.86
   6   4   2  125.66   10.27
   6  -4   2  124.46   10.16
   6   4   2  129.28   10.16
   6   4   3  214.43   13.49
   6  -4   3  222.77   13.71
   6   4   4    1.11    1.28
   6   4   4    2.63    1.91
   6  -4   4    0.04    1.56
   6  -4   4    3.87    2.13
   6   4   5  543.95   22.15
   6  -4   5  513.59   21.47
   6   4   5  573.73   22.16
   6  -4   5  533.93   21.73
   6   4   6   79.79    8.50
   6  -4   6   86.26    8.66
   6   4   6   85.58    8.54
   6  -4   6   97.30    9.20
   6  -4   7   32.72    5.67
   6   4   7   37.65    5.93
   6   4   7   36.52    5.91
   6   4   8  550.05   22.97
   6   4   8  551.12   21.55
   6  -4   8  579.64   22.73
   6   4   9  136.15   10.81
   6  -4   9  134.06   11.02
   6   4   9  146.49   12.28
   6  -4  10   38.97    6.09
   6   4  10   41.45    5.72
   6   4  10   42.43    6.75
   6   4  11  183.31   12.56
   6  -4  11  161.48   12.46
   6   4  11  163.51   12.84
   6   4  12  469.47   20.63
   6  -4  12  450.16   21.24
   6   4  12  460.69   22.05
   6   4  13   90.52    9.02
   6  -4  13   96.30    9.77
   6   4  13  106.43   10.75
   6   4  14    8.31    2.55
   6  -4  14   10.53    3.89
   6   4  14   13.33    4.02
   6   4  15   59.11    7.47
   6  -4  15   56.02    8.02
   6   4  15   59.38    8.46
   6  -4  16   46.61    7.66
   6   4  16   53.79    7.29
   6   4  16   53.75    8.34
   6   4  17   90.95    9.61
   6  -4  17   85.97   10.14
   6   4  17   63.77    9.06
   6   4  18  269.81   18.46
   6   4  19    1.74    3.19
   6   4  20   28.88    6.23
   6   4  21   36.82    7.83
   6   4  22   46.32    8.35
   6   4  23   40.02    7.14
   6   4  24   93.77   12.24
   6   4  25   11.83    5.83
   6   4  26   12.56    5.27
   6  -5 -26   10.68    4.00
   6  -5 -25   20.37    5.60
   6  -5 -24   16.23    5.60
   6  -5 -23    2.86    3.23
   6  -5 -22   28.34    6.28
   6  -5 -21   33.54    6.88
   6  -5 -21    9.43    4.68
   6  -5 -20   -2.05    3.12
   6  -5 -20    3.22    2.37
   6  -5 -19    6.97    4.05
   6  -5 -19    3.82    2.85
   6  -5 -18   11.06    4.75
   6  -5 -18    6.65    3.70
   6  -5 -17   33.50    7.13
   6  -5 -17   41.09    7.73
   6   5 -16   16.60    4.58
   6  -5 -16   17.94    5.09
   6  -5 -16   15.75    5.19
   6   5 -15   20.62    5.17
   6  -5 -15   13.15    4.78
   6  -5 -15   16.47    4.82
   6  -5 -14   16.52    4.33
   6   5 -14   24.66    5.68
   6  -5 -14   23.23    5.27
   6   5 -13   79.94    9.58
   6  -5 -13   72.64    9.67
   6  -5 -13   82.33   10.14
   6  -5 -12   14.15    3.34
   6  -5 -12    6.62    2.54
   6   5 -12   11.51    4.01
   6   5 -11    1.15    1.55
   6  -5 -11    4.29    3.11
   6  -5 -11   -1.22    1.86
  -6   5 -10   19.62    4.17
   6  -5 -10   19.29    4.21
   6   5 -10   17.08    3.88
   6  -5 -10   13.17    4.52
   6   5  -9   34.24    5.90
  -6   5  -9   34.79    5.32
   6  -5  -9   46.54    7.28
   6  -5  -9   26.49    5.47
   6  -5  -8   23.93    5.35
   6   5  -8   24.12    4.72
   6   5  -8   33.36    4.85
  -6   5  -8   32.05    5.37
   6  -5  -8   26.45    5.24
   6  -5  -7   15.81    4.20
   6   5  -7   22.14    4.59
   6   5  -7   21.80    4.22
   6  -5  -7   28.16    5.55
  -6   5  -7   26.01    4.83
   6   5  -6   11.19    3.11
   6   5  -6   12.92    3.24
  -6   5  -6   13.99    3.66
   6  -5  -6   12.24    3.03
   6  -5  -6    9.55    3.18
   6   5  -5   42.01    6.75
   6  -5  -5   36.57    6.65
   6  -5  -5   42.38    6.73
   6   5  -5   44.24    5.94
   6  -5  -4   92.06    9.39
   6  -5  -4  110.32   10.87
   6   5  -4  108.57    9.33
   6   5  -3   87.52    9.08
   6   5  -3   98.96    9.12
   6  -5  -3   97.48    9.86
   6  -5  -3   91.83   10.02
   6   5  -2   70.34    7.73
   6   5  -2   86.69    8.91
   6  -5  -2   80.06    8.87
   6  -5  -2   83.90    8.99
   6  -5  -1   28.80    5.45
   6   5  -1   24.76    4.34
   6   5  -1   32.60    5.26
   6  -5  -1   31.21    6.12
   6   5   0   30.00    5.05
   6  -5   0   25.90    5.28
   6  -5   0   18.91    4.23
   6   5   0   28.76    5.63
   6   5   1   30.99    5.36
   6   5   1   31.41    4.93
   6  -5   1   29.50    5.25
   6  -5   1   41.23    7.02
   6   5   2   78.63    8.83
   6   5   2   88.79    9.24
   6  -5   2   81.16    8.66
   6  -5   2   79.09    9.00
   6   5   3   88.20    9.02
   6   5   3   83.87    9.06
   6  -5   3   88.01    9.33
   6  -5   3  104.79    9.93
   6  -5   4  110.71   10.21
   6   5   4  130.68   11.04
   6   5   4  115.87   10.44
   6  -5   4  122.49   10.60
   6  -5   5   31.51    5.42
   6   5   5   47.27    6.60
   6  -5   5   41.19    6.62
   6  -5   6    7.89    3.39
   6   5   6   15.92    3.96
   6   5   6    9.74    3.92
   6  -5   6    5.25    1.55
   6  -5   7   18.56    4.32
   6   5   7   27.63    5.51
   6   5   7   27.34    5.51
   6  -5   7   23.33    5.39
   6   5   8   33.43    6.40
   6  -5   8   17.68    4.69
   6   5   8   33.45    5.78
   6  -5   8   31.58    5.78
   6  -5   9   41.04    5.89
   6   5   9   40.65    6.82
   6   5   9   40.98    6.22
   6  -5   9   32.29    5.91
   6   5  10   18.69    5.19
   6  -5  10    8.28    1.58
   6   5  10   26.13    5.32
   6   5  11   -0.09    1.56
   6  -5  11   -1.19    2.27
   6   5  11    0.42    1.61
   6   5  12   11.17    4.68
   6  -5  12   11.26    3.78
   6   5  12    6.34    3.12
   6   5  13   94.71   10.77
   6  -5  13   80.55   10.11
   6   5  13   93.36    9.97
   6   5  14   19.08    4.73
   6  -5  14   10.93    5.71
   6   5  14   24.91    6.04
   6   5  15   19.26    4.49
   6  -5  15   21.90    6.52
   6   5  15   17.31    4.79
   6   5  16   25.43    5.83
   6  -5  16   11.13    5.48
   6   5  16   26.16    6.29
   6   5  17   34.19    6.10
   6   5  17   41.25    8.12
   6   5  18   12.16    4.10
   6   5  19    1.98    2.61
   6   5  20    6.38    3.39
   6   5  21   11.98    4.40
   6   5  22   31.02    7.11
   6   5  23    6.40    4.69
  -6   5  23    2.64    3.22
   6   5  24    4.59    3.74
   6   5  25   27.61    6.63
   6   5  26   17.53    6.02
   6  -6 -25   15.23    4.50
   6  -6 -24   88.03   12.13
   6  -6 -23    8.06    4.50
   6  -6 -22  125.67   14.16
   6  -6 -21   56.50    9.17
   6  -6 -21   51.48    9.18
   6  -6 -20   -0.19    2.93
   6  -6 -20   16.80    6.41
   6  -6 -19   19.25    6.47
   6  -6 -19   35.42    7.30
   6  -6 -18  244.82   18.86
   6  -6 -18  247.00   18.79
   6  -6 -17   36.95    7.30
   6  -6 -17   34.93    6.79
   6   6 -16    3.92    1.77
   6  -6 -16    4.96    2.66
   6  -6 -16    1.60    2.79
   6   6 -15    6.43    3.93
   6  -6 -15   13.81    4.61
   6   6 -14    5.85    3.89
   6  -6 -14   15.79    6.01
   6  -6 -14    5.22    2.59
   6   6 -13   19.73    4.82
   6  -6 -13   14.26    4.79
   6  -6 -13   29.97    6.09
   6  -6 -12  206.24   16.24
   6   6 -12  167.29   14.22
   6  -6 -12  186.41   15.73
   6   6 -11   64.18    8.36
   6  -6 -11   56.89    8.66
   6  -6 -11   62.25    8.99
   6   6 -10    1.95    2.93
  -6   6 -10    6.05    3.17
   6  -6 -10    0.78    1.38
   6  -6 -10    2.90    2.88
   6   6  -9   33.42    6.55
   6  -6  -9   46.12    8.58
   6  -6  -9   39.35    6.98
  -6   6  -9   32.73    5.77
   6   6  -8  423.96   21.70
  -6   6  -8  418.77   20.68
   6  -6  -8  438.80   22.68
   6  -6  -8  453.97   23.65
   6  -6  -7   94.47   10.98
   6   6  -7  106.24   10.64
  -6   6  -7   95.77   10.00
   6  -6  -7   97.26   10.50
   6   6  -7   87.60    8.90
   6   6  -6   -0.84    1.58
   6  -6  -6    2.11    2.89
  -6   6  -6    1.36    1.76
   6   6  -6   -0.03    1.67
   6  -6  -6   -0.10    1.25
   6   6  -5   59.14    7.77
   6   6  -5   64.65    8.01
  -6   6  -5   78.32    8.80
   6  -6  -5   42.00    6.83
   6  -6  -5   61.42    8.39
   6   6  -4  228.21   14.56
   6   6  -4  206.94   14.93
   6  -6  -4  201.12   14.80
   6  -6  -4  201.82   15.16
   6  -6  -3    0.78    2.24
  -6   6  -3    3.86    2.52
   6   6  -3    1.94    2.78
   6   6  -3    2.97    2.43
   6  -6  -3    3.83    1.88
   6   6  -2  373.74   20.18
   6   6  -2  367.44   19.14
  -6   6  -2  356.69   19.10
   6  -6  -2  416.39   21.10
   6  -6  -2  368.12   20.32
   6   6  -1   74.82    8.99
   6   6  -1   95.47    9.69
   6  -6  -1   76.31    8.57
   6  -6  -1   68.21    8.81
   6  -6   0    5.28    3.23
   6  -6   0    0.31    2.05
   6   6   0    2.11    2.55
   6   6   0    9.96    3.38
   6  -6   1   73.77    8.68
   6   6   1   82.24    9.30
   6  -6   1   91.47    9.99
   6   6   2  346.06   19.33
   6  -6   2  392.71   20.21
   6   6   2  371.46   19.52
   6  -6   2  371.19   20.07
   6  -6   3    7.58    3.77
   6   6   3    7.68    3.13
   6   6   3    4.91    2.47
   6  -6   3    3.40    2.51
   6   6   4  200.46   14.76
   6   6   4  218.13   15.06
   6  -6   4  180.77   13.94
   6  -6   4  195.99   14.85
   6   6   5   56.84    7.80
   6   6   5   52.15    7.81
   6  -6   5   67.66    8.86
   6  -6   5   69.80    8.59
   6  -6   6    2.65    1.68
   6   6   6    0.28    1.66
   6   6   6    1.32    2.14
   6  -6   6    0.13    1.22
   6  -6   7   91.01    9.98
   6   6   7   96.01   10.30
   6   6   7   78.14    9.38
   6  -6   7   85.51   10.02
   6   6   8  453.50   22.25
   6   6   8  436.21   22.58
   6  -6   8  467.04   22.54
   6  -6   8  411.92   21.65
   6   6   9   49.98    7.79
   6   6   9   36.22    6.48
   6  -6   9   42.24    6.70
   6  -6   9   46.41    7.26
   6  -6  10    2.66    2.44
   6  -6  10    3.55    3.41
   6   6  10    4.77    3.27
   6   6  10    4.62    1.61
   6   6  11   61.88    8.67
   6   6  11   41.07    7.12
   6  -6  11   56.54    7.82
   6  -6  11   56.75    8.08
   6   6  12  163.32   14.34
   6   6  12  191.80   14.96
   6  -6  12  177.86   14.80
   6  -6  12  151.56   13.47
   6  -6  13   30.29    6.22
   6   6  13   19.87    5.50
   6   6  13   24.18    5.25
   6  -6  13   20.46    4.96
   6  -6  14    3.30    3.18
   6   6  14    3.82    2.15
   6   6  14    4.79    2.96
   6   6  15    9.07    2.67
   6  -6  15   12.94    4.39
   6   6  15   11.36    4.54
   6   6  16    5.66    3.53
   6   6  16    5.24    2.42
   6   6  17   33.28    6.05
   6   6  17   47.57    8.35
   6   6  18  244.03   18.05
   6   6  18  240.95   18.91
  -6   6  19   29.00    6.31
   6   6  19   30.93    6.93
  -6   6  20    3.27    2.29
   6   6  20    0.91    3.06
  -6   6  21   53.72    9.60
   6   6  21   45.77    8.35
  -6   6  22  109.87   13.66
   6   6  22   88.09   12.78
  -6   6  23    4.87    3.99
   6   6  23    5.81    3.16
   6   6  24   41.08    8.12
   6   6  25   31.91    7.36
   6  -7 -23    8.34    4.21
   6  -7 -22   11.13    5.82
   6  -7 -21   39.04    7.81
   6  -7 -21   48.46    9.83
   6  -7 -20   32.70    6.79
   6  -7 -20   27.11    6.72
   6  -7 -19   23.59    7.12
   6  -7 -19   24.00    6.69
   6  -7 -18   66.59   10.30
   6  -7 -18   51.45    8.83
   6  -7 -17   14.92    4.20
   6  -7 -17   11.52    4.51
   6  -7 -16   27.32    6.10
   6  -7 -16   22.24    5.88
   6  -7 -15   26.81    7.15
   6   7 -15   25.64    7.16
   6  -7 -15   33.96    6.96
   6   7 -14    6.93    1.91
   6  -7 -14   15.46    4.71
   6  -7 -14   23.64    6.19
   6   7 -13   41.37    7.52
   6  -7 -13   61.05    9.77
   6  -7 -13   45.27    8.18
   6   7 -12   13.71    4.46
   6  -7 -12   14.43    4.34
   6   7 -11   22.28    5.64
   6  -7 -11   17.19    4.80
   6  -7 -11   23.32    5.82
   6   7 -10   50.71    8.38
   6  -7 -10   58.19    9.37
   6  -7 -10   76.74   10.15
   6   7  -9   10.63    4.62
  -6   7  -9   18.44    5.79
   6  -7  -9   11.29    4.49
   6  -7  -9    8.39    2.66
   6   7  -8  124.55   12.55
  -6   7  -8  102.95   10.78
   6  -7  -8   95.42   11.23
   6  -7  -8   94.78   11.08
   6   7  -7   18.21    4.52
  -6   7  -7   27.05    6.06
   6  -7  -7   21.31    5.42
   6  -7  -7   32.30    6.18
   6   7  -6   15.11    5.12
   6   7  -6   15.60    4.10
  -6   7  -6    7.43    3.59
   6  -7  -6    5.45    3.45
   6  -7  -6    9.79    4.15
   6   7  -5   19.33    5.53
   6   7  -5   29.30    5.48
  -6   7  -5   35.04    6.10
   6  -7  -5   16.71    4.64
   6  -7  -5   26.47    6.09
   6   7  -4  133.90   12.71
   6   7  -4  125.13   11.82
   6  -7  -4  120.82   11.75
  -6   7  -4  131.91   12.16
   6  -7  -4  114.59   12.40
   6  -7  -3   49.18    7.89
   6   7  -3   39.44    7.03
   6   7  -3   43.95    7.12
  -6   7  -3   40.39    7.03
   6  -7  -3   41.12    7.46
   6   7  -2  155.38   13.69
   6   7  -2  116.50   11.47
  -6   7  -2  149.23   13.45
   6  -7  -2  151.16   13.13
   6  -7  -2  147.37   14.05
   6  -7  -1   24.02    5.66
   6   7  -1   24.74    5.54
   6   7  -1   15.55    4.11
  -6   7  -1   22.96    5.02
   6  -7  -1   18.57    4.47
   6  -7   0    3.11    2.70
   6   7   0    1.14    2.72
   6  -7   0    2.31    3.89
   6   7   0    1.57    1.84
  -6   7   0    4.16    2.30
   6  -7   1   22.60    5.29
   6   7   1   14.02    4.03
  -6   7   1   17.20    4.96
   6  -7   1   23.09    5.40
   6   7   1   26.94    5.42
   6   7   2  162.81   13.66
   6   7   2  168.38   13.89
  -6   7   2  158.87   13.82
   6  -7   2  156.52   13.53
   6  -7   2  166.10   14.08
   6  -7   3   51.87    7.65
   6   7   3   44.88    7.23
  -6   7   3   48.24    8.01
   6   7   3   36.73    6.36
   6  -7   3   49.38    7.68
   6   7   4  148.84   13.26
   6   7   4  126.58   12.13
  -6   7   4  118.73   11.88
   6  -7   4  115.21   11.10
   6  -7   4  105.88   11.39
  -6   7   5   18.72    5.80
   6   7   5   26.72    5.79
   6   7   5   21.17    5.58
   6  -7   5   26.52    5.72
   6  -7   5   42.61    7.23
   6  -7   6    4.04    2.10
   6   7   6    7.61    3.06
   6   7   6   14.81    3.85
   6  -7   6   11.56    3.98
  -6   7   6    7.83    3.37
   6  -7   7   30.86    6.41
   6  -7   7   29.50    6.25
   6   7   7   20.50    5.24
  -6   7   7   27.21    6.47
   6   7   7   29.23    6.58
   6   7   8  110.89   11.59
   6   7   8   94.27   11.33
  -6   7   8   95.33   10.59
   6  -7   8   99.34   11.17
   6  -7   8  115.04   12.41
   6   7   9    2.66    2.12
   6  -7   9   11.32    4.35
   6  -7   9    1.99    3.31
  -6   7   9    7.98    3.55
   6   7   9   14.92    4.79
   6   7  10   61.03    8.73
  -6   7  10   52.09    7.56
   6   7  10   76.52    9.59
   6  -7  10   73.96    9.71
   6  -7  11   21.87    5.63
   6   7  11   20.69    5.48
   6   7  11   16.46    5.12
  -6   7  11   20.53    5.71
   6  -7  12   14.88    4.69
   6   7  12   27.69    6.23
   6   7  12   21.64    5.33
  -6   7  12   15.10    4.61
  -6   7  13   45.81    9.84
   6   7  13   65.56    9.44
   6   7  13   46.19    7.59
   6  -7  13   53.56    9.32
   6   7  14   15.09    5.24
   6   7  14   23.57    6.41
  -6   7  14   14.34    5.09
   6   7  15   27.71    6.14
   6   7  15   23.33    5.85
  -6   7  15   31.43    7.15
   6   7  16   24.64    6.11
   6   7  16   30.09    6.96
  -6   7  16   33.30    7.06
   6   7  17   16.98    5.98
   6   7  17   12.11    5.60
  -6   7  17    2.87    4.01
   6   7  18   52.23    9.14
  -6   7  18   42.42    8.36
   6   7  18   66.93   10.20
  -6   7  19   30.65    7.84
   6   7  19   25.99    7.51
  -6   7  20   19.14    5.61
   6   7  20   27.37    6.30
  -6   7  21   45.04    8.84
   6   7  21   51.72    9.94
  -6   7  22    6.49    4.38
   6   7  22    9.70    4.34
  -6   7  23   13.79    4.92
   6   7  23   16.76    6.24
   6  -8 -20   13.23    5.00
   6  -8 -20   24.06    6.99
   6  -8 -19   13.22    5.51
   6  -8 -19   25.79    6.88
   6  -8 -18   44.70    8.92
   6  -8 -18   52.76    9.05
   6  -8 -17   13.85    4.01
   6  -8 -17   28.79    7.36
   6  -8 -16   38.33    7.87
   6  -8 -16   36.52    8.18
   6  -8 -15   32.74    6.69
   6  -8 -15   29.12    6.30
   6   8 -14   47.37    8.76
   6  -8 -14   38.91    8.22
   6  -8 -14   38.80    8.25
   6   8 -13   67.37   10.07
   6  -8 -13   76.04   10.75
   6  -8 -13   65.56   10.27
   6   8 -12   35.79    6.23
   6  -8 -12   67.93    9.88
   6  -8 -12   57.55    8.95
   6  -8 -11   39.94    7.64
   6   8 -11   33.10    6.93
   6  -8 -11   48.42    8.41
   6  -8 -10   36.56    8.04
   6   8 -10   30.11    6.65
   6  -8 -10   34.66    7.45
   6   8  -9   27.79    6.24
  -6   8  -9   30.39    7.57
   6  -8  -9   29.06    6.79
   6  -8  -9   23.48    5.56
   6  -8  -8  148.28   14.03
   6   8  -8  138.34   13.70
  -6   8  -8  135.55   13.72
   6  -8  -8  139.49   14.35
   6  -8  -7   64.33    9.40
  -6   8  -7   80.41   10.61
   6  -8  -7   79.59   10.82
   6   8  -6   13.04    4.44
  -6   8  -6   18.89    4.85
   6  -8  -6   15.41    5.35
   6  -8  -6   23.71    6.33
   6   8  -5   33.50    6.46
  -6   8  -5   44.89    7.83
   6  -8  -5   54.78    8.39
   6  -8  -5   42.47    8.07
   6   8  -4   65.38    9.34
  -6   8  -4   68.40    9.41
   6  -8  -4   71.46    9.94
   6  -8  -4   69.33    9.56
   6   8  -4   94.20   11.34
   6   8  -3    0.97    1.73
   6  -8  -3    3.84    3.78
   6   8  -3    4.22    3.29
  -6   8  -3    1.37    1.57
   6  -8  -3   -0.92    2.02
   6   8  -2   76.16    9.93
   6   8  -2  102.63   11.54
  -6   8  -2   83.65   10.93
   6  -8  -2   97.26   11.69
   6  -8  -2   89.93   10.67
   6  -8  -1   22.66    6.10
   6   8  -1   27.41    5.95
  -6   8  -1   25.53    5.66
   6   8  -1   24.56    5.72
   6  -8  -1   39.05    8.38
   6  -8   0    5.90    3.27
   6   8   0    6.60    3.63
  -6   8   0    2.50    2.72
   6   8   0    3.66    3.06
   6  -8   0    3.65    2.10
   6   8   1   17.97    4.75
  -6   8   1   22.66    5.63
   6  -8   1   24.15    5.81
   6  -8   1   27.34    6.72
   6   8   1   26.82    6.22
   6  -8   2   99.85   10.94
   6   8   2   84.24   10.15
   6   8   2  102.11   11.22
  -6   8   2   98.81   11.68
   6  -8   2  104.85   12.18
   6   8   3    2.74    2.82
   6   8   3    7.25    3.96
   6  -8   3    3.60    3.26
  -6   8   3    2.64    2.67
   6  -8   3    5.95    4.39
   6   8   4   89.23   11.02
   6   8   4   58.33    8.77
  -6   8   4   81.91   10.47
   6  -8   4   71.12    9.46
   6   8   5   47.88    8.50
   6   8   5   42.71    7.38
  -6   8   5   72.58   10.04
   6  -8   5   56.31    8.65
   6  -8   6   25.38    5.76
   6   8   6   10.96    3.78
  -6   8   6   16.00    4.02
   6   8   6   11.59    5.06
   6   8   7   63.52    9.35
   6   8   7   64.22    9.62
  -6   8   7   64.60    9.58
   6  -8   7   57.32    8.84
   6   8   8  132.88   13.41
   6   8   8  132.60   13.54
  -6   8   8  143.05   14.19
   6  -8   8  132.35   13.63
   6  -8   9   17.56    4.89
   6   8   9   24.46    5.10
  -6   8   9   21.69    5.74
   6   8   9   25.34    5.86
   6  -8  10   45.92    8.22
  -6   8  10   40.35    8.08
   6   8  10   35.52    7.65
   6   8  10   19.78    5.97
   6   8  11   32.78    7.46
  -6   8  11   42.00    7.01
   6  -8  11   55.72    9.10
   6   8  11   35.99    6.89
   6  -8  12   56.65    9.05
   6   8  12   61.39    9.56
   6   8  12   49.15    8.49
  -6   8  12   58.34    9.24
   6   8  13   73.97   10.23
   6   8  13   55.21    9.13
  -6   8  14   39.18    7.71
   6   8  14   51.05    9.18
   6   8  14   29.37    6.65
  -6   8  15   30.26    7.23
   6   8  15   31.20    6.68
   6   8  15   16.37    5.04
   6   8  16   31.72    7.01
   6   8  16   34.59    6.82
  -6   8  16   41.31    7.70
   6   8  17   23.92    5.87
   6   8  17   29.06    7.21
  -6   8  17   13.73    3.93
   6   8  18   75.29   11.22
   6   8  18   49.80    9.36
  -6   8  18   56.50    9.28
  -6   8  19   36.69    8.73
   6   8  19   21.56    5.69
  -6   8  20   21.45    6.26
   6   8  20   20.06    6.79
   6  -9 -17   -0.80    2.08
   6  -9 -17   -0.29    2.49
   6  -9 -16    1.02    4.18
   6  -9 -16    0.88    3.68
   6  -9 -15   -4.29    2.65
   6  -9 -15   -1.56    3.74
   6  -9 -14   13.20    4.14
   6   9 -14   15.60    7.15
   6  -9 -14   12.17    5.13
   6   9 -13    1.94    2.38
   6  -9 -13    2.78    2.65
   6  -9 -13    4.34    4.77
   6   9 -12   16.22    5.95
   6  -9 -12   24.71    6.78
   6   9 -11   -4.15    3.47
   6  -9 -11   -2.03    2.92
   6  -9 -11    2.73    2.53
   6   9 -10    7.59    3.01
   6  -9 -10    8.42    3.87
   6  -9 -10    9.14    3.80
   6   9  -9    9.29    4.92
   6  -9  -9    9.70    4.19
   6  -9  -9   10.71    4.07
   6  -9  -8   13.57    4.87
   6   9  -8    8.44    4.03
  -6   9  -8   17.52    5.27
   6  -9  -8    6.60    1.67
   6  -9  -7    3.21    2.90
   6  -9  -7   10.88    4.42
  -6   9  -7    0.73    2.53
   6   9  -7   10.65    4.08
   6   9  -6   27.19    5.85
  -6   9  -6   15.23    4.05
   6  -9  -6   28.43    6.29
   6  -9  -6   19.79    5.02
   6  -9  -5   14.68    5.39
   6   9  -5   10.87    4.18
  -6   9  -5   10.79    4.30
   6  -9  -5   11.31    5.33
   6   9  -4    8.85    4.29
  -6   9  -4    0.93    2.17
   6  -9  -4    8.71    4.84
   6  -9  -4    2.54    4.36
  -6   9  -3   14.75    4.80
   6   9  -3    7.21    4.45
   6  -9  -3    5.12    1.93
   6  -9  -3   10.80    3.70
   6   9  -3    9.09    4.24
   6   9  -2   -1.40    2.25
  -6   9  -2   -1.48    3.09
   6   9  -2   -0.18    1.86
   6  -9  -2    3.43    3.00
   6   9  -1   26.90    6.91
  -6   9  -1   17.70    5.01
   6   9  -1   30.57    7.06
   6  -9  -1   18.87    5.69
  -6   9   0   25.90    5.98
   6   9   0   18.18    4.79
   6   9   0   12.53    5.02
   6  -9   0   17.10    5.76
  -6   9   1   21.07    5.86
   6   9   1   25.97    6.30
   6   9   1   30.42    6.41
   6  -9   1   31.70    7.33
   6   9   2   -1.80    2.98
   6   9   2    2.54    3.68
  -6   9   2    0.88    1.96
   6   9   3    7.69    2.63
   6  -9   3   15.20    4.68
  -6   9   3   12.16    3.29
   6   9   3    7.86    3.30
  -6   9   4    8.06    4.18
   6   9   4    0.75    1.46
   6   9   4    8.09    4.38
   6  -9   4   -1.13    2.01
   6   9   5   19.52    5.20
  -6   9   5   13.88    4.27
   6   9   5   11.63    4.33
   6  -9   5   15.21    4.56
   6   9   6   24.93    5.96
  -6   9   6   29.96    6.92
   6   9   6   31.92    6.69
   6  -9   6   28.19    7.10
   6   9   7    9.27    3.67
  -6   9   7    7.52    4.26
   6   9   7   11.44    4.68
   6  -9   7   10.25    4.72
   6   9   8   19.54    5.66
  -6   9   8   15.14    5.55
   6   9   8   21.78    6.31
   6  -9   8   23.42    6.67
   6   9   9    8.03    4.69
  -6   9   9    9.29    3.89
   6   9   9   14.33    5.95
   6  -9   9   13.28    5.31
   6   9  10    4.72    2.95
   6   9  10   13.50    5.44
  -6   9  10    8.41    3.77
   6  -9  10    7.05    3.98
   6   9  11    0.74    1.83
   6   9  11   -3.64    3.97
  -6   9  11   -1.77    2.90
   6   9  12   45.80    8.94
   6   9  12   27.27    7.20
  -6   9  12   25.17    6.66
   6   9  13    0.35    2.16
   6   9  13    1.46    4.00
  -6   9  13   -0.51    2.02
  -6   9  14   13.92    5.49
   6   9  14   14.35    5.18
   6   9  14   28.42    7.03
   6   9  15    0.78    3.34
   6   9  15    3.41    1.43
  -6   9  15   -1.35    2.29
   6   9  16    5.61    4.06
   6   9  16   -2.81    4.62
  -6   9  16   -2.18    2.72
   6   9  17    4.89    3.39
   6   9  17   -1.13    2.35
  -6   9  17    6.02    4.72
   6 -10 -13    2.53    2.82
   6 -10 -13    7.99    4.96
   6  10 -12   16.53    5.55
   6 -10 -12   14.25    5.22
   6  10 -11   -0.90    2.30
   6 -10 -11    5.88    3.40
   6  10 -10    1.96    3.70
   6 -10 -10   -2.26    2.75
   6 -10 -10    7.40    5.00
   6  10  -9   20.61    5.51
   6 -10  -9    9.68    5.01
   6  10  -8   42.51    8.53
   6 -10  -8   44.11    9.13
   6  10  -7   10.45    5.36
  -6  10  -7    5.83    3.36
   6 -10  -7    7.50    4.20
   6  10  -6   13.52    5.67
  -6  10  -6   17.02    6.04
   6 -10  -6    8.71    3.35
   6  10  -5   32.79    7.40
  -6  10  -5   30.22    7.06
   6 -10  -5   27.64    7.45
  -6  10  -4   48.29    8.97
   6  10  -4   38.04    6.71
   6 -10  -4   36.26    8.02
   6  10  -3   12.74    5.05
  -6  10  -3   12.32    5.37
   6 -10  -3   14.34    4.99
   6  10  -2   38.56    7.93
  -6  10  -2   62.02   10.33
   6 -10  -2   58.08    9.70
   6  10  -1    9.58    3.98
  -6  10  -1    8.91    4.88
   6  10  -1    9.32    5.22
   6 -10  -1   19.67    5.95
   6  10   0    8.42    5.19
   6  10   0    1.80    1.70
  -6  10   0    1.03    2.24
   6 -10   0    4.05    2.32
   6  10   1    9.95    4.26
  -6  10   1   22.06    7.19
   6  10   1   21.45    6.96
   6 -10   1   12.92    5.15
   6  10   2   50.17    8.16
   6  10   2   48.33    9.51
  -6  10   2   46.22    8.30
   6 -10   2   42.16    8.88
  -6  10   3    7.06    3.98
   6  10   3    3.68    3.79
   6 -10   3   15.85    5.70
   6  10   3   18.54    6.13
   6  10   4   40.53    8.27
  -6  10   4   37.48    7.50
   6  10   4   33.27    7.21
   6 -10   4   32.99    8.02
   6  10   5   28.57    6.27
  -6  10   5   28.57    6.88
   6  10   5   26.15    6.50
   6 -10   5   22.96    7.40
   6  10   6   18.35    5.54
  -6  10   6    6.33    4.14
   6 -10   6   12.63    4.78
   6  10   7    3.65    3.22
   6 -10   7    6.40    3.45
  -6  10   7    8.58    4.18
   6  10   7   10.58    4.96
   6  10   8   45.73    8.67
  -6  10   8   51.69    9.07
   6  10   8   50.70    8.87
   6 -10   8   50.16    9.46
   6  10   9    5.94    2.78
   6  10   9    8.37    5.76
   6 -10   9   11.27    6.16
   6  10  10   13.41    5.95
  -6  10  10    2.90    1.95
   6  10  10   10.38    5.12
   6  10  11   14.14    6.06
  -6  10  11   21.89    6.36
   6  10  11   14.03    4.95
   6  10  12   14.02    4.40
  -6  10  12   15.09    4.97
   6  10  13    5.66    3.44
   6  10  13    3.07    1.62
  -6  10  13    9.11    3.88
   6  11  -5   13.58    5.06
  -6  11  -5    1.87    2.75
   6 -11  -5    7.94    4.90
   6  11  -4    6.06    4.18
  -6  11  -4   -0.53    2.32
   6 -11  -4    0.26    3.57
   6  11  -3    5.46    4.06
  -6  11  -3    2.27    4.03
   6 -11  -3    7.83    3.27
   6  11  -2    0.91    2.81
   6 -11  -2    7.63    4.59
   6  11  -1   11.26    4.84
  -6  11  -1   11.84    4.74
   6 -11  -1   17.64    5.14
   6  11   0    9.77    3.19
  -6  11   0    9.04    4.87
   6  11   0    5.45    4.83
   6 -11   0    9.22    4.61
   6  11   1   17.37    5.71
  -6  11   1   14.68    5.79
   6  11   1    4.50    4.16
   6 -11   1    8.14    4.86
   6  11   2    0.74    2.91
  -6  11   2   -0.26    2.86
   6  11   2   -0.28    3.69
   6 -11   2    3.37    2.66
   6  11   3    7.09    4.59
   6  11   3   12.36    5.91
  -6  11   3    3.35    2.91
   6 -11   3    8.92    3.47
   6  11   4    5.89    3.79
  -6  11   4    4.48    3.59
   6 -11   4    4.49    3.83
   6  11   5    8.98    4.59
  -6  11   5    4.75    3.09
   6  11   5   16.76    6.81
   6 -11   5    3.04    3.29
   7   0 -28    6.13    6.12
   7   0 -27    2.71    2.84
   7   0 -26   -2.21    2.71
   7   0 -25    1.96    2.42
   7   0 -24   -4.21    4.70
   7   0 -23   -1.06    1.64
   7   0 -22    5.63    3.55
   7   0 -21    0.14    2.66
   7   0 -20    0.55    1.95
   7   0 -19    0.12    2.33
   7   0 -18    0.21    2.35
   7   0 -17    0.77    2.80
   7   0 -16    1.25    2.44
   7   0 -15    2.47    2.78
   7   0 -14   -0.17    0.55
   7   0 -14   -0.70    2.21
   7   0 -13   -0.02    1.37
   7   0 -13    3.42    1.89
   7   0 -12    0.01    1.59
   7   0 -12    2.28    2.09
   7   0 -11    0.15    1.06
   7   0 -11    0.24    1.17
   7   0 -10    0.17    0.90
   7   0 -10   -0.49    1.80
   7   0  -9    0.88    1.20
   7   0  -9    3.10    1.02
   7   0  -8   -0.54    1.69
   7   0  -8   -0.12    1.27
   7   0  -8   -0.35    1.57
   7   0  -7    1.26    1.31
   7   0  -7    0.57    1.66
   7   0  -7    0.18    1.81
   7   0  -6   -0.24    1.23
   7   0  -6    0.48    1.91
   7   0  -6   -0.18    1.86
   7   0  -5   -0.10    0.95
   7   0  -5    0.83    1.39
   7   0  -5   -0.30    1.30
   7   0  -4    0.10    1.47
   7   0  -4   -0.41    0.67
   7   0  -4    0.12    0.94
   7   0  -3   -0.05    1.04
   7   0  -3   -0.15    0.89
   7   0  -3   -0.16    1.63
   7   0  -2    0.02    1.54
   7   0  -2    0.06    1.32
   7   0  -2   -0.35    1.49
   7   0  -1    2.08    1.73
   7   0  -1   -0.09    0.64
   7   0  -1    1.28    1.75
   7   0   0   -0.28    1.51
   7   0   0   -0.10    0.70
   7   0   1    1.36    1.62
   7   0   1   -1.16    1.58
   7   0   2    1.41    0.79
   7   0   2   -0.63    1.05
   7   0   3    1.76    0.94
   7   0   3    0.52    1.30
   7   0   4    0.68    0.83
   7   0   4    0.94    0.59
   7   0   5    0.94    2.37
   7   0   5   -0.25    1.05
   7   0   6    1.55    1.53
   7   0   6    0.47    0.84
   7   0   7    0.22    0.85
   7   0   7    0.30    0.69
   7   0   8    0.54    0.77
   7   0   8   -0.30    1.13
   7   0   9    1.01    2.32
   7   0   9    1.37    0.88
   7   0  10    0.12    1.57
   7   0  10    0.31    1.11
   7   0  11    0.04    0.92
   7   0  11   -0.21    0.59
   7   0  12   -0.30    1.34
   7   0  12   -0.83    1.05
   7   0  13   -0.98    2.00
   7   0  13   -0.69    1.00
   7   0  14    2.81    2.97
   7   0  15   -0.11    2.73
   7   0  16   -0.25    1.65
   7   0  17   -0.09    1.66
   7   0  18    0.22    1.80
   7   0  19    2.00    2.10
   7   0  20   -1.21    1.91
   7   0  21    0.73    1.72
   7   0  22    0.06    2.00
   7   0  23   -1.50    2.09
   7  -1 -29   -3.03    2.57
   7  -1 -28  114.35   13.26
   7  -1 -27    2.21    2.16
   7  -1 -26    3.96    2.34
   7  -1 -25   33.55    7.28
   7   1 -24  236.74   18.72
   7  -1 -24  242.25   18.77
   7   1 -23   19.75    5.45
   7  -1 -23   15.74    5.08
   7   1 -22   72.21    9.35
   7  -1 -22  102.72   12.06
   7   1 -21   44.74    7.49
   7  -1 -21   59.26    8.91
   7   1 -20  111.11   11.57
   7  -1 -20  118.13   12.22
   7  -1 -19   95.96   10.73
   7   1 -19   80.42    9.40
   7   1 -18   83.14    9.53
   7  -1 -18   86.21    9.91
   7   1 -17   63.01    8.31
   7  -1 -17   66.74    8.62
   7   1 -16  536.24   23.53
   7  -1 -16  636.89   26.45
   7   1 -15  156.20   12.21
   7  -1 -15  132.93   12.13
   7  -1 -15  120.13   10.06
   7   1 -14 1156.59   32.91
   7  -1 -14 1112.23   33.89
   7  -1 -13   68.02    8.65
   7   1 -13   84.43    8.54
   7  -1 -13   83.14    8.17
   7   1 -13   82.74    8.60
   7   1 -12  150.44    8.57
   7   1 -12  153.15   11.21
   7  -1 -12  158.43   12.29
   7   1 -12  148.81   11.34
   7  -1 -12  143.20   10.05
   7   1 -11  183.63    9.53
   7   1 -11  214.97   13.01
   7  -1 -11  212.04   13.85
   7  -1 -11  197.91   11.93
   7   1 -11  195.00   12.61
   7   1 -10   92.76    6.85
   7   1 -10   91.54    8.41
   7  -1 -10   93.75    9.03
   7   1 -10   91.90    8.68
   7  -1 -10   89.96    8.07
   7   1  -9   18.31    3.92
   7  -1  -9   15.73    3.23
   7   1  -9   14.60    2.62
   7  -1  -9    9.40    3.11
   7   1  -9   11.21    2.73
   7  -1  -8  162.34   10.54
   7   1  -8  163.90    9.36
   7  -1  -8  174.87   12.13
   7   1  -8  160.48   10.66
   7   1  -8  169.28   11.35
   7   1  -7  176.19   11.14
   7  -1  -7  206.88   12.16
   7   1  -7  190.15   10.09
   7  -1  -7  203.33   12.96
   7   1  -7  184.51   11.92
   7  -1  -6  339.32   15.40
   7   1  -6  357.74   14.04
   7   1  -6  382.74   16.26
   7  -1  -6  359.19   17.04
   7   1  -6  400.79   17.27
   7  -1  -5  457.17   17.80
   7   1  -5  488.44   16.51
   7  -1  -5  443.98   18.64
   7   1  -5  493.64   18.01
   7   1  -5  474.21   18.35
   7  -1  -4  329.55   14.89
   7   1  -4  345.63   13.97
   7  -1  -4  339.65   16.21
   7   1  -4  338.76   14.87
   7   1  -4  300.46   14.83
   7   1  -3  602.98   18.71
   7  -1  -3  585.41   19.78
   7   1  -3  595.56   19.52
   7  -1  -3  567.25   20.80
   7   1  -3  639.84   20.88
   7  -1  -2 1181.24   28.26
   7  -1  -2 1133.86   29.35
   7   1  -2 1169.31   27.55
   7   1  -2 1124.99   25.92
   7  -1  -1   26.43    4.16
   7   1  -1   33.10    4.82
   7  -1  -1   28.14    4.81
   7   1  -1   20.74    3.72
   7   1   0   -0.12    1.18
   7   1   0    1.77    0.97
   7  -1   0    0.55    1.05
   7  -1   1   32.01    4.99
   7  -1   1   29.17    4.71
   7   1   1   29.92    4.29
   7   1   1   23.16    4.00
   7   1   2 1142.01   27.67
   7  -1   2 1191.99   28.93
   7   1   2 1173.26   27.02
   7   1   3  628.40   20.78
   7   1   3  589.95   19.08
   7  -1   3  590.85   20.45
   7   1   4  344.44   15.51
   7  -1   4  296.11   14.52
   7   1   4  326.69   14.01
   7   1   5  503.66   19.09
   7  -1   5  460.66   18.48
   7   1   5  479.07   16.78
   7   1   6  371.16   16.76
   7  -1   6  405.49   17.36
   7   1   6  372.75   14.91
   7   1   7  196.18   12.29
   7   1   7  190.47   10.50
   7  -1   7  186.96   12.02
   7   1   8  174.67   11.99
   7  -1   8  166.00   11.41
   7   1   8  179.24   10.02
   7   1   9   13.87    2.78
   7   1   9   16.78    3.89
   7  -1   9   20.52    4.33
   7   1  10   89.61    8.78
   7  -1  10   75.79    7.74
   7   1  10  105.43    7.65
   7   1  11  224.63   14.07
   7  -1  11  189.17   12.72
   7   1  11  192.40   10.39
   7   1  12  156.37   12.14
   7   1  12  151.83    9.16
   7  -1  12  166.27   12.09
   7   1  13   58.21    7.73
   7  -1  13   81.80    8.74
   7   1  13   73.94    6.24
   7   1  14 1096.90   33.63
   7  -1  14 1151.00   33.02
   7   1  14 1077.02   23.70
   7   1  15  131.53   11.71
   7  -1  15  143.04   11.78
   7   1  16  738.88   28.01
   7  -1  16  613.63   25.31
   7   1  17   66.70    9.03
   7  -1  17   58.72    7.83
   7   1  18   66.42    8.80
   7  -1  18   87.73    9.83
   7   1  19   92.50   10.72
   7  -1  19   68.91    9.01
   7   1  20  132.73   13.27
   7  -1  20  108.04   11.55
   7  -1  21   36.61    6.50
   7   1  21   54.77    8.70
   7   1  22   93.74   11.24
   7   1  23   11.33    4.15
   7   1  24  237.23   19.04
   7  -2 -28    9.40    4.44
   7  -2 -27   -3.49    2.84
   7  -2 -26   -1.18    2.59
   7  -2 -25   29.87    7.32
   7  -2 -24   16.01    5.78
   7  -2 -23   22.43    5.85
   7  -2 -22    9.36    3.17
   7  -2 -21   41.94    7.76
   7  -2 -20   17.52    4.93
   7   2 -19    4.67    3.62
   7  -2 -19    1.15    2.20
   7   2 -18   97.26   10.24
   7   2 -17   46.91    6.87
   7  -2 -17   56.40    8.49
   7   2 -17   51.98    7.61
   7   2 -16  593.42   23.43
   7  -2 -16  641.81   27.34
   7  -2 -16  614.06   24.60
   7   2 -16  608.74   25.27
   7   2 -15  161.56   11.66
   7  -2 -15  150.94   13.04
   7  -2 -15  127.31   10.90
   7   2 -15  130.52   11.38
   7   2 -14  160.20   11.87
   7  -2 -14  155.21   12.86
   7  -2 -14  144.60   11.51
   7   2 -14  160.33   12.58
   7   2 -13  108.07    9.29
   7  -2 -13  110.82   10.12
   7   2 -13   94.59    9.25
   7   2 -12  241.07   13.65
   7  -2 -12  236.31   15.98
   7  -2 -12  244.77   14.55
   7   2 -12  269.21   15.62
   7   2 -11   17.83    4.10
   7  -2 -11   16.89    3.72
   7  -2 -11    8.93    2.39
   7   2 -11   21.55    3.56
   7   2 -11   18.55    3.71
   7  -2 -10   88.84    9.05
   7   2 -10   78.06    5.84
   7   2 -10   70.34    7.21
   7   2 -10   74.70    7.73
   7  -2 -10   67.55    7.53
   7   2  -9  203.09   11.49
   7   2  -9  197.44   12.77
   7   2  -9  208.67   10.17
   7  -2  -9  220.21   14.19
   7  -2  -9  203.33   12.91
   7  -2  -8  510.91   20.28
   7   2  -8  530.80   16.19
   7   2  -8  512.71   18.16
   7  -2  -8  515.36   21.73
   7   2  -8  515.22   20.17
   7   2  -7   16.92    2.97
   7   2  -7   18.36    3.64
   7  -2  -7   22.72    4.30
   7  -2  -7   16.74    4.27
   7   2  -7   16.11    3.22
   7  -2  -6   53.60    6.27
   7   2  -6   47.76    5.23
   7  -2  -6   52.08    6.70
   7   2  -6   51.87    5.09
   7   2  -6   44.52    5.90
   7  -2  -5  279.68   14.54
   7  -2  -5  249.47   14.70
   7   2  -5  281.16   12.89
   7   2  -5  280.56   12.64
   7   2  -5  297.22   14.84
   7  -2  -4   46.34    6.11
   7  -2  -4   42.71    5.91
   7   2  -4   33.85    4.38
   7   2  -4   47.54    5.29
   7   2  -4   37.30    5.61
   7   2  -3  315.59   15.27
   7   2  -3  308.00   13.65
   7  -2  -3  279.98   14.73
   7  -2  -3  295.14   15.67
   7   2  -3  279.12   13.20
   7   2  -2  137.73    9.90
   7   2  -2  119.63    8.74
   7  -2  -2  123.20    9.64
   7  -2  -2  116.91    9.79
   7   2  -2  137.53    9.11
   7   2  -1    2.01    1.09
   7  -2  -1    2.64    1.95
   7   2  -1    1.25    1.35
   7  -2  -1    0.30    1.12
   7   2   0    3.70    2.22
   7  -2   0    0.34    1.27
   7   2   0    0.92    0.76
   7  -2   0    0.82    0.80
   7   2   1    2.15    1.69
   7  -2   1    2.38    1.63
   7   2   1    1.50    1.01
   7  -2   1    1.43    1.74
   7   2   2  116.47    9.00
   7   2   2  124.53    9.44
   7  -2   2  131.80   10.19
   7   2   3  276.56   13.71
   7   2   3  293.10   14.49
   7   2   4   42.53    5.43
   7   2   4   45.02    5.85
   7  -2   4   42.08    5.79
   7   2   5  262.43   13.17
   7   2   5  270.98   14.51
   7  -2   5  299.62   15.21
   7   2   6   49.12    5.79
   7   2   6   61.57    7.01
   7  -2   6   48.82    6.37
   7   2   7   15.51    3.31
   7  -2   7   15.63    3.35
   7   2   7   21.71    4.43
   7   2   8  502.93   18.25
   7   2   8  506.03   20.72
   7  -2   8  468.46   19.71
   7   2   9  217.31   11.91
   7   2   9  204.59   13.33
   7  -2   9  207.65   13.25
   7   2  10   80.07    7.17
   7   2  10   78.34    8.49
   7  -2  10   79.74    8.44
   7   2  11   17.78    3.59
   7  -2  11   19.13    4.33
   7   2  11   10.24    3.41
   7   2  12  253.41   12.96
   7   2  12  270.83   16.24
   7  -2  12  240.38   15.12
   7   2  13  106.85    8.27
   7   2  13  103.81   10.29
   7  -2  13   99.58    9.53
   7   2  14  159.10   10.34
   7   2  14  140.34   12.17
   7  -2  14  153.52   12.32
   7   2  15  141.20    9.76
   7   2  15  129.54   11.89
   7  -2  15  120.20   11.05
   7   2  16  583.88   25.67
   7  -2  16  543.89   23.73
   7   2  17   49.34    7.64
   7  -2  17   52.86    7.42
   7   2  18   94.99   10.62
   7  -2  18   79.31    9.30
   7   2  19    3.67    2.62
   7  -2  19   -2.90    3.25
   7   2  20   25.62    5.46
   7  -2  20   31.46    6.36
   7   2  21   32.96    7.12
   7   2  22   18.07    4.71
   7   2  23   45.28    8.75
   7   2  24   11.10    4.78
   7   2  25   23.28    5.96
   7  -3 -28   50.97    9.60
   7  -3 -27   10.02    4.06
   7  -3 -26   52.96    8.87
   7  -3 -25    0.92    2.97
   7  -3 -24  211.16   17.38
   7  -3 -23   20.51    6.31
   7  -3 -22    0.58    3.22
   7  -3 -21   -0.49    2.11
   7  -3 -20  287.60   19.91
   7  -3 -19   29.96    7.19
   7  -3 -18  600.46   27.47
   7  -3 -18  629.44   27.85
   7   3 -18  639.75   27.05
   7  -3 -17   27.82    6.25
   7  -3 -17   24.35    5.49
   7   3 -17   31.98    5.98
   7  -3 -16    6.94    3.57
   7  -3 -16    5.99    3.30
   7   3 -16   15.31    3.94
   7   3 -15   23.12    5.42
   7  -3 -15   33.74    6.82
   7  -3 -15   23.75    5.51
   7  -3 -14 1361.59   39.68
   7   3 -14 1383.21   37.71
   7   3 -13    0.66    1.74
   7  -3 -13    1.64    1.64
   7  -3 -13    3.64    1.08
   7  -3 -12 1282.04   36.00
   7  -3 -12 1370.80   38.57
   7   3 -12 1335.65   36.13
   7   3 -12 1301.54   29.46
   7   3 -11  118.24    8.75
   7  -3 -11   98.15   10.24
   7  -3 -11  104.07   10.41
   7   3 -11   97.27    9.62
   7  -3 -10   60.76    7.65
   7   3 -10   51.90    6.70
   7  -3 -10   48.62    6.84
   7   3  -9   32.52    4.44
   7  -3  -9   26.23    4.87
   7   3  -9   24.51    3.52
   7  -3  -9   33.16    5.44
   7   3  -9   35.10    5.58
   7   3  -8 1176.46   25.18
   7  -3  -8 1188.68   34.31
   7   3  -8 1194.62   25.09
   7  -3  -8 1162.29   32.18
   7   3  -8 1144.14   32.39
   7   3  -7   21.47    4.69
   7  -3  -7   24.45    4.81
   7   3  -7   24.09    3.61
   7  -3  -7   27.74    5.05
   7   3  -7   24.25    3.89
   7   3  -6  714.36   24.94
   7   3  -6  748.09   21.22
   7   3  -6  721.01   19.39
   7  -3  -6  719.75   26.37
   7  -3  -6  715.50   25.05
   7   3  -5   74.82    7.85
   7  -3  -5   69.40    7.81
   7   3  -5   75.77    6.74
   7  -3  -5   62.51    7.86
   7   3  -5   66.89    5.88
   7   3  -4    6.52    2.65
   7  -3  -4   11.36    3.57
   7   3  -4    8.85    2.39
   7   3  -4    4.99    2.23
   7  -3  -4    2.44    1.87
   7   3  -3   26.91    4.96
   7  -3  -3   27.32    4.95
   7   3  -3   23.74    4.22
   7  -3  -3   31.17    5.21
   7   3  -3   26.13    3.93
   7  -3  -2 1161.99   31.26
   7   3  -2 1178.02   28.35
   7  -3  -2 1219.99   32.57
   7   3  -1   20.00    3.48
   7   3  -1   26.26    4.92
   7  -3  -1   22.21    4.62
   7  -3  -1   22.14    4.86
   7   3   0    0.89    1.61
   7   3   0   -0.67    1.70
   7  -3   0   -0.60    1.83
   7  -3   0    0.42    1.94
   7   3   1   20.59    4.17
   7   3   1   17.05    3.62
   7  -3   1   25.18    4.52
   7  -3   1   22.37    4.84
   7   3   2 1182.22   30.28
   7  -3   2 1129.09   31.02
   7   3   2 1180.32   30.43
   7  -3   2 1168.99   32.08
   7   3   3   24.02    4.40
   7  -3   3   36.69    5.52
   7  -3   3   31.99    5.29
   7   3   3   26.40    4.62
   7   3   4    5.34    2.23
   7   3   4    7.35    3.17
   7  -3   4    4.92    2.35
   7  -3   4    5.01    2.07
   7   3   5   53.10    6.39
   7  -3   5   62.99    7.31
   7   3   5   64.88    7.50
   7  -3   6  796.33   26.39
   7   3   6  756.72   25.69
   7   3   6  718.14   23.32
   7   3   7   25.86    4.85
   7   3   7   22.58    3.98
   7  -3   7   20.58    4.23
   7   3   8 1149.91   29.90
   7  -3   8 1229.60   33.16
   7   3   8 1170.82   32.77
   7   3   9   37.87    5.66
   7  -3   9   26.52    5.09
   7   3   9   31.52    6.22
   7   3  10   55.86    6.42
   7  -3  10   53.15    7.02
   7   3  10   50.24    7.31
   7   3  11  122.76    9.85
   7  -3  11  110.69   10.26
   7   3  11  104.09   10.23
   7   3  12 1288.85   31.95
   7  -3  12 1325.52   35.72
   7   3  12 1388.34   37.93
   7   3  13   10.72    3.32
   7   3  13    7.67    3.28
   7  -3  13    3.72    1.83
   7   3  14 1277.53   32.74
   7  -3  14 1306.03   36.80
   7   3  14 1332.78   38.38
   7   3  15   29.60    5.46
   7   3  15   29.07    6.27
   7  -3  15   21.69    4.69
   7   3  16    9.38    3.83
   7   3  16   15.51    4.08
   7  -3  16    8.81    4.03
   7   3  17   20.90    5.19
   7  -3  17   30.01    5.98
   7  -3  18  645.22   27.27
   7   3  18  642.85   28.20
   7   3  19   24.69    5.92
   7  -3  19   29.89    6.50
   7   3  20  299.38   19.79
   7   3  21    5.95    3.60
   7   3  22   -0.23    2.07
   7   3  23   14.73    4.86
   7   3  24  212.23   17.74
   7   3  25   -3.59    4.78
   7   3  26   38.06    8.01
   7  -4 -27   21.82    6.30
   7  -4 -26    4.16    2.84
   7  -4 -25    9.02    3.89
   7  -4 -24    3.04    3.20
   7  -4 -23    4.90    3.71
   7  -4 -22   48.24    8.74
   7  -4 -21   14.70    5.70
   7  -4 -20    3.14    3.00
   7  -4 -19  223.47   17.59
   7  -4 -19  207.80   18.00
   7  -4 -18  102.13   12.24
   7  -4 -18   91.19   11.16
   7   4 -18   84.95   10.63
   7   4 -17   15.02    4.08
   7  -4 -17   17.89    4.98
   7  -4 -17   28.61    6.71
   7   4 -16   23.62    5.52
   7  -4 -16   21.17    5.58
   7  -4 -16   24.13    5.41
   7  -4 -15   50.32    8.28
   7  -4 -15   39.95    7.27
   7   4 -15   53.57    7.87
   7  -4 -14  150.40   13.36
   7  -4 -14  159.67   13.99
   7   4 -14  159.43   13.03
   7  -4 -13  146.77   13.14
   7  -4 -13  139.28   12.63
   7   4 -13  113.93   10.86
   7   4 -12   30.78    5.61
   7  -4 -12   20.24    5.25
   7  -4 -12   20.96    5.24
   7  -4 -11  225.39   16.05
   7  -4 -11  191.38   14.58
   7   4 -11  227.65   15.33
   7  -4 -10   25.54    5.37
   7   4 -10   33.94    5.71
   7  -4 -10   34.98    6.31
   7  -4  -9    2.15    1.36
   7   4  -9    5.60    2.54
   7  -4  -9    5.78    2.78
   7   4  -8   73.36    8.30
   7   4  -8   72.35    6.80
   7  -4  -8   73.92    8.62
   7  -4  -8   78.44    9.32
   7   4  -7  575.73   23.54
   7   4  -7  600.59   19.53
   7  -4  -7  611.31   25.22
   7  -4  -7  595.35   24.14
   7   4  -6   63.95    7.87
   7   4  -6   60.67    6.48
   7  -4  -6   79.30    9.14
   7  -4  -6   62.41    7.91
   7   4  -5   10.63    2.63
   7  -4  -5    7.73    2.58
   7   4  -5   13.76    3.42
   7  -4  -5    3.66    2.11
   7   4  -5   13.30    2.55
   7   4  -4    9.09    2.72
   7   4  -4    8.47    2.35
   7  -4  -4    9.34    2.57
   7  -4  -4   11.95    3.96
   7   4  -4    8.78    2.31
   7  -4  -3   97.03    9.58
   7   4  -3  110.56    8.92
   7   4  -3   75.85    8.09
   7  -4  -3  102.36   10.06
   7   4  -3  102.66    7.21
   7   4  -2   11.34    2.76
   7  -4  -2   10.77    3.09
   7   4  -2   10.97    2.88
   7  -4  -2   12.74    3.95
   7   4  -1   16.36    3.81
   7  -4  -1   10.35    3.54
   7  -4  -1   10.51    3.14
   7   4  -1    9.27    2.58
   7   4   0    0.34    0.96
   7  -4   0    0.66    1.12
   7   4   0   -0.04    1.15
   7  -4   0    2.11    1.48
   7   4   1   10.68    3.69
   7  -4   1   15.44    3.71
   7   4   1    9.56    2.99
   7  -4   1    4.54    2.29
   7   4   2   10.13    3.23
   7  -4   2   20.66    4.71
   7   4   2   15.55    3.87
   7  -4   2    7.03    1.40
   7   4   3  120.54   10.14
   7  -4   3  106.79   10.30
   7   4   3  105.16    9.72
   7  -4   3  112.18   10.31
   7   4   4    7.65    2.90
   7  -4   4   13.35    4.07
   7   4   4    9.80    2.68
   7  -4   4    7.74    3.27
   7   4   5   10.16    3.25
   7  -4   5   13.07    4.26
   7   4   5    5.48    1.67
   7  -4   5    6.15    2.90
   7   4   6   59.12    7.10
   7  -4   6   83.62    8.91
   7   4   6   73.76    8.55
   7  -4   6   50.23    6.88
   7   4   7  582.32   22.80
   7  -4   7  591.26   24.03
   7   4   7  593.19   23.91
   7   4   8   81.77    8.39
   7  -4   8   63.25    8.06
   7   4   8   78.43    8.79
   7   4   9    8.84    3.11
   7   4   9    2.39    1.97
   7  -4   9    5.46    2.69
   7   4  10   33.47    5.58
   7  -4  10   32.21    5.30
   7   4  10   30.48    5.59
   7   4  11  250.40   15.18
   7  -4  11  261.44   16.16
   7   4  11  246.41   16.25
   7   4  12   20.99    4.52
   7  -4  12   27.85    5.46
   7   4  12   28.15    5.51
   7   4  13  122.30   10.86
   7  -4  13  100.83   10.53
   7   4  13  125.07   12.14
   7   4  14  133.50   11.49
   7  -4  14  153.92   12.79
   7   4  14  148.46   13.02
   7   4  15   64.07    8.11
   7  -4  15   47.37    7.84
   7   4  15   49.24    7.87
   7   4  16   19.58    4.72
   7   4  16   17.67    4.41
   7  -4  16   17.46    5.23
   7   4  17   21.83    5.83
   7  -4  17   12.78    4.13
   7  -4  18   83.16   10.00
   7   4  18   76.50    9.91
   7   4  19  233.40   17.65
   7   4  20    1.93    2.19
   7   4  21   19.51    6.08
   7   4  22   43.44    8.66
   7   4  23    0.50    1.89
   7   4  24    1.31    3.27
   7   4  25    5.38    4.00
   7   4  26    2.40    4.85
   7   4  27   20.13    6.93
   7  -5 -26    1.46    3.60
   7  -5 -25   14.18    5.67
   7  -5 -24  124.08   14.02
   7  -5 -23   -3.62    3.22
   7  -5 -22   91.18   11.49
   7  -5 -21    9.86    4.91
   7  -5 -20   13.23    4.23
   7  -5 -20   13.15    4.58
   7  -5 -19   52.58    8.83
   7  -5 -19   58.80    9.53
   7  -5 -18  347.09   21.87
   7  -5 -18  316.45   21.37
   7  -5 -17   94.36   11.28
   7  -5 -17   98.39   11.34
   7   5 -17   97.62   11.72
   7   5 -16   -0.69    1.94
   7  -5 -16    1.58    2.24
   7   5 -15   14.31    4.03
   7  -5 -15   20.44    5.46
   7  -5 -15   12.36    4.41
   7  -5 -14    5.15    1.91
   7   5 -14   11.87    4.22
   7   5 -13   -0.20    1.40
   7  -5 -13    0.51    1.67
   7  -5 -13   -1.91    1.86
   7   5 -12  261.39   17.33
   7  -5 -12  289.30   19.00
   7   5 -11   55.68    8.28
   7  -5 -11   45.96    7.66
   7  -5 -11   39.73    7.21
  -7   5 -10   12.00    3.34
   7   5 -10    7.43    3.49
   7  -5 -10   10.47    3.64
   7  -5 -10   11.33    4.26
   7  -5  -9   13.47    4.42
  -7   5  -9   16.76    4.41
   7   5  -9   17.22    3.99
   7  -5  -9   18.91    4.46
   7  -5  -8  305.14   18.33
   7   5  -8  358.67   19.41
  -7   5  -8  312.15   16.83
   7  -5  -8  326.52   19.22
   7   5  -7   82.90    9.38
   7   5  -7   69.45    7.46
   7  -5  -7   70.23    8.79
   7  -5  -7   65.79    8.53
   7  -5  -6    7.68    2.82
   7   5  -6   18.64    4.24
   7   5  -6   12.65    3.25
   7  -5  -6   16.62    4.12
   7   5  -5   36.15    6.18
   7  -5  -5   43.20    7.21
   7  -5  -5   44.36    7.40
   7   5  -5   36.96    5.24
   7   5  -4   65.47    8.07
   7  -5  -4   68.51    8.66
   7   5  -4   71.32    7.72
   7  -5  -4   54.26    7.51
   7   5  -3   70.90    8.40
   7  -5  -3   72.30    8.55
   7   5  -3   70.50    7.72
   7  -5  -3   80.57    9.13
   7   5  -2  321.41   17.73
   7  -5  -2  278.99   17.23
   7   5  -2  317.73   16.78
   7  -5  -2  332.81   18.47
   7  -5  -1   18.96    5.48
   7   5  -1    9.18    3.05
   7   5  -1   12.58    3.41
   7  -5  -1    2.70    1.49
   7  -5   0    1.66    1.39
   7   5   0    2.59    1.75
   7   5   0    0.03    1.42
   7  -5   0    1.45    2.38
   7  -5   1    9.16    4.04
   7   5   1   15.99    4.50
   7   5   1   14.11    4.17
   7  -5   1    4.53    2.39
   7  -5   2  345.14   19.22
   7   5   2  340.36   18.38
   7  -5   2  317.86   18.14
   7   5   2  340.60   18.31
   7  -5   3   86.80    9.61
   7   5   3   70.73    8.40
   7  -5   3   75.56    8.71
   7   5   3   66.52    8.16
   7  -5   4   50.21    7.23
   7   5   4   59.81    7.64
   7  -5   4   69.01    8.83
   7   5   4   60.31    7.80
   7  -5   5   46.98    7.10
   7  -5   5   46.94    7.16
   7   5   5   48.14    7.25
   7   5   5   35.67    6.14
   7  -5   6   15.26    4.04
   7   5   6   18.82    5.02
   7  -5   6   13.00    3.83
   7   5   6   16.24    4.77
   7  -5   7   64.33    7.96
   7   5   7   87.13    9.46
   7  -5   7   65.55    8.46
   7   5   7   83.49    9.72
   7  -5   8  305.87   18.17
   7   5   8  322.22   18.21
   7  -5   8  312.85   18.31
   7   5   8  347.93   19.32
   7   5   9   11.09    4.75
   7  -5   9   12.58    3.98
   7   5   9   17.25    4.11
   7  -5   9   16.21    4.10
   7   5  10   11.04    3.63
   7   5  10    9.29    3.98
   7  -5  10    6.26    3.37
   7  -5  10    9.34    3.67
   7  -5  11   56.33    7.95
   7   5  11   56.07    7.20
   7   5  11   39.31    6.56
   7   5  12  253.87   16.81
   7   5  12  264.14   17.89
   7   5  13   -1.31    3.42
   7  -5  13    1.69    2.86
   7   5  13    1.21    2.01
   7   5  14   16.74    4.46
   7  -5  14   15.01    4.59
   7   5  14    9.68    2.77
   7   5  15   14.22    4.25
   7  -5  15   16.24    5.60
   7   5  15   15.63    3.56
   7   5  16   -3.70    4.53
   7  -5  16    3.62    1.93
   7   5  16   -0.78    3.47
   7   5  17   95.62   10.86
   7   5  17   98.18   11.84
   7   5  18  289.42   20.21
   7   5  19   66.11    9.73
   7   5  20   10.28    4.01
   7   5  21   14.55    4.76
   7   5  22   93.36   12.14
   7   5  23   -0.81    3.86
   7   5  24  101.09   13.12
   7   5  25    1.83    4.34
   7   5  26   -2.44    3.17
   7  -6 -24   -4.10    3.75
   7  -6 -23   20.70    5.62
   7  -6 -22   -1.54    3.09
   7  -6 -21   20.44    6.50
   7  -6 -21   18.55    4.68
   7  -6 -20    1.97    3.25
   7  -6 -20   -1.43    2.85
   7  -6 -19   16.64    5.59
   7  -6 -19    5.16    3.25
   7  -6 -18   -0.72    2.91
   7  -6 -18    6.40    4.32
   7  -6 -17   -0.66    2.23
   7  -6 -17    0.04    1.61
   7   6 -16   -2.35    2.42
   7  -6 -16   -0.16    2.70
   7  -6 -16   -4.49    1.43
   7  -6 -15    7.44    3.92
   7   6 -15    7.02    1.74
   7  -6 -15    4.78    2.89
   7   6 -14   14.27    5.07
   7  -6 -14   20.01    5.54
   7  -6 -14   16.88    5.32
   7   6 -13   39.21    6.97
   7  -6 -13   58.74    8.82
   7  -6 -13   44.10    7.69
   7   6 -12   18.17    4.25
   7  -6 -12   12.97    3.83
   7  -6 -12   21.14    6.08
   7   6 -11   13.75    3.41
   7  -6 -11   13.62    4.31
   7  -6 -11   18.31    4.54
   7   6 -10   17.68    5.47
   7  -6 -10   12.70    3.70
   7  -6 -10    9.88    4.05
   7   6  -9    2.07    1.72
  -7   6  -9    1.97    1.81
   7  -6  -9    9.94    4.18
   7  -6  -9    9.83    4.63
   7  -6  -8    1.72    1.69
   7   6  -8    1.91    1.68
  -7   6  -8   -2.16    2.41
   7  -6  -8    3.66    1.15
  -7   6  -7    8.26    3.53
   7   6  -7    5.76    2.86
   7  -6  -7   10.75    3.36
   7  -6  -7    4.21    3.13
   7  -6  -6   -0.08    2.75
   7   6  -6    4.80    3.32
   7   6  -6    0.96    1.18
  -7   6  -6    4.99    3.29
   7  -6  -6    3.12    2.09
   7  -6  -5   52.88    8.23
   7   6  -5   44.78    7.51
  -7   6  -5   39.75    7.00
   7   6  -5   47.58    6.56
   7  -6  -5   45.82    7.61
   7  -6  -4   27.26    5.82
   7   6  -4   15.29    3.79
   7  -6  -4   24.61    5.46
   7   6  -4   20.79    4.53
  -7   6  -4   18.56    5.07
   7  -6  -3   10.93    3.53
   7   6  -3    6.18    2.75
   7  -6  -3   14.26    4.61
   7   6  -3    4.11    2.72
   7  -6  -2   28.59    5.97
   7   6  -2   30.84    6.35
   7  -6  -2   30.45    6.53
   7   6  -2   13.17    4.15
   7  -6  -1   19.28    5.35
   7   6  -1   26.43    5.61
   7  -6  -1   17.60    4.50
   7   6  -1   14.49    4.13
   7   6   0    2.05    1.54
   7  -6   0    7.22    4.72
   7   6   0    1.03    1.90
   7  -6   0    0.01    2.60
   7   6   1   18.43    4.78
   7  -6   1   19.30    4.64
   7   6   1   16.89    3.96
   7  -6   1   12.34    3.73
   7   6   2   35.05    6.15
   7  -6   2   26.12    5.75
   7   6   2   31.80    6.48
   7  -6   2   30.15    6.08
   7   6   3    5.96    3.26
   7  -6   3    8.01    3.03
   7   6   3    5.40    3.68
   7  -6   3    8.51    3.68
   7   6   4   20.95    5.46
   7  -6   4   16.50    4.23
   7   6   4   12.16    3.91
   7  -6   4   18.89    5.60
   7   6   5   34.89    7.10
   7   6   5   57.78    8.26
   7  -6   5   42.42    7.49
   7  -6   5   54.32    8.00
   7   6   6    5.77    3.22
   7  -6   6    4.22    3.17
   7   6   6    3.74    3.17
   7  -6   6    5.56    4.05
   7   6   7    5.16    2.72
   7  -6   7    6.56    3.62
   7   6   7    7.16    3.15
   7  -6   7    4.44    3.47
   7   6   8    0.32    1.12
   7  -6   8    1.58    1.89
   7   6   8    1.94    2.53
   7  -6   8    3.38    3.52
   7   6   9    2.80    1.62
   7  -6   9    3.32    2.97
   7  -6   9    2.26    3.07
   7   6   9    2.82    2.49
   7   6  10   16.51    4.13
   7  -6  10   21.92    5.74
   7   6  10    6.88    3.05
   7  -6  10   15.64    3.07
   7   6  11   26.41    5.70
   7  -6  11   27.19    6.20
   7   6  11   21.49    4.92
   7  -6  11   25.44    6.63
   7  -6  12   16.70    4.74
   7   6  12    8.64    3.73
   7  -6  12    6.88    4.04
   7   6  12   14.37    5.06
   7  -6  13   39.65    7.06
   7  -6  13   45.79    8.33
   7   6  13   39.32    6.74
   7   6  13   46.56    8.24
   7  -6  14   15.54    4.30
   7   6  14   17.93    5.45
   7   6  14   14.09    3.72
   7  -6  14   18.94    4.86
   7  -6  15    9.38    3.71
   7   6  15   10.28    4.57
   7   6  15    5.87    2.69
   7   6  16    1.35    3.85
   7   6  16    0.98    2.66
   7   6  17    6.44    3.36
   7   6  17    1.06    2.90
   7   6  18    4.21    3.48
   7   6  19    6.94    3.43
   7   6  20    2.44    3.36
   7   6  21   25.43    6.28
  -7   6  21   18.92    6.02
   7   6  22   -0.66    2.40
  -7   6  22    5.74    4.71
   7   6  23    5.05    3.54
  -7   6  23    2.32    4.25
   7   6  24    4.51    4.72
  -7   6  24    0.72    4.38
   7  -7 -22   54.94   11.52
   7  -7 -22   24.66    6.33
   7  -7 -21   11.99    5.47
   7  -7 -21    5.24    2.44
   7  -7 -20   48.16    8.62
   7  -7 -20   33.85    7.34
   7  -7 -19    5.09    2.07
   7  -7 -19   -2.86    3.23
   7  -7 -18  169.71   16.69
   7  -7 -18  162.04   17.07
   7  -7 -17   20.34    5.91
   7  -7 -17   17.38    5.29
   7   7 -16   19.39    7.34
   7  -7 -16    6.62    4.28
   7  -7 -16    9.48    4.84
   7   7 -15    0.72    2.71
   7  -7 -15   -1.54    2.03
   7  -7 -15    2.09    3.03
   7   7 -14   46.25    8.25
   7  -7 -14   58.60    8.85
   7  -7 -14   38.08    7.31
   7   7 -13   12.31    4.22
   7  -7 -13    9.26    3.86
   7  -7 -13    7.40    3.84
   7  -7 -12  246.09   18.60
   7  -7 -12  213.91   18.15
   7   7 -11   11.17    4.88
   7  -7 -11   10.78    4.86
   7  -7 -11    1.87    3.25
   7   7 -10    1.95    3.30
   7  -7 -10   -0.98    2.71
   7  -7 -10    2.20    2.19
   7   7  -9    7.02    4.20
  -7   7  -9    8.28    2.76
   7  -7  -9    0.43    1.27
   7  -7  -9    5.05    1.71
   7   7  -8  335.53   20.62
  -7   7  -8  338.46   20.40
   7  -7  -8  363.01   21.37
   7  -7  -8  307.30   20.77
   7   7  -7   13.66    4.41
   7  -7  -7   11.75    4.34
   7  -7  -7   20.26    5.73
  -7   7  -7    8.94    3.63
   7   7  -6   44.15    7.43
  -7   7  -6   44.45    7.87
   7  -7  -6   38.27    7.14
   7  -7  -6   37.14    7.13
   7   7  -5   19.77    5.80
  -7   7  -5   25.08    5.34
   7  -7  -5   25.46    5.37
   7   7  -5   21.94    5.38
   7  -7  -5   15.76    4.75
   7   7  -4  134.28   12.99
  -7   7  -4  123.66   12.77
   7  -7  -4  136.29   13.19
   7  -7  -4  145.23   13.57
   7   7  -4  122.03   11.74
   7  -7  -3    3.39    3.55
   7   7  -3    2.00    2.89
   7   7  -3   -1.56    1.96
  -7   7  -3    4.32    3.11
   7  -7  -3    2.49    2.08
   7   7  -2  175.22   14.35
   7   7  -2  171.30   14.23
   7  -7  -2  177.90   14.77
  -7   7  -2  159.46   14.04
   7  -7  -2  152.26   13.78
   7  -7  -1   24.02    5.63
   7   7  -1   21.28    5.06
   7   7  -1   15.60    4.42
   7  -7  -1   25.86    5.95
  -7   7  -1   14.83    4.69
   7  -7   0   -0.13    3.07
   7   7   0    2.78    1.39
   7   7   0    1.02    1.80
  -7   7   0    3.20    3.32
   7  -7   0    0.87    1.99
   7  -7   1   13.03    2.88
   7   7   1   17.21    4.54
   7   7   1   25.17    5.53
   7  -7   1   21.11    5.48
  -7   7   1   10.78    3.63
   7   7   2  168.62   14.32
   7   7   2  148.74   13.71
  -7   7   2  156.36   13.79
   7  -7   2  171.42   14.28
   7  -7   2  147.95   13.68
   7  -7   3    1.89    2.36
   7   7   3    1.79    2.37
   7   7   3    1.86    1.68
  -7   7   3   -0.38    2.18
   7  -7   3    0.82    1.90
   7   7   4  104.20   11.41
   7   7   4  117.72   12.13
   7  -7   4  136.26   13.40
   7  -7   4  119.83   12.68
   7  -7   5   26.48    5.62
   7   7   5   12.29    4.68
   7   7   5   13.59    4.10
   7  -7   5   24.04    6.55
   7   7   6   39.33    7.32
   7   7   6   36.75    6.91
   7  -7   6   39.96    7.82
   7  -7   6   48.50    8.07
   7  -7   7   18.15    5.21
   7   7   7   17.70    5.18
   7   7   7   17.83    4.92
   7  -7   7   11.04    4.04
   7   7   8  310.20   20.36
   7   7   8  303.63   19.83
   7  -7   8  345.15   21.23
   7  -7   8  304.46   19.75
   7  -7   9    3.73    1.52
   7   7   9    3.42    3.35
   7  -7   9    0.70    2.30
   7  -7  10   -0.41    1.75
   7   7  10    3.45    1.69
   7   7  10   -1.02    2.28
   7  -7  10    0.96    2.85
   7  -7  11   13.65    4.96
   7   7  11    7.18    3.59
   7   7  11    6.50    4.93
   7   7  12  219.58   17.43
   7   7  12  196.82   15.99
   7  -7  12  224.01   17.50
   7   7  13    7.16    3.76
   7   7  13    5.98    1.78
   7  -7  14   47.08    8.09
   7   7  14   52.90    8.45
  -7   7  14   47.17    8.89
   7   7  14   44.05    8.09
   7   7  15   -2.11    2.18
  -7   7  15    2.32    2.33
   7   7  15    4.27    1.78
   7   7  16    4.20    3.34
  -7   7  16    5.64    4.47
   7   7  16    4.02    1.55
   7   7  17   22.42    5.79
  -7   7  17   33.02    7.11
   7   7  17   31.08    6.99
   7   7  18  168.97   16.04
   7   7  18  160.80   15.50
  -7   7  19   -2.49    2.63
   7   7  19   -3.09    3.15
   7   7  20   55.43    9.19
  -7   7  20   41.48    8.88
   7   7  21   11.81    5.48
  -7   7  21   14.00    6.68
   7   7  22   34.29    7.04
  -7   7  22   31.19    8.13
   7  -8 -20    6.59    4.49
   7  -8 -20    3.75    2.41
   7  -8 -19   -1.15    3.28
   7  -8 -19    0.69    3.78
   7  -8 -18   -4.31    2.63
   7  -8 -18    4.12    4.01
   7  -8 -17    3.92    3.18
   7  -8 -17    9.21    3.36
   7  -8 -16   -6.69    4.49
   7  -8 -16    1.46    2.92
   7   8 -15   12.83    5.20
   7  -8 -15    8.62    4.31
   7  -8 -15   12.13    4.98
   7   8 -14   15.55    5.21
   7  -8 -14   13.75    4.27
   7  -8 -14   23.32    6.42
   7  -8 -13    6.19    5.11
   7   8 -13    6.44    4.37
   7  -8 -13    3.05    2.59
   7  -8 -12    2.47    3.74
   7   8 -12   -1.97    2.60
   7  -8 -12    5.45    3.82
   7   8 -11    6.53    3.42
   7  -8 -11    8.22    3.84
   7  -8 -11    7.06    3.98
   7   8 -10    3.38    1.92
   7  -8 -10   -0.23    3.62
   7  -8 -10    1.59    2.51
   7   8  -9   11.09    3.52
   7  -8  -9   13.80    4.21
   7  -8  -9   14.87    4.74
   7   8  -8    6.58    4.11
  -7   8  -8    3.26    2.81
   7  -8  -8    1.38    2.84
   7  -8  -8    3.72    2.12
   7   8  -7    8.62    5.16
  -7   8  -7    7.87    2.32
   7  -8  -7    5.02    3.66
   7  -8  -7    4.39    3.90
   7   8  -6   21.74    6.19
  -7   8  -6   15.32    4.65
   7  -8  -6   17.59    5.04
   7  -8  -6   17.97    5.39
   7   8  -5    2.37    1.62
  -7   8  -5    7.95    3.49
   7  -8  -5    8.03    3.48
   7   8  -4    7.99    4.50
   7   8  -4   14.22    4.54
  -7   8  -4    1.26    2.46
   7  -8  -4    4.45    2.51
   7  -8  -4    9.03    3.73
   7   8  -3    0.79    1.48
   7   8  -3    4.11    1.60
  -7   8  -3    0.35    2.51
   7  -8  -3    0.29    2.21
   7  -8  -3    7.05    4.05
   7   8  -2    0.78    2.08
   7   8  -2   10.20    3.23
  -7   8  -2    6.22    3.46
   7  -8  -2    5.63    3.48
   7  -8  -2    5.26    2.76
   7   8  -1   -0.99    1.92
   7   8  -1    1.89    1.91
  -7   8  -1    1.37    2.25
   7  -8  -1    0.93    1.66
   7  -8  -1    1.10    2.57
   7   8   0    1.89    2.58
   7   8   0   -1.19    2.11
  -7   8   0   -0.10    3.93
   7  -8   0    5.42    4.05
   7  -8   0    3.99    2.83
   7   8   1    5.97    1.67
  -7   8   1    6.49    3.53
   7   8   1    2.18    2.29
   7  -8   1    6.45    3.29
   7  -8   1    3.92    3.48
   7  -8   2    1.62    2.15
  -7   8   2    6.68    3.24
   7   8   2    5.83    2.64
   7   8   2    9.63    3.75
   7  -8   2    6.40    2.53
   7  -8   3   -0.67    2.11
   7   8   3    1.36    3.78
   7   8   3    4.83    3.26
  -7   8   3    2.96    2.44
   7  -8   3    9.58    4.64
   7  -8   4    1.02    3.16
   7   8   4   10.00    5.00
   7   8   4   -1.15    1.36
  -7   8   4    6.04    3.79
   7  -8   4    5.08    3.14
   7  -8   5   11.16    4.57
  -7   8   5    8.18    4.40
   7   8   5    5.00    4.04
   7   8   5    4.03    3.19
  -7   8   6   14.88    4.61
   7  -8   6   17.48    5.17
   7   8   6   25.00    6.17
   7   8   6   19.91    5.97
   7  -8   7    9.55    4.68
   7   8   7    4.06    2.96
   7   8   7   -0.04    2.36
  -7   8   7    4.29    2.56
   7  -8   8   -0.45    2.47
   7   8   8    1.09    3.85
   7   8   8    4.63    1.96
   7  -8   9   23.55    6.32
   7   8   9   30.20    5.96
   7   8   9   20.57    5.40
  -7   8   9    7.82    3.67
   7  -8  10    4.08    3.15
   7   8  10    0.47    1.62
   7   8  10   -4.97    2.64
  -7   8  10    2.25    4.02
   7  -8  11    7.78    4.87
  -7   8  11    9.76    3.88
   7   8  11    1.46    2.38
   7   8  11    9.57    4.03
   7  -8  12    1.04    3.18
   7   8  12    4.19    3.22
   7   8  12    0.53    2.88
  -7   8  12   -0.26    1.68
   7   8  13    7.57    4.54
   7   8  13    4.28    2.10
   7   8  14   29.23    6.32
   7   8  14   22.53    4.96
  -7   8  14   29.75    7.65
   7   8  15    3.60    2.68
  -7   8  15    1.76    1.98
  -7   8  16    1.13    2.26
   7   8  16    7.32    3.18
   7   8  16    2.63    4.74
   7   8  17   10.66    5.33
  -7   8  17   11.64    5.31
   7   8  17   14.84    4.66
  -7   8  18    1.25    3.42
   7   8  18    0.07    3.19
   7   8  18   -1.48    3.56
  -7   8  19    0.28    2.40
   7   8  19   -3.13    2.79
   7   8  20   10.33    6.19
  -7   8  20    2.28    2.59
   7  -9 -16   10.66    4.48
   7  -9 -16    5.65    3.09
   7  -9 -15    8.72    3.74
   7  -9 -15   13.19    5.40
   7   9 -14   99.09   12.91
   7  -9 -14   67.81   11.31
   7  -9 -14   94.99   12.84
   7   9 -13   10.81    5.07
   7  -9 -13    4.18    4.28
   7  -9 -13    9.02    5.48
   7   9 -12  138.54   14.84
   7  -9 -12  122.88   14.83
   7  -9 -12  149.84   15.71
   7  -9 -11    3.75    2.09
   7   9 -11    2.05    3.76
   7  -9 -11    4.46    1.62
   7  -9 -10    3.30    4.50
   7  -9 -10    7.38    3.08
   7  -9  -9   14.00    5.45
   7   9  -9   10.49    4.04
   7  -9  -9   13.97    4.78
   7   9  -8  267.03   20.36
   7  -9  -8  255.64   19.92
   7  -9  -8  245.19   19.89
   7  -9  -7   -1.48    2.42
   7   9  -7   10.09    5.62
  -7   9  -7    4.85    2.31
   7  -9  -7    9.44    4.08
   7   9  -6   50.60    8.77
  -7   9  -6   51.81    9.07
   7  -9  -6   39.83    7.64
   7   9  -5   11.86    4.76
  -7   9  -5    8.83    3.57
   7  -9  -5   11.45    5.14
   7  -9  -5    9.23    3.63
   7  -9  -4  100.57   12.18
  -7   9  -4   86.40   11.89
   7  -9  -4   75.99   10.69
   7   9  -3    1.18    3.04
  -7   9  -3   -2.00    2.50
   7  -9  -3    1.53    4.47
   7  -9  -3    3.34    3.60
   7   9  -2  129.61   14.02
   7   9  -2  142.92   14.73
  -7   9  -2  125.44   13.27
   7  -9  -2  142.93   14.62
   7  -9  -2  151.72   15.38
   7   9  -1    2.69    2.77
   7   9  -1    0.55    1.44
  -7   9  -1    0.35    1.59
   7  -9  -1    1.33    3.47
   7   9   0   -1.50    1.63
   7   9   0    3.31    2.41
  -7   9   0    7.08    4.09
   7  -9   0   -3.26    3.55
   7   9   1    1.38    3.05
   7   9   1    5.01    4.06
   7  -9   1    1.83    3.13
   7   9   2  125.32   13.58
   7   9   2  137.19   14.21
  -7   9   2  123.96   13.64
   7  -9   2  139.00   14.92
   7   9   3   -0.09    3.65
   7   9   3   -0.41    1.67
  -7   9   3    5.26    2.08
   7  -9   3   -0.08    3.23
   7   9   4   93.56   11.42
   7   9   4   96.37   12.23
  -7   9   4   83.62   11.06
   7  -9   4   96.12   12.47
   7   9   5    6.67    4.04
  -7   9   5   12.37    5.30
   7   9   5    8.39    3.63
   7  -9   5    7.46    4.14
   7   9   6   54.32    9.10
   7   9   6   58.79    9.59
  -7   9   6   56.29    9.18
   7  -9   6   68.33   10.42
   7   9   7   11.48    4.00
   7   9   7    3.07    3.04
  -7   9   7    6.29    5.02
   7  -9   7    6.49    2.97
   7   9   8  278.35   20.83
   7   9   8  255.61   19.12
  -7   9   8  282.49   20.58
   7  -9   8  275.86   21.54
   7   9   9   10.87    4.10
  -7   9   9    5.96    3.66
   7  -9   9   11.80    5.81
   7   9  10   18.02    5.46
   7   9  10   12.81    5.13
  -7   9  10    8.68    5.05
   7  -9  10   17.75    6.48
  -7   9  11    8.94    2.14
   7   9  11    7.05    2.91
   7   9  11    9.74    3.72
   7  -9  11   14.14    6.54
   7   9  12  148.72   14.88
   7   9  12  179.47   16.51
  -7   9  12  138.34   15.04
   7   9  13    2.42    3.33
   7   9  13    7.74    3.16
  -7   9  13    2.84    2.58
   7   9  14  110.97   14.15
   7   9  14  109.04   13.77
  -7   9  14  118.86   13.38
   7   9  15   13.19    4.70
   7   9  15    6.53    2.89
  -7   9  15    3.41    3.13
   7   9  16    5.70    3.80
  -7   9  16    0.44    1.79
   7   9  16    6.29    1.97
   7  10 -12    1.04    2.55
   7 -10 -12    7.10    4.25
   7 -10 -12    4.98    1.84
   7  10 -11   25.85    7.26
   7 -10 -11   31.36    7.53
   7 -10 -11   24.63    6.98
   7  10 -10    2.42    2.89
   7 -10 -10    3.18    2.34
   7  10  -9    2.43    3.30
   7 -10  -9   11.32    5.84
   7 -10  -9    0.95    3.60
   7  10  -8    8.83    3.94
   7 -10  -8    6.59    2.91
   7  10  -7   30.84    7.42
   7 -10  -7   51.39    9.46
   7  10  -6    1.22    3.41
  -7  10  -6   -3.08    2.94
   7 -10  -6    5.36    4.74
   7  10  -5   47.25    8.66
  -7  10  -5   44.15    8.61
   7 -10  -5   38.91    8.82
   7  10  -4    4.80    2.71
  -7  10  -4    6.14    4.60
   7 -10  -4    2.02    1.78
   7  10  -3   -0.46    2.54
  -7  10  -3   -0.85    2.24
   7 -10  -3    0.74    2.80
   7  10  -2    1.33    2.64
  -7  10  -2    2.01    2.88
   7 -10  -2   -3.24    3.50
   7  10  -1    0.55    1.84
  -7  10  -1    7.17    3.83
   7 -10  -1    5.14    4.18
   7  10   0    0.67    2.62
   7  10   0    7.38    5.05
   7 -10   0    8.30    5.35
  -7  10   0   -5.33    4.36
   7  10   1    0.44    2.83
   7  10   1    4.63    2.26
  -7  10   1    1.52    2.46
   7 -10   1   -1.01    3.08
   7  10   2   -0.01    4.22
   7  10   2   -1.10    2.86
  -7  10   2   -2.15    3.96
   7 -10   2   -1.27    2.54
   7  10   3   -2.10    2.35
   7  10   3   -0.66    1.86
  -7  10   3   -3.14    3.14
   7  10   4   10.73    5.00
   7  10   4    3.54    2.40
  -7  10   4    2.13    2.01
   7 -10   4    6.79    3.34
   7  10   5   49.35    8.94
   7  10   5   30.72    6.18
  -7  10   5   34.26    7.17
   7 -10   5   41.25    8.12
   7  10   6   -0.62    3.11
   7  10   6   -0.19    3.21
  -7  10   6    0.72    2.42
   7 -10   6    1.63    3.52
   7  10   7   50.01    8.65
   7  10   7   29.02    7.07
  -7  10   7   31.77    7.41
   7 -10   7   27.37    7.65
   7  10   8    3.57    3.00
   7  10   8    5.61    4.22
  -7  10   8    5.79    3.58
   7 -10   8    6.06    2.81
   7  10   9    3.51    2.10
   7  10   9    9.04    4.23
  -7  10   9    1.72    2.39
   7 -10   9    4.38    3.90
   7  10  10    6.82    4.26
   7  10  10   -3.06    4.63
  -7  10  10    4.05    2.01
   7  10  11   10.44    4.24
   7  10  11    9.25    5.25
  -7  10  11   21.40    5.99
   7  10  12    4.61    4.22
   7  10  12   14.19    5.30
  -7  10  12    3.64    3.94
   7  11  -1   -3.80    3.20
  -7  11  -1   -4.83    3.90
   7 -11  -1   -2.27    4.60
   7  11   0    1.14    2.81
  -7  11   0    4.38    4.60
   7 -11   0    1.22    2.85
   7  11   1    3.47    2.39
   7  11   1    2.19    3.36
  -7  11   1   -1.21    3.80
   7 -11   1   -0.27    2.06
   8   0 -27   59.82   10.86
   8   0 -26   78.66   11.32
   8   0 -25   41.71    8.90
   8   0 -24   37.80    8.03
   8   0 -23    5.41    4.21
   8   0 -22   15.63    5.56
   8   0 -21   63.79    8.86
   8   0 -20   20.83    5.89
   8   0 -19   64.17    8.96
   8   0 -18  232.94   16.58
   8   0 -17  329.04   19.65
   8   0 -16   34.09    6.41
   8   0 -15  292.90   17.89
   8   0 -14  132.76   11.72
   8   0 -13   90.68    9.68
   8   0 -13   92.91    8.16
   8   0 -12  678.79   25.71
   8   0 -12  661.74   22.01
   8   0 -11  637.46   21.09
   8   0 -11  648.97   24.36
   8   0 -10   87.60    7.97
   8   0 -10   87.26    9.10
   8   0  -9 1337.09   30.58
   8   0  -9 1255.96   33.45
   8   0  -8  899.40   25.30
   8   0  -8  920.67   28.26
   8   0  -8  923.02   27.64
   8   0  -7   15.41    4.28
   8   0  -7   10.32    2.63
   8   0  -7   12.94    3.22
   8   0  -6  434.70   17.30
   8   0  -6  441.38   18.85
   8   0  -5   61.41    6.69
   8   0  -5   74.89    7.59
   8   0  -5   72.58    7.50
   8   0  -4  871.55   24.75
   8   0  -4  902.73   26.95
   8   0  -4  842.14   25.16
   8   0  -3 1809.41   37.97
   8   0  -3 1759.97   35.30
   8   0  -3 1788.18   36.32
   8   0  -2  793.22   23.76
   8   0  -2  736.04   24.20
   8   0  -2  821.90   24.37
   8   0  -1  113.31    9.11
   8   0  -1  117.60    9.75
   8   0  -1  100.23    8.40
   8   0   0 1202.15   29.59
   8   0   0 1157.70   30.32
   8   0   0 1141.50   28.41
   8   0   1   97.84    8.21
   8   0   1  124.36    9.18
   8   0   2  823.96   24.72
   8   0   2  762.96   22.33
   8   0   3 1687.68   35.84
   8   0   3 1811.13   34.26
   8   0   4  798.50   24.97
   8   0   4  784.45   22.28
   8   0   5   60.29    6.93
   8   0   5   63.09    6.25
   8   0   6  456.97   19.42
   8   0   6  479.22   17.21
   8   0   7    9.55    2.90
   8   0   7   11.52    2.56
   8   0   8  937.17   28.44
   8   0   8  905.22   23.09
   8   0   9 1333.81   34.42
   8   0   9 1277.53   27.59
   8   0  10   79.36    8.75
   8   0  10   91.57    7.09
   8   0  11  651.93   18.91
   8   0  11  653.80   24.85
   8   0  12  712.36   19.37
   8   0  12  736.37   26.89
   8   0  13  102.67    7.17
   8   0  13   93.47    9.68
   8   0  14  143.79   12.27
   8   0  15  271.21   17.05
   8   0  16   29.54    5.50
   8   0  17  298.32   18.82
   8   0  18  209.75   16.01
   8   0  19   70.51    9.67
   8   0  20   21.87    6.07
   8   0  21   79.18   10.61
   8   0  22   16.91    5.43
   8   0  23    1.98    3.80
   8  -1 -28    1.01    2.30
   8  -1 -27    7.09    3.48
   8  -1 -26   15.91    5.40
   8  -1 -25   -2.02    1.72
   8  -1 -24   19.11    5.37
   8  -1 -23    1.04    1.72
   8   1 -22   13.18    5.38
   8  -1 -22   12.60    4.24
   8   1 -21    1.70    2.18
   8  -1 -21    2.27    2.40
   8  -1 -20    7.47    2.59
   8   1 -20   12.50    4.73
   8   1 -19   22.43    6.21
   8  -1 -19   27.79    6.21
   8   1 -18   46.73    7.55
   8  -1 -18   47.32    7.81
   8   1 -17   74.12    8.63
   8  -1 -17   83.35   10.36
   8   1 -16   37.94    6.61
   8  -1 -16   48.48    7.41
   8   1 -15   16.66    4.24
   8  -1 -15   20.44    5.51
   8  -1 -14    8.57    2.57
   8  -1 -14    3.14    1.41
   8   1 -14    4.91    3.04
   8  -1 -13    2.29    0.96
   8   1 -13    1.61    2.41
   8   1 -13    3.52    2.21
   8   1 -12   11.14    3.63
   8  -1 -12    6.00    3.00
   8   1 -12    2.54    1.60
   8  -1 -12    5.86    2.48
   8   1 -12    3.17    2.50
   8   1 -11   52.22    6.59
   8   1 -11   55.60    5.96
   8  -1 -11   45.42    6.83
   8   1 -11   47.05    6.74
   8  -1 -11   37.95    5.48
   8  -1 -10   27.12    4.84
   8   1 -10   29.68    4.46
   8   1 -10   31.55    4.88
   8  -1 -10   28.34    5.47
   8   1 -10   36.98    5.71
   8  -1  -9   19.37    4.41
   8   1  -9   27.12    4.66
   8   1  -9   16.52    3.39
   8  -1  -9   17.51    4.08
   8   1  -9   12.44    4.00
   8  -1  -8   49.59    6.15
   8   1  -8   39.98    5.06
   8  -1  -8   50.01    7.13
   8   1  -8   40.86    5.67
   8   1  -8   42.70    6.31
   8  -1  -7   53.24    7.10
   8  -1  -7   68.05    7.17
   8   1  -7   63.17    6.31
   8   1  -7   54.76    6.72
   8   1  -7   61.52    7.21
   8  -1  -6   13.76    3.65
   8  -1  -6   14.65    3.99
   8   1  -6   15.64    3.82
   8   1  -6   15.85    3.65
   8   1  -6   12.73    3.44
   8   1  -5   13.59    3.28
   8  -1  -5   14.05    3.27
   8  -1  -5   12.58    3.46
   8   1  -5   17.20    3.81
   8   1  -5   12.78    3.06
   8   1  -4   11.70    3.44
   8  -1  -4   15.63    3.42
   8  -1  -4   19.02    4.26
   8   1  -4   17.61    3.82
   8   1  -4   20.72    3.56
   8  -1  -3   63.41    6.99
   8   1  -3   57.82    6.30
   8  -1  -3   60.21    6.95
   8   1  -3   61.93    6.88
   8   1  -3   71.68    7.35
   8  -1  -2  102.63    8.79
   8   1  -2  107.03    8.56
   8  -1  -2  103.53    9.16
   8   1  -2  102.89    8.94
   8   1  -2   92.19    8.48
   8  -1  -1   88.92    8.22
   8  -1  -1   93.83    8.81
   8   1  -1   97.47    8.37
   8   1  -1  111.91    9.02
   8   1  -1  101.78    8.59
   8   1   0    3.74    2.23
   8   1   0    1.02    1.87
   8  -1   0    3.37    1.77
   8  -1   0    3.44    1.60
   8  -1   1   96.93    8.64
   8  -1   1   99.02    9.07
   8   1   1  106.42    8.80
   8   1   1   99.25    8.47
   8  -1   2  107.88    9.18
   8   1   2  116.96    9.12
   8   1   2  115.18    8.91
   8  -1   3   47.89    5.91
   8   1   3   51.76    5.91
   8   1   3   65.80    7.15
   8   1   4   15.17    3.07
   8   1   4   17.70    3.71
   8  -1   4   12.30    3.44
   8   1   5   17.47    3.35
   8   1   5   12.96    3.07
   8  -1   5   15.22    3.84
   8   1   6   16.68    3.46
   8   1   6    8.42    2.14
   8  -1   6   13.19    3.36
   8   1   7   51.87    6.81
   8  -1   7   65.65    7.49
   8   1   7   67.02    6.60
   8   1   8   39.72    5.85
   8  -1   8   40.90    6.23
   8   1   8   55.18    5.83
   8  -1   9   24.06    4.66
   8   1   9   22.89    4.66
   8   1   9   18.33    3.82
   8   1  10   23.29    4.46
   8  -1  10   32.37    5.76
   8   1  10   34.16    4.85
   8   1  11   61.43    7.96
   8  -1  11   40.91    6.29
   8   1  11   58.94    6.06
   8   1  12    1.94    0.84
   8  -1  12    6.11    1.27
   8   1  12    6.73    2.68
   8   1  13    3.46    1.75
   8  -1  13    1.87    1.63
   8   1  13    3.49    2.84
   8   1  14    6.64    2.08
   8  -1  14   10.72    3.40
   8   1  14    8.30    3.01
   8  -1  15   17.09    4.61
   8   1  15   18.47    4.18
   8   1  16   31.41    6.21
   8  -1  16   39.44    6.88
   8   1  17   57.00    8.89
   8  -1  17   62.90    8.62
   8   1  18   50.61    7.90
   8  -1  18   44.75    8.11
   8  -1  19   23.68    5.92
   8   1  19   14.42    3.73
   8  -1  20    9.93    3.98
   8   1  20    4.74    2.43
   8  -1  21    1.16    2.42
   8   1  21    2.97    2.73
   8  -1  22    7.26    2.75
   8   1  22    8.66    4.36
   8   1  23    5.00    3.88
   8   1  24   18.12    6.06
   8  -2 -28   29.78    7.87
   8  -2 -27   57.22    9.73
   8  -2 -26   18.78    5.65
   8  -2 -25   26.33    6.28
   8  -2 -24   80.36   11.22
   8  -2 -23   24.20    6.81
   8  -2 -22   36.98    7.36
   8  -2 -21  111.53   12.54
   8  -2 -20    9.59    4.67
   8  -2 -19   15.07    4.53
   8  -2 -18  119.60   12.22
   8   2 -18   17.29    5.51
   8  -2 -17   80.36   10.12
   8   2 -17   73.90    9.12
   8   2 -17   76.87    9.27
   8   2 -16   70.17    8.13
   8  -2 -16   74.09    9.64
   8  -2 -16   60.89    8.65
   8   2 -16   79.51    9.58
   8   2 -15  211.14   14.36
   8  -2 -15  201.57   15.49
   8  -2 -15  215.21   14.87
   8   2 -15  194.54   14.66
   8  -2 -14   90.62   10.87
   8   2 -14  100.22    9.82
   8  -2 -14   92.62    9.39
   8   2 -14  115.96   11.09
   8  -2 -13   20.52    5.08
   8   2 -13   28.79    4.85
   8   2 -13   30.98    5.53
   8  -2 -12  174.09   13.70
   8   2 -12  177.39   12.12
   8  -2 -12  177.36   12.98
   8   2 -12  197.35   13.75
   8   2 -11  283.07   15.05
   8  -2 -11  264.80   16.63
   8  -2 -11  297.99   16.69
   8   2 -10   49.03    5.17
   8  -2 -10   34.69    6.07
   8   2 -10   42.86    5.73
   8   2 -10   44.34    6.52
   8  -2 -10   38.49    6.21
   8  -2  -9  113.35   10.24
   8  -2  -9  161.96   12.84
   8   2  -9  128.08    8.72
   8   2  -9  138.67   10.15
   8   2  -9  148.71   11.58
   8  -2  -8  206.47   13.52
   8   2  -8  213.57   11.52
   8  -2  -8  228.35   15.10
   8   2  -8  194.40   12.01
   8   2  -8  198.30   13.53
   8  -2  -7  163.33   11.69
   8  -2  -7  138.84   11.61
   8   2  -7  158.81    9.99
   8   2  -7  167.43   11.08
   8   2  -7  153.78   11.50
   8   2  -6   14.28    3.60
   8   2  -6   13.86    2.98
   8   2  -6   15.88    3.71
   8  -2  -6    6.10    2.21
   8  -2  -6    9.31    3.38
   8  -2  -5  252.91   14.74
   8  -2  -5  280.30   16.28
   8   2  -5  247.81   13.31
   8   2  -5  266.79   13.13
   8   2  -5  225.92   13.81
   8  -2  -4  282.61   15.50
   8   2  -4  314.43   14.69
   8  -2  -4  291.34   16.32
   8   2  -4  300.84   14.51
   8   2  -4  312.31   15.96
   8  -2  -3  295.26   15.83
   8  -2  -3  334.19   17.44
   8   2  -3  301.63   14.65
   8   2  -3  289.79   14.42
   8   2  -3  301.50   15.38
   8  -2  -2  527.39   21.20
   8   2  -2  556.24   19.77
   8  -2  -2  570.99   22.72
   8   2  -2  602.95   20.84
   8   2  -2  562.51   21.14
   8   2  -1  530.48   19.83
   8  -2  -1  514.53   20.83
   8  -2  -1  480.37   20.81
   8   2   0  168.99   11.47
   8   2   0  198.09   12.20
   8  -2   0  192.71   12.65
   8  -2   0  181.22   12.77
   8   2   1  476.71   19.22
   8   2   1  520.10   19.96
   8  -2   1  504.82   20.62
   8  -2   1  514.02   21.29
   8   2   2  526.12   20.31
   8   2   2  541.92   20.80
   8  -2   2  530.95   21.35
   8  -2   2  506.47   21.29
   8   2   3  266.59   14.39
   8   2   3  294.75   15.37
   8  -2   3  290.54   15.56
   8   2   4  327.71   15.90
   8   2   4  311.39   16.16
   8  -2   4  296.05   16.07
   8   2   5  287.00   14.68
   8   2   5  248.94   14.80
   8  -2   5  277.59   15.60
   8   2   6   14.47    3.63
   8  -2   6   10.38    3.13
   8   2   6   14.01    3.55
   8   2   7  157.93   10.89
   8   2   7  140.80   11.21
   8  -2   7  152.61   11.61
   8   2   8  206.89   12.62
   8   2   8  227.80   14.50
   8  -2   8  246.94   14.89
   8   2   9  113.65    9.48
   8   2   9  130.75   11.39
   8  -2   9  125.57   10.96
   8   2  10   48.28    6.17
   8   2  10   30.89    6.06
   8  -2  10   37.40    6.28
   8   2  11  307.37   15.26
   8   2  11  305.10   17.75
   8  -2  11  281.22   16.65
   8   2  12  171.68   11.57
   8   2  12  187.56   13.90
   8  -2  12  157.30   12.39
   8   2  13   38.11    5.14
   8   2  13   35.04    6.30
   8  -2  13   30.36    5.51
   8   2  14  101.09    8.70
   8   2  14   99.69   10.58
   8   2  15  224.33   12.58
   8   2  15  224.37   16.44
   8  -2  15  208.54   15.01
   8   2  16   89.83   10.03
   8  -2  16   71.69    9.09
   8   2  17   76.40   10.04
   8  -2  17   81.33    9.81
   8   2  18  110.17   12.46
   8  -2  18  102.03   11.48
   8   2  19   31.25    6.38
   8  -2  19   22.29    5.68
   8   2  20   18.28    5.22
   8  -2  20    8.80    4.47
   8   2  21   96.25   11.67
   8  -2  21   91.86   11.79
   8   2  22   36.79    7.77
   8   2  23   18.91    4.98
   8   2  24   67.43   10.65
   8   2  25   17.82    5.97
   8  -3 -27    0.67    3.09
   8  -3 -26    0.95    2.09
   8  -3 -25    6.18    2.99
   8  -3 -24   16.84    5.02
   8  -3 -23    4.11    3.17
   8  -3 -22    3.27    1.91
   8  -3 -21    4.19    1.74
   8  -3 -20    2.55    2.03
   8  -3 -19   22.16    5.27
   8   3 -19   32.44    7.92
   8  -3 -18   19.39    4.99
   8   3 -18   16.97    4.46
   8  -3 -17  172.30   15.16
   8  -3 -17  179.55   15.20
   8   3 -17  160.67   13.81
   8  -3 -16  153.27   13.79
   8  -3 -16  115.85   12.11
   8   3 -16  128.37   12.55
   8  -3 -15   81.23   10.24
   8  -3 -15   67.02    8.94
   8   3 -15   59.00    8.33
   8  -3 -14   64.70    9.31
   8  -3 -14   54.63    7.73
   8   3 -14   72.48    9.10
   8   3 -13   44.51    6.81
   8  -3 -13   52.63    8.05
   8  -3 -13   51.68    7.60
   8   3 -12    2.55    2.16
   8  -3 -12    4.97    1.71
   8  -3 -12    2.82    3.06
   8  -3 -11   40.90    6.55
   8  -3 -11   37.38    6.58
   8   3 -11   52.09    6.07
   8   3 -11   48.11    7.19
   8   3 -10   54.55    6.40
   8  -3 -10   67.20    8.81
   8  -3 -10   55.72    7.50
   8   3 -10   70.33    8.62
   8   3  -9   65.32    6.38
   8  -3  -9   67.51    8.18
   8   3  -9   52.26    5.62
   8  -3  -9   68.80    8.20
   8   3  -9   57.54    7.31
   8  -3  -8   67.21    8.68
   8   3  -8   67.05    6.65
   8   3  -8   66.11    6.52
   8  -3  -8   60.89    7.50
   8   3  -8   62.66    7.75
   8  -3  -7   86.06    9.25
   8  -3  -7  113.13   11.20
   8   3  -7  112.99    8.42
   8   3  -7  103.85    8.11
   8   3  -7   85.73    8.73
   8   3  -6   47.65    6.66
   8  -3  -6   30.13    5.47
   8  -3  -6   35.91    6.35
   8   3  -6   34.69    4.55
   8   3  -6   40.52    5.08
   8   3  -5   21.95    4.42
   8   3  -5   19.27    3.69
   8  -3  -5   19.70    4.88
   8   3  -5   16.19    3.20
   8   3  -4    1.84    1.27
   8   3  -4    0.29    2.12
   8  -3  -4   -0.13    0.91
   8  -3  -4    0.04    1.99
   8   3  -4    3.29    1.84
   8   3  -3   45.46    6.27
   8  -3  -3   52.39    6.98
   8   3  -3   53.38    6.36
   8  -3  -3   48.90    7.14
   8   3  -3   49.39    5.70
   8   3  -2   46.60    6.34
   8  -3  -2   47.67    7.23
   8   3  -2   44.35    5.63
   8  -3  -2   58.41    7.64
   8   3  -2   56.85    5.97
   8   3  -1   16.16    3.73
   8  -3  -1   22.44    4.68
   8  -3  -1   21.92    5.33
   8   3  -1   19.43    3.79
   8   3   0    9.84    2.91
   8  -3   0    3.96    2.81
   8  -3   0   11.34    2.88
   8   3   0    5.46    2.56
   8   3   1   20.31    4.11
   8  -3   1   19.18    4.10
   8  -3   1   15.43    3.80
   8   3   1   16.78    3.52
   8   3   2   48.06    6.30
   8  -3   2   55.00    7.13
   8   3   2   48.53    6.46
   8  -3   2   51.25    7.04
   8   3   3   44.04    6.03
   8  -3   3   45.18    6.47
   8   3   3   44.59    6.12
   8  -3   3   56.24    7.19
   8   3   4    0.17    1.64
   8   3   4    0.16    0.94
   8  -3   4    2.36    1.77
   8  -3   4    1.64    1.66
   8   3   5    9.94    3.10
   8   3   5    6.08    2.01
   8  -3   5    9.01    2.89
   8   3   6   23.86    4.88
   8   3   6   34.69    5.33
   8  -3   6   34.63    5.94
   8   3   7  100.09    9.17
   8  -3   7   93.56    9.41
   8   3   7  101.08    9.83
   8   3   8   74.82    7.93
   8  -3   8   75.93    8.34
   8   3   8   62.06    8.11
   8   3   9   64.86    7.32
   8  -3   9   60.95    7.61
   8   3   9   61.93    8.04
   8   3  10   69.24    8.00
   8  -3  10   56.69    7.68
   8   3  10   83.16    9.28
   8   3  11   54.43    6.89
   8  -3  11   56.96    7.34
   8   3  11   47.19    7.08
   8   3  12    4.13    2.27
   8   3  12    3.33    2.12
   8  -3  12    2.14    2.10
   8   3  13   42.48    6.24
   8  -3  13   61.58    8.37
   8   3  13   50.82    7.84
   8   3  14   61.39    7.48
   8  -3  14   51.71    8.06
   8   3  14   60.54    8.51
   8   3  15   69.10    7.99
   8   3  15   59.28    8.34
   8  -3  15   57.05    7.99
   8   3  16  152.38   13.92
   8  -3  16  139.04   12.84
   8   3  17  149.64   13.63
   8  -3  17  142.95   13.25
   8  -3  18   13.33    4.29
   8   3  18   16.45    5.10
   8  -3  19   10.27    4.63
   8   3  19   20.85    5.24
   8   3  20    7.79    3.76
   8   3  21    1.54    2.30
   8   3  22    2.67    3.38
   8   3  23    3.73    2.88
   8   3  24    8.87    4.08
   8   3  25    2.47    2.37
   8   3  26    1.12    3.13
   8  -4 -26    4.80    3.69
   8  -4 -25   46.06    8.27
   8  -4 -24   69.14   10.44
   8  -4 -23    4.55    3.21
   8  -4 -22   51.25    8.99
   8  -4 -21   54.87    8.67
   8  -4 -20    1.12    1.61
   8  -4 -19   15.37    4.86
   8  -4 -18   53.13    8.90
   8  -4 -18   43.39    7.83
   8   4 -18   44.43    7.36
   8   4 -17    5.12    2.48
   8  -4 -17    7.49    3.32
   8  -4 -17    8.53    3.27
   8  -4 -16  149.82   14.16
   8  -4 -16  156.67   14.64
   8   4 -16  144.63   13.17
   8  -4 -15  213.51   16.79
   8  -4 -15  200.58   16.10
   8   4 -15  240.64   17.03
   8  -4 -14   69.09    9.52
   8  -4 -14   96.51   10.89
   8   4 -14   72.89    9.02
   8  -4 -13   58.03    8.25
   8  -4 -13   53.47    8.21
   8   4 -13   44.19    7.25
   8  -4 -12   42.96    7.35
   8  -4 -12   47.47    7.49
   8   4 -12   43.58    6.98
   8  -4 -11  139.18   12.87
   8  -4 -11  134.00   12.68
   8   4 -11  137.35   12.19
   8  -4 -10   47.34    7.61
   8  -4 -10   42.72    7.15
   8   4 -10   38.51    6.33
   8   4  -9   36.14    6.37
   8  -4  -9   29.40    5.73
   8  -4  -9   33.66    6.08
   8  -4  -8   13.43    4.11
   8   4  -8   12.82    4.00
   8   4  -8   12.23    2.63
   8  -4  -8   14.91    4.22
   8   4  -7  134.59   11.56
   8   4  -7  119.26    9.58
   8  -4  -7  108.99   11.10
   8  -4  -7  107.62   10.86
   8   4  -6   26.79    5.38
   8  -4  -6   21.47    4.72
   8   4  -6   20.23    4.18
   8  -4  -6   31.74    6.47
   8   4  -5  396.20   19.73
   8   4  -5  369.28   17.50
   8  -4  -5  439.29   21.68
   8   4  -5  391.26   15.03
   8  -4  -5  438.80   21.47
   8  -4  -4  265.48   16.36
   8   4  -4  269.76   16.24
   8   4  -4  244.95   13.98
   8  -4  -4  254.88   16.51
   8   4  -4  224.62   11.49
   8  -4  -3   63.23    7.90
   8   4  -3   62.75    8.03
   8   4  -3   56.81    6.98
   8  -4  -3   63.73    8.24
   8   4  -3   58.88    6.22
   8  -4  -2  437.03   20.97
   8   4  -2  393.01   19.55
   8   4  -2  408.98   18.42
   8  -4  -2  361.83   19.59
   8   4  -1  657.70   24.83
   8  -4  -1  708.75   26.70
   8   4  -1  647.01   23.53
   8  -4  -1  638.73   26.07
   8   4   0   68.18    8.02
   8  -4   0   56.97    7.57
   8   4   0   71.28    7.75
   8  -4   0   56.12    7.85
   8   4   1  629.97   24.34
   8  -4   1  678.17   26.14
   8   4   1  644.79   24.01
   8  -4   1  692.37   26.41
   8  -4   2  458.23   21.47
   8   4   2  432.05   20.06
   8  -4   2  428.08   20.86
   8   4   3   69.15    8.40
   8  -4   3   55.17    7.75
   8   4   3   51.09    7.11
   8  -4   3   56.21    7.73
   8   4   4  239.57   15.03
   8  -4   4  239.02   15.56
   8   4   4  229.62   14.87
   8  -4   4  228.57   15.41
   8   4   5  463.51   20.71
   8  -4   5  466.04   21.84
   8   4   5  467.50   21.24
   8  -4   5  425.32   21.39
   8   4   6   26.83    5.32
   8   4   6   20.47    4.64
   8  -4   6   25.09    5.17
   8  -4   6   18.89    3.94
   8  -4   7  124.58   12.16
   8   4   7  129.81   11.02
   8  -4   7  146.73   12.49
   8   4   7  122.64   11.43
   8   4   8   19.06    4.84
   8   4   8   18.71    4.32
   8  -4   8   18.67    4.50
   8   4   9   38.82    6.50
   8  -4   9   41.19    6.91
   8   4   9   28.08    5.68
   8   4  10   64.44    8.25
   8  -4  10   47.75    7.19
   8   4  10   48.77    7.53
   8   4  11  126.54   11.37
   8  -4  11  139.23   12.51
   8   4  11  119.91   11.85
   8   4  12   43.22    6.68
   8  -4  12   36.12    6.28
   8   4  12   47.72    7.58
   8   4  13   61.09    8.23
   8  -4  13   59.50    8.57
   8   4  13   47.74    7.85
   8   4  14   97.95   10.26
   8  -4  14   81.57   10.34
   8   4  14   86.36   10.33
   8   4  15  203.00   14.72
   8  -4  15  196.78   15.58
   8   4  15  193.90   15.28
   8   4  16  144.62   12.77
   8  -4  16  150.64   13.89
   8   4  16  134.73   13.19
   8   4  17   11.32    4.98
   8  -4  17   14.91    4.65
   8   4  18   53.54    8.36
   8  -4  18   33.47    7.30
   8   4  19   25.49    5.89
   8   4  20   -3.00    3.43
   8   4  21   67.04   10.38
   8   4  22   34.81    6.90
   8   4  23    5.88    4.13
   8   4  24   82.26   11.93
   8   4  25   64.76   10.79
   8   4  26    2.34    2.76
   8  -5 -25    0.08    2.10
   8  -5 -24    5.15    3.45
   8  -5 -23    0.07    1.65
   8  -5 -22   -0.57    1.49
   8  -5 -21    3.00    2.85
   8  -5 -20   -3.37    2.44
   8  -5 -20   -7.67    3.48
   8  -5 -19   12.61    3.92
   8  -5 -19    9.89    4.51
   8  -5 -18    7.13    2.64
   8  -5 -18   11.38    3.58
   8   5 -17   31.66    7.19
   8  -5 -17   31.58    6.51
   8  -5 -17   14.12    4.30
   8  -5 -16   50.94    8.51
   8   5 -16   45.90    7.83
   8  -5 -16   42.04    7.40
   8  -5 -15   43.60    7.52
   8  -5 -15   39.16    7.62
   8   5 -15   44.76    7.48
   8  -5 -14   29.90    6.01
   8  -5 -14   41.91    8.22
   8   5 -14   37.65    7.41
   8   5 -13   20.13    5.54
   8  -5 -13   18.97    5.48
   8  -5 -13    8.01    4.43
   8   5 -12   11.33    3.61
   8  -5 -12   28.58    5.75
   8  -5 -12   29.34    6.03
   8   5 -11   12.19    4.29
   8  -5 -11   26.01    5.10
   8  -5 -11   22.22    5.30
   8  -5 -10    0.46    1.94
   8   5 -10    1.04    2.43
   8  -5 -10   -0.94    1.75
   8  -5  -9   14.54    4.78
   8   5  -9   14.81    4.32
   8  -5  -9   11.80    4.47
   8  -5  -8   27.56    6.03
   8   5  -8   22.46    5.32
   8  -5  -8   32.14    6.57
   8   5  -7   94.54   10.40
   8   5  -7   66.05    7.59
   8  -5  -7   89.24   10.50
   8  -5  -7   73.87    9.29
   8   5  -6   24.50    5.20
   8  -5  -6   25.29    4.84
   8  -5  -6   30.91    6.25
   8   5  -6   23.24    4.46
   8   5  -5   22.07    4.54
   8  -5  -5   26.32    5.83
   8   5  -5   18.42    5.00
   8  -5  -5   17.67    4.13
   8   5  -4   75.29    9.06
   8   5  -4   82.94    8.74
   8  -5  -4   83.95    9.79
   8  -5  -4   77.27    9.47
   8   5  -3   67.97    8.60
   8   5  -3   73.44    8.46
   8  -5  -3   76.41    9.31
   8  -5  -3   79.11    9.54
   8   5  -2   41.35    6.52
   8   5  -2   27.94    5.33
   8  -5  -2   32.57    6.23
   8  -5  -2   40.53    6.85
   8   5  -1   25.59    5.31
   8  -5  -1   17.27    4.19
   8   5  -1   17.61    4.31
   8  -5  -1   23.85    5.22
   8   5   0   35.38    5.54
   8  -5   0   34.25    6.17
   8   5   0   36.67    6.47
   8  -5   0   41.00    7.02
   8   5   1   17.05    4.26
   8  -5   1   24.62    5.80
   8   5   1   28.12    5.41
   8  -5   1   24.58    4.90
   8   5   2   27.78    4.93
   8  -5   2   32.67    6.13
   8   5   2   38.38    6.24
   8  -5   2   26.40    5.52
   8  -5   3   65.37    8.56
   8   5   3   74.49    8.66
   8  -5   3   77.83    9.26
   8   5   3   74.33    8.72
   8  -5   4   57.03    7.93
   8   5   4   89.61    9.80
   8   5   4   65.90    8.30
   8  -5   4   69.86    8.73
   8   5   5   24.49    5.71
   8  -5   5   17.49    5.41
   8   5   5   28.89    5.55
   8  -5   5   32.35    6.66
   8   5   6   28.04    5.85
   8   5   6   29.29    5.49
   8  -5   6   18.98    5.37
   8  -5   6   30.02    6.12
   8  -5   7   79.65    9.70
   8   5   7   91.45   10.07
   8   5   7   67.77    8.62
   8  -5   7   91.28   10.14
   8   5   8   20.47    4.63
   8  -5   8   17.65    4.35
   8   5   8   19.04    4.43
   8  -5   8   23.13    5.41
   8   5   9   15.09    4.41
   8  -5   9   12.89    3.92
   8   5   9    9.99    3.45
   8  -5   9    8.20    2.72
   8   5  10   -0.27    2.09
   8  -5  10    4.43    3.10
   8   5  10    0.76    1.22
   8  -5  10    2.34    3.00
   8   5  11   13.39    3.98
   8  -5  11   19.73    4.91
   8   5  11   19.62    5.39
   8   5  12   36.83    7.17
   8   5  12   25.73    5.37
   8  -5  12   23.88    5.85
   8   5  13   19.66    4.17
   8  -5  13   12.08    4.59
   8   5  14   51.93    7.93
   8  -5  14   32.67    7.49
   8   5  14   39.39    7.02
   8   5  15   58.48    8.45
   8  -5  15   55.66    9.22
   8   5  15   63.30    9.36
   8   5  16   60.20    8.55
   8  -5  16   46.65    8.09
   8   5  16   61.56    8.89
   8   5  17   11.27    4.13
   8  -5  17   17.55    5.76
   8   5  18   13.60    4.67
   8   5  19   11.09    4.18
   8   5  20    2.82    3.90
   8   5  21    7.90    5.06
   8   5  22    1.25    1.85
   8   5  23   -2.73    2.71
   8   5  24    0.26    3.55
   8   5  25    3.17    3.63
   8  -6 -23    4.34    4.45
   8  -6 -22    2.93    2.70
   8  -6 -21   45.67    8.53
   8  -6 -20   15.86    5.79
   8  -6 -20    8.70    4.71
   8  -6 -19   24.57    6.73
   8  -6 -19   29.62    7.58
   8  -6 -18   51.83    9.24
   8  -6 -18   52.94    9.29
   8  -6 -17   45.86    8.06
   8  -6 -17   45.46    8.20
   8   6 -17   49.09    9.37
   8  -6 -16   21.16    6.24
   8   6 -16   21.94    5.23
   8  -6 -16   20.70    6.47
   8  -6 -15  131.96   13.64
   8  -6 -15  124.94   13.83
   8   6 -15  143.96   14.05
   8  -6 -14   87.10   10.92
   8  -6 -14   75.30   10.52
   8   6 -14   87.05   11.02
   8  -6 -13   -0.88    2.80
   8   6 -13   -0.34    1.88
   8  -6 -13    5.56    4.42
   8   6 -12  106.25   11.61
   8  -6 -12   89.15   10.53
   8  -6 -12   77.57   10.67
   8   6 -11  154.41   14.08
   8  -6 -11  167.74   14.95
   8  -6 -11  198.29   16.53
   8   6 -10   22.68    5.72
   8  -6 -10   23.03    5.62
   8  -6 -10   32.70    6.74
   8   6  -9  112.59   11.28
  -8   6  -9   96.49   10.21
   8  -6  -9  114.11   12.22
   8  -6  -9  101.86   11.67
   8   6  -8   59.57    8.25
   8  -6  -8   80.38   10.16
  -8   6  -8   72.44    8.97
   8  -6  -8   66.21    8.93
   8  -6  -7   28.87    6.17
   8   6  -7   40.81    7.26
  -8   6  -7   33.66    6.19
   8  -6  -7   24.16    5.50
   8   6  -6  208.35   15.77
   8   6  -6  178.02   13.50
  -8   6  -6  190.10   14.55
   8  -6  -6  218.25   16.54
   8  -6  -6  223.79   17.04
   8   6  -5  251.38   17.35
   8   6  -5  263.89   16.28
   8  -6  -5  267.37   18.19
   8  -6  -5  229.75   16.78
   8  -6  -4   24.60    6.16
   8   6  -4   31.66    5.81
   8   6  -4   36.57    5.83
   8  -6  -4   31.97    6.21
   8   6  -3   71.61    9.02
   8  -6  -3   57.62    8.59
   8   6  -3   67.85    8.36
   8  -6  -3   63.61    8.74
   8   6  -2   83.86    9.91
   8  -6  -2   79.77    9.79
   8   6  -2   90.83    9.81
   8   6  -1  106.72   10.98
   8  -6  -1   97.38   11.35
   8   6  -1  118.30   11.02
   8  -6  -1  101.03   11.23
   8   6   0   96.74   10.69
   8  -6   0   90.38   10.47
   8   6   0   99.54   10.78
   8  -6   0  103.84   11.11
   8   6   1  103.82   11.22
   8  -6   1  115.51   11.70
   8   6   1  113.69   11.19
   8  -6   1   86.46   10.21
   8   6   2   88.13   10.53
   8  -6   2   86.17   10.14
   8   6   2   85.45   10.05
   8  -6   2   77.18   10.10
   8   6   3   63.57    8.26
   8  -6   3   76.64   10.33
   8   6   3   45.76    7.58
   8  -6   3   53.76    8.33
   8  -6   4   29.67    6.03
   8   6   4   29.29    6.14
   8  -6   4   21.75    5.51
   8   6   4   37.69    6.83
   8   6   5  264.40   17.62
   8  -6   5  282.88   18.82
   8   6   5  273.84   17.99
   8  -6   5  277.55   18.29
   8  -6   6  190.27   15.42
   8   6   6  217.70   15.60
   8  -6   6  202.47   16.32
   8   6   6  204.73   15.67
   8  -6   7   34.43    7.20
   8   6   7   24.05    5.43
   8   6   7   30.93    6.10
   8  -6   7   34.34    6.62
   8  -6   8   74.93    9.65
   8   6   8   64.97    9.24
   8  -6   8   69.09    9.95
   8   6   8   59.71    8.58
   8  -6   9  101.63   11.38
   8   6   9   90.18   10.53
   8  -6   9   94.46   11.09
   8   6   9   95.76   11.13
   8  -6  10   31.12    7.14
   8   6  10   23.15    5.54
   8   6  10   25.29    5.74
   8  -6  10   27.67    6.81
   8  -6  11  166.49   14.56
   8   6  11  197.11   15.75
   8   6  11  182.59   15.03
   8  -6  11  166.49   15.34
   8  -6  12   97.39   11.39
   8   6  12   99.04   11.02
   8  -6  12   89.37   11.13
   8   6  12   97.82   11.38
   8   6  13    5.06    3.37
   8  -6  13   -0.20    2.94
   8   6  13   -1.60    3.60
   8  -6  13    1.47    1.98
   8  -6  14   67.43   10.38
   8   6  14   71.42    9.85
   8   6  14   83.26   11.19
   8  -6  14   82.98   10.43
   8   6  15  129.08   13.30
   8   6  15  138.75   14.30
   8   6  16   18.49    5.44
   8  -6  16   22.33    6.25
   8   6  16   14.65    4.75
   8   6  17   41.02    7.35
   8   6  17   44.84    8.30
   8   6  18   56.33    9.39
   8   6  19   19.43    4.69
   8   6  20    7.25    3.47
   8   6  21   31.73    8.03
   8   6  22    8.80    4.23
   8   6  23    6.01    5.03
   8  -7 -21    3.19    2.63
   8  -7 -21    0.11    3.69
   8  -7 -20   13.27    5.51
   8  -7 -20    4.32    3.69
   8  -7 -19   -0.83    3.57
   8  -7 -19    7.86    4.04
   8  -7 -18   11.95    4.82
   8  -7 -18   11.40    4.36
   8  -7 -17    4.82    3.76
   8  -7 -17    8.22    3.98
   8   7 -16    1.45    2.17
   8  -7 -16   -1.49    1.88
   8   7 -15    2.06    2.94
   8  -7 -15    2.59    3.52
   8  -7 -15    3.65    3.68
   8   7 -14    3.00    2.06
   8  -7 -14    4.32    2.77
   8  -7 -14    4.57    1.70
   8  -7 -13   13.20    4.23
   8   7 -13   18.05    6.00
   8  -7 -13    9.15    3.92
   8   7 -12   59.73    9.35
   8  -7 -12   52.48    8.10
   8  -7 -12   35.79    7.67
   8   7 -11   75.47   10.29
   8  -7 -11   71.48   10.21
   8  -7 -11   69.98   10.47
   8   7 -10   22.94    6.08
   8  -7 -10   35.83    7.54
   8  -7 -10   42.13    8.76
   8  -7  -9    2.94    2.28
   8   7  -9    0.05    2.43
   8  -7  -9    6.57    2.90
   8   7  -8   52.97    8.55
  -8   7  -8   64.94    9.31
   8  -7  -8   68.37    9.80
   8  -7  -8   64.66   10.07
   8   7  -7   61.23    9.50
  -8   7  -7   51.80    8.30
   8  -7  -7   57.05    8.62
   8  -7  -7   52.53    8.70
   8   7  -6   21.52    5.22
   8  -7  -6   29.52    6.29
  -8   7  -6   22.37    5.86
   8  -7  -6   20.43    6.41
   8   7  -5   77.16   10.11
  -8   7  -5  100.86   11.13
   8  -7  -5   86.57   10.84
   8   7  -5   93.27   10.73
   8  -7  -5   97.84   11.52
   8  -7  -4   37.16    6.94
   8   7  -4   44.29    7.53
  -8   7  -4   41.61    7.32
   8  -7  -4   30.88    6.42
   8   7  -4   39.27    6.67
   8   7  -3   75.57    9.68
   8  -7  -3   63.75    9.49
  -8   7  -3   59.33    8.74
   8   7  -3   67.15    8.96
   8  -7  -3   65.51    9.60
   8   7  -2   50.35    8.25
  -8   7  -2   47.71    7.87
   8  -7  -2   50.80    8.37
   8   7  -2   42.11    7.40
   8  -7  -2   40.90    7.86
   8   7  -1   81.34   10.36
  -8   7  -1  100.98   11.04
   8  -7  -1   80.09   10.01
   8  -7  -1   71.79   10.24
   8   7  -1   86.23   10.37
   8   7   0  109.43   11.89
   8  -7   0  149.11   13.80
   8  -7   0  125.08   12.72
   8   7   0  108.37   11.51
   8   7   1   76.34    9.37
   8  -7   1   91.16   10.70
   8  -7   1   76.71   10.24
   8   7   1   79.21   10.15
   8  -7   2   39.17    7.23
   8   7   2   61.99    8.62
   8  -7   2   47.83    8.47
   8   7   2   35.57    6.60
   8   7   3   72.80    9.48
   8  -7   3   72.65   10.30
   8  -7   3   68.11    9.97
   8   7   3   71.73    9.58
   8   7   4   40.96    6.98
   8  -7   4   45.26    8.02
   8  -7   4   54.23    8.55
   8   7   4   44.08    7.82
   8   7   5   93.31   10.73
   8  -7   5   84.23   11.24
   8  -7   5   97.01   11.39
   8   7   5  104.55   11.71
   8  -7   6   27.32    6.51
   8   7   6   15.58    4.76
   8  -7   6   18.60    5.61
   8   7   6   17.87    4.53
   8  -7   7   37.06    7.55
   8   7   7   64.30    9.54
   8  -7   7   53.31    8.68
   8   7   7   53.16    8.57
   8   7   8   52.74    8.06
   8  -7   8   44.64    8.02
   8  -7   8   59.88    8.56
   8   7   8   69.25    9.47
   8  -7   9    2.93    1.76
   8   7   9   -0.88    2.37
   8  -7   9   -0.38    2.21
   8   7   9    2.57    2.76
   8  -7  10   24.34    5.75
   8   7  10   28.96    5.77
   8  -7  10   35.10    8.45
   8   7  10   30.78    7.26
   8   7  11   63.40    9.26
   8  -7  11   66.55   10.46
   8   7  11   66.98    9.54
   8  -7  11   84.89   10.45
   8  -7  12   34.72    7.08
   8   7  12   46.00    8.17
   8   7  12   51.13    8.46
   8  -7  13    8.70    3.24
   8   7  13   14.54    4.87
   8   7  13    9.92    4.78
   8  -7  14   -1.08    2.66
   8   7  14    3.63    2.67
   8   7  14    5.95    3.62
   8   7  15   -0.71    2.55
   8   7  15    1.45    3.61
   8   7  16    1.82    3.39
   8   7  16    2.70    3.93
   8   7  17    0.95    3.50
   8   7  17    4.12    2.32
  -8   7  18    4.79    2.53
   8   7  18    3.65    2.04
   8   7  19    1.36    2.81
  -8   7  19    3.17    3.24
   8   7  20    6.28    4.74
  -8   7  20   10.45    5.30
  -8   7  21    9.53    5.17
   8   7  21    4.76    4.74
   8  -8 -19   21.68    7.41
   8  -8 -19    8.29    3.78
   8  -8 -18   24.63    7.47
   8  -8 -18   46.95    9.20
   8  -8 -17   70.24   10.33
   8  -8 -17   94.05   12.75
   8  -8 -16    2.39    3.47
   8  -8 -16    2.30    3.66
   8   8 -15   28.08    7.06
   8  -8 -15   22.69    5.81
   8  -8 -15   32.91    7.23
   8  -8 -14   19.82    5.05
   8   8 -14   27.03    6.69
   8  -8 -14   20.13    5.43
   8   8 -13    3.12    3.45
   8  -8 -13   -0.16    2.50
   8  -8 -13    5.62    3.20
   8  -8 -12   68.02   10.16
   8   8 -12   52.67    9.06
   8  -8 -12   64.48   10.22
   8   8 -11  109.62   12.89
   8  -8 -11  128.23   14.14
   8  -8 -11  126.43   14.27
   8   8 -10    5.46    2.57
   8  -8 -10   10.78    3.98
   8  -8 -10    8.01    4.29
   8   8  -9   61.91    9.11
   8  -8  -9   60.99    9.95
   8  -8  -9   49.10    9.13
  -8   8  -8   94.94   11.98
   8  -8  -8   81.82   10.93
   8  -8  -8   94.20   12.06
   8   8  -7   36.92    7.10
  -8   8  -7   21.89    5.40
   8  -8  -7   16.35    5.37
   8  -8  -7   28.54    6.54
   8   8  -6   22.56    5.42
  -8   8  -6   30.52    6.46
   8  -8  -6   22.95    5.93
   8  -8  -6   31.01    6.64
   8   8  -5  110.41   12.52
  -8   8  -5   86.29   10.82
   8  -8  -5   99.58   11.78
   8  -8  -5  121.98   13.58
   8   8  -4   23.34    5.90
   8  -8  -4   12.95    3.90
   8  -8  -4   21.76    5.83
   8   8  -3    7.06    2.87
   8  -8  -3    9.35    3.18
   8   8  -3    9.18    3.29
  -8   8  -3    8.60    3.22
   8  -8  -3    7.29    3.62
   8   8  -2   56.93    8.61
  -8   8  -2   58.24    8.85
   8  -8  -2   70.10   10.63
   8  -8  -2   48.04    8.74
   8   8  -2   51.83    8.35
   8   8  -1   42.61    7.89
  -8   8  -1   44.87    8.02
   8  -8  -1   43.99    8.36
   8  -8  -1   43.07    8.40
   8   8  -1   43.60    8.19
   8  -8   0    4.69    2.12
   8   8   0    2.96    3.45
  -8   8   0    1.63    1.62
   8  -8   0    6.28    3.71
   8   8   0    1.47    2.80
   8  -8   1   36.33    6.98
   8   8   1   42.08    7.60
  -8   8   1   48.81    8.33
   8  -8   1   52.48    8.56
   8   8   1   53.65    8.47
   8   8   2   61.71    9.10
   8  -8   2   54.20    8.88
   8  -8   2   47.55    8.33
   8   8   2   46.60    8.07
   8   8   3    9.06    4.05
   8  -8   3    6.25    3.21
   8   8   3   16.38    5.87
  -8   8   3    8.27    3.06
   8  -8   3   11.06    4.77
   8   8   4   26.89    6.15
   8  -8   4   19.27    5.34
  -8   8   4   22.63    6.03
   8   8   4   40.67    7.37
   8  -8   4   34.48    7.83
   8   8   5  121.70   13.44
   8   8   5   91.55   11.19
  -8   8   5   81.57   10.71
   8  -8   5  100.29   12.18
   8  -8   5   88.08   11.57
   8   8   6   18.55    5.14
   8  -8   6   25.05    6.17
  -8   8   6   15.92    5.26
   8   8   6   24.02    6.07
   8   8   7   24.34    6.24
   8  -8   7   12.11    4.28
   8   8   7   22.38    6.64
  -8   8   7   17.45    6.89
   8   8   8   85.17   11.28
   8   8   8   69.23   10.09
   8  -8   8   95.25   12.31
   8   8   9   59.97    9.59
  -8   8   9   69.91   10.60
   8  -8   9   71.46   10.15
   8   8   9   66.36    9.94
   8  -8  10    2.70    1.74
   8   8  10    1.97    2.35
  -8   8  10    7.57    5.48
   8   8  10   13.06    4.54
   8   8  11  133.64   13.96
   8  -8  11  127.45   14.52
   8   8  11  117.67   13.40
   8   8  12   63.19    9.49
  -8   8  12   58.48    8.84
   8  -8  12   67.26   10.29
   8   8  12   58.61   10.02
   8  -8  13    2.33    4.16
   8   8  13    6.39    5.14
  -8   8  13    8.95    4.85
   8   8  13    4.47    2.19
   8   8  14   20.68    4.90
  -8   8  14   21.45    6.73
   8   8  14   24.48    5.94
   8   8  15   24.02    6.32
  -8   8  15   35.07    7.63
   8   8  15   22.52    6.48
  -8   8  16    7.96    4.73
   8   8  16    3.75    3.06
   8   8  16    6.61    3.22
   8   8  17   92.71   12.63
  -8   8  17   93.41   12.50
   8   8  17   68.38   10.48
   8   8  18   40.90    8.50
  -8   8  18   43.16    9.31
   8   8  19   10.52    5.60
  -8   8  19    9.12    5.01
   8  -9 -15   19.36    5.65
   8  -9 -15   23.23    6.84
   8   9 -14   13.51    6.39
   8  -9 -14   14.02    5.92
   8  -9 -14    3.82    1.74
   8   9 -13   23.80    5.92
   8  -9 -13   12.47    5.41
   8  -9 -13   30.43    7.76
   8   9 -12   20.19    5.46
   8  -9 -12   22.60    6.40
   8  -9 -12   12.52    4.62
   8   9 -11   10.09    3.26
   8  -9 -11   12.72    5.24
   8  -9 -11    6.24    3.64
   8   9 -10   25.44    7.60
   8  -9 -10   17.96    6.53
   8  -9 -10    8.39    2.98
   8  -9  -9    3.72    4.40
   8   9  -9    2.31    3.41
   8  -9  -9    5.30    3.97
   8   9  -8    8.06    4.67
   8  -9  -8    4.99    4.89
   8  -9  -8   14.96    5.43
   8   9  -7    1.98    2.63
   8  -9  -7   -1.59    2.26
   8  -9  -7   -1.06    3.18
   8   9  -6    1.16    1.64
  -8   9  -6   -2.97    2.91
   8  -9  -6    4.97    3.58
   8  -9  -6   -4.84    3.49
   8   9  -5   23.29    6.65
  -8   9  -5   18.72    5.67
   8  -9  -5   28.75    6.64
   8  -9  -5   33.08    7.50
   8   9  -4    1.97    3.54
  -8   9  -4    3.38    1.94
   8  -9  -4    0.95    3.74
   8  -9  -4    3.12    4.22
   8   9  -3    0.82    2.38
  -8   9  -3    7.65    3.59
   8  -9  -3    2.47    1.99
   8   9  -2    5.76    1.45
  -8   9  -2   15.85    5.01
   8  -9  -2    9.04    4.72
   8   9  -2   12.89    4.83
   8  -9  -2   12.05    4.69
   8   9  -1    8.43    1.70
  -8   9  -1    6.98    4.76
   8  -9  -1    6.55    4.76
   8   9  -1    9.84    4.59
   8  -9  -1    5.45    3.43
   8   9   0   -0.52    1.83
  -8   9   0   -1.65    1.85
   8  -9   0   -0.43    2.08
   8   9   1   15.41    5.00
  -8   9   1   12.10    5.27
   8   9   1    4.19    2.04
   8  -9   1    4.82    2.84
   8   9   2    9.46    4.31
   8   9   2   14.03    3.77
  -8   9   2   15.16    5.11
   8  -9   2    6.72    3.15
   8   9   3    7.13    2.97
   8   9   3    6.49    3.63
  -8   9   3    5.95    4.68
   8  -9   3    4.42    1.95
   8   9   4    7.47    5.39
   8   9   4    5.74    4.23
  -8   9   4   -3.33    1.92
   8  -9   4    0.97    3.14
   8   9   5   23.89    6.38
   8   9   5   26.55    7.34
  -8   9   5   28.95    7.23
   8  -9   5   24.24    7.24
   8   9   6    0.75    2.08
   8   9   6    6.01    4.95
  -8   9   6    0.13    2.39
   8  -9   6    0.93    3.89
   8  -9   7    3.37    4.18
   8   9   7   -0.03    2.43
   8   9   7    0.03    1.70
  -8   9   7   -2.47    3.27
   8  -9   8   13.05    5.19
   8   9   8   13.05    4.86
   8   9   8   10.99    5.26
  -8   9   8   20.19    6.07
   8   9   9    2.95    2.28
   8  -9   9   -0.12    3.08
   8   9   9   -0.10    3.21
  -8   9   9    2.27    1.71
   8  -9  10    9.09    3.53
   8   9  10   17.23    5.20
  -8   9  10   18.05    5.14
   8   9  10   25.81    6.95
   8  -9  11   11.27    5.09
   8   9  11   15.99    5.59
  -8   9  11   21.57    6.86
   8   9  11   14.81    5.35
   8   9  12    7.64    3.62
  -8   9  12    8.80    4.74
   8   9  12    6.19    3.36
   8   9  13   31.73    7.03
  -8   9  13   27.11    6.98
   8   9  13   23.63    6.06
   8   9  14   13.81    4.89
  -8   9  14   15.78    5.56
   8   9  14    6.74    3.41
   8   9  15   13.09    5.35
  -8   9  15   17.65    5.89
   8   9  15   21.43    6.25
   8  10 -10   -1.30    2.25
   8 -10 -10    0.14    1.58
   8  10  -9   37.28    8.07
   8 -10  -9   32.57    8.07
   8 -10  -9   35.67    7.98
   8  10  -8   46.01    8.54
   8 -10  -8   32.51    8.66
   8 -10  -8   28.48    7.60
   8  10  -7    7.61    3.35
   8 -10  -7    8.60    4.88
   8  10  -6   10.63    5.19
  -8  10  -6    2.63    3.59
   8 -10  -6    5.33    3.78
   8  10  -5   52.95    9.38
  -8  10  -5   29.96    7.54
   8 -10  -5   49.55   10.17
   8  10  -4   21.42    5.75
  -8  10  -4   11.46    5.06
   8 -10  -4    9.55    4.02
   8  10  -3   -4.43    3.18
  -8  10  -3    0.18    2.02
   8 -10  -3    2.02    3.46
   8  10  -2   20.49    6.24
  -8  10  -2   19.79    6.25
   8 -10  -2   14.13    4.84
   8  10  -1   23.70    6.65
  -8  10  -1   25.36    6.56
   8 -10  -1   19.58    6.35
   8  10   0    3.66    2.19
  -8  10   0    3.68    3.88
   8 -10   0   -0.06    1.72
   8  10   0    0.21    2.48
   8  10   1   28.43    6.69
  -8  10   1   34.51    7.39
   8 -10   1   21.07    6.54
   8  10   1   23.87    5.90
   8  10   2   10.23    3.46
   8  10   2   20.93    6.71
  -8  10   2   27.88    7.56
   8 -10   2   19.77    5.90
   8  10   3   -2.65    2.34
   8  10   3    0.99    2.55
  -8  10   3   -0.27    2.09
   8 -10   3   -0.86    2.94
   8  10   4   11.18    4.31
   8  10   4    7.65    3.04
  -8  10   4   19.70    5.55
   8 -10   4   13.35    3.15
   8  10   5   38.38    8.40
   8  10   5   41.93    8.43
  -8  10   5   32.45    7.21
   8 -10   5   38.31    8.40
   8  10   6    4.10    4.06
   8  10   6   -3.43    3.90
  -8  10   6    2.35    2.50
   8 -10   6    0.65    2.44
   8  10   7   12.01    5.07
   8  10   7   21.57    6.41
  -8  10   7   11.86    4.98
   8 -10   7    5.77    4.25
   8  10   8   17.38    4.89
   8 -10   8   34.08    8.79
   8  10   8   42.73    9.37
  -8  10   8   28.62    7.54
   8  10   9   29.40    8.14
  -8  10   9   35.88    8.14
   8 -10   9   37.50    8.64
   8  10   9   31.20    7.25
  -8  10  10    1.73    2.88
   8  10  10   -2.20    2.01
   8  10  10   -2.12    3.37
   8 -10  10    6.95    5.45
   9   0 -26    9.66    7.08
   9   0 -25    7.32    5.73
   9   0 -24   -0.57    1.92
   9   0 -23    0.65    2.48
   9   0 -22    1.83    1.77
   9   0 -21   -1.30    2.63
   9   0 -20   -0.42    2.00
   9   0 -19   -3.26    2.76
   9   0 -18    1.92    2.94
   9   0 -17    2.15    3.19
   9   0 -16   -0.35    1.70
   9   0 -15   -0.22    1.94
   9   0 -14    2.54    2.40
   9   0 -13    4.32    3.57
   9   0 -13   -0.65    1.21
   9   0 -12    0.74    0.86
   9   0 -12    1.50    1.98
   9   0 -11    1.63    1.82
   9   0 -11    0.62    1.15
   9   0 -10   -0.26    1.15
   9   0 -10    1.82    2.57
   9   0  -9   -0.86    1.03
   9   0  -9   -0.17    1.32
   9   0  -8    0.77    1.62
   9   0  -8    0.44    1.06
   9   0  -8   -0.42    1.96
   9   0  -7    0.37    0.88
   9   0  -7    1.40    1.45
   9   0  -7    1.44    1.06
   9   0  -6   -0.80    1.83
   9   0  -6   -0.39    1.42
   9   0  -6    0.93    1.99
   9   0  -5   -0.67    1.32
   9   0  -5   -0.73    1.55
   9   0  -5    0.51    1.05
   9   0  -4   -1.41    1.58
   9   0  -4    1.62    2.17
   9   0  -4   -0.28    0.82
   9   0  -3   -0.57    1.38
   9   0  -3    1.20    1.79
   9   0  -3   -1.04    1.88
   9   0  -2   -0.01    1.50
   9   0  -2   -0.13    1.36
   9   0  -2    1.19    1.92
   9   0  -1    0.70    2.43
   9   0  -1    0.11    0.84
   9   0  -1    1.48    1.05
   9   0   0   -0.40    1.38
   9   0   0   -0.11    1.50
   9   0   0    0.20    1.00
   9   0   1   -0.01    1.06
   9   0   1    0.08    1.53
   9   0   2    1.84    2.03
   9   0   2    0.67    1.66
   9   0   3   -0.84    1.75
   9   0   3   -0.76    1.14
   9   0   4   -0.84    2.03
   9   0   4   -0.67    1.51
   9   0   5   -0.14    1.93
   9   0   5    0.48    1.12
   9   0   6    0.05    0.86
   9   0   6   -0.06    1.78
   9   0   7    1.80    2.78
   9   0   7   -0.81    1.53
   9   0   8   -0.11    1.56
   9   0   8   -0.24    0.78
   9   0   9    0.15    1.99
   9   0   9    0.71    1.35
   9   0  10   -1.05    2.47
   9   0  10   -0.44    0.72
   9   0  11    0.54    1.10
   9   0  11    0.64    1.15
   9   0  12   -0.19    2.33
   9   0  12   -0.94    1.25
   9   0  13    0.81    1.48
   9   0  13    2.62    1.43
   9   0  14   -0.05    1.66
   9   0  15   -0.68    2.48
   9   0  16   -0.33    2.57
   9   0  17   -0.59    2.34
   9   0  18   -1.19    2.10
   9   0  19    0.14    2.04
   9   0  20   -0.82    2.92
   9   0  21    1.72    2.22
   9   0  22   -1.97    3.19
   9   0  23   -0.48    3.46
   9  -1 -27   92.68   12.45
   9  -1 -26   40.39    8.13
   9  -1 -25   12.43    3.21
   9  -1 -24    5.91    3.46
   9  -1 -23   33.46    6.69
   9   1 -22   31.92    7.45
   9  -1 -22   50.73    9.36
   9   1 -21  154.58   14.26
   9  -1 -21  120.94   13.03
   9   1 -20   21.30    5.79
   9  -1 -20   15.43    4.97
   9   1 -19   56.91    8.74
   9  -1 -19   60.34    9.26
   9   1 -18   10.52    3.80
   9  -1 -18   -0.86    3.23
   9   1 -17  593.31   26.45
   9  -1 -17  592.93   27.88
   9   1 -16   80.97    9.52
   9  -1 -16   76.80    9.61
   9   1 -15  325.34   19.00
   9  -1 -15  307.52   19.17
   9  -1 -14    3.16    2.11
   9   1 -14    0.05    1.55
   9  -1 -14    0.89    1.40
   9  -1 -13    0.64    2.03
   9   1 -13   -1.17    2.67
   9  -1 -13    1.46    2.64
   9   1 -13    5.93    3.34
   9  -1 -12  105.22   10.70
   9   1 -12   92.18    9.88
   9   1 -12   97.05    9.73
   9  -1 -12   88.19    9.14
   9  -1 -11 1018.74   30.32
   9   1 -11 1052.45   27.82
   9   1 -11 1069.20   32.03
   9  -1 -11 1032.64   33.40
   9   1 -11 1023.31   31.82
   9  -1 -10   45.57    6.33
   9   1 -10   38.14    5.64
   9   1 -10   31.98    5.42
   9  -1 -10   32.61    5.77
   9   1 -10   43.83    6.39
   9  -1  -9  562.56   22.16
   9   1  -9  598.15   21.06
   9  -1  -9  644.10   25.77
   9   1  -9  622.59   23.84
   9   1  -9  620.99   24.33
   9  -1  -8  232.13   14.11
   9   1  -8  222.89   12.87
   9  -1  -8  219.77   14.93
   9   1  -8  194.96   13.44
   9   1  -8  181.43   13.19
   9  -1  -7  229.39   14.11
   9   1  -7  266.19   14.08
   9  -1  -7  251.45   16.01
   9   1  -7  266.38   15.49
   9   1  -7  249.27   14.99
   9  -1  -6  191.84   12.90
   9   1  -6  209.95   12.52
   9  -1  -6  208.51   14.33
   9   1  -6  197.25   13.28
   9   1  -6  220.89   13.95
   9  -1  -5  563.19   21.85
   9   1  -5  563.47   20.49
   9  -1  -5  567.55   23.54
   9   1  -5  564.70   21.99
   9   1  -5  572.96   22.33
   9  -1  -4  317.41   16.24
   9   1  -4  328.64   15.81
   9  -1  -4  310.31   17.03
   9   1  -4  329.47   16.78
   9   1  -4  340.52   17.18
   9   1  -3  462.40   19.98
   9  -1  -3  504.38   20.65
   9   1  -3  526.17   20.12
   9  -1  -3  500.93   21.51
   9   1  -3  516.36   20.95
   9  -1  -2  271.25   15.10
   9   1  -2  285.89   14.83
   9  -1  -2  265.90   15.68
   9   1  -2  262.51   15.08
   9   1  -2  257.72   14.82
   9  -1  -1  806.86   26.47
   9   1  -1  792.67   25.96
   9   1  -1  830.05   25.54
   9  -1  -1  823.56   27.63
   9   1  -1  808.15   25.98
   9  -1   0 1128.97   31.03
   9  -1   0 1105.42   32.25
   9   1   0 1125.24   30.08
   9   1   0 1055.80   29.31
   9  -1   1  808.94   26.38
   9  -1   1  836.30   28.01
   9   1   1  855.14   26.53
   9   1   1  850.07   26.28
   9  -1   2  314.30   16.48
   9   1   2  277.15   15.23
   9  -1   3  510.21   21.47
   9   1   3  498.45   20.62
   9   1   3  462.08   18.94
   9  -1   4  301.11   16.58
   9   1   4  297.75   16.39
   9   1   4  280.97   14.66
   9  -1   5  578.31   22.85
   9   1   5  569.33   20.94
   9   1   6  203.58   12.39
   9   1   6  205.75   13.82
   9  -1   6  208.87   13.70
   9  -1   7  224.56   14.51
   9   1   7  247.65   13.64
   9   1   8  207.83   13.99
   9  -1   8  207.46   14.12
   9   1   8  210.08   12.52
   9  -1   9  603.01   24.33
   9   1   9  625.56   25.00
   9   1   9  606.25   21.31
   9  -1  10   28.18    5.67
   9   1  10   24.07    4.97
   9   1  10   31.73    4.88
   9   1  11 1038.21   33.05
   9  -1  11 1031.32   32.74
   9   1  11  983.19   27.26
   9   1  12  118.04   11.09
   9  -1  12  103.00   10.39
   9   1  12  102.92    8.65
   9   1  13    2.14    2.21
   9  -1  13    1.14    2.10
   9   1  13    0.20    1.54
   9  -1  14    2.65    2.34
   9   1  14    1.81    1.64
   9   1  15  326.58   19.89
   9  -1  15  282.70   18.12
   9   1  16   69.87    9.21
   9  -1  16   69.59    8.88
   9   1  17  626.82   28.08
   9  -1  17  654.45   28.42
   9  -1  18    7.06    3.36
   9   1  18   10.05    4.13
   9  -1  19   40.16    7.09
   9   1  19   41.20    7.79
   9  -1  20   25.15    6.14
   9   1  20   22.97    6.32
   9  -1  21  114.67   12.78
   9   1  21  124.78   13.78
   9   1  22   55.81    9.29
   9  -1  22   36.72    7.90
   9   1  23   50.17    9.27
   9   1  24    1.49    3.51
   9  -2 -27    4.45    3.93
   9  -2 -26   14.89    5.21
   9  -2 -25    4.47    2.73
   9  -2 -24    2.89    4.35
   9  -2 -23    0.55    3.86
   9  -2 -22   14.58    4.62
   9  -2 -21    3.83    1.80
   9  -2 -20    0.97    3.08
   9  -2 -19    3.06    4.11
   9  -2 -18   20.64    6.20
   9  -2 -17    0.60    2.09
   9   2 -17    6.44    3.59
   9  -2 -16   20.88    5.17
   9   2 -16   28.34    5.91
   9   2 -16   21.96    5.20
   9  -2 -15    0.31    1.76
   9   2 -15    1.02    2.32
   9  -2 -15   -1.96    3.10
   9   2 -15    1.91    2.36
   9  -2 -14   17.05    4.79
   9   2 -14    9.10    3.14
   9  -2 -14   11.18    4.98
   9   2 -14   13.05    3.93
   9  -2 -13    3.63    2.52
   9   2 -13    2.35    1.52
   9  -2 -13    6.26    2.23
   9   2 -13    4.17    1.68
   9  -2 -12   22.72    5.31
   9   2 -12   31.00    5.62
   9  -2 -12   29.33    5.78
   9   2 -12   25.93    5.01
   9  -2 -11   11.87    3.76
   9   2 -11   19.98    4.30
   9  -2 -11   12.71    3.63
   9   2 -11   16.57    3.77
   9   2 -10    3.72    2.08
   9  -2 -10    3.79    2.93
   9  -2 -10    3.45    2.14
   9   2 -10    1.16    1.28
   9   2 -10   -0.07    1.66
   9  -2  -9    3.69    2.70
   9   2  -9    5.37    3.61
   9  -2  -9    1.64    2.54
   9   2  -9    0.58    1.45
   9   2  -9    3.35    2.08
   9  -2  -8   51.95    7.18
   9   2  -8   48.55    5.96
   9  -2  -8   51.65    7.57
   9   2  -8   49.58    6.37
   9   2  -8   61.08    7.79
   9  -2  -7   34.50    5.42
   9   2  -7   26.78    5.10
   9  -2  -7   32.70    6.08
   9   2  -7   26.53    4.91
   9   2  -7   48.66    6.73
   9   2  -6   10.60    2.85
   9   2  -6    8.09    3.27
   9  -2  -6   14.34    3.93
   9  -2  -6    4.53    1.68
   9   2  -6   11.04    3.33
   9   2  -5    5.25    1.85
   9   2  -5    9.37    2.79
   9  -2  -5    2.62    1.46
   9  -2  -5    3.35    1.40
   9   2  -5    4.88    1.68
   9   2  -4   12.70    3.57
   9   2  -4   13.55    3.32
   9  -2  -4   10.93    3.00
   9  -2  -4   15.16    3.90
   9   2  -4   13.90    3.01
   9   2  -3   13.82    3.90
   9   2  -3   12.93    3.11
   9  -2  -3   11.18    2.99
   9   2  -3    8.22    2.19
   9  -2  -3   13.56    4.42
   9   2  -2    5.55    2.81
   9   2  -2    8.43    2.89
   9  -2  -2   15.08    3.71
   9  -2  -2   14.80    4.15
   9   2  -2   16.49    3.94
   9  -2  -1   81.36    8.84
   9  -2  -1   79.51    8.79
   9   2  -1   73.02    7.80
   9   2  -1   68.85    7.52
   9   2   0   21.47    4.35
   9  -2   0   13.36    3.28
   9  -2   0   18.43    4.06
   9   2   0   25.17    5.04
   9   2   1   92.47    8.69
   9  -2   1   69.50    8.01
   9  -2   1   78.21    8.95
   9   2   1   74.10    8.15
   9   2   2   13.43    3.43
   9   2   2   20.84    4.49
   9  -2   2   22.13    4.71
   9  -2   2   13.25    3.98
   9   2   3    9.07    2.98
   9   2   3   18.80    4.26
   9  -2   3   11.38    3.36
   9  -2   3   14.32    3.53
   9   2   4    6.82    2.17
   9   2   4   10.15    2.99
   9  -2   4    7.66    2.63
   9   2   5    3.54    1.90
   9   2   5    4.24    2.11
   9  -2   5    3.81    1.44
   9   2   6    6.90    2.58
   9   2   6    8.36    2.84
   9  -2   6    4.49    1.48
   9   2   7   23.32    4.60
   9   2   7   29.60    5.94
   9  -2   7   26.80    5.78
   9   2   8   53.05    6.65
   9   2   8   59.71    7.98
   9  -2   8   64.09    8.00
   9   2   9    6.67    2.70
   9   2   9    4.51    3.34
   9  -2   9    3.05    2.77
   9   2  10   -0.17    1.31
   9   2  10    1.00    3.79
   9  -2  10    4.46    3.14
   9   2  11   15.29    3.63
   9   2  11   18.61    4.85
   9  -2  11   15.15    3.69
   9   2  12   15.79    3.23
   9   2  12   19.92    4.89
   9  -2  12   29.80    5.99
   9   2  13    2.41    1.46
   9   2  13    4.30    2.81
   9  -2  13   -0.33    2.04
   9   2  14    9.50    3.11
   9   2  14    8.25    3.30
   9  -2  14   10.05    3.49
   9   2  15   -0.24    1.99
   9  -2  15    1.33    1.84
   9   2  16   18.48    5.06
   9  -2  16   17.23    4.16
   9   2  17    2.62    1.98
   9  -2  17    3.56    3.04
   9   2  18   24.66    6.25
   9  -2  18   14.88    4.60
   9   2  19    3.90    2.58
   9  -2  19    2.00    1.80
   9   2  20   -1.38    1.84
   9  -2  20    0.05    2.42
   9   2  21    0.29    2.26
   9  -2  21    6.36    3.39
   9   2  22   14.37    5.02
   9   2  23   -1.70    3.48
   9   2  24    4.94    4.17
   9   2  25    0.66    4.33
   9  -3 -26    3.35    2.61
   9  -3 -25  113.91   13.61
   9  -3 -24   45.35    8.32
   9  -3 -23   26.05    6.35
   9  -3 -22  122.88   13.61
   9  -3 -21  157.88   15.09
   9  -3 -20    0.73    1.59
   9  -3 -19   35.79    7.31
   9   3 -19   23.89    6.07
   9  -3 -18  105.29   12.03
   9   3 -18  114.30   12.17
   9  -3 -17   78.00   10.18
   9  -3 -17   80.72   11.29
   9   3 -17  109.62   11.99
   9  -3 -16  582.00   27.60
   9  -3 -16  572.39   26.69
   9   3 -16  561.86   26.16
   9  -3 -15   86.75   10.76
   9  -3 -15   84.47   10.18
   9   3 -15   79.27   10.12
   9  -3 -14  104.16   11.49
   9  -3 -14   92.98   10.29
   9   3 -14  113.74   11.91
   9  -3 -13  118.36   12.02
   9  -3 -13  127.63   12.20
   9   3 -13  125.27   12.29
   9  -3 -12  437.55   22.56
   9  -3 -12  447.97   22.33
   9   3 -12  475.32   23.07
   9  -3 -11  706.59   28.59
   9  -3 -11  679.39   27.32
   9   3 -11  730.33   28.07
   9  -3 -10  742.41   29.21
   9   3 -10  806.50   25.32
   9   3 -10  847.16   30.00
   9  -3 -10  764.63   29.06
   9   3  -9    5.01    2.19
   9  -3  -9    1.56    1.20
   9  -3  -9    3.33    1.34
   9   3  -9    1.91    2.00
   9   3  -9   -0.34    1.06
   9  -3  -8  135.94   12.68
   9   3  -8  139.08   10.41
   9   3  -8  147.07   10.30
   9   3  -8  159.79   13.05
   9  -3  -8  146.11   12.23
   9  -3  -7 1491.10   39.28
   9  -3  -7 1462.86   40.43
   9   3  -7 1476.72   33.66
   9   3  -7 1424.68   32.82
   9   3  -7 1566.97   39.39
   9  -3  -6   62.86    8.37
   9  -3  -6   71.12    9.08
   9   3  -6   59.08    6.93
   9   3  -6   76.47    7.58
   9   3  -6   44.95    6.52
   9  -3  -5 1965.48   44.76
   9  -3  -5 2003.07   46.66
   9   3  -5 1981.58   39.64
   9   3  -5 1908.80   43.40
   9   3  -4  723.83   26.53
   9  -3  -4  723.80   26.90
   9  -3  -4  762.48   28.75
   9   3  -4  722.49   23.37
   9   3  -4  746.07   24.62
   9   3  -3   -0.84    2.14
   9  -3  -3    0.61    1.05
   9   3  -3    0.43    1.55
   9  -3  -3    0.41    2.56
   9   3  -3    0.05    0.97
   9   3  -2   22.40    5.08
   9   3  -2   39.85    5.54
   9  -3  -2   28.12    5.50
   9  -3  -2   32.44    6.46
   9   3  -2   36.20    5.50
   9   3  -1 3084.35   54.05
   9   3  -1 2923.68   49.93
   9  -3  -1 2967.78   54.28
   9  -3  -1 2900.09   55.01
   9   3   0    1.35    1.44
   9  -3   0    5.21    2.96
   9   3   0    3.33    2.52
   9  -3   0    6.59    3.25
   9   3   1 2787.70   51.05
   9   3   1 2839.02   50.84
   9  -3   1 2793.93   53.41
   9  -3   1 2789.79   53.43
   9   3   2   35.32    5.79
   9  -3   2   36.27    6.19
   9  -3   2   35.79    6.39
   9   3   2   22.79    5.05
   9   3   3    0.12    1.43
   9  -3   3    1.45    1.33
   9   3   3    0.42    2.45
   9  -3   3    1.92    2.38
   9   3   4  772.17   26.42
   9   3   4  715.10   26.44
   9  -3   4  768.61   27.70
   9  -3   4  798.65   29.24
   9   3   5 1988.95   42.87
   9   3   5 1951.86   43.52
   9  -3   5 1979.57   44.82
   9  -3   5 1870.01   45.21
   9   3   6   77.22    8.52
   9   3   6   67.20    8.52
   9  -3   6   70.95    8.74
   9   3   7 1479.59   36.78
   9   3   7 1484.51   39.36
   9  -3   7 1491.52   39.32
   9   3   8  138.55   11.34
   9   3   8  141.64   12.46
   9  -3   8  146.81   12.48
   9   3   9    5.38    3.50
   9  -3   9    5.17    1.39
   9   3   9    3.81    1.27
   9   3  10  814.78   27.52
   9   3  10  813.02   29.85
   9  -3  10  810.50   29.92
   9   3  11  714.70   26.20
   9   3  11  710.35   28.51
   9  -3  11  630.79   26.59
   9   3  12  488.78   21.46
   9   3  12  502.48   23.89
   9  -3  12  495.80   23.83
   9   3  13  113.49   10.43
   9   3  13  131.14   12.46
   9  -3  13  125.55   12.12
   9   3  14  107.70   10.29
   9   3  14  102.60   11.22
   9  -3  14  102.45   11.18
   9   3  15   71.94    8.30
   9   3  15   92.06   10.92
   9  -3  15   87.82   10.64
   9   3  16  586.48   27.69
   9  -3  16  630.14   28.11
   9   3  17   61.79    9.33
   9  -3  17   90.33   10.66
   9   3  18  133.34   13.40
   9  -3  18  109.29   12.26
   9  -3  19   45.92    8.03
   9   3  19   23.19    6.15
   9  -3  20    1.01    1.88
   9   3  20   -1.29    2.53
   9   3  21  164.53   16.20
   9   3  22  118.98   14.00
   9   3  23    9.04    4.02
   9   3  24   32.59    7.91
   9   3  25  109.08   13.88
   9   3  26    2.62    4.21
   9  -4 -25    1.96    2.94
   9  -4 -24    1.76    3.57
   9  -4 -23   17.15    5.02
   9  -4 -22    1.13    3.70
   9  -4 -21    6.88    4.48
   9  -4 -20   -3.96    3.24
   9  -4 -19    6.27    3.14
   9   4 -19   -7.30    3.18
   9  -4 -18    2.14    1.82
   9  -4 -18    0.99    2.16
   9   4 -18   -0.51    2.63
   9  -4 -17  257.32   18.70
   9  -4 -17  221.08   17.88
   9   4 -17  250.78   18.39
   9   4 -16    4.30    2.49
   9  -4 -16    3.77    2.92
   9  -4 -16    0.61    2.23
   9   4 -15    9.72    2.95
   9  -4 -15   11.52    4.78
   9  -4 -15   17.19    4.44
   9   4 -14   30.54    6.41
   9  -4 -14   40.39    7.35
   9  -4 -14   33.62    6.70
   9  -4 -13    4.85    2.21
   9   4 -13    3.47    1.51
   9  -4 -13    4.39    3.35
   9  -4 -12   80.76    9.82
   9  -4 -12   64.53    8.90
   9   4 -12   78.49    9.74
   9  -4 -11  270.22   18.22
   9  -4 -11  283.93   18.34
   9   4 -11  256.61   17.26
   9   4 -10    0.48    1.21
   9  -4 -10    1.89    1.88
   9  -4 -10    1.70    2.35
   9  -4  -9  149.60   13.57
   9  -4  -9  183.09   14.79
   9   4  -9  200.94   14.82
   9  -4  -8  129.61   12.50
   9   4  -8  139.13   10.62
   9  -4  -8  124.92   11.80
   9   4  -8  129.46   12.03
   9   4  -7    0.54    1.87
   9  -4  -7   -2.79    2.12
   9   4  -7    0.17    1.19
   9  -4  -7   -1.77    1.46
   9   4  -6  237.24   15.86
   9   4  -6  208.34   13.16
   9  -4  -6  255.91   17.19
   9  -4  -6  230.87   15.96
   9  -4  -5  103.96   10.90
   9   4  -5  109.73   10.69
   9   4  -5  100.32    9.10
   9  -4  -5  109.07   11.18
   9   4  -4   71.37    8.72
   9  -4  -4   71.68    8.78
   9   4  -4   76.08    8.18
   9  -4  -4   58.20    8.05
   9   4  -4   75.82    7.61
   9   4  -3   25.76    5.16
   9  -4  -3   24.59    5.19
   9   4  -3   22.37    4.88
   9  -4  -3   24.13    5.05
   9   4  -3   22.62    4.44
   9   4  -2  144.42   12.37
   9  -4  -2  161.98   12.90
   9   4  -2  157.65   12.14
   9  -4  -2  137.99   12.23
   9   4  -2  137.48   10.19
   9   4  -1    0.74    1.75
   9  -4  -1    3.23    2.89
   9  -4  -1    1.99    2.49
   9   4  -1    1.53    2.06
   9   4   0  447.00   21.20
   9  -4   0  489.18   22.86
   9   4   0  484.24   21.50
   9  -4   0  473.41   23.10
   9   4   1    1.50    2.01
   9  -4   1    0.76    1.56
   9  -4   1    4.55    2.40
   9   4   1   -0.19    1.54
   9   4   2  170.45   12.73
   9  -4   2  164.54   13.41
   9   4   2  136.45   11.58
   9  -4   2  184.24   14.13
   9   4   3   25.93    5.27
   9   4   3   23.51    5.29
   9  -4   3   30.86    5.68
   9  -4   3   28.66    5.60
   9   4   4   60.31    8.11
   9  -4   4   55.63    7.57
   9   4   4   76.73    8.92
   9  -4   4   63.28    8.64
   9   4   5   93.93    9.60
   9  -4   5  103.21   10.55
   9   4   5  104.27   10.35
   9  -4   5  118.83   11.42
   9   4   6  247.08   15.52
   9  -4   6  202.23   14.93
   9   4   6  214.73   15.35
   9  -4   6  223.91   16.29
   9   4   7   -1.19    1.65
   9   4   7    0.53    1.91
   9  -4   7    2.06    3.54
   9  -4   7    0.38    2.03
   9   4   8  137.51   11.84
   9  -4   8  123.46   11.88
   9   4   8  121.77   11.62
   9   4   9  206.98   14.42
   9  -4   9  192.68   14.72
   9   4   9  173.26   14.12
   9   4  10    1.84    2.38
   9   4  10    4.31    3.67
   9  -4  10    4.33    3.17
   9   4  11  297.27   17.33
   9  -4  11  275.80   18.16
   9   4  11  291.92   18.71
   9   4  12   85.01    9.42
   9  -4  12   75.09    9.56
   9   4  12   70.14    9.01
   9   4  13    5.08    2.93
   9   4  13    5.47    2.99
   9  -4  13    7.72    3.35
   9   4  14   27.28    6.35
   9   4  14   34.75    6.18
   9  -4  14   27.25    6.11
   9   4  15   10.92    4.07
   9   4  15   18.29    4.13
   9  -4  15   21.68    5.66
   9   4  16    3.89    2.59
   9  -4  16    7.02    2.40
   9  -4  17  208.73   17.31
   9   4  17  245.88   18.23
   9  -4  18    4.11    2.75
   9   4  18    5.37    3.91
   9  -4  19    0.46    2.51
   9   4  19    8.34    3.32
   9   4  20   -3.41    3.94
   9   4  21    7.97    5.00
   9   4  22    0.45    3.36
   9   4  23   19.10    6.04
   9   4  24    0.47    2.72
   9   4  25    2.85    4.23
   9  -5 -24    3.85    3.47
   9  -5 -23   20.80    6.06
   9  -5 -22   25.24    6.02
   9  -5 -21   75.67   10.74
   9  -5 -20    9.89    3.86
   9  -5 -19   16.97    5.50
   9  -5 -19   16.36    5.88
   9   5 -18    0.14    1.95
   9  -5 -18    1.44    2.97
   9  -5 -18   -1.42    3.18
   9   5 -17    7.73    4.02
   9  -5 -17   13.35    5.22
   9  -5 -17   18.35    6.10
   9   5 -16   31.26    6.85
   9  -5 -16   19.35    5.79
   9  -5 -16   36.53    7.19
   9  -5 -15  186.96   15.90
   9  -5 -15  227.14   18.09
   9   5 -15  221.40   17.88
   9   5 -14   13.96    5.02
   9  -5 -14   13.15    5.03
   9  -5 -14   21.17    5.73
   9   5 -13   10.63    4.15
   9  -5 -13    2.21    2.48
   9  -5 -13   13.74    5.14
   9  -5 -12   39.50    7.78
   9   5 -12   47.74    7.85
   9  -5 -12   32.93    6.61
   9  -5 -11  330.63   20.47
   9  -5 -11  299.69   19.92
   9   5 -11  344.04   20.80
   9  -5 -10   14.51    5.10
   9   5 -10    9.87    4.33
   9  -5 -10   10.11    4.31
   9  -5  -9   10.32    3.46
   9   5  -9    8.22    3.22
   9  -5  -9   11.32    4.15
   9  -5  -8    0.92    1.54
   9   5  -8   -1.63    1.93
   9  -5  -8    1.24    2.77
   9   5  -7   71.55    9.39
   9  -5  -7   65.79    9.15
   9  -5  -7   65.73    9.43
   9  -5  -6   20.39    5.36
   9   5  -6   26.67    4.63
   9  -5  -6   16.61    4.95
   9   5  -6   17.30    4.04
   9   5  -5  488.24   23.72
   9   5  -5  505.88   22.06
   9  -5  -5  508.95   24.95
   9  -5  -5  498.53   24.37
   9   5  -4   52.91    7.62
   9  -5  -4   39.79    6.33
   9   5  -4   41.90    6.94
   9  -5  -4   43.72    7.87
   9   5  -3   15.14    3.84
   9  -5  -3   21.12    5.32
   9  -5  -3   11.45    3.05
   9   5  -3   17.31    4.04
   9   5  -2   14.46    4.35
   9   5  -2   11.21    3.90
   9  -5  -2    7.46    4.05
   9  -5  -2   10.42    3.91
   9  -5  -1  484.35   23.99
   9   5  -1  499.08   23.43
   9   5  -1  497.60   22.84
   9  -5  -1  472.69   23.94
   9   5   0   38.62    6.76
   9  -5   0   24.54    5.68
   9   5   0   30.68    6.15
   9  -5   0   40.91    7.04
   9  -5   1  472.06   23.51
   9   5   1  487.45   23.13
   9   5   1  458.36   22.04
   9  -5   1  469.57   23.90
   9   5   2   17.96    5.09
   9   5   2   12.98    4.12
   9  -5   2    8.58    3.47
   9  -5   2   11.47    4.05
   9   5   3   14.15    3.90
   9   5   3   14.17    4.31
   9  -5   3   12.11    4.65
   9  -5   3   14.31    5.19
   9   5   4   34.40    5.95
   9  -5   4   32.92    6.74
   9   5   4   53.33    8.16
   9  -5   4   45.06    7.46
   9   5   5  503.90   23.46
   9  -5   5  519.44   24.83
   9   5   5  491.78   23.78
   9  -5   5  521.70   25.53
   9   5   6   23.06    5.36
   9  -5   6   24.10    5.46
   9   5   6   26.42    5.15
   9  -5   6   20.25    4.60
   9   5   7   64.29    8.75
   9  -5   7   57.19    8.34
   9   5   7   91.76   10.29
   9  -5   7   87.99   10.41
   9   5   8    4.88    3.08
   9   5   8    0.97    1.25
   9  -5   8   -0.01    2.59
   9  -5   8    0.81    2.73
   9   5   9    8.14    3.45
   9   5   9   15.70    4.56
   9  -5   9   13.97    3.93
   9  -5   9    9.26    3.61
   9   5  10   13.43    4.36
   9   5  10   10.33    3.64
   9  -5  10   12.56    3.22
   9  -5  10    5.67    1.86
   9   5  11  306.10   18.80
   9  -5  11  317.55   20.38
   9   5  11  315.52   19.77
   9  -5  11  329.97   21.22
   9   5  12   47.55    7.82
   9   5  12   38.60    6.99
   9  -5  12   36.55    7.01
   9   5  13   14.39    4.51
   9   5  13   12.10    4.32
   9  -5  13   12.83    3.88
   9   5  14   31.55    6.30
   9   5  14   24.69    5.83
   9  -5  14   23.90    5.97
   9   5  15  249.93   17.63
   9  -5  15  239.08   18.63
   9   5  15  233.69   17.94
   9   5  16   33.96    7.27
   9   5  16   30.81    5.64
   9  -5  16   12.21    3.64
   9   5  17   17.74    4.47
   9  -5  17    6.47    3.55
   9   5  18    2.56    3.78
   9   5  19   12.34    4.11
   9   5  20    5.11    1.88
   9   5  21   63.53    9.69
   9   5  22   20.96    4.94
   9   5  23   16.84    5.31
   9   5  24   -0.01    3.27
   9  -6 -23    0.37    2.83
   9  -6 -22   16.97    5.98
   9  -6 -21    2.92    2.06
   9  -6 -20    1.15    3.40
   9  -6 -20    9.72    6.25
   9  -6 -19   14.40    4.92
   9  -6 -19   33.23    7.60
   9  -6 -18   17.35    5.59
   9  -6 -18   12.01    4.25
   9   6 -17    7.09    3.67
   9  -6 -17    2.34    1.92
   9  -6 -17    6.97    3.93
   9   6 -16   26.18    5.76
   9  -6 -16   25.81    6.70
   9  -6 -16   25.85    7.06
   9  -6 -15   77.92   10.49
   9  -6 -15   67.34   10.46
   9   6 -15   49.60    9.54
   9   6 -14    3.04    2.54
   9  -6 -14    6.45    3.65
   9  -6 -14    2.24    1.87
   9   6 -13   16.33    5.23
   9  -6 -13   14.67    5.37
   9  -6 -13   25.71    5.64
   9   6 -12    4.33    3.25
   9  -6 -12    7.75    4.27
   9  -6 -12    8.06    4.81
   9   6 -11    1.04    2.73
   9  -6 -11    0.13    3.32
   9  -6 -11   -0.50    2.82
   9   6 -10   24.38    6.64
   9  -6 -10   28.56    6.35
   9  -6 -10   23.14    6.48
   9  -6  -9    7.50    4.15
   9   6  -9   10.11    4.88
   9  -6  -9    9.46    4.74
   9   6  -8   57.28    8.41
  -9   6  -8   68.75    9.51
   9  -6  -8   70.20    9.70
   9  -6  -8   48.56    7.83
   9   6  -7   78.28    9.64
   9  -6  -7   61.26    8.85
   9  -6  -7   68.24    9.57
   9  -6  -6    1.75    2.45
   9   6  -6    3.35    1.83
   9  -6  -6    8.80    4.64
   9   6  -5    6.26    2.98
   9   6  -5    6.42    3.07
   9  -6  -5    5.02    2.34
   9  -6  -4    7.37    3.92
   9   6  -4   16.49    4.67
   9   6  -4   16.81    5.02
   9  -6  -4    5.16    3.21
   9  -6  -3    7.79    2.52
   9   6  -3    6.07    2.71
   9   6  -3    5.12    1.97
   9  -6  -3    7.82    3.36
   9  -6  -2    5.09    2.81
   9   6  -2    2.78    2.18
   9   6  -2    9.74    3.26
   9  -6  -2    5.22    2.84
   9   6  -1   69.78    9.14
   9   6  -1   73.36    9.05
   9  -6  -1   75.61   10.06
   9  -6  -1   67.20    9.21
   9   6   0  113.97   11.49
   9   6   0  104.24   11.03
   9  -6   0   89.29   10.49
   9  -6   0  127.77   12.79
   9   6   1   62.17    8.61
   9   6   1   74.53    9.42
   9  -6   1   65.88    9.48
   9  -6   1   73.46    9.55
   9  -6   2   -0.30    1.43
   9   6   2    3.49    2.23
   9   6   2    8.40    3.92
   9  -6   2    8.83    5.65
   9  -6   3    6.39    3.43
   9   6   3   10.02    3.71
   9   6   3   10.00    3.94
   9  -6   3    7.84    3.01
   9   6   4   21.24    4.68
   9  -6   4   10.59    4.41
   9   6   4   14.08    4.06
   9  -6   4   19.06    5.04
   9   6   5    4.94    3.80
   9  -6   5    4.39    2.33
   9   6   5    5.64    1.85
   9  -6   5   10.48    4.27
   9   6   6   -0.28    2.00
   9  -6   6   -0.27    2.36
   9   6   6    4.01    2.25
   9  -6   6   -0.60    1.70
   9  -6   7   67.10    9.52
   9   6   7   89.76   10.15
   9   6   7   85.04   10.30
   9  -6   7   64.75    9.41
   9  -6   8   53.78    8.55
   9   6   8   66.28    9.23
   9   6   8   67.97    9.14
   9  -6   8   59.60    9.19
   9   6   9   10.23    4.14
   9  -6   9   13.41    3.56
   9   6   9    9.52    3.10
   9  -6   9   12.40    4.22
   9   6  10   22.53    6.19
   9  -6  10   27.04    6.30
   9   6  10   26.41    6.04
   9  -6  10   33.33    7.52
   9   6  11    3.92    2.73
   9  -6  11   -0.37    2.74
   9   6  11    1.30    3.10
   9  -6  11    4.59    3.57
   9   6  12   15.68    4.79
   9  -6  12    7.72    3.61
   9   6  12   10.34    4.10
   9  -6  12    8.92    4.55
   9   6  13   23.18    5.66
   9  -6  13   31.27    7.03
   9   6  13   22.81    5.25
   9  -6  13   32.86    7.44
   9   6  14   11.24    5.13
   9  -6  14    7.74    3.71
   9   6  14    3.90    1.96
   9  -6  14    4.03    3.11
   9  -6  15   60.50    9.30
   9   6  15   49.26    9.16
   9   6  15   58.06    8.97
   9  -6  15   52.99    9.57
   9   6  16   27.41    6.34
   9  -6  16   26.52    5.47
   9   6  16   17.56    4.89
   9   6  17    8.33    2.65
   9   6  18   12.26    5.31
   9   6  19   32.81    7.38
   9   6  20   -2.16    3.48
   9   6  21    5.89    4.28
   9   6  22   -0.07    2.84
   9   6  23    0.42    2.29
   9  -7 -20   20.74    6.15
   9  -7 -20   10.49    4.58
   9  -7 -19    5.24    3.84
   9  -7 -19    4.86    4.68
   9  -7 -18   11.62    4.65
   9  -7 -18   11.65    5.04
   9  -7 -17   59.51    9.61
   9  -7 -17   44.21    8.74
   9  -7 -16    3.05    3.21
   9  -7 -16    2.50    1.87
   9  -7 -15  226.69   18.21
   9  -7 -15  187.10   17.67
   9   7 -15  215.13   18.68
   9   7 -14   -1.80    2.84
   9  -7 -14   -5.23    5.29
   9  -7 -14    4.61    3.21
   9   7 -13   16.58    6.15
   9  -7 -13   25.33    7.11
   9  -7 -13   15.32    4.91
   9   7 -12    2.07    2.22
   9  -7 -12    5.44    2.24
   9  -7 -12   10.06    4.11
   9   7 -11  223.53   17.89
   9  -7 -11  259.97   19.57
   9  -7 -11  268.09   20.20
   9   7 -10   19.33    6.27
   9  -7 -10   23.77    6.82
   9  -7 -10   10.61    4.50
   9   7  -9   63.53    9.66
   9  -7  -9   52.68    8.65
   9  -7  -9   53.63    8.71
   9   7  -8   17.21    4.83
  -9   7  -8   22.96    6.25
   9  -7  -8   16.06    4.56
   9  -7  -8   15.30    5.66
  -9   7  -7    3.55    2.03
   9   7  -7    6.38    3.01
   9  -7  -7    9.64    4.00
   9   7  -6   65.12    9.68
   9  -7  -6   64.75    9.63
  -9   7  -6   54.88    9.05
   9  -7  -6   67.99    9.80
   9   7  -5  258.47   18.48
  -9   7  -5  264.11   18.67
   9  -7  -5  264.02   19.09
   9  -7  -5  248.18   18.80
   9  -7  -4   -1.95    1.58
   9   7  -4    3.08    3.93
   9   7  -4    1.12    1.39
   9  -7  -4   -1.03    1.95
  -9   7  -4    1.87    2.69
   9  -7  -3   37.32    6.66
   9   7  -3   28.91    6.07
   9   7  -3   46.53    8.17
  -9   7  -3   23.56    6.27
   9  -7  -3   34.79    7.43
   9  -7  -2    0.88    2.77
   9   7  -2   -0.12    2.56
   9   7  -2    2.98    2.29
   9  -7  -2    2.41    3.52
   9   7  -1  171.30   14.72
   9  -7  -1  157.60   14.88
   9   7  -1  161.86   14.41
   9  -7  -1  155.08   14.61
   9   7   0  296.74   19.80
   9  -7   0  310.13   20.78
   9   7   0  307.18   19.49
   9  -7   0  271.59   19.16
   9   7   1  171.98   15.11
   9  -7   1  186.47   16.23
   9   7   1  152.95   14.09
   9  -7   1  168.31   15.11
   9  -7   2    4.99    3.69
   9   7   2    3.92    2.85
   9   7   2    3.50    3.36
   9  -7   2    4.63    3.33
   9  -7   3   27.41    6.39
   9   7   3   25.98    6.04
   9   7   3   42.47    7.74
   9  -7   3   17.96    6.03
   9   7   4    0.97    1.67
   9  -7   4    2.83    1.80
   9   7   4   -1.23    1.90
   9  -7   4   -3.22    3.36
   9   7   5  296.78   19.74
   9  -7   5  257.66   19.45
   9   7   5  280.86   19.10
   9  -7   5  269.69   19.27
   9   7   6   61.56    9.49
   9  -7   6   57.83    8.83
   9   7   6   67.57    9.48
   9  -7   6   58.00    8.82
   9  -7   7    6.13    2.46
   9   7   7    8.58    4.22
   9   7   7    4.26    3.55
   9  -7   7   11.83    4.41
   9  -7   8   16.20    5.30
   9   7   8   15.95    5.78
   9   7   8   16.85    4.18
   9  -7   8   17.86    5.79
   9   7   9   54.42    8.67
   9   7   9   62.07    9.38
   9  -7   9   58.28    9.24
   9  -7   9   61.35    9.52
   9  -7  10   14.64    5.77
   9   7  10   18.32    4.57
   9   7  10   18.04    5.95
   9  -7  10   26.29    7.53
   9   7  11  238.57   18.36
   9   7  11  238.59   18.21
   9  -7  11  213.72   18.13
   9  -7  11  246.20   18.71
   9  -7  12    6.15    3.92
   9   7  12   11.48    5.26
   9   7  12    6.61    3.33
   9  -7  12    7.77    4.78
   9  -7  13   13.30    5.13
   9   7  13   19.44    6.91
   9   7  13   27.61    6.42
   9  -7  14    4.56    3.42
   9   7  14    3.96    3.30
   9   7  14    2.03    2.67
   9   7  15  202.06   17.43
   9   7  15  229.66   18.99
   9  -7  15  214.20   18.50
   9   7  16    8.39    5.46
   9   7  16    7.05    3.97
   9   7  17   41.81    8.01
   9   7  18   12.72    5.05
   9   7  19   -4.36    4.32
   9   7  20   18.07    5.90
   9  -8 -18   14.31    4.79
   9  -8 -18    6.84    3.74
   9  -8 -17    0.56    3.45
   9  -8 -17    0.31    2.44
   9   8 -16   -0.05    2.34
   9  -8 -16    0.40    2.25
   9  -8 -16    1.35    4.01
   9   8 -15    1.91    2.23
   9  -8 -15    5.66    4.75
   9  -8 -15    7.86    5.21
   9   8 -14    1.10    2.97
   9  -8 -14    8.51    3.75
   9   8 -13   -0.87    2.42
   9  -8 -13   -0.06    4.18
   9  -8 -13    2.01    2.60
   9  -8 -12    1.94    2.30
   9   8 -12    3.22    2.31
   9  -8 -12    5.95    4.27
   9   8 -11    3.02    2.79
   9  -8 -11    1.30    2.65
   9   8 -10   12.39    5.02
   9  -8 -10    7.63    2.82
   9  -8 -10    7.46    4.48
   9   8  -9   -2.71    2.07
   9  -8  -9    0.16    3.28
   9  -8  -9    4.57    3.47
   9   8  -8    3.89    3.54
   9  -8  -8    9.93    4.87
   9  -8  -8    5.49    2.71
   9   8  -7   17.53    6.10
  -9   8  -7    7.53    3.20
   9  -8  -7   10.48    4.71
   9  -8  -7   16.45    4.85
   9   8  -6   27.47    6.42
  -9   8  -6   24.88    6.05
   9  -8  -6   39.31    7.38
   9  -8  -6   25.87    6.84
   9   8  -5    3.54    2.32
  -9   8  -5    3.78    1.59
   9  -8  -5   -0.44    4.23
   9  -8  -5    4.68    3.58
   9   8  -4   15.24    5.02
  -9   8  -4    5.67    3.56
   9  -8  -4    5.25    4.03
   9  -8  -4    5.12    3.25
   9  -8  -3    7.84    4.78
   9   8  -3   14.77    4.59
   9   8  -3   17.16    6.83
  -9   8  -3    4.26    4.27
   9  -8  -3    5.50    1.82
   9  -8  -2   26.02    5.56
   9   8  -2   19.68    5.66
   9   8  -2   18.57    4.95
  -9   8  -2   30.57    6.52
   9  -8  -2   20.00    5.91
   9  -8  -1    2.01    2.75
   9   8  -1   -1.65    1.66
   9   8  -1    2.72    2.95
  -9   8  -1    6.38    4.77
   9  -8  -1    7.12    4.50
   9  -8   0   20.13    5.71
   9   8   0   18.23    5.84
  -9   8   0   20.67    5.79
   9   8   0   13.03    4.37
   9  -8   0   17.52    6.01
   9  -8   1    2.98    2.73
   9   8   1   -0.76    3.37
   9   8   1    0.60    2.20
   9  -8   1    0.69    3.52
  -9   8   1   -0.46    2.03
   9  -8   2   16.75    5.39
   9   8   2   23.93    5.46
  -9   8   2   31.82    6.57
   9   8   2   30.47    6.68
   9  -8   2   30.48    6.28
   9  -8   3   11.54    3.85
   9   8   3   14.47    4.25
   9   8   3   14.86    5.51
   9  -8   3   12.04    4.34
  -9   8   3   15.71    4.55
   9  -8   4    7.57    3.04
   9   8   4    7.11    3.70
  -9   8   4    4.35    3.71
   9   8   4    1.63    2.48
   9  -8   4    3.81    2.42
   9  -8   5    4.04    3.39
   9   8   5   -2.02    1.87
  -9   8   5    1.77    3.41
   9   8   5    0.56    2.06
   9  -8   5    2.45    3.12
   9  -8   6   25.07    6.65
   9   8   6   22.64    5.63
  -9   8   6   35.18    6.91
   9   8   6   31.78    6.75
   9  -8   6   41.05    8.98
   9  -8   7   18.63    5.86
   9   8   7   14.40    4.01
  -9   8   7    7.29    4.79
   9   8   7    6.67    3.64
   9  -8   8    6.07    2.32
   9   8   8    8.92    4.15
   9   8   8    6.86    5.19
  -9   8   8    6.10    4.28
   9  -8   9    0.29    3.54
   9   8   9    2.18    4.96
  -9   8   9   -1.21    1.66
   9   8   9    4.92    3.19
   9  -8  10    8.47    4.23
   9   8  10    9.20    4.89
  -9   8  10   -0.27    2.33
   9   8  10   11.86    4.95
   9  -8  11    2.65    2.83
   9   8  11    5.85    3.61
  -9   8  11    8.06    3.81
   9   8  11    2.72    1.91
   9  -8  12    0.97    2.60
   9   8  12    4.30    2.90
  -9   8  12    6.95    4.16
   9   8  12   -1.41    1.88
   9  -8  13   -2.37    2.94
   9   8  13    6.72    6.07
   9   8  13   -0.76    2.51
  -9   8  13    0.64    1.87
   9   8  14   10.67    4.70
   9   8  14   15.72    4.71
  -9   8  14   -1.00    2.91
   9   8  15    0.07    2.93
  -9   8  15    1.55    3.86
   9   8  15    0.06    2.24
   9   8  16    2.74    2.98
   9   8  16    4.54    3.48
  -9   8  16    5.43    4.41
   9   8  17    5.72    3.60
   9   8  17    1.38    3.67
  -9   8  17    3.85    3.94
   9   8  18   11.73    5.39
  -9   8  18    5.47    4.88
   9   9 -14   -3.62    2.91
   9  -9 -14    1.95    4.05
   9  -9 -14   -2.74    3.49
   9   9 -13    9.07    4.80
   9  -9 -13   11.93    4.50
   9  -9 -13   14.59    5.61
   9   9 -12    3.90    2.89
   9  -9 -12    5.21    3.51
   9  -9 -12   10.94    5.02
   9   9 -11   75.64   11.57
   9  -9 -11   73.59   11.40
   9  -9 -11   70.16   10.84
   9   9 -10   63.76   10.54
   9  -9 -10   81.67   11.20
   9  -9 -10   85.33   12.00
   9  -9  -9   35.52    8.14
   9  -9  -9   49.67    8.92
   9   9  -8   -0.10    2.17
   9  -9  -8   -0.69    2.35
   9  -9  -8   -1.28    3.64
   9   9  -7   61.55    9.63
   9  -9  -7   48.75    9.23
   9  -9  -7   40.21    8.13
   9   9  -6   29.87    6.39
  -9   9  -6   46.29    8.61
   9  -9  -6   55.31    9.46
   9  -9  -6   59.53    9.83
   9   9  -5  204.96   17.58
  -9   9  -5  202.50   17.58
   9  -9  -5  169.97   16.49
   9  -9  -5  198.46   17.83
   9   9  -4    7.73    2.80
  -9   9  -4   10.29    4.82
   9  -9  -4    6.76    3.27
   9  -9  -4    1.52    2.19
   9   9  -3    0.62    2.01
  -9   9  -3   -0.39    2.51
   9  -9  -3   -2.78    2.43
   9  -9  -3   -1.93    2.27
   9   9  -2   -0.56    1.41
  -9   9  -2   -0.23    3.16
   9  -9  -2    5.39    5.39
   9  -9  -2   -0.13    2.28
   9   9  -1   92.37   11.78
  -9   9  -1   89.24   12.08
   9   9  -1   94.84   12.23
   9  -9  -1   99.45   12.55
   9  -9  -1   88.93   11.80
   9   9   0   77.52   10.52
  -9   9   0   73.83   10.88
   9  -9   0   74.86   11.45
   9  -9   0   65.94   10.12
   9   9   0   82.40   11.04
  -9   9   1  113.22   12.94
   9  -9   1   90.88   11.78
   9   9   1   91.93   11.54
   9   9   2    7.57    5.00
  -9   9   2    3.17    4.51
   9   9   2    3.86    3.78
   9  -9   2    3.27    2.94
   9  -9   3    1.05    2.34
  -9   9   3    0.67    1.95
   9   9   3   -3.45    2.29
   9   9   3    1.18    2.84
   9  -9   4    4.95    2.99
   9   9   4    1.64    2.11
  -9   9   4    3.20    3.12
   9   9   4    4.50    4.21
  -9   9   5  173.30   16.80
   9  -9   5  159.66   16.10
   9   9   5  187.14   17.44
   9  -9   6   51.67    9.46
   9   9   6   56.34    9.20
  -9   9   6   41.64    8.22
   9   9   6   30.18    6.20
   9  -9   7   45.26    8.95
   9   9   7   49.50    8.95
  -9   9   7   38.42    7.59
   9   9   7   48.80    9.16
   9  -9   8    4.43    4.29
   9   9   8    4.02    4.11
  -9   9   8    0.49    2.65
   9   9   8    2.80    2.94
   9   9   9   47.21    8.61
  -9   9   9   46.60    8.48
   9  -9   9   65.61   10.71
   9   9   9   56.85    9.26
   9   9  10   76.89   11.22
  -9   9  10   96.84   12.06
   9   9  10   91.64   11.88
   9  -9  10   64.92   10.75
   9   9  11   79.17   11.22
  -9   9  11   85.39   12.07
   9   9  11   75.55   11.08
   9  -9  11   81.23   11.90
   9  -9  12    8.17    4.24
   9   9  12    1.96    4.24
  -9   9  12    4.21    3.84
   9   9  12    5.46    3.34
   9   9  13    0.41    3.51
   9   9  13   14.25    5.08
  -9   9  13    7.55    5.01
   9   9  14    1.15    2.71
  -9   9  14    5.46    5.07
   9   9  14   -2.92    3.10
   9  10  -8   50.80    8.90
   9 -10  -8   70.47   11.73
   9 -10  -8   56.14    9.72
   9  10  -7   10.99    4.55
   9 -10  -7    4.61    4.90
   9 -10  -7   17.75    5.56
   9  10  -6  149.51   15.40
   9 -10  -6  110.59   14.08
   9  10  -5   33.48    7.80
  -9  10  -5   33.39    8.73
   9 -10  -5   15.16    5.70
   9  10  -4   11.46    4.91
  -9  10  -4   -1.75    2.94
   9 -10  -4   11.60    4.28
   9  10  -3    5.98    3.61
  -9  10  -3    0.32    2.47
   9 -10  -3    1.85    3.53
   9  10  -2   50.41    9.10
  -9  10  -2   44.58    8.46
   9 -10  -2   72.10   10.96
   9  10  -1   15.98    5.65
  -9  10  -1   16.61    5.55
   9 -10  -1   13.23    4.59
   9  10   0  148.08   15.54
  -9  10   0  127.08   14.67
   9 -10   0  151.06   16.09
   9  10   1   28.04    7.39
  -9  10   1   18.33    6.38
   9  10   1   15.98    5.78
   9 -10   1   13.28    5.19
   9  10   2   60.57    9.92
  -9  10   2   48.70    9.01
   9  10   2   42.74    9.03
   9 -10   2   60.26   10.07
   9  10   3    0.28    3.39
  -9  10   3    2.44    2.05
   9  10   3    7.13    4.03
   9 -10   3    3.82    3.03
   9  10   4    5.51    4.04
  -9  10   4   12.84    4.91
   9  10   4    5.12    5.06
   9 -10   4   18.22    5.73
   9  10   5   25.82    6.96
  -9  10   5   20.57    6.25
   9  10   5   22.60    6.36
   9 -10   5   35.52    7.66
   9  10   6  127.91   14.37
  -9  10   6  102.55   13.22
   9 -10   6  115.99   14.72
   9  10   6   97.85   12.70
   9  10   7   11.67    4.21
  -9  10   7    8.28    4.16
   9  10   7   11.89    5.22
   9 -10   7   15.16    5.37
   9  10   8   52.46    9.31
  -9  10   8   59.47   10.43
   9  10   8   27.10    9.82
   9 -10   8   59.73   10.82
  10   0 -25   22.76    8.57
  10   0 -24   79.09   11.57
  10   0 -23   98.96   12.32
  10   0 -22   62.06    9.44
  10   0 -21  206.75   17.18
  10   0 -20   43.68    9.44
  10   0 -19   72.17    9.64
  10   0 -18  202.23   16.55
  10   0 -17  337.29   20.92
  10   0 -16  102.01   11.71
  10   0 -15  325.84   20.37
  10   0 -14  155.45   13.45
  10   0 -13  224.73   16.03
  10   0 -12  284.68   16.10
  10   0 -12  280.60   17.70
  10   0 -11  302.04   16.96
  10   0 -11  339.23   19.50
  10   0 -10   94.10    9.55
  10   0 -10   91.74   10.19
  10   0  -9  255.21   15.57
  10   0  -9  228.04   15.47
  10   0  -8  225.63   14.15
  10   0  -8  236.74   15.75
  10   0  -7  116.53   10.15
  10   0  -7  139.14   12.04
  10   0  -7  120.71   10.86
  10   0  -6   52.19    7.07
  10   0  -6   51.31    7.67
  10   0  -6   57.05    7.49
  10   0  -5  243.31   14.79
  10   0  -5  259.03   16.33
  10   0  -5  242.75   14.88
  10   0  -4  328.28   17.10
  10   0  -4  302.28   17.58
  10   0  -4  316.82   16.84
  10   0  -3  285.06   15.87
  10   0  -3  255.51   16.09
  10   0  -3  267.76   15.46
  10   0  -2  199.10   13.47
  10   0  -2  233.34   15.13
  10   0  -2  200.54   13.40
  10   0  -1  130.16   10.84
  10   0  -1  128.20   11.28
  10   0  -1  118.99   10.21
  10   0   0   -0.64    1.49
  10   0   0    0.45    1.30
  10   0   0    2.14    1.86
  10   0   1  168.30   12.40
  10   0   1  137.46   11.85
  10   0   1  137.45   10.65
  10   0   2  193.97   13.59
  10   0   2  209.70   13.29
  10   0   3  249.78   15.51
  10   0   3  263.58   14.64
  10   0   4  283.66   16.32
  10   0   4  376.26   17.48
  10   0   5  261.63   16.04
  10   0   5  246.38   14.22
  10   0   6   69.98    8.20
  10   0   6   53.62    6.59
  10   0   7  150.20   12.29
  10   0   7  135.96   10.37
  10   0   8  266.18   16.47
  10   0   8  203.51   13.08
  10   0   9  251.04   16.30
  10   0   9  246.56   13.81
  10   0  10   89.53    9.93
  10   0  10  105.55    9.16
  10   0  11  346.37   19.54
  10   0  11  332.25   15.98
  10   0  12  300.77   18.63
  10   0  12  323.61   15.35
  10   0  13  231.53   16.25
  10   0  14  181.74   14.57
  10   0  15  332.75   20.16
  10   0  16  101.53   11.39
  10   0  17  296.20   19.53
  10   0  18  178.83   15.65
  10   0  19   81.60   10.54
  10   0  20   71.77   10.26
  10   0  21  204.27   17.33
  10   0  22   61.73    9.84
  10   0  23   97.61   12.67
  10   0  24   65.37   10.67
  10  -1 -27    2.10    2.65
  10  -1 -26    3.35    4.08
  10  -1 -25    6.68    3.62
  10  -1 -24    8.75    4.46
  10  -1 -23    3.65    2.84
  10  -1 -22    5.14    2.36
  10   1 -21   -3.06    2.19
  10  -1 -21   11.85    4.82
  10   1 -20   12.91    5.10
  10  -1 -20   14.54    5.01
  10   1 -19   13.88    4.87
  10  -1 -19   10.83    3.40
  10  -1 -18    8.87    4.21
  10   1 -18    7.89    2.85
  10  -1 -17   11.84    4.49
  10   1 -17   11.84    4.46
  10   1 -16    9.09    3.19
  10  -1 -16   14.08    4.89
  10   1 -15   18.57    5.05
  10  -1 -15   18.56    5.46
  10   1 -14    1.64    1.65
  10  -1 -14    3.57    2.95
  10  -1 -14    8.60    5.64
  10   1 -13   27.40    5.82
  10  -1 -13   24.99    5.63
  10   1 -13   30.67    5.58
  10  -1 -13   34.44    6.28
  10  -1 -12   28.14    5.55
  10   1 -12   20.73    4.60
  10   1 -12   17.95    4.47
  10  -1 -11    2.65    2.47
  10   1 -11    3.06    2.08
  10   1 -11    2.50    1.78
  10  -1 -11    2.71    1.18
  10   1 -11    0.47    2.06
  10  -1 -10    7.03    3.49
  10   1 -10    3.62    1.99
  10  -1 -10    6.95    3.14
  10   1 -10    6.01    2.17
  10   1 -10    8.64    3.25
  10  -1  -9    5.34    2.70
  10   1  -9   11.32    3.00
  10  -1  -9    9.92    4.19
  10   1  -9   10.44    3.16
  10   1  -9   11.81    3.53
  10  -1  -8    5.11    2.67
  10   1  -8    1.83    1.66
  10  -1  -8   -0.30    1.65
  10   1  -8   -0.71    1.92
  10   1  -8    0.23    1.60
  10  -1  -7   27.48    5.10
  10   1  -7   34.65    5.41
  10  -1  -7   47.40    7.34
  10   1  -7   47.36    6.87
  10   1  -7   32.26    6.17
  10  -1  -6   20.58    4.67
  10  -1  -6   21.67    4.76
  10   1  -6   28.12    5.23
  10   1  -6   22.73    4.55
  10   1  -6   30.86    5.72
  10  -1  -5   -0.33    1.52
  10  -1  -5    2.62    2.32
  10   1  -5    0.20    1.87
  10   1  -5    0.63    1.07
  10   1  -5    2.13    3.21
  10  -1  -4    4.58    1.42
  10  -1  -4    4.08    2.40
  10   1  -4    3.64    2.72
  10   1  -4    6.39    3.15
  10   1  -4    0.42    1.36
  10  -1  -3    6.95    2.62
  10  -1  -3    7.05    3.32
  10   1  -3    5.35    2.63
  10   1  -3    1.97    1.29
  10   1  -3    5.00    1.84
  10   1  -2    6.02    1.51
  10   1  -2    9.96    3.14
  10  -1  -2    8.27    3.72
  10  -1  -2    8.30    3.27
  10   1  -2    6.71    3.12
  10  -1  -1   30.83    5.44
  10   1  -1   39.57    5.98
  10   1  -1   36.91    5.83
  10  -1  -1   27.32    5.46
  10   1  -1   29.95    5.38
  10   1   0   18.76    4.22
  10  -1   0   20.67    4.48
  10   1   0   28.64    5.16
  10  -1   0   29.49    5.76
  10   1   0   21.12    4.57
  10  -1   1   32.98    5.62
  10   1   1   35.20    5.59
  10  -1   1   40.36    6.11
  10   1   1   24.52    5.11
  10   1   2   10.20    3.26
  10   1   2    5.59    1.75
  10  -1   2    8.81    2.43
  10  -1   2    8.64    4.05
  10   1   3    8.08    3.18
  10   1   3    3.77    1.67
  10  -1   3    8.39    3.24
  10   1   4    3.96    2.35
  10   1   4    4.53    2.54
  10  -1   4    3.79    1.32
  10   1   5    0.18    1.81
  10   1   5    0.71    1.15
  10  -1   5    0.45    1.45
  10   1   6   25.94    5.34
  10  -1   6   20.86    4.99
  10   1   6   25.98    5.05
  10  -1   7   44.95    7.04
  10   1   7   54.08    7.06
  10   1   7   46.15    6.90
  10   1   8    2.38    1.17
  10   1   8    6.87    3.06
  10  -1   8    2.91    1.92
  10   1   9   11.73    3.40
  10   1   9   13.11    4.71
  10  -1   9   12.83    3.31
  10   1  10    5.77    2.04
  10   1  10    6.58    3.91
  10  -1  10    0.63    2.54
  10   1  11    1.10    1.14
  10   1  11    0.70    2.83
  10  -1  11    1.44    1.99
  10  -1  12   24.31    5.42
  10   1  12   23.66    5.60
  10   1  12   38.52    6.15
  10   1  13   37.99    6.57
  10  -1  13   39.72    7.32
  10   1  13   32.23    5.43
  10  -1  14    1.71    3.00
  10   1  14    1.91    2.70
  10  -1  15   22.68    5.56
  10   1  15   12.66    4.25
  10  -1  16    9.09    3.70
  10   1  16   13.40    4.65
  10  -1  17    7.79    3.95
  10   1  17   15.70    5.09
  10  -1  18   11.52    4.18
  10   1  18   11.00    3.17
  10   1  19    7.32    3.06
  10  -1  19    6.78    3.94
  10   1  20    9.17    4.50
  10  -1  20   12.32    4.37
  10   1  21    7.75    2.83
  10  -1  21    5.79    3.51
  10   1  22    3.17    1.86
  10  -1  22    1.75    2.78
  10   1  23    8.01    5.48
  10  -1  23    7.73    4.88
  10   1  24    1.65    2.45
  10   1  25    5.16    4.17
  10  -2 -26    6.19    3.39
  10  -2 -25   40.81    8.66
  10  -2 -24   46.50    8.70
  10  -2 -23   18.50    5.74
  10  -2 -22   29.77    6.59
  10  -2 -20   28.87    7.21
  10  -2 -19   49.82    8.48
  10  -2 -18  127.49   13.41
  10  -2 -17  179.40   15.55
  10   2 -17  163.12   14.11
  10  -2 -16   50.91    8.56
  10   2 -16   65.25    8.86
  10   2 -15  154.54   13.42
  10  -2 -15  178.84   15.18
  10  -2 -15  180.05   14.37
  10   2 -15  177.74   14.73
  10  -2 -14  119.36   12.28
  10  -2 -14  114.08   11.49
  10   2 -14  115.52   11.63
  10   2 -13   64.79    8.63
  10  -2 -13   68.56    9.32
  10   2 -13   71.46    8.84
  10  -2 -13   91.55   10.01
  10   2 -12  215.38   14.55
  10  -2 -12  233.04   16.67
  10   2 -12  221.52   15.50
  10  -2 -12  213.79   15.59
  10   2 -11  446.64   21.42
  10  -2 -11  449.79   23.06
  10   2 -11  449.21   22.47
  10  -2 -11  455.49   22.22
  10  -2 -10  118.02   11.07
  10   2 -10  111.47    9.91
  10   2 -10   96.24    9.55
  10  -2 -10   92.34   10.49
  10   2 -10  116.03   11.54
  10  -2  -9  175.97   13.53
  10   2  -9  161.11   11.62
  10  -2  -9  204.99   15.71
  10   2  -9  189.48   13.65
  10   2  -9  179.51   13.94
  10  -2  -8  194.15   14.18
  10   2  -8  199.82   13.63
  10   2  -8  237.84   13.98
  10  -2  -8  237.65   16.54
  10   2  -8  216.61   15.22
  10  -2  -7   72.95    8.60
  10   2  -7   92.64    8.63
  10  -2  -7   72.53    9.29
  10   2  -7   92.26    9.37
  10   2  -7   92.51    9.81
  10  -2  -6   68.50    8.58
  10   2  -6   74.54    8.03
  10  -2  -6   80.62    9.54
  10   2  -6   65.80    8.21
  10   2  -6   70.39    8.21
  10  -2  -5  257.48   16.05
  10  -2  -5  294.42   18.17
  10   2  -5  310.84   16.05
  10   2  -5  322.51   17.05
  10   2  -5  326.49   18.15
  10  -2  -4  136.43   11.89
  10  -2  -4  172.19   13.92
  10   2  -4  176.57   12.62
  10   2  -4  161.89   12.07
  10   2  -4  162.11   12.60
  10  -2  -3  252.49   16.09
  10  -2  -3  240.94   16.20
  10   2  -3  252.99   15.43
  10   2  -3  242.71   14.64
  10   2  -3  247.05   15.24
  10  -2  -2  443.82   21.20
  10  -2  -2  430.47   21.66
  10   2  -2  440.07   20.36
  10   2  -2  416.96   19.12
  10   2  -2  420.80   19.98
  10  -2  -1  331.56   18.20
  10  -2  -1  352.92   19.61
  10   2  -1  340.91   17.71
  10   2  -1  302.64   16.47
  10   2  -1  323.80   17.65
  10  -2   0   49.59    7.03
  10  -2   0   46.45    7.04
  10   2   0   52.97    7.08
  10   2   0   44.14    6.69
  10  -2   1  355.40   18.83
  10  -2   1  346.58   19.34
  10   2   1  330.31   17.70
  10   2   1  352.22   18.11
  10  -2   2  399.47   20.13
  10  -2   2  443.15   22.01
  10   2   2  399.82   19.27
  10   2   2  434.73   20.34
  10   2   3  236.54   15.12
  10  -2   3  252.86   15.90
  10  -2   3  264.54   16.89
  10   2   3  234.00   14.80
  10   2   4  170.10   12.88
  10  -2   4  176.02   13.38
  10   2   4  157.89   12.08
  10   2   5  290.84   17.26
  10  -2   5  302.50   17.83
  10   2   5  295.51   16.48
  10   2   6   81.97    9.57
  10  -2   6   79.72    9.14
  10   2   6   79.57    8.77
  10   2   7  109.25   10.71
  10  -2   7   90.69    9.66
  10   2   7  105.79    9.89
  10   2   8  218.39   15.39
  10  -2   8  225.56   15.63
  10   2   8  218.99   13.84
  10   2   9  176.90   13.83
  10  -2   9  187.06   14.52
  10   2   9  189.90   13.16
  10   2  10  126.15   11.93
  10  -2  10  109.23   10.87
  10   2  10  122.25   10.63
  10   2  11  455.57   22.90
  10  -2  11  459.55   23.08
  10   2  11  448.45   20.36
  10   2  12  206.37   15.68
  10  -2  12  221.94   15.89
  10   2  12  221.03   14.09
  10   2  13   64.83    8.93
  10  -2  13   75.20    9.77
  10   2  13   71.89    8.56
  10  -2  14  143.92   13.66
  10   2  14  120.94   10.79
  10   2  15  187.31   15.73
  10  -2  15  200.52   15.76
  10   2  16   59.61    8.67
  10  -2  16   50.31    8.06
  10   2  17  170.18   15.33
  10  -2  17  164.12   14.87
  10   2  18  113.17   12.86
  10  -2  18  125.62   13.22
  10   2  19   45.84    8.58
  10  -2  19   58.90    8.83
  10   2  20   23.62    6.79
  10  -2  20   20.94    5.80
  10   2  21   67.32   10.15
  10  -2  21   66.46   10.59
  10   2  22   29.05    6.38
  10   2  23   23.89    6.56
  10   2  24   57.53    9.99
  10   2  25   43.22    9.25
  10   2  26   11.83    5.09
  10  -3 -26   -0.71    3.10
  10  -3 -25    4.94    3.78
  10  -3 -24    5.87    4.00
  10  -3 -23    8.97    5.02
  10  -3 -22    4.38    3.16
  10  -3 -21   -1.28    2.34
  10  -3 -20    2.94    3.92
  10   3 -20   -5.86    2.98
  10  -3 -19   -0.80    1.57
  10   3 -19   -1.79    1.93
  10  -3 -18   -3.62    2.73
  10   3 -18   -2.39    2.34
  10  -3 -17    0.73    1.79
  10   3 -17    2.16    2.58
  10  -3 -16   14.42    5.01
  10   3 -16    8.71    3.82
  10  -3 -16    8.02    2.93
  10  -3 -15   -1.19    2.04
  10  -3 -15   -0.33    2.60
  10   3 -15   -1.04    1.74
  10  -3 -14    0.12    1.76
  10  -3 -14    0.77    3.18
  10   3 -14    1.60    1.64
  10  -3 -13   25.90    5.14
  10  -3 -13   11.81    3.50
  10   3 -13   26.74    5.67
  10   3 -12   11.00    4.31
  10  -3 -12   15.72    4.65
  10  -3 -12   10.56    4.10
  10   3 -11    1.47    1.49
  10  -3 -11    3.27    2.78
  10  -3 -11    0.64    1.93
  10   3 -10   24.51    5.24
  10  -3 -10   25.45    5.22
  10  -3 -10   31.23    6.34
  10   3  -9   10.18    4.14
  10  -3  -9   12.15    3.77
  10  -3  -9    9.96    4.01
  10   3  -9    6.39    3.24
  10   3  -8    2.80    1.74
  10   3  -8   -1.52    2.51
  10  -3  -8    1.50    1.19
  10  -3  -8    1.59    2.67
  10   3  -8    0.57    2.48
  10  -3  -7   37.04    6.57
  10  -3  -7   42.74    7.47
  10   3  -7   49.40    6.71
  10   3  -7   41.08    5.96
  10   3  -7   34.67    6.04
  10   3  -6   13.78    3.90
  10   3  -6   20.03    4.45
  10  -3  -6    7.13    3.35
  10  -3  -6   18.45    4.75
  10   3  -6   15.51    4.08
  10   3  -5    3.61    3.00
  10   3  -5    0.03    1.28
  10  -3  -5    5.16    2.98
  10  -3  -5    5.41    2.96
  10   3  -5    1.21    1.83
  10   3  -4   23.25    4.78
  10   3  -4   18.82    4.08
  10  -3  -4   13.41    4.22
  10  -3  -4   19.34    4.99
  10   3  -4   16.91    4.19
  10   3  -3    7.91    3.80
  10  -3  -3    0.48    1.19
  10   3  -3    3.12    2.62
  10  -3  -3    1.35    2.29
  10   3  -3    3.88    3.16
  10   3  -2    5.42    2.10
  10  -3  -2    7.80    3.67
  10   3  -2    7.83    2.21
  10  -3  -2   11.41    4.73
  10   3  -2    7.54    2.33
  10   3  -1   27.07    5.46
  10  -3  -1   27.35    5.36
  10   3  -1   24.68    5.21
  10  -3  -1   17.40    4.54
  10   3   0    1.83    3.01
  10  -3   0    4.27    1.77
  10   3   0   12.61    4.04
  10  -3   0    8.59    3.21
  10   3   1   18.84    4.99
  10  -3   1   25.64    5.14
  10   3   1   21.19    4.74
  10  -3   1   29.64    6.27
  10   3   2    6.48    3.11
  10  -3   2    4.56    2.79
  10   3   2    7.32    2.69
  10  -3   2    4.80    1.82
  10   3   3    2.18    2.17
  10  -3   3    1.88    3.29
  10   3   3   -0.52    1.73
  10  -3   3   -0.37    2.32
  10   3   4   12.50    4.47
  10   3   4    9.20    3.23
  10  -3   4   14.29    3.92
  10   3   5    1.32    1.37
  10  -3   5   -0.44    2.04
  10   3   5   -0.11    2.34
  10  -3   5    0.61    2.11
  10   3   6   19.35    4.50
  10   3   6   24.76    5.06
  10   3   7   45.84    6.99
  10   3   7   36.13    6.56
  10  -3   7   36.36    6.76
  10   3   8    1.06    2.73
  10  -3   8    3.01    2.71
  10   3   8    0.32    1.98
  10   3   9    7.38    3.10
  10   3   9   13.07    4.15
  10  -3   9   11.47    3.81
  10   3  10   28.30    6.14
  10  -3  10   22.92    5.19
  10   3  10   16.75    4.71
  10   3  11    4.40    4.12
  10  -3  11    1.36    2.40
  10   3  11    2.37    2.55
  10   3  12   11.62    4.68
  10  -3  12    5.93    3.27
  10   3  12    3.57    2.93
  10   3  13   20.49    4.18
  10  -3  13   18.98    4.59
  10   3  13   20.36    5.63
  10   3  14   -0.85    2.55
  10  -3  14   -1.45    2.09
  10   3  14    3.12    2.19
  10  -3  15   -0.47    1.42
  10   3  15   -0.16    2.52
  10  -3  16   10.69    3.29
  10   3  16    7.05    3.39
  10  -3  17    3.38    3.00
  10   3  17    1.76    1.88
  10  -3  18    1.06    2.37
  10   3  18    1.67    2.85
  10  -3  19   -0.43    3.00
  10   3  19   -1.86    3.78
  10   3  20    1.40    2.39
  10  -3  20    2.21    3.07
  10   3  21   -1.53    2.27
  10   3  22    4.52    2.95
  10   3  23    2.27    2.54
  10   3  24    3.20    3.52
  10   3  25    0.78    3.35
  10   3  26    3.44    4.47
  10  -4 -25   24.47    6.16
  10  -4 -24   65.02   10.71
  10  -4 -23    5.96    2.96
  10  -4 -22   35.25    7.76
  10  -4 -21   47.81    8.43
  10  -4 -20   16.25    5.51
  10  -4 -19   39.62    7.90
  10   4 -19   50.59    8.33
  10  -4 -18  116.41   13.46
  10   4 -18  124.61   13.36
  10  -4 -17   99.71   11.74
  10  -4 -17   74.42   10.40
  10   4 -17   64.75    9.69
  10  -4 -16   51.21    8.13
  10   4 -16   66.60   10.10
  10  -4 -16   33.32    7.31
  10  -4 -15  103.52   11.90
  10  -4 -15  123.42   13.32
  10   4 -15  123.13   13.29
  10  -4 -14  112.53   12.51
  10  -4 -14   94.82   11.51
  10   4 -14   92.35   10.95
  10  -4 -13   76.68   10.58
  10  -4 -13   79.28   10.51
  10   4 -13   66.50    9.32
  10  -4 -12  112.78   12.29
  10  -4 -12  109.76   11.76
  10   4 -12  123.15   12.37
  10  -4 -11  333.67   20.64
  10  -4 -11  298.98   19.53
  10   4 -11  278.95   18.52
  10  -4 -10   95.08   11.30
  10  -4 -10   91.74   10.81
  10   4 -10   80.53    9.93
  10  -4  -9   98.46   11.09
  10  -4  -9   91.30   10.60
  10   4  -9   95.24   10.15
  10  -4  -8   92.76   11.03
  10  -4  -8  127.46   12.31
  10   4  -8  130.33   12.37
  10  -4  -7   24.14    5.94
  10   4  -7   25.26    4.65
  10  -4  -7   33.97    7.19
  10   4  -7   46.34    7.38
  10  -4  -6   35.78    6.65
  10   4  -6   31.86    6.10
  10  -4  -6   38.01    7.34
  10   4  -6   38.82    5.81
  10   4  -5  194.41   14.73
  10   4  -5  211.57   13.86
  10  -4  -5  207.76   15.59
  10  -4  -5  206.28   16.01
  10   4  -4   70.79    9.27
  10  -4  -4   72.75    9.20
  10   4  -4   77.94    8.84
  10  -4  -4   86.91   10.72
  10   4  -3   62.93    8.40
  10  -4  -3   77.18    9.53
  10   4  -3   78.63    8.55
  10  -4  -3   90.63   10.79
  10   4  -3   54.53    6.91
  10   4  -2  245.05   16.35
  10  -4  -2  242.56   16.96
  10   4  -2  260.50   16.01
  10  -4  -2  237.04   16.98
  10   4  -2  249.56   14.83
  10   4  -1  285.50   17.77
  10  -4  -1  276.90   18.01
  10  -4  -1  265.17   18.04
  10   4   0  128.92   11.81
  10  -4   0  138.55   12.94
  10   4   0  149.43   12.39
  10  -4   0  138.85   13.38
  10   4   1  275.07   17.06
  10  -4   1  267.94   17.68
  10   4   1  253.69   16.24
  10  -4   1  295.25   18.90
  10   4   2  260.34   16.72
  10  -4   2  295.70   18.58
  10   4   2  287.69   17.51
  10  -4   2  274.22   18.27
  10   4   3   86.50    9.85
  10  -4   3   98.20   10.87
  10   4   3   73.95    8.98
  10  -4   3   63.71    8.77
  10   4   4   83.18    9.68
  10  -4   4   77.78    9.59
  10   4   4   78.93    9.35
  10  -4   4   59.83    8.91
  10   4   5  202.38   14.57
  10  -4   5  234.14   16.64
  10   4   5  212.24   15.22
  10  -4   5  220.61   16.73
  10   4   6   41.20    6.33
  10  -4   6   48.10    7.92
  10   4   6   36.73    6.33
  10  -4   6   42.49    7.47
  10   4   7   22.87    5.32
  10   4   7   43.14    7.24
  10  -4   7   26.80    5.93
  10  -4   7   31.41    5.55
  10   4   8  138.41   12.23
  10  -4   8  121.83   12.34
  10   4   8  121.58   11.58
  10  -4   8  125.52   12.87
  10   4   9   97.84   10.31
  10  -4   9   97.94   10.91
  10   4   9   75.04    9.75
  10   4  10   93.84   10.38
  10  -4  10  111.79   11.93
  10   4  10   90.01   10.87
  10   4  11  294.41   18.35
  10  -4  11  289.53   19.40
  10   4  11  280.37   18.96
  10   4  12  133.45   12.05
  10  -4  12  119.73   12.42
  10   4  12  119.76   12.30
  10   4  13   78.13    9.52
  10  -4  13   62.78    8.73
  10   4  13   58.95    8.36
  10   4  14   91.35   10.80
  10  -4  14   95.81   11.62
  10   4  14   90.39   11.11
  10   4  15  141.51   12.79
  10  -4  15  110.90   12.20
  10   4  15  132.28   13.26
  10   4  16   47.65    8.06
  10  -4  16   42.06    7.85
  10   4  17   95.07   11.50
  10  -4  17   82.51   11.16
  10   4  18   92.05   11.74
  10  -4  18   96.51   11.97
  10  -4  19   46.98    8.76
  10   4  19   43.55    8.36
  10   4  20   25.87    6.59
  10   4  21   36.63    6.48
  10   4  22   21.27    5.74
  10   4  23   11.13    4.60
  10   4  24   44.82    8.60
  10   4  25   28.66    7.61
  10  -5 -23    6.62    4.20
  10  -5 -22    3.63    2.55
  10  -5 -21   14.08    6.03
  10  -5 -20   12.19    4.82
  10  -5 -19    0.79    2.97
  10   5 -18    2.84    3.00
  10  -5 -18    0.94    1.98
  10  -5 -18    2.48    3.05
  10   5 -17   -3.17    2.61
  10  -5 -17   -2.39    4.07
  10  -5 -17    3.53    3.32
  10   5 -16   13.73    3.99
  10  -5 -16   18.60    5.92
  10  -5 -16   12.16    4.06
  10   5 -15   33.19    6.88
  10  -5 -15   23.53    6.08
  10  -5 -15   40.26    8.50
  10   5 -14    6.28    4.73
  10  -5 -14   -0.67    2.44
  10  -5 -14   -1.12    2.34
  10   5 -13    1.06    2.09
  10  -5 -13    1.85    3.94
  10  -5 -13    3.68    3.78
  10  -5 -12    0.38    1.49
  10   5 -12    1.46    2.82
  10  -5 -12    4.38    3.60
  10  -5 -11    6.79    4.14
  10   5 -11    5.61    3.39
  10  -5 -11    9.87    4.05
  10  -5 -10   19.72    5.53
  10   5 -10   16.22    4.38
  10  -5 -10   16.94    5.79
  10  -5  -9    4.21    2.97
  10   5  -9    6.28    3.84
  10  -5  -9    2.44    2.32
  10   5  -8   38.97    7.32
  10  -5  -8   32.58    6.13
  10  -5  -8   34.34    6.87
  10   5  -7   19.03    4.70
  10  -5  -7   22.41    5.47
  10  -5  -7   23.19    5.93
  10   5  -6    3.97    2.14
  10  -5  -6    7.43    3.93
  10   5  -6    4.03    2.13
  10  -5  -6   11.23    4.92
  10   5  -5   11.85    3.35
  10  -5  -5   10.32    3.41
  10   5  -5    5.43    2.31
  10  -5  -5   10.49    2.65
  10   5  -4   44.77    7.51
  10   5  -4   38.94    6.25
  10  -5  -4   39.68    6.88
  10  -5  -4   40.41    7.34
  10   5  -3   15.58    5.16
  10  -5  -3   22.38    5.84
  10  -5  -3   14.42    3.54
  10   5  -3   12.98    4.10
  10  -5  -2   53.88    7.98
  10   5  -2   53.69    8.08
  10   5  -2   50.56    7.28
  10  -5  -2   51.72    8.45
  10  -5  -1  143.55   13.53
  10   5  -1  147.93   12.86
  10   5  -1  156.57   12.96
  10  -5  -1  136.83   13.53
  10  -5   0  141.14   13.49
  10   5   0  161.38   13.80
  10   5   0  151.87   13.07
  10  -5   0  145.73   13.73
  10   5   1  167.85   13.80
  10  -5   1  164.88   14.35
  10   5   1  127.18   11.75
  10  -5   1  166.95   14.64
  10   5   2   52.09    8.08
  10  -5   2   57.45    8.96
  10   5   2   62.28    8.35
  10  -5   2   52.05    8.17
  10   5   3   15.11    4.64
  10   5   3   20.98    5.09
  10  -5   3   22.19    5.40
  10  -5   3   17.99    5.04
  10   5   4   38.36    6.70
  10  -5   4   28.32    6.34
  10   5   4   46.27    7.47
  10  -5   4   27.95    5.75
  10   5   5   10.67    4.70
  10   5   5   11.80    4.41
  10  -5   5    3.46    2.65
  10  -5   5    9.46    4.94
  10   5   6    8.44    3.95
  10   5   6    6.32    3.35
  10  -5   6    7.38    3.92
  10  -5   6    3.38    2.14
  10   5   7   17.79    5.28
  10   5   7   20.71    5.59
  10  -5   7   20.81    5.09
  10  -5   7   21.09    5.53
  10   5   8   28.10    6.37
  10   5   8   20.04    5.02
  10  -5   8   40.24    6.97
  10  -5   8   39.22    7.35
  10   5   9    6.30    3.34
  10   5   9    9.09    4.42
  10  -5   9    5.19    2.96
  10  -5   9    6.40    3.19
  10   5  10   24.67    6.36
  10   5  10   28.93    6.33
  10  -5  10   17.38    4.54
  10  -5  10   11.94    3.81
  10   5  11    9.50    3.87
  10   5  11    6.57    3.81
  10  -5  11   14.49    5.48
  10  -5  11   11.38    5.26
  10   5  12   -1.56    2.21
  10   5  12    3.01    2.64
  10  -5  12   -2.62    3.80
  10   5  13    3.61    4.20
  10   5  13   -0.83    2.70
  10  -5  13   -0.01    2.64
  10   5  14   -0.01    2.27
  10   5  14    6.58    3.88
  10  -5  14    4.80    3.27
  10   5  15   21.29    5.64
  10   5  15   25.63    6.20
  10  -5  15   24.25    6.40
  10   5  16   15.77    5.13
  10  -5  16   14.07    4.80
  10   5  17    3.36    2.77
  10  -5  17    4.00    3.63
  10  -5  18    8.33    4.72
  10   5  18    5.66    4.66
  10   5  19    4.68    1.92
  10   5  20    3.84    2.00
  10   5  21   25.17    6.39
  10   5  22    2.87    2.00
  10   5  23   -0.85    2.75
  10  -6 -22   24.22    7.41
  10  -6 -21   99.33   12.85
  10  -6 -20   46.03    8.19
  10  -6 -19   18.07    6.04
  10  -6 -19   13.72    5.23
  10  -6 -18   50.26    9.45
  10  -6 -18   40.35    8.70
  10  -6 -17   66.28    9.96
  10  -6 -17   58.45   10.32
  10   6 -17   68.24   10.23
  10  -6 -16   50.28    8.76
  10  -6 -16   52.44    9.29
  10   6 -16   66.29   10.53
  10  -6 -15  158.07   15.00
  10  -6 -15  130.61   14.70
  10   6 -15  143.17   14.53
  10  -6 -14   98.66   11.81
  10  -6 -14   94.36   12.08
  10   6 -14   67.39    9.47
  10  -6 -13   61.62    9.64
  10  -6 -13   64.31   10.27
  10   6 -13   68.81   10.64
  10  -6 -12   59.14    9.27
  10  -6 -12   46.69    8.18
  10   6 -12   58.71    8.92
  10   6 -11   81.68   11.05
  10  -6 -11   65.79    9.62
  10  -6 -11   63.10    9.65
  10  -6 -10   31.85    6.53
  10   6 -10   33.52    7.14
  10   6  -9   81.64   10.78
  10  -6  -9   67.34    9.89
  10   6  -8   87.36   10.74
  10  -6  -8   79.19   10.86
  10  -6  -8   89.59   10.92
  10  -6  -7   16.83    4.87
  10   6  -7   15.35    4.81
  10  -6  -7   23.20    5.07
  10   6  -6   30.73    6.27
  10  -6  -6   42.04    7.21
  10  -6  -6   40.87    7.40
  10   6  -5  112.50   12.08
  10   6  -5  129.94   12.15
  10  -6  -5  149.32   14.23
  10  -6  -5  124.55   13.01
  10   6  -4   72.03    9.47
  10   6  -4   69.81    8.74
  10  -6  -4   72.19   10.42
  10  -6  -4   83.70   10.66
  10   6  -3    4.82    3.17
  10  -6  -3   -0.51    1.62
  10   6  -3    1.82    1.56
  10   6  -2   38.78    6.62
  10   6  -2   44.48    7.74
  10  -6  -2   61.85    9.46
  10  -6  -2   45.54    8.41
  10   6  -1  117.37   11.86
  10  -6  -1  101.52   12.12
  10  -6  -1   85.81   10.86
  10   6   0  141.85   13.23
  10   6   0  139.16   13.11
  10  -6   0  128.93   13.21
  10  -6   0  132.07   13.24
  10   6   1  151.44   13.58
  10   6   1  120.26   12.37
  10  -6   1  147.03   14.08
  10  -6   1  120.69   12.31
  10  -6   2   55.84    8.75
  10   6   2   53.97    8.15
  10   6   2   34.40    6.77
  10  -6   2   56.35    8.94
  10   6   3    1.04    2.01
  10   6   3    5.14    3.29
  10  -6   3    0.72    1.49
  10  -6   3    1.56    1.73
  10  -6   4   53.34    8.66
  10   6   4   86.39   10.15
  10   6   4   59.40    8.59
  10  -6   4   66.40   10.37
  10  -6   5  131.16   12.95
  10   6   5  154.17   13.68
  10   6   5  138.83   13.33
  10  -6   5  135.63   13.87
  10   6   6   42.81    7.22
  10  -6   6   26.95    6.50
  10   6   6   45.12    7.44
  10  -6   6   42.17    7.99
  10   6   7   19.04    5.41
  10  -6   7   17.17    5.11
  10   6   7   19.07    5.55
  10  -6   7   28.89    6.98
  10  -6   8   86.74   11.23
  10   6   8   95.10   11.14
  10   6   8   83.27   10.68
  10  -6   8   86.39   11.32
  10  -6   9   94.34   11.58
  10   6   9   79.18   10.37
  10   6   9   82.70   10.81
  10  -6   9   97.82   11.96
  10   6  10   53.77    8.99
  10  -6  10   41.61    7.57
  10   6  10   47.11    8.21
  10  -6  10   52.84    8.93
  10  -6  11   62.10    9.55
  10   6  11   74.60    9.94
  10   6  11   71.99   10.07
  10  -6  11   69.18   10.62
  10   6  12   51.05    8.72
  10  -6  12   46.10    8.67
  10   6  12   72.35   10.56
  10  -6  12   52.58    8.98
  10  -6  13   73.13   10.42
  10   6  13   57.89    8.96
  10   6  13   63.51    9.27
  10  -6  13   49.28    9.90
  10  -6  14  100.83   12.03
  10   6  14   79.28   10.78
  10   6  14   80.20   10.79
  10  -6  14   85.64   11.59
  10   6  15  153.36   14.84
  10  -6  15  136.29   14.67
  10   6  15  178.81   16.25
  10  -6  15  170.13   17.57
  10   6  16   46.00    8.39
  10  -6  16   39.42    8.36
  10   6  16   59.99    9.54
  10  -6  16   47.93    9.68
  10   6  17   66.58    9.95
  10   6  18   48.21    8.89
  10   6  19   28.78    7.44
  10   6  20   59.13    9.93
  10   6  21  102.83   12.90
  10   6  22   34.71    7.21
  10  -7 -19   -1.90    2.82
  10  -7 -19    5.94    3.98
  10  -7 -18   19.32    5.41
  10  -7 -18   25.78    7.62
  10   7 -17   17.21    7.62
  10  -7 -17    5.08    4.77
  10  -7 -17    7.80    3.79
  10   7 -16   17.38    5.08
  10  -7 -16   15.86    5.07
  10  -7 -16   10.07    3.52
  10  -7 -15    4.89    2.29
  10   7 -15    8.99    4.77
  10  -7 -15    9.23    4.87
  10   7 -14   20.58    6.28
  10  -7 -14   24.25    6.37
  10  -7 -14   19.42    5.77
  10   7 -13    9.55    4.32
  10  -7 -13   16.89    6.27
  10  -7 -13    7.63    3.97
  10   7 -12    1.68    2.97
  10  -7 -12   10.63    5.29
  10  -7 -12   13.75    5.69
  10   7 -11   20.80    6.11
  10  -7 -11   43.48    8.22
  10  -7 -11   36.13    8.00
  10   7 -10   40.66    8.38
  10  -7 -10   37.71    7.99
  10  -7 -10   40.07    8.12
  10   7  -9   36.22    8.11
  10  -7  -9   29.51    6.92
  10  -7  -9   31.03    7.06
  10  -7  -8   21.04    6.03
  10   7  -8   21.05    5.74
  10  -7  -8   15.18    4.91
  10  -7  -7   -0.11    3.27
  10   7  -7   -0.05    3.84
 -10   7  -7   -0.85    3.64
  10  -7  -7    3.76    3.61
  10  -7  -6    7.95    4.61
  10   7  -6    6.41    3.84
 -10   7  -6    7.21    4.40
  10  -7  -6    8.99    3.67
  10  -7  -5    7.41    4.55
  10   7  -5    2.71    2.84
 -10   7  -5    4.41    2.06
  10  -7  -5    1.93    2.97
  10  -7  -4    6.64    3.08
  10   7  -4   14.55    5.01
  10  -7  -4    6.81    3.32
  10  -7  -3    7.91    3.65
  10   7  -3   20.36    5.67
  10   7  -3   11.41    4.71
  10  -7  -3   14.42    4.22
  10  -7  -2   18.99    6.10
  10   7  -2   13.54    3.92
  10   7  -2   21.12    4.84
  10  -7  -2   15.86    5.05
  10   7  -1   52.05    9.11
  10   7  -1   61.51    8.92
  10  -7  -1   56.07    9.07
  10  -7  -1   68.78   10.14
  10  -7   0   40.12    7.31
  10   7   0   29.25    6.53
  10   7   0   39.74    7.51
  10  -7   0   34.80    7.42
  10   7   1   71.90    9.94
  10   7   1   55.43    8.38
  10  -7   1   52.74    8.98
  10  -7   1   55.21    8.55
  10  -7   2   17.09    4.83
  10   7   2   18.19    4.35
  10   7   2   13.54    4.00
  10  -7   2   28.20    6.70
  10  -7   3   12.56    4.67
  10   7   3   11.83    4.82
  10   7   3    6.72    2.92
  10  -7   3    6.78    4.26
  10  -7   4    8.81    4.41
  10   7   4    7.36    4.09
  10   7   4    1.32    1.69
  10  -7   4    5.62    2.87
  10  -7   5    4.97    2.79
  10   7   5   10.67    4.31
  10   7   5    2.95    2.27
  10  -7   5   11.44    5.06
  10  -7   6    3.28    2.84
  10   7   6    5.12    4.37
  10   7   6   12.82    4.54
  10  -7   6    8.07    4.25
  10  -7   7   -1.06    1.67
  10   7   7    4.35    3.13
  10   7   7   -0.66    1.42
  10  -7   7   -0.92    4.12
  10  -7   8   21.91    6.12
  10   7   8   24.59    6.26
  10   7   8   35.07    7.92
  10  -7   8   21.76    5.99
  10  -7   9   39.72    7.83
  10   7   9   29.35    6.34
  10   7   9   23.53    5.90
  10  -7   9   42.60    8.57
  10  -7  10   27.25    7.37
  10   7  10   38.86    7.12
  10   7  10   33.59    7.20
  10  -7  10   35.54    8.65
  10  -7  11   36.45    7.79
  10   7  11   30.17    7.07
  10   7  11   39.83    7.20
  10  -7  11   32.54    7.72
  10  -7  12   10.37    3.60
  10   7  12   12.34    5.08
  10   7  12    7.17    4.18
  10  -7  12    0.12    2.91
  10  -7  13    6.96    4.08
  10   7  13   12.48    4.11
  10   7  13   15.18    4.89
  10  -7  13    4.62    3.65
  10  -7  14   18.52    5.36
  10   7  14    8.76    5.02
  10   7  14   11.38    3.71
  10  -7  15    4.50    3.75
  10   7  15    6.78    4.96
  10   7  15   13.46    5.29
  10   7  16   14.32    4.91
  10   7  16   16.74    5.22
  10   7  17    2.88    2.26
  10   7  18    8.05    2.56
  10   7  19    0.04    2.11
  10  -8 -17   11.99    5.99
  10  -8 -17   21.17    6.01
  10   8 -16   11.09    4.71
  10  -8 -16    6.26    4.98
  10  -8 -16    7.69    4.76
  10   8 -15   48.37    9.27
  10  -8 -15   64.74   11.45
  10  -8 -15   59.95   10.04
  10   8 -14   68.49   11.12
  10  -8 -14   68.14   11.35
  10  -8 -14   45.18    8.89
  10   8 -13    7.94    2.41
  10  -8 -13   17.08    5.85
  10  -8 -13   23.41    6.95
  10  -8 -12   36.48    7.82
  10  -8 -12   22.83    6.23
  10   8 -11   30.65    6.57
  10  -8 -11   20.15    5.05
  10   8 -10   11.85    4.89
  10  -8 -10    4.81    3.45
  10   8  -9   46.30    8.30
  10  -8  -9   67.48   10.63
  10  -8  -9   45.73    9.06
  10   8  -8   67.13   10.28
  10  -8  -8   72.33   10.56
  10   8  -7   18.82    5.62
  10  -8  -7   26.16    6.33
  10  -8  -7   10.98    3.68
  10   8  -6   71.75   10.41
 -10   8  -6   75.42   10.83
  10  -8  -6   83.72   11.15
  10  -8  -6   80.16   11.43
  10   8  -5  128.39   13.57
 -10   8  -5  139.88   14.12
  10  -8  -5  125.92   14.50
  10  -8  -5  127.55   14.76
  10   8  -4   77.55   10.40
  10  -8  -4   80.22   11.70
  10  -8  -4   73.70   10.18
  10  -8  -3   17.03    4.76
  10   8  -3   17.31    4.30
 -10   8  -3   12.72    5.07
  10  -8  -3   10.17    4.65
  10  -8  -2   24.36    6.65
  10   8  -2   19.49    5.56
  10   8  -2   23.59    5.74
 -10   8  -2   11.83    4.06
  10  -8  -2   23.35    6.65
  10  -8  -1   13.99    3.88
  10   8  -1   38.39    7.57
  10   8  -1   32.07    6.44
 -10   8  -1   21.37    5.86
  10  -8  -1   29.13    6.77
  10  -8   0   28.93    6.97
  10   8   0   27.01    6.64
  10   8   0   34.45    7.15
 -10   8   0   31.37    6.64
  10  -8   0   32.99    7.42
  10  -8   1   38.15    7.47
  10   8   1   36.79    7.17
 -10   8   1   16.67    5.77
  10   8   1   50.00    8.59
  10  -8   1   31.47    7.34
  10  -8   2   20.90    6.31
  10   8   2   26.15    6.14
  10   8   2   18.21    5.01
  10  -8   2   16.03    5.34
 -10   8   2   17.54    4.35
  10  -8   3   25.32    6.33
  10   8   3   21.78    5.62
  10   8   3   11.45    3.84
  10  -8   3   21.78    6.78
  10   8   4   85.16   11.25
  10   8   4   83.40   11.13
  10  -8   4   92.13   12.55
  10  -8   4   90.56   11.99
  10   8   5  143.65   14.37
  10  -8   5  127.32   14.75
  10   8   5  132.76   13.82
  10  -8   5  128.48   13.91
  10   8   6   65.21    9.27
  10   8   6   51.73    8.02
  10  -8   6   73.65   11.24
  10  -8   6   86.04   11.20
  10  -8   7   16.64    5.13
  10   8   7   13.42    3.99
  10   8   7   17.17    4.76
  10  -8   7   19.46    6.65
  10   8   8   55.30    9.29
  10   8   8   89.14   11.34
  10  -8   8   78.95   11.06
  10  -8   9   54.69    9.07
  10   8   9   48.68    9.39
  10   8   9   61.90    9.37
  10  -8  10   11.77    4.95
  10   8  10    7.39    2.66
  10   8  10   11.75    4.96
  10  -8  11   39.12    8.63
  10   8  11   45.13    8.77
  10   8  11   45.13    8.20
  10  -8  12   21.74    6.81
  10   8  12   17.22    4.96
  10   8  12   18.59    5.30
  10  -8  13   35.83    8.43
  10   8  13   24.23    7.04
  10   8  13   21.30    5.94
  10   8  14   56.34   10.15
  10   8  14   48.68    9.50
  10   8  15   85.30   11.42
  10   8  15   73.60   11.02
  10   8  16    3.19    2.60
  10   8  16    4.48    2.88
 -10   8  16   -1.61    3.04
  10   8  17    7.15    4.81
 -10   8  17    7.14    3.95
  10   9 -13   -2.11    3.86
  10  -9 -13    4.96    4.27
  10  -9 -13   -0.45    2.68
  10   9 -12    1.51    1.62
  10  -9 -12    1.00    3.97
  10  -9 -12    0.70    2.25
  10   9 -11    7.16    3.97
  10  -9 -11   20.37    6.11
  10  -9 -11   15.70    5.44
  10   9 -10    6.52    4.69
  10  -9 -10   10.14    4.99
  10  -9 -10    9.23    5.27
  10   9  -9    0.03    1.67
  10  -9  -9   -0.01    2.90
  10  -9  -9    2.26    2.99
  10   9  -8    5.76    4.79
  10  -9  -8   10.46    3.88
  10  -9  -8   15.37    4.83
  10   9  -7    5.68    4.31
  10  -9  -7   -3.65    4.67
  10  -9  -7    4.94    4.92
  10   9  -6    4.73    4.34
  10  -9  -6    2.99    3.13
  10  -9  -6    3.04    1.51
  10   9  -5    5.62    3.34
 -10   9  -5    1.98    2.02
  10  -9  -5    2.42    2.86
  10  -9  -5   -0.63    3.88
  10   9  -4   11.46    4.41
 -10   9  -4    5.52    3.81
  10  -9  -4    0.57    2.34
  10  -9  -4   15.54    6.05
  10   9  -3   13.48    4.67
 -10   9  -3   14.02    4.86
  10  -9  -3    8.28    3.78
  10  -9  -3   21.57    5.95
  10   9  -2    2.90    2.04
 -10   9  -2    2.04    3.72
  10  -9  -2    3.63    2.48
  10  -9  -2    5.98    2.18
  10   9  -1   10.22    4.70
  10   9  -1    0.38    4.03
 -10   9  -1   14.66    4.74
  10  -9  -1    7.65    3.53
  10  -9  -1    9.44    4.23
  10  -9   0    9.24    4.42
  10   9   0   13.47    4.13
  10   9   0   13.51    5.77
 -10   9   0   16.08    4.96
  10  -9   0   28.71    6.86
  10  -9   1    8.94    3.80
  10   9   1   15.31    4.17
  10   9   1   22.38    5.43
 -10   9   1    7.66    2.81
  10  -9   1   11.67    5.30
  10  -9   2    5.00    2.65
  10   9   2    7.68    3.81
  10   9   2   -1.06    3.91
 -10   9   2    4.07    2.29
  10  -9   3   18.21    5.32
  10   9   3   19.36    6.38
  10   9   3   12.43    4.97
 -10   9   3    9.15    4.44
  10  -9   4   14.14    5.52
  10   9   4    4.84    3.04
  10   9   4    9.80    4.50
 -10   9   4   16.93    6.18
  10  -9   5   -1.13    2.74
  10   9   5   -1.28    3.66
  10   9   5    6.10    2.92
 -10   9   5    2.85    4.15
  10  -9   6   -1.18    2.57
  10   9   6    0.61    3.16
  10   9   6   -2.14    1.60
 -10   9   6    0.97    2.53
  10  -9   7    2.24    2.75
  10   9   7    1.21    4.12
  10   9   7    1.86    2.41
 -10   9   7    8.46    3.99
  10  -9   8    6.27    4.39
  10   9   8    4.04    4.16
  10   9   8    8.73    3.90
 -10   9   8   -1.76    4.01
  10  -9   9    0.05    3.74
  10   9   9    0.26    4.29
  10   9   9    0.90    2.89
 -10   9   9    0.98    2.58
  10  -9  10    8.56    4.80
  10   9  10   10.66    5.69
 -10   9  10    7.20    3.64
  10   9  10    6.97    4.39
  10  -9  11   11.56    5.58
  10   9  11    2.99    2.57
  10   9  11   20.48    4.90
 -10   9  11   20.52    5.35
  10  -9  12    1.82    4.04
  10   9  12   -3.98    4.31
  10   9  12    1.21    3.38
 -10   9  12   -0.25    2.29
  10   9  13    3.18    2.99
  10   9  13    6.10    4.77
 -10   9  13    4.02    3.99
  10  10  -5   38.66    8.44
 -10  10  -5   26.52    8.60
  10 -10  -5   17.10    7.02
  10  10  -4   38.79    8.20
 -10  10  -4   37.38    8.87
  10 -10  -4   18.79    6.25
  10  10  -3   -1.14    4.28
 -10  10  -3    1.85    2.97
  10 -10  -3   -4.22    3.61
  10  10  -2   28.12    5.90
 -10  10  -2   25.27    6.75
  10 -10  -2   38.35    7.76
 -10  10  -1    2.10    1.83
  10 -10  -1    0.88    2.21
  10  10   0    1.65    2.55
 -10  10   0    4.46    2.03
  10 -10   0    0.14    2.66
  10  10   1   11.80    5.09
  10  10   1   21.56    7.83
 -10  10   1   19.63    6.03
  10 -10   1   12.61    5.62
  10  10   2   25.68    6.71
  10  10   2   39.03    8.48
 -10  10   2   24.62    6.20
  10 -10   2   26.88    7.44
  10  10   3    1.85    4.06
  10  10   3    8.75    4.89
 -10  10   3    1.12    2.71
  10 -10   3    7.01    4.75
  10  10   4   31.89    7.64
  10  10   4   21.10    6.48
 -10  10   4   13.97    4.70
  10 -10   4   30.97    8.46
  10  10   5   39.92    8.63
  10  10   5   22.20    6.04
 -10  10   5   20.85    5.82
  10 -10   5   32.99    8.73
  11   0 -24    4.51    4.67
  11   0 -23   -5.27    2.95
  11   0 -22   -1.22    2.28
  11   0 -21    2.65    2.75
  11   0 -20   -3.14    2.55
  11   0 -19    0.84    2.71
  11   0 -18    3.28    3.45
  11   0 -17    0.13    2.31
  11   0 -16   -0.29    3.73
  11   0 -15   -0.08    2.13
  11   0 -14   -2.17    2.87
  11   0 -13    1.81    1.63
  11   0 -12    0.04    1.97
  11   0 -12   -0.38    1.96
  11   0 -11    2.18    1.82
  11   0 -11    1.41    1.67
  11   0 -10    0.26    2.15
  11   0 -10    1.67    1.98
  11   0  -9   -0.37    1.51
  11   0  -9    0.47    1.99
  11   0  -8   -0.29    1.81
  11   0  -8   -1.58    2.22
  11   0  -7    0.21    1.30
  11   0  -7   -0.70    1.42
  11   0  -6    0.67    2.01
  11   0  -6   -1.11    1.77
  11   0  -6    1.15    2.17
  11   0  -5    0.71    1.78
  11   0  -5    3.40    2.83
  11   0  -5   -0.62    1.94
  11   0  -4    0.16    1.71
  11   0  -4    0.55    2.29
  11   0  -4    0.11    1.04
  11   0  -3    0.88    1.82
  11   0  -3    1.83    2.26
  11   0  -3   -1.28    1.89
  11   0  -2    0.88    1.07
  11   0  -2    1.12    2.71
  11   0  -2   -1.03    2.39
  11   0  -1    0.29    1.88
  11   0  -1    0.85    1.60
  11   0  -1    1.09    2.61
  11   0   0    0.41    2.43
  11   0   0   -0.21    1.67
  11   0   0   -0.31    1.16
  11   0   1    0.14    1.09
  11   0   1    0.18    0.89
  11   0   1    0.70    2.43
  11   0   2   -0.15    1.02
  11   0   2   -1.11    2.14
  11   0   3    0.16    1.31
  11   0   3   -1.88    2.51
  11   0   4    1.41    2.15
  11   0   4   -0.71    1.55
  11   0   5    0.06    1.08
  11   0   5   -1.37    2.70
  11   0   6   -0.85    1.96
  11   0   6   -0.56    1.44
  11   0   7    0.01    2.00
  11   0   7   -1.06    2.40
  11   0   8   -2.02    1.79
  11   0   8    2.67    2.41
  11   0   9   -0.78    2.05
  11   0   9    1.07    1.33
  11   0  10   -0.44    2.05
  11   0  10   -1.19    1.56
  11   0  11   -1.12    2.18
  11   0  11   -1.26    1.21
  11   0  12    2.75    2.88
  11   0  13   -1.83    2.17
  11   0  14   -0.63    2.03
  11   0  15   -1.53    1.53
  11   0  16   -1.65    2.27
  11   0  17    2.99    3.65
  11   0  18    2.87    3.34
  11   0  19    0.35    2.77
  11   0  20    1.18    2.12
  11   0  21    0.99    2.95
  11   0  22    0.68    2.88
  11   0  23    0.64    3.91
  11   0  24   -0.46    2.51
  11  -1 -26   12.83    4.28
  11  -1 -25   20.02    5.52
  11  -1 -24   76.66   11.50
  11  -1 -23   18.75    5.77
  11  -1 -22    2.42    2.09
  11  -1 -21   25.64    6.61
  11  -1 -20   24.59    6.04
  11   1 -19   68.46   10.41
  11  -1 -19   90.84   11.76
  11   1 -18  283.76   20.00
  11  -1 -18  348.96   22.12
  11   1 -17   20.49    5.34
  11  -1 -17   33.05    6.86
  11   1 -16   13.19    4.35
  11  -1 -16    4.56    3.10
  11   1 -15   75.08    9.73
  11  -1 -15   84.68   10.66
  11   1 -14  308.47   19.41
  11  -1 -14  277.67   18.75
  11   1 -13  496.11   24.24
  11  -1 -13  505.51   25.20
  11  -1 -13  463.68   23.03
  11  -1 -12  544.88   24.54
  11   1 -12  566.32   25.89
  11  -1 -12  586.45   26.93
  11   1 -12  592.55   26.14
  11  -1 -11   36.09    6.76
  11   1 -11   37.10    6.75
  11  -1 -11   26.79    6.45
  11   1 -11   33.80    6.53
  11  -1 -10  247.85   16.17
  11   1 -10  282.19   16.29
  11  -1 -10  269.43   18.21
  11   1 -10  295.60   18.37
  11   1 -10  274.78   17.63
  11  -1  -9  214.45   15.44
  11   1  -9  237.88   15.14
  11  -1  -9  244.11   16.92
  11   1  -9  222.09   15.85
  11   1  -9  211.28   14.92
  11  -1  -8  228.71   15.54
  11   1  -8  269.22   16.24
  11  -1  -8  264.82   17.93
  11   1  -8  235.66   15.98
  11   1  -8  236.93   16.22
  11  -1  -7  293.19   17.46
  11   1  -7  268.98   16.07
  11  -1  -7  249.62   17.14
  11   1  -7  277.60   17.72
  11   1  -7  255.55   16.61
  11  -1  -6  196.37   14.28
  11   1  -6  185.82   13.43
  11  -1  -6  184.03   14.69
  11   1  -6  223.75   15.59
  11   1  -6  183.53   14.07
  11  -1  -5   48.05    7.11
  11   1  -5   56.76    7.51
  11  -1  -5   48.15    7.65
  11   1  -5   61.07    7.91
  11   1  -5   58.53    7.72
  11  -1  -4   41.70    6.41
  11   1  -4   57.40    7.32
  11  -1  -4   45.13    6.98
  11   1  -4   43.11    6.80
  11   1  -4   38.91    6.11
  11  -1  -3  298.64   17.66
  11   1  -3  294.58   16.99
  11  -1  -3  313.98   18.87
  11   1  -3  300.10   17.82
  11   1  -3  320.87   18.06
  11  -1  -2  873.63   29.93
  11   1  -2  914.93   29.58
  11  -1  -2  908.28   32.09
  11   1  -2  922.51   31.22
  11   1  -2  927.46   30.33
  11  -1  -1   55.47    7.58
  11   1  -1   38.80    5.76
  11  -1  -1   46.38    7.28
  11   1  -1   49.63    7.36
  11   1  -1   45.45    7.00
  11   1   0    2.23    2.26
  11  -1   0    2.91    1.59
  11  -1   0    6.15    2.21
  11   1   0    3.94    2.64
  11   1   0    2.93    2.19
  11  -1   1   50.18    7.27
  11   1   1   43.86    6.73
  11  -1   1   41.79    7.82
  11   1   1   48.32    6.87
  11  -1   2  865.58   30.16
  11   1   2  928.35   30.33
  11  -1   2  961.84   33.22
  11   1   2  985.27   30.83
  11  -1   3  299.08   17.85
  11   1   3  273.80   16.58
  11   1   3  295.32   16.71
  11  -1   4   43.09    7.01
  11   1   4   43.50    6.73
  11   1   4   54.45    7.48
  11  -1   5   44.58    7.31
  11   1   5   44.68    6.76
  11   1   5   58.34    7.23
  11  -1   6  172.00   13.90
  11   1   6  209.36   14.91
  11   1   6  192.39   13.42
  11  -1   7  277.51   17.65
  11   1   7  261.82   16.99
  11   1   7  294.20   16.59
  11  -1   8  290.56   17.90
  11   1   8  290.06   17.94
  11   1   8  267.30   15.97
  11  -1   9  215.92   15.94
  11   1   9  244.85   17.01
  11   1   9  229.11   14.90
  11  -1  10  305.96   18.87
  11   1  10  271.04   17.65
  11   1  11   35.99    6.48
  11   1  11   41.99    6.18
  11  -1  11   34.71    6.71
  11  -1  12  567.74   26.30
  11   1  12  612.63   23.93
  11   1  12  545.70   25.86
  11   1  13  506.77   21.58
  11   1  13  547.20   26.49
  11  -1  14  279.93   18.91
  11   1  14  286.42   19.22
  11  -1  15   85.38   11.11
  11   1  15   92.28   10.92
  11   1  16    4.98    2.70
  11  -1  16    5.65    3.02
  11   1  17   29.05    6.28
  11  -1  17   18.92    5.98
  11  -1  18  312.08   21.20
  11   1  18  349.69   22.12
  11  -1  19   78.71   11.22
  11   1  19   77.93   10.71
  11   1  20   21.74    6.07
  11  -1  20   25.93    7.13
  11   1  21   32.51    6.95
  11  -1  21   15.80    4.99
  11   1  22   -1.47    1.97
  11  -1  22    0.92    2.00
  11   1  23   12.56    4.28
  11  -1  23    9.80    3.41
  11   1  24   97.93   13.52
  11   1  25   18.21    6.07
  11  -2 -25    0.54    3.18
  11  -2 -24    6.71    4.35
  11  -2 -23   52.97    8.47
  11  -2 -22    1.40    1.74
  11  -2 -21    2.71    2.54
  11  -2 -20    5.76    3.97
  11  -2 -19    0.36    3.79
  11  -2 -18   14.67    4.19
  11  -2 -17    0.74    2.62
  11  -2 -16    4.50    2.35
  11   2 -16    1.42    1.57
  11  -2 -15    1.87    1.60
  11   2 -15    0.61    2.04
  11  -2 -14   16.93    4.82
  11  -2 -14   21.87    5.56
  11   2 -14   15.31    5.52
  11   2 -14   18.74    4.46
  11  -2 -13   24.00    5.69
  11   2 -13   31.77    6.17
  11  -2 -13   28.74    6.47
  11   2 -13   31.30    6.06
  11  -2 -12    5.07    3.64
  11   2 -12    2.65    1.34
  11  -2 -12    3.41    3.07
  11   2 -12    6.23    3.15
  11  -2 -11    4.03    2.52
  11   2 -11    5.34    2.70
  11  -2 -11    7.38    3.51
  11   2 -11    4.34    3.06
  11  -2 -10    4.57    2.67
  11   2 -10    2.15    2.23
  11   2 -10    1.49    1.80
  11  -2  -9    4.81    2.75
  11  -2  -9    2.09    2.38
  11   2  -9    3.46    2.19
  11   2  -9    4.56    3.45
  11   2  -9    2.24    2.17
  11  -2  -8   73.17    8.81
  11   2  -8   94.40    9.44
  11  -2  -8   85.32   10.11
  11   2  -8   93.35    9.94
  11   2  -8   72.91    9.11
  11   2  -7   13.21    4.39
  11  -2  -7   29.87    6.05
  11  -2  -7   19.08    5.45
  11   2  -7   18.42    4.58
  11   2  -7   23.60    4.46
  11   2  -6    2.69    3.00
  11  -2  -6    3.82    1.93
  11  -2  -6    2.86    1.75
  11   2  -6    5.24    1.85
  11   2  -6    9.38    3.35
  11   2  -5   29.91    5.89
  11  -2  -5   42.58    6.95
  11   2  -5   45.55    6.47
  11  -2  -5   39.85    7.01
  11   2  -5   43.76    6.36
  11   2  -4    5.48    2.76
  11   2  -4    4.11    2.98
  11  -2  -4    4.74    2.65
  11  -2  -4    2.81    1.57
  11   2  -4    4.76    2.86
  11  -2  -3  413.54   21.32
  11  -2  -3  419.24   22.22
  11   2  -3  414.50   20.13
  11   2  -3  403.03   20.49
  11   2  -3  340.79   19.31
  11   2  -2   16.49    4.45
  11   2  -2   16.85    3.73
  11  -2  -2   23.00    5.07
  11  -2  -2   18.81    4.26
  11   2  -2   17.03    4.45
  11  -2  -1  326.05   18.87
  11  -2  -1  324.81   19.34
  11   2  -1  290.18   17.33
  11   2  -1  308.05   17.33
  11   2  -1  287.14   16.96
  11   2   0    3.84    2.30
  11   2   0    2.52    1.43
  11  -2   0   -0.41    1.29
  11  -2   0   -1.06    2.27
  11  -2   1  302.03   17.88
  11  -2   1  312.70   19.04
  11   2   1  299.15   17.53
  11   2   1  281.92   17.05
  11   2   2   17.12    4.78
  11   2   2   25.40    5.20
  11  -2   2   16.40    4.35
  11  -2   2   20.99    4.50
  11  -2   3  448.68   22.08
  11  -2   3  390.63   21.70
  11   2   3  416.41   20.94
  11   2   3  390.05   19.95
  11   2   4    5.18    3.16
  11   2   4    5.82    3.08
  11  -2   4    5.45    3.02
  11  -2   4    5.25    2.95
  11  -2   5   46.09    6.97
  11   2   5   37.54    6.09
  11   2   5   37.77    6.57
  11   2   6    1.22    2.15
  11  -2   6    4.29    2.80
  11   2   7   18.65    4.67
  11  -2   7   23.93    5.16
  11   2   7   26.63    5.94
  11   2   8   93.66   10.39
  11  -2   8   80.35    9.47
  11   2   8   92.27    9.79
  11   2   9    3.72    1.74
  11   2   9    1.35    2.86
  11  -2   9    6.01    3.16
  11   2  10    1.03    1.95
  11   2  10    3.58    3.11
  11  -2  10    6.83    3.13
  11   2  11    4.71    2.60
  11   2  11    3.97    1.47
  11  -2  11    4.89    4.22
  11   2  12    3.28    1.12
  11   2  12    6.19    3.12
  11  -2  12    4.60    3.47
  11   2  13   28.00    5.89
  11   2  13   26.69    5.78
  11  -2  13   27.01    5.83
  11   2  14   18.08    5.92
  11  -2  14   17.88    4.54
  11   2  15   -0.46    1.52
  11  -2  15    0.50    2.54
  11   2  16    2.55    2.24
  11  -2  16    2.76    1.78
  11   2  17    6.87    2.55
  11  -2  17    4.09    3.76
  11   2  18    3.18    1.78
  11  -2  18    3.83    2.99
  11   2  19   -0.95    2.46
  11  -2  19    1.43    2.67
  11   2  20   28.65    6.88
  11  -2  20   19.44    6.05
  11   2  21    0.46    2.88
  11  -2  21    6.90    2.96
  11   2  22    4.04    2.88
  11  -2  22    7.72    3.73
  11   2  23   45.82    8.88
  11   2  24    2.40    2.39
  11   2  25    5.49    3.73
  11  -3 -25   80.44   11.24
  11  -3 -24   87.77   11.79
  11  -3 -23   83.71   11.70
  11  -3 -22   18.61    6.06
  11  -3 -21   22.56    5.86
  11  -3 -20   32.31    7.21
  11  -3 -19   29.04    6.21
  11   3 -19   32.27    7.35
  11  -3 -18  158.88   15.39
  11   3 -18  129.99   13.43
  11  -3 -17   72.00   10.30
  11   3 -17   67.42    9.42
  11  -3 -16   -0.63    2.90
  11   3 -16    2.07    3.04
  11  -3 -15   31.97    7.30
  11  -3 -15   27.93    6.03
  11   3 -15   23.53    6.37
  11  -3 -14  129.19   12.89
  11   3 -14  147.53   13.77
  11  -3 -13   94.62   11.16
  11   3 -13   98.11   11.56
  11  -3 -12  118.88   12.62
  11   3 -12  113.06   11.71
  11  -3 -12  114.81   11.82
  11  -3 -11  223.51   17.17
  11   3 -11  199.93   15.66
  11  -3 -11  185.56   15.26
  11  -3 -10   55.29    8.78
  11   3 -10   47.12    7.63
  11  -3 -10   51.93    8.14
  11  -3  -9  784.70   30.98
  11  -3  -9  828.70   32.72
  11   3  -9  774.23   30.22
  11  -3  -8  292.66   18.82
  11   3  -8  296.25   16.77
  11  -3  -8  291.72   19.46
  11   3  -8  348.28   19.01
  11   3  -8  364.40   20.82
  11  -3  -7   81.83    9.90
  11  -3  -7   70.40    9.04
  11   3  -7   97.27    9.76
  11   3  -7   80.97    8.52
  11   3  -7   98.00   10.76
  11  -3  -6   69.65    9.31
  11  -3  -6   85.19   10.31
  11   3  -6   86.48    9.31
  11   3  -6   73.35    8.62
  11   3  -6   74.44    9.35
  11  -3  -5  517.36   24.26
  11  -3  -5  499.65   25.38
  11   3  -5  515.41   22.64
  11   3  -5  495.39   22.11
  11   3  -5  509.88   24.19
  11  -3  -4  342.37   20.14
  11  -3  -4  317.63   20.38
  11   3  -4  358.11   18.92
  11   3  -4  296.78   17.46
  11   3  -4  343.79   19.34
  11  -3  -3 1836.94   46.02
  11  -3  -3 1835.99   48.12
  11   3  -3 1837.43   43.58
  11   3  -3 1915.63   45.49
  11  -3  -2  380.28   20.99
  11  -3  -2  390.16   21.93
  11   3  -2  405.87   20.53
  11   3  -2  432.26   21.16
  11   3  -2  412.54   21.26
  11  -3  -1 1642.75   44.36
  11   3  -1 1583.29   40.43
  11   3  -1 1682.12   41.97
  11   3  -1 1630.37   41.98
  11   3   0   98.98   10.48
  11  -3   0  121.12   11.74
  11  -3   0  103.40   11.93
  11   3   0  108.28   10.77
  11   3   1 1621.67   41.27
  11  -3   1 1678.34   43.56
  11  -3   1 1600.24   44.00
  11   3   2  390.49   20.92
  11  -3   2  368.37   20.40
  11  -3   2  397.84   22.14
  11   3   2  415.27   21.05
  11   3   3 1902.01   45.99
  11  -3   3 1816.03   45.79
  11  -3   3 1793.19   47.40
  11   3   4  299.69   17.68
  11   3   4  320.24   18.75
  11  -3   4  325.51   19.38
  11  -3   4  357.71   21.16
  11   3   5  550.37   24.90
  11   3   5  495.66   23.69
  11  -3   5  483.56   23.81
  11  -3   5  501.84   25.23
  11   3   6   68.28    8.97
  11   3   6   72.08    8.61
  11  -3   6   86.45   10.58
  11  -3   6   61.87    8.59
  11   3   7   73.17    8.96
  11   3   7  103.14   11.21
  11  -3   7   76.75    9.59
  11   3   8  307.99   18.26
  11   3   8  295.70   19.02
  11  -3   8  301.27   19.14
  11   3   9  773.10   29.26
  11  -3   9  821.76   31.64
  11   3  10   48.63    7.43
  11   3  10   54.89    8.45
  11  -3  10   52.83    7.90
  11   3  11  205.47   15.11
  11   3  11  219.20   16.96
  11  -3  11  187.85   15.32
  11   3  12  119.47   11.97
  11   3  12  127.30   12.43
  11  -3  12  128.30   12.82
  11   3  13   94.11   11.20
  11  -3  13  104.01   11.70
  11   3  13  106.55   10.68
  11   3  14  141.55   13.93
  11  -3  14  122.98   12.95
  11   3  14  131.66   12.26
  11  -3  15   38.60    8.01
  11   3  15   32.27    6.65
  11   3  16   -0.55    1.59
  11  -3  16   -2.66    3.29
  11   3  17   78.47   10.92
  11  -3  17   80.81   10.65
  11   3  18  131.05   14.08
  11  -3  18  141.69   14.61
  11   3  19   40.41    7.96
  11  -3  19   32.01    6.91
  11   3  20   50.11    9.07
  11  -3  20   45.17    8.06
  11   3  21   22.00    5.56
  11  -3  21   23.22    5.89
  11   3  22   15.68    5.45
  11   3  23   93.26   12.80
  11   3  24   96.51   13.00
  11   3  25   83.46   12.54
  11  -4 -24   12.93    4.68
  11  -4 -23   16.82    5.01
  11  -4 -22   27.38    6.11
  11  -4 -21   21.26    6.02
  11  -4 -20    0.92    2.07
  11  -4 -19    3.49    3.56
  11   4 -19   -0.23    2.86
  11  -4 -18    5.68    5.39
  11   4 -18    4.53    4.01
  11  -4 -17    0.40    2.81
  11   4 -17    0.20    1.60
  11  -4 -16    3.90    3.75
  11  -4 -16    0.01    3.17
  11   4 -16    2.32    1.93
  11  -4 -15   11.79    4.63
  11  -4 -15    5.13    1.90
  11   4 -15    9.62    3.66
  11   4 -14    1.15    2.03
  11  -4 -14    1.06    2.98
  11  -4 -14   -0.92    2.84
  11   4 -13   -2.28    2.85
  11  -4 -13   -0.91    2.25
  11  -4 -13   -0.36    1.37
  11  -4 -12   31.14    6.53
  11  -4 -12   41.67    7.73
  11   4 -12   47.25    8.06
  11   4 -11   19.32    4.56
  11  -4 -11    7.22    3.31
  11  -4 -11   20.15    5.70
  11  -4 -10   62.63    9.57
  11  -4 -10   41.85    7.70
  11   4 -10   58.66    9.11
  11   4  -9    5.54    2.18
  11  -4  -9    1.55    2.27
  11  -4  -9    3.99    1.90
  11  -4  -8  117.15   12.66
  11   4  -8  111.25   11.44
  11  -4  -8  118.79   12.38
  11   4  -7   10.98    4.04
  11   4  -7   28.26    5.30
  11  -4  -7   22.62    5.65
  11  -4  -7   16.55    5.15
  11   4  -6   10.73    3.81
  11  -4  -6    7.80    3.72
  11   4  -6    7.57    2.80
  11  -4  -6   12.09    3.58
  11   4  -5    2.09    3.56
  11  -4  -5    1.12    2.37
  11   4  -5    5.18    2.59
  11  -4  -5    0.92    1.58
  11  -4  -4  763.83   30.87
  11  -4  -4  837.61   33.20
  11   4  -4  793.90   28.88
  11   4  -4  768.06   30.29
  11   4  -3   68.47    9.07
  11   4  -3   85.47    9.60
  11  -4  -3   78.71    9.55
  11  -4  -3   94.69   11.37
  11   4  -2  155.51   13.33
  11   4  -2  181.72   14.08
  11  -4  -2  204.76   15.71
  11  -4  -2  180.06   15.77
  11   4  -2  208.08   14.60
  11   4  -1  281.10   18.15
  11   4  -1  280.39   17.58
  11  -4  -1  260.55   17.84
  11  -4  -1  294.16   19.67
  11   4  -1  274.30   17.05
  11  -4   0    1.06    1.89
  11   4   0   -0.16    2.13
  11  -4   0    4.40    2.14
  11   4   1  306.92   18.49
  11  -4   1  327.31   20.33
  11  -4   1  272.21   18.72
  11   4   2  168.42   13.70
  11  -4   2  172.99   14.29
  11   4   2  182.14   14.45
  11  -4   2  167.02   14.36
  11   4   3   83.21    9.50
  11   4   3   83.67    9.58
  11  -4   3   77.25    9.98
  11  -4   3   74.29    9.97
  11   4   4  765.19   29.84
  11   4   4  796.58   30.55
  11  -4   4  847.14   32.42
  11  -4   4  842.07   33.20
  11   4   5    4.17    2.51
  11  -4   5    3.51    1.76
  11   4   5    2.80    3.52
  11  -4   5    0.86    1.80
  11   4   6    5.27    3.29
  11  -4   6   11.00    4.12
  11   4   6   14.60    3.75
  11  -4   6    5.97    2.15
  11   4   7   13.17    3.81
  11  -4   7   33.27    6.56
  11   4   7   27.51    6.08
  11  -4   7   22.93    4.78
  11   4   8  111.81   11.35
  11   4   8  122.71   12.18
  11  -4   8  108.64   12.01
  11  -4   8  100.53   12.05
  11   4   9    4.56    2.10
  11  -4   9    5.77    3.42
  11   4   9    5.43    2.34
  11  -4   9    4.48    3.60
  11   4  10   43.48    7.65
  11  -4  10   53.89    9.02
  11   4  11   17.47    5.24
  11  -4  11    9.41    3.58
  11   4  11    9.15    5.37
  11   4  12   49.30    8.08
  11   4  12   38.22    7.40
  11  -4  12   39.85    7.16
  11   4  13    5.03    3.98
  11  -4  13   -1.32    1.92
  11   4  13   -1.08    2.20
  11   4  14   -0.46    3.38
  11  -4  14    2.32    2.48
  11   4  14   -0.80    1.58
  11  -4  15   11.94    5.36
  11   4  15   10.21    4.94
  11  -4  16    5.49    1.87
  11   4  16    5.23    3.36
  11  -4  17    1.60    2.96
  11   4  17   -0.28    1.80
  11  -4  18    5.87    3.42
  11   4  18   -1.51    1.83
  11  -4  19    3.74    3.54
  11   4  19    5.48    4.18
  11   4  20    6.40    3.21
  11   4  21   13.80    4.03
  11   4  22   27.30    6.44
  11   4  23    9.37    5.21
  11   4  24   13.05    4.64
  11  -5 -22   41.92    9.35
  11  -5 -21    2.96    2.07
  11  -5 -20   62.09   10.43
  11  -5 -19   25.30    6.77
  11   5 -19   -0.84    1.59
  11  -5 -18   56.49    9.57
  11  -5 -18   50.36   10.54
  11   5 -18   39.10    7.66
  11   5 -17   14.01    4.52
  11  -5 -17   13.51    5.12
  11  -5 -17   14.63    4.69
  11   5 -16    8.98    2.58
  11  -5 -16    9.14    4.05
  11  -5 -16    5.23    4.01
  11   5 -15   35.96    7.57
  11  -5 -15   28.60    6.45
  11  -5 -15   22.61    5.85
  11  -5 -14  101.52   12.44
  11  -5 -14   94.17   11.96
  11   5 -14  113.25   12.79
  11  -5 -13   68.61   10.16
  11  -5 -13   74.69   10.37
  11   5 -13   60.33    8.82
  11   5 -12   14.88    5.19
  11  -5 -12   17.29    5.88
  11  -5 -11   -0.79    1.52
  11   5 -11    0.46    3.22
  11  -5 -11    3.81    4.24
  11   5 -10   -1.13    2.23
  11  -5 -10   -0.69    1.59
  11  -5 -10    0.81    2.37
  11  -5  -9   85.29   11.24
  11  -5  -9   72.30   10.31
  11   5  -9   81.39   10.11
  11  -5  -8  335.62   21.84
  11  -5  -8  373.17   22.43
  11   5  -7   52.60    8.72
  11  -5  -7   36.46    6.89
  11  -5  -7   51.30    8.03
  11   5  -6   45.75    7.37
  11   5  -6   34.84    6.43
  11  -5  -6   34.86    6.38
  11  -5  -6   27.12    5.78
  11   5  -5    6.46    4.05
  11  -5  -5    6.83    4.19
  11   5  -5   14.91    5.23
  11  -5  -5    9.31    4.14
  11  -5  -4  376.33   22.31
  11   5  -4  335.86   20.50
  11   5  -4  364.84   20.28
  11  -5  -4  351.26   22.07
  11  -5  -3   59.27    8.51
  11   5  -3   69.78    9.18
  11   5  -3   46.53    7.24
  11  -5  -3   53.25    8.35
  11   5  -2  128.45   12.59
  11  -5  -2  121.79   12.84
  11   5  -2  138.18   12.49
  11  -5  -2  154.98   14.87
  11   5  -1  180.74   15.03
  11  -5  -1  198.51   16.04
  11  -5  -1  196.04   16.47
  11   5   0    7.47    3.60
  11  -5   0    2.78    2.23
  11  -5   0   -0.24    2.87
  11   5   0    6.19    3.64
  11   5   1  183.45   14.86
  11  -5   1  186.07   15.70
  11   5   1  215.19   16.00
  11  -5   1  170.22   15.33
  11   5   2  132.22   12.77
  11  -5   2  141.73   13.48
  11   5   2  126.39   12.21
  11  -5   2  121.18   13.13
  11   5   3   51.72    7.86
  11  -5   3   57.71    8.75
  11   5   3   56.07    8.16
  11  -5   3   55.65    8.97
  11   5   4  346.59   20.43
  11   5   4  357.41   20.94
  11  -5   4  370.59   22.84
  11   5   5   14.44    4.37
  11  -5   5    1.80    1.67
  11  -5   5    3.98    4.04
  11   5   5   10.28    3.76
  11   5   6   40.35    7.73
  11  -5   6   41.12    7.43
  11  -5   6   31.98    6.80
  11   5   6   27.60    5.78
  11   5   7   55.77    8.31
  11  -5   7   53.35    8.85
  11   5   7   45.88    7.80
  11  -5   7   43.41    8.07
  11   5   8  368.93   21.42
  11  -5   8  342.80   21.62
  11   5   8  385.39   22.11
  11  -5   8  355.22   22.42
  11   5   9   89.57   10.68
  11  -5   9   92.75   11.58
  11   5   9   91.45   10.82
  11  -5   9   85.81   11.19
  11   5  10    2.27    2.21
  11  -5  10    8.49    4.83
  11  -5  10    5.28    3.59
  11   5  10    0.69    2.53
  11   5  11    0.15    2.09
  11  -5  11    0.95    2.00
  11  -5  11    3.91    3.87
  11   5  11    2.56    2.70
  11   5  12   17.08    4.50
  11  -5  12   23.60    5.81
  11  -5  12   25.97    5.97
  11   5  12   27.12    6.11
  11   5  13   75.61    9.59
  11  -5  13   59.88    9.61
  11   5  13   62.95    9.49
  11   5  14   98.28   11.54
  11  -5  14  123.93   13.94
  11   5  14  101.17   11.57
  11   5  15   39.96    7.80
  11  -5  15   29.82    7.31
  11   5  15   16.86    5.12
  11  -5  16    0.01    2.68
  11   5  16    7.99    3.51
  11  -5  17   18.69    6.61
  11   5  17   20.95    6.13
  11  -5  18   53.23   10.21
  11   5  18   53.88    9.52
  11   5  19   26.83    6.76
  11   5  20   54.52    9.16
  11   5  21    3.89    3.14
  11   5  22   58.80   10.30
  11  -6 -21    4.04    3.39
  11  -6 -20   31.45    7.53
  11  -6 -19    3.21    2.61
  11  -6 -19   10.58    5.59
  11   6 -18    0.86    4.11
  11  -6 -18    6.11    4.29
  11  -6 -18    5.36    3.80
  11   6 -17    1.89    3.59
  11  -6 -17    1.83    2.59
  11  -6 -17    0.93    2.36
  11   6 -16    3.19    2.75
  11  -6 -16    8.85    4.61
  11  -6 -16    6.17    3.57
  11   6 -15    8.53    4.07
  11  -6 -15    9.30    2.33
  11  -6 -15   11.65    5.66
  11   6 -14    8.83    3.76
  11  -6 -14   23.12    6.43
  11  -6 -14   24.03    6.22
  11   6 -13   20.39    5.34
  11  -6 -13    8.89    4.30
  11  -6 -13   13.57    5.11
  11   6 -12    9.45    3.45
  11  -6 -12    0.34    2.67
  11  -6 -12    0.22    3.65
  11  -6 -11   -0.23    1.43
  11   6 -11    4.59    2.88
  11  -6 -11    1.13    2.28
  11  -6 -10   65.03   10.47
  11  -6 -10   48.44    8.59
  11   6 -10   69.28   10.27
  11   6  -9    1.79    2.40
  11  -6  -9    4.13    1.89
  11  -6  -8   35.47    6.78
  11  -6  -8   39.70    7.52
  11   6  -7   -0.86    2.09
  11  -6  -7    4.23    3.55
  11   6  -6   51.84    8.34
  11  -6  -6   38.48    8.51
  11  -6  -6   50.56    8.69
  11  -6  -5   19.82    5.09
  11   6  -5   14.59    5.49
  11  -6  -5   17.91    5.65
  11   6  -4   12.72    4.83
  11  -6  -4    4.23    2.39
  11  -6  -4    9.72    3.97
  11   6  -4    6.68    3.39
  11   6  -3   -0.89    2.63
  11  -6  -3    4.92    3.01
  11  -6  -3    2.01    3.17
  11   6  -3    3.21    1.41
  11   6  -2   88.53   11.12
  11   6  -2  103.90   11.26
  11  -6  -2  113.24   12.93
  11  -6  -2   91.99   11.48
  11   6  -1   10.49    2.84
  11  -6  -1   11.08    4.11
  11  -6  -1   11.78    4.72
  11   6  -1   11.82    4.47
  11   6   0   -1.11    2.62
  11  -6   0    4.36    2.76
  11  -6   0    0.67    1.67
  11   6   0    3.04    1.65
  11   6   1   10.82    3.18
  11  -6   1   12.51    4.46
  11  -6   1   13.64    3.14
  11   6   1   10.60    3.29
  11  -6   2   80.61   10.72
  11   6   2   97.36   11.22
  11   6   2  116.22   11.87
  11  -6   2  111.62   12.98
  11   6   3    0.67    3.03
  11   6   3    0.51    1.61
  11  -6   3    1.05    1.96
  11  -6   3    1.52    4.44
  11   6   4    4.81    3.37
  11   6   4    5.12    4.18
  11  -6   4   13.20    3.89
  11  -6   4    6.55    3.45
  11   6   5    6.87    1.80
  11   6   5   12.98    4.32
  11  -6   5   14.31    5.21
  11  -6   5   12.49    3.71
  11  -6   6   56.00    9.16
  11   6   6   44.91    7.77
  11   6   6   55.01    8.72
  11  -6   6   40.90    7.76
  11   6   7    5.12    3.22
  11   6   7    5.11    2.43
  11  -6   7    6.19    3.84
  11  -6   7    0.75    3.04
  11   6   8   37.95    7.23
  11  -6   8   44.38    7.63
  11   6   8   47.61    8.53
  11  -6   8   27.78    6.76
  11   6   9    5.92    3.20
  11   6   9    7.67    3.62
  11  -6   9    4.95    3.08
  11  -6   9    2.93    2.72
  11   6  10   62.57    9.32
  11  -6  10   50.34    8.99
  11   6  10   57.64    9.18
  11  -6  10   57.91    9.22
  11   6  11    5.87    2.77
  11   6  11    1.77    2.21
  11  -6  11    4.79    3.78
  11  -6  11   -1.44    4.71
  11   6  12    4.45    3.53
  11   6  12    7.20    3.79
  11  -6  12    3.27    2.87
  11  -6  12    1.54    2.82
  11   6  13   21.67    6.02
  11   6  13   20.94    5.90
  11  -6  13   14.48    4.92
  11  -6  13   18.83    5.34
  11   6  14   24.91    6.45
  11   6  14   19.83    5.43
  11  -6  14   29.97    7.36
  11  -6  14   13.96    6.07
  11   6  15   10.54    5.57
  11   6  15    9.66    5.02
  11  -6  15    6.30    3.09
  11  -6  15   10.87    2.76
  11   6  16    0.19    3.56
  11  -6  16   -0.12    4.02
  11  -6  16    3.85    4.44
  11  -6  17    3.08    4.15
  11  -6  17   -3.68    2.66
  11   6  17    1.09    2.19
  11  -6  18    2.85    3.95
  11   6  18    1.16    3.18
  11   6  19    3.52    4.89
  11   6  20   38.53    7.93
  11   6  21    9.14    4.72
  11  -7 -18   36.95    8.03
  11  -7 -18   30.09    7.53
  11   7 -17    6.22    4.69
  11  -7 -17    5.86    5.43
  11  -7 -17    3.75    3.09
  11   7 -16   10.09    4.40
  11  -7 -16    7.54    4.48
  11  -7 -16    8.57    4.67
  11   7 -15   28.27    6.53
  11  -7 -15   27.42    7.61
  11  -7 -15   19.12    6.28
  11  -7 -14  114.42   13.09
  11  -7 -14  114.46   14.04
  11   7 -14  106.49   13.86
  11  -7 -13   75.75   11.10
  11  -7 -13   86.06   11.91
  11   7 -13   87.09   11.08
  11   7 -12   48.49    8.68
  11  -7 -12   42.03    8.85
  11  -7 -12   34.23    7.90
  11   7 -11    3.10    2.12
  11  -7 -11    5.60    3.02
  11   7 -10    7.78    4.44
  11  -7 -10    7.38    4.41
  11  -7 -10   -0.23    3.23
  11  -7  -9   35.79    7.32
  11   7  -9   52.74    8.80
  11  -7  -9   29.28    6.65
  11   7  -8  179.39   16.19
  11  -7  -8  144.23   14.81
  11  -7  -8  168.79   16.19
  11   7  -7  161.71   15.36
 -11   7  -7  131.77   14.63
  11  -7  -7  166.29   16.10
  11  -7  -7  177.81   16.39
  11   7  -6   52.42    9.14
  11  -7  -6   68.24   10.22
  11  -7  -6   53.66    9.03
  11  -7  -5    5.64    3.22
  11   7  -5    5.93    3.08
  11  -7  -5    6.77    1.90
  11   7  -4   63.42    9.79
  11  -7  -4   74.17   10.56
  11  -7  -4   47.72    8.51
  11   7  -3  149.46   14.32
  11   7  -3  133.11   13.36
  11  -7  -3  123.03   13.45
  11   7  -2   50.46    8.44
  11  -7  -2   27.41    6.47
  11   7  -2   49.01    8.40
  11  -7  -2   47.88    9.16
  11   7  -1    3.36    2.39
  11  -7  -1    1.43    1.99
  11   7  -1    4.03    2.64
  11   7   0    1.97    2.64
  11  -7   0    0.99    3.09
  11   7   0    3.07    2.96
  11  -7   0   -3.33    3.43
  11   7   1    7.08    3.00
  11  -7   1    1.49    3.25
  11   7   1    4.87    3.95
  11  -7   1    2.55    3.04
  11   7   2   35.54    7.44
  11  -7   2   34.64    6.89
  11   7   2   38.97    7.96
  11  -7   2   30.51    6.64
  11   7   3  137.55   14.02
  11   7   3  118.59   12.80
  11  -7   3  106.59   13.38
  11  -7   3  118.38   13.00
  11   7   4   66.52   10.27
  11   7   4   77.20   10.46
  11  -7   4   63.50   10.86
  11  -7   4   66.99   10.09
  11   7   5    5.61    4.15
  11  -7   5    6.83    4.05
  11   7   5    5.58    2.99
  11  -7   5    1.15    2.06
  11   7   6   49.76    8.22
  11  -7   6   50.93    8.39
  11   7   6   52.88    9.22
  11  -7   6   56.78    9.65
  11   7   7  181.27   15.67
  11   7   7  157.38   15.12
  11  -7   7  147.41   15.79
  11  -7   7  149.31   15.02
  11  -7   8  167.60   16.05
  11   7   8  148.21   14.75
  11   7   8  166.26   15.40
  11  -7   8  166.44   16.37
  11   7   9   35.68    7.18
  11   7   9   43.67    7.81
  11  -7   9   32.37    7.28
  11  -7   9   46.03    8.83
  11   7  10    7.48    3.00
  11   7  10    8.94    4.22
  11  -7  10    6.62    4.20
  11  -7  10    8.89    5.52
  11   7  11    4.88    3.92
  11   7  11   10.96    4.54
  11  -7  11   12.11    4.32
  11  -7  11    4.71    2.96
  11   7  12   33.17    7.11
  11  -7  12   48.84    9.20
  11   7  12   44.00    8.59
  11  -7  12   53.38   10.45
  11  -7  13   66.26   10.56
  11   7  13   75.90   10.64
  11   7  13   76.46   10.94
  11  -7  13   82.87   12.06
  11  -7  14   78.26   11.61
  11   7  14   98.49   12.71
  11   7  14   95.56   12.07
  11   7  15   31.77    6.92
  11   7  15   23.69    7.31
  11  -7  15   28.29    7.20
  11   7  16    2.96    4.71
  11   7  17    5.88    4.07
  11   7  18   34.39    7.39
  11   8 -15   -0.72    3.26
  11  -8 -15    7.90    4.16
  11  -8 -15   -0.74    4.54
  11   8 -14   -3.24    3.67
  11  -8 -14   -1.10    2.07
  11  -8 -14   -0.70    2.24
  11   8 -13    5.10    2.30
  11  -8 -13   10.56    4.97
  11  -8 -13    1.36    3.84
  11   8 -12    4.66    4.12
  11  -8 -12    0.87    2.24
  11  -8 -12    2.76    3.07
  11   8 -11    3.25    2.98
  11  -8 -11    5.78    4.43
  11  -8 -11   -0.51    2.25
  11   8 -10   -0.08    2.30
  11  -8 -10   -0.99    2.85
  11  -8 -10    4.63    4.66
  11   8  -9   11.47    3.04
  11  -8  -9    6.09    2.21
  11  -8  -9    4.90    3.49
  11   8  -8    7.12    2.20
  11  -8  -8    4.32    2.48
  11  -8  -8    1.10    4.43
  11   8  -7    1.51    2.62
  11  -8  -7   -3.60    4.03
  11  -8  -7    2.35    3.29
  11  -8  -6    1.73    2.82
  11   8  -6    3.96    3.59
 -11   8  -6    6.07    3.93
  11  -8  -6    2.59    2.70
  11  -8  -5    2.72    2.89
  11   8  -5    6.48    3.66
 -11   8  -5    3.74    2.86
  11  -8  -5    4.11    4.95
  11  -8  -4    2.00    2.86
  11   8  -4    1.09    2.33
 -11   8  -4   -0.88    2.69
  11  -8  -4   -1.72    3.55
  11  -8  -3    4.74    3.94
  11   8  -3   -3.55    2.56
 -11   8  -3    0.86    2.55
  11  -8  -3   -2.15    3.34
  11  -8  -2    5.36    4.31
  11   8  -2   -2.48    2.09
  11   8  -2    1.71    2.49
 -11   8  -2   -2.08    3.95
  11  -8  -2   -1.32    2.04
  11  -8  -1   38.99    7.38
  11   8  -1   45.51    8.50
  11   8  -1   52.78    8.64
 -11   8  -1   45.76    8.53
  11  -8  -1   36.04    8.64
  11  -8   0    6.28    3.04
  11   8   0   12.09    4.31
  11   8   0    3.22    1.77
  11  -8   0    8.91    4.85
  11  -8   1   32.88    7.38
  11   8   1   59.17    9.35
  11   8   1   64.59    9.72
  11  -8   1   35.73    8.01
  11  -8   2    1.77    4.07
  11   8   2    5.09    2.79
  11   8   2    0.19    1.84
  11  -8   2   -1.97    3.62
  11  -8   3   -0.10    2.49
  11   8   3   -5.01    4.26
  11   8   3   -0.67    2.88
  11  -8   3    0.38    2.63
  11  -8   4    1.74    2.75
  11   8   4   -1.51    3.06
  11   8   4    4.43    1.49
  11  -8   4    2.25    3.47
  11  -8   5   -0.40    1.97
  11   8   5    6.11    2.82
  11   8   5    5.89    3.24
  11  -8   6    4.15    4.52
  11   8   6    1.95    3.23
  11   8   6    3.19    2.82
  11  -8   6    3.50    2.85
  11  -8   7    1.53    2.17
  11   8   7   -2.65    2.17
  11   8   7   -3.52    1.69
  11  -8   7    3.57    5.74
  11  -8   8   11.93    4.71
  11   8   8    6.92    3.39
  11   8   8    5.61    3.84
  11  -8   8    5.90    2.49
  11  -8   9    2.48    3.22
  11   8   9    9.71    4.38
  11   8   9    7.23    2.66
  11  -8  10    5.96    2.08
  11   8  10    2.41    2.74
  11   8  10    7.18    4.44
  11  -8  11    2.02    4.01
  11   8  11   -1.27    4.89
  11   8  11    5.81    4.05
  11  -8  12    5.43    3.40
  11   8  12    0.28    2.77
  11   8  12    8.26    3.57
  11  -8  13    4.91    4.63
  11   8  13    5.81    3.21
  11   8  13    6.60    3.54
  11  -8  14    1.38    2.43
  11   8  14   -3.04    2.55
  11   8  14    2.54    2.44
  11   8  15   -2.19    3.04
  11   8  15    6.03    5.38
  11   9 -11    3.52    2.40
  11  -9 -11    9.92    4.37
  11  -9 -11    9.18    4.10
  11  -9 -10    4.60    2.65
  11  -9 -10   -0.15    2.53
  11   9  -9   29.20    8.99
  11  -9  -9   28.86    7.24
  11  -9  -9   45.91    9.49
  11   9  -8   44.88    8.35
  11  -9  -8   36.88    7.95
  11  -9  -8   37.85    8.29
  11   9  -7   76.46   11.31
  11  -9  -7   82.28   12.25
  11  -9  -7   98.82   13.22
  11   9  -6   22.43    5.91
  11  -9  -6   21.12    6.36
  11  -9  -6   14.39    5.85
  11   9  -5   26.66    6.97
 -11   9  -5   19.83    6.17
  11  -9  -5   22.95    5.19
  11  -9  -5   34.04    8.26
  11   9  -4   11.17    5.19
  11  -9  -4   11.16    4.37
  11  -9  -4    2.43    3.17
  11   9  -3  198.39   17.59
 -11   9  -3  182.28   17.28
  11  -9  -3  217.98   19.16
  11  -9  -3  206.48   19.13
  11   9  -2   34.43    6.95
 -11   9  -2   42.78    8.59
  11  -9  -2   28.39    6.87
  11  -9  -2   35.53    8.02
  11  -9  -1   11.51    3.03
  11   9  -1    0.93    3.57
 -11   9  -1    8.01    4.45
  11  -9  -1    0.37    2.50
  11  -9   0    4.29    3.07
  11   9   0    7.03    4.47
  11   9   0    5.37    2.27
 -11   9   0   -2.93    4.10
  11  -9   0    1.40    3.18
  11  -9   1    4.75    2.74
  11   9   1    1.55    2.39
  11   9   1    2.57    3.08
 -11   9   1    6.28    4.38
  11  -9   1   13.31    6.05
  11  -9   2   29.59    6.95
  11   9   2   31.91    7.33
  11   9   2   53.75    9.43
 -11   9   2   24.27    6.97
  11  -9   2   32.45    8.08
  11   9   3  205.55   18.04
 -11   9   3  180.87   17.09
  11   9   3  178.21   17.21
  11  -9   3  174.48   17.44
  11  -9   4   13.40    5.96
  11   9   4   15.65    4.46
  11   9   4    8.48    3.68
 -11   9   4    7.04    4.85
  11  -9   5   20.96    5.96
  11   9   5   28.87    6.63
  11   9   5   23.43    6.03
 -11   9   5   20.72    5.87
  11  -9   6   16.43    5.60
  11   9   6   21.32    6.18
  11   9   6   17.01    5.63
 -11   9   6    9.40    4.37
  11  -9   7   68.94   10.70
  11   9   7   87.48   12.25
 -11   9   7   65.73   10.20
  11   9   7   85.34   11.68
  11  -9   8   38.04    8.40
  11   9   8   39.96    8.66
  11   9   8   26.40    6.70
 -11   9   8   26.74    6.76
  11  -9   9   43.32    8.61
  11   9   9   39.32    8.57
  11   9   9   31.37    8.11
 -11   9   9   24.64    7.42
  11  -9  10    7.28    4.88
  11   9  10    2.93    3.35
  11   9  10    2.78    2.79
 -11   9  10    1.66    1.84
  11  -9  11    4.40    3.91
  11   9  11    4.08    4.63
  11   9  11   -2.15    3.02
 -11   9  11    2.81    3.60
  12   0 -22    3.09    3.67
  12   0 -21   -1.54    2.41
  12   0 -20   44.60    8.87
  12   0 -19  118.63   13.48
  12   0 -18  108.71   13.02
  12   0 -17  257.99   19.41
  12   0 -16  165.91   15.29
  12   0 -15   16.38    5.60
  12   0 -14  323.21   20.81
  12   0 -13  626.93   28.77
  12   0 -12  271.97   18.88
  12   0 -11  201.24   15.29
  12   0 -11  253.96   18.30
  12   0 -10  303.77   18.82
  12   0 -10  344.32   20.91
  12   0  -9   50.20    7.29
  12   0  -9   53.99    7.85
  12   0  -8  203.41   15.00
  12   0  -8  216.83   16.43
  12   0  -7   27.49    5.01
  12   0  -7   19.69    4.92
  12   0  -6  184.97   14.29
  12   0  -6  182.03   14.76
  12   0  -5  262.80   16.84
  12   0  -5  263.47   17.69
  12   0  -5  243.51   16.13
  12   0  -4  150.78   13.28
  12   0  -4  123.09   12.13
  12   0  -4  148.56   12.52
  12   0  -3   58.48    7.82
  12   0  -3   55.45    8.15
  12   0  -3   42.06    6.36
  12   0  -2  578.45   25.11
  12   0  -2  588.46   26.59
  12   0  -2  571.09   24.44
  12   0  -1 1148.77   35.38
  12   0  -1 1157.79   37.43
  12   0  -1 1216.19   35.35
  12   0   0  457.28   22.58
  12   0   0  521.34   25.07
  12   0   0  451.26   21.26
  12   0   1 1155.33   35.75
  12   0   1 1128.46   37.04
  12   0   1 1119.41   33.95
  12   0   2  568.04   25.34
  12   0   2  593.74   26.66
  12   0   2  567.69   23.92
  12   0   3   49.04    7.34
  12   0   3   64.99    8.09
  12   0   4  139.78   12.52
  12   0   4  134.90   11.73
  12   0   5  284.11   17.96
  12   0   5  277.23   16.70
  12   0   6  169.43   14.05
  12   0   6  193.05   14.06
  12   0   7   18.79    5.54
  12   0   7   17.37    3.92
  12   0   8  218.89   16.11
  12   0   8  221.81   14.54
  12   0   9   44.72    7.33
  12   0   9   32.29    5.46
  12   0  10  366.14   21.37
  12   0  10  382.03   19.40
  12   0  11  250.03   18.14
  12   0  12  285.46   18.77
  12   0  13  535.79   26.78
  12   0  14  318.22   20.89
  12   0  15   12.16    4.20
  12   0  16  147.60   14.10
  12   0  17  255.04   18.94
  12   0  18   64.20    9.62
  12   0  19  101.74   12.36
  12   0  20   71.02   10.30
  12   0  21    2.43    3.45
  12   0  22    8.65    5.36
  12   0  23    2.46    3.31
  12   0  24   33.53    8.31
  12  -1 -25    2.05    3.46
  12  -1 -24   -0.53    3.53
  12  -1 -23    7.17    4.02
  12  -1 -22   12.26    4.96
  12  -1 -21    6.53    3.58
  12  -1 -20    7.12    5.12
  12  -1 -19    6.96    3.38
  12   1 -18    2.57    3.36
  12  -1 -18    7.40    5.01
  12   1 -17   24.67    6.26
  12  -1 -17   22.53    6.79
  12   1 -16    5.53    1.51
  12  -1 -16   17.78    4.96
  12   1 -15    9.29    3.63
  12  -1 -15    6.02    3.97
  12   1 -14   15.55    3.74
  12  -1 -14   15.61    4.65
  12   1 -13    4.58    2.72
  12  -1 -13    5.05    3.12
  12  -1 -12    7.52    3.91
  12   1 -12    5.80    3.23
  12  -1 -12    5.35    3.86
  12   1 -12    8.58    3.93
  12  -1 -11   55.05    8.04
  12  -1 -11   43.99    7.74
  12   1 -11   38.04    7.01
  12   1 -11   47.83    7.56
  12  -1 -10   46.55    7.32
  12   1 -10   38.93    6.58
  12   1 -10   59.76    8.53
  12  -1 -10   32.42    6.86
  12   1 -10   45.32    7.66
  12  -1  -9   42.50    7.52
  12   1  -9   48.06    7.34
  12  -1  -9   56.33    8.86
  12   1  -9   35.88    6.33
  12   1  -9   45.71    7.27
  12  -1  -8   31.63    6.61
  12   1  -8   21.22    4.34
  12  -1  -8   18.36    5.09
  12   1  -8   27.87    5.85
  12   1  -8   24.87    5.72
  12  -1  -7    3.01    1.40
  12   1  -7    2.36    2.57
  12  -1  -7    3.92    3.87
  12   1  -7    1.28    1.95
  12   1  -7   -1.15    2.37
  12  -1  -6   18.38    4.93
  12   1  -6   14.07    3.69
  12  -1  -6   15.05    4.14
  12   1  -6    9.78    4.38
  12   1  -6   13.51    4.66
  12  -1  -5   47.09    7.15
  12   1  -5   31.90    6.05
  12  -1  -5   43.67    7.51
  12   1  -5   39.34    6.66
  12   1  -5   48.98    7.51
  12  -1  -4   84.29    9.75
  12   1  -4   77.40    9.02
  12  -1  -4  100.71   11.31
  12   1  -4   86.25    9.85
  12  -1  -3  216.23   15.40
  12   1  -3  229.56   15.53
  12  -1  -3  244.17   17.20
  12   1  -3  225.11   16.22
  12   1  -3  206.51   14.88
  12  -1  -2  120.23   11.61
  12   1  -2  135.92   12.01
  12  -1  -2  134.26   12.88
  12   1  -2  126.49   12.28
  12   1  -2  113.06   11.34
  12  -1  -1   53.53    7.92
  12   1  -1   77.23    8.82
  12  -1  -1   57.35    8.20
  12   1  -1   63.82    8.66
  12   1  -1   47.89    7.39
  12   1   0   12.80    4.02
  12  -1   0   10.01    3.92
  12  -1   0   20.27    4.65
  12   1   0   17.39    5.27
  12   1   0   18.14    4.61
  12  -1   1   35.74    6.51
  12   1   1   52.62    7.58
  12  -1   1   65.14    9.26
  12   1   1   40.13    7.27
  12   1   1   68.18    8.27
  12  -1   2  128.87   12.10
  12   1   2  121.23   11.40
  12  -1   2  110.08   11.61
  12   1   2  107.34   10.55
  12  -1   3  222.60   15.86
  12   1   3  207.42   15.22
  12  -1   3  246.34   17.56
  12  -1   4   96.44   11.05
  12   1   4   70.97    8.73
  12   1   4   84.33    9.37
  12  -1   5   48.63    7.61
  12   1   5   59.07    8.24
  12   1   5   36.87    6.40
  12   1   6    5.80    2.63
  12  -1   6   13.97    4.21
  12   1   6   14.30    4.09
  12   1   7    4.17    2.44
  12  -1   7    1.97    1.85
  12   1   7    0.94    1.52
  12   1   8   24.37    5.22
  12  -1   8   20.20    5.03
  12   1   8   22.34    4.97
  12  -1   9   44.95    7.75
  12   1   9   36.67    7.24
  12   1   9   39.78    6.85
  12   1  10   35.44    6.46
  12  -1  10   46.98    7.61
  12   1  10   43.15    6.39
  12  -1  11   41.99    8.20
  12   1  11   51.64    7.78
  12   1  11   48.98    6.89
  12   1  12   13.22    3.85
  12  -1  12   13.47    4.05
  12   1  12    7.12    2.83
  12   1  13    8.95    4.00
  12  -1  13   11.29    3.64
  12   1  14   15.42    5.56
  12  -1  14   10.25    3.62
  12   1  15    7.83    3.71
  12  -1  15    6.69    3.06
  12   1  16   22.09    6.00
  12  -1  16   17.82    5.48
  12   1  17   27.80    6.62
  12  -1  17   32.78    7.30
  12   1  18    2.94    1.65
  12  -1  18    1.74    3.92
  12   1  19    5.22    2.91
  12  -1  19   11.61    5.17
  12   1  20    6.25    3.68
  12  -1  20    9.17    4.34
  12   1  21   14.76    5.20
  12  -1  21    9.35    4.44
  12   1  22   12.89    5.45
  12  -1  22   15.43    6.33
  12   1  23    4.66    3.46
  12  -1  23    1.35    1.97
  12   1  24    2.60    4.83
  12   1  25    9.68    6.59
  12  -2 -24   48.94    9.18
  12  -2 -23   11.73    4.74
  12  -2 -22   11.48    4.27
  12  -2 -21   31.40    7.03
  12  -2 -20   31.97    7.31
  12  -2 -19   33.37    7.53
  12  -2 -18  116.75   13.33
  12  -2 -17   54.25    9.50
  12  -2 -16   15.60    5.02
  12   2 -16   20.35    5.03
  12  -2 -15   36.52    7.00
  12   2 -15   21.96    5.77
  12  -2 -14  105.80   12.09
  12   2 -14   97.18   11.29
  12  -2 -14  102.40   12.13
  12   2 -13  148.89   14.16
  12  -2 -13  189.49   16.22
  12   2 -13  174.37   15.34
  12  -2 -13  160.01   14.47
  12   2 -12  129.77   12.44
  12  -2 -12  138.08   13.67
  12   2 -12  109.62   11.84
  12  -2 -12  127.94   12.81
  12  -2 -11   55.93    8.95
  12   2 -11   70.38    9.48
  12  -2 -11   67.84    9.77
  12   2 -11   81.69   10.54
  12  -2 -10   71.33    9.83
  12  -2 -10   79.56   10.70
  12   2 -10   99.46   11.17
  12   2 -10   84.70   10.28
  12  -2  -9  131.60   12.86
  12   2  -9  128.71   11.73
  12  -2  -9  118.19   12.81
  12   2  -9  103.61   10.96
  12   2  -9  113.47   11.98
  12  -2  -8  218.56   16.46
  12   2  -8  241.30   16.15
  12  -2  -8  242.90   18.07
  12   2  -8  243.68   16.99
  12   2  -8  226.80   16.37
  12  -2  -7   96.89   11.33
  12   2  -7   89.92   10.02
  12  -2  -7   86.57   10.93
  12   2  -7   72.77    8.97
  12   2  -7   88.46   10.37
  12  -2  -6   60.24    8.66
  12   2  -6   50.71    7.33
  12  -2  -6   74.75   10.76
  12   2  -6   55.97    8.55
  12   2  -6   67.02    8.87
  12  -2  -5  157.08   14.01
  12   2  -5  122.42   11.08
  12  -2  -5  140.19   13.79
  12   2  -5  131.47   12.43
  12   2  -5  143.03   12.79
  12  -2  -4  292.32   18.68
  12   2  -4  288.36   17.66
  12  -2  -4  323.66   20.27
  12   2  -4  276.92   17.99
  12   2  -4  301.27   18.17
  12   2  -3   32.74    6.44
  12   2  -3   25.17    5.32
  12  -2  -3   23.49    5.50
  12  -2  -3   37.56    7.02
  12   2  -3   31.91    6.24
  12  -2  -2  400.72   21.90
  12   2  -2  379.85   19.95
  12  -2  -2  375.08   21.93
  12   2  -2  385.09   21.27
  12   2  -2  409.46   21.24
  12  -2  -1  547.22   25.00
  12  -2  -1  592.68   27.54
  12   2  -1  574.40   25.30
  12   2  -1  545.65   25.10
  12   2  -1  564.08   25.08
  12  -2   0  205.67   15.56
  12  -2   0  210.16   16.20
  12   2   0  221.16   15.54
  12   2   0  203.30   15.73
  12   2   0  249.56   16.50
  12  -2   1  598.71   26.55
  12  -2   1  536.17   25.92
  12   2   1  540.30   24.32
  12   2   1  587.20   25.54
  12  -2   2  386.42   21.05
  12  -2   2  391.23   22.37
  12   2   2  354.13   19.97
  12   2   2  411.27   21.38
  12   2   3   32.38    5.80
  12  -2   3   48.91    7.61
  12  -2   3   42.29    7.55
  12   2   3   38.03    6.53
  12  -2   4  268.68   18.08
  12  -2   4  283.96   19.40
  12   2   4  305.65   18.64
  12   2   4  294.57   17.65
  12  -2   5  154.51   13.57
  12  -2   5  147.86   13.84
  12   2   5  141.97   13.12
  12   2   5  127.17   11.94
  12  -2   6   60.11    8.52
  12   2   6   55.82    7.91
  12   2   6   71.35    8.66
  12  -2   7   68.94    9.47
  12   2   7   94.45   10.40
  12   2   7   71.61    9.67
  12  -2   8  258.89   18.02
  12   2   8  253.45   16.54
  12   2   8  255.82   17.63
  12  -2   9  116.02   12.06
  12   2   9  129.32   11.86
  12   2   9   96.84   11.28
  12  -2  10   91.34   10.57
  12   2  10   72.75    9.00
  12   2  10   81.38    9.93
  12  -2  11   62.65    9.40
  12   2  11   65.70    8.69
  12   2  11   58.72    8.65
  12  -2  12  143.24   13.82
  12   2  12  136.77   12.61
  12   2  12  129.73   12.86
  12  -2  13  178.50   15.71
  12   2  13  158.00   13.73
  12   2  13  161.61   14.88
  12  -2  14   94.77   11.75
  12   2  14   89.02   10.99
  12   2  15   23.52    5.60
  12  -2  15   17.40    5.52
  12   2  16   30.55    6.93
  12  -2  16   23.26    6.45
  12  -2  17   54.08   10.08
  12   2  17   52.48    8.84
  12  -2  18   97.99   12.21
  12   2  18  101.82   12.58
  12   2  19   28.10    7.03
  12  -2  19   28.71    6.75
  12   2  20   27.14    7.30
  12  -2  20   30.39    6.78
  12   2  21   15.45    4.47
  12  -2  21   30.12    7.66
  12   2  22   16.72    5.97
  12  -2  22   11.38    5.16
  12   2  23   11.00    2.63
  12   2  24   60.42   10.56
  12  -3 -24    2.34    2.59
  12  -3 -23   16.14    6.08
  12  -3 -22   11.68    4.06
  12  -3 -21    5.31    4.14
  12  -3 -20    4.31    2.49
  12  -3 -19    9.37    4.36
  12   3 -19    1.85    3.43
  12  -3 -18   32.53    7.00
  12   3 -18   22.95    6.55
  12  -3 -17   10.71    4.88
  12   3 -17    3.22    3.20
  12  -3 -16   -1.43    3.65
  12   3 -16    0.60    2.92
  12  -3 -15    2.44    2.92
  12  -3 -15    0.68    1.59
  12   3 -15    0.76    1.97
  12  -3 -14    5.87    4.15
  12  -3 -14   10.27    3.76
  12   3 -14    7.40    2.25
  12  -3 -13    1.19    2.27
  12  -3 -13   -1.13    2.79
  12   3 -13    5.37    2.68
  12  -3 -12  100.69   11.87
  12   3 -12   95.17   11.04
  12  -3 -12   86.68   10.70
  12  -3 -11   49.89    8.64
  12   3 -11   60.39    9.05
  12  -3 -11   46.58    8.43
  12  -3 -10   60.53    9.33
  12   3 -10   61.36    8.67
  12  -3 -10   72.28   10.04
  12   3  -9   25.99    6.42
  12  -3  -9   29.63    6.51
  12  -3  -9   36.08    6.65
  12   3  -8   32.73    6.45
  12  -3  -8   25.85    5.56
  12   3  -8   42.81    7.06
  12  -3  -8   30.79    6.59
  12   3  -7    5.89    3.49
  12  -3  -7    8.49    2.97
  12  -3  -7    9.97    4.90
  12   3  -7    6.87    4.09
  12   3  -7   10.17    4.21
  12   3  -6    7.63    3.78
  12   3  -6   11.32    3.50
  12  -3  -6    5.63    3.17
  12  -3  -6    9.01    4.14
  12   3  -6    2.51    1.94
  12  -3  -5   25.58    5.72
  12  -3  -5   36.46    7.73
  12   3  -5   39.48    6.87
  12   3  -5   37.98    6.44
  12   3  -5   41.79    7.10
  12  -3  -4  176.44   14.80
  12  -3  -4  161.87   14.59
  12   3  -4  188.03   14.33
  12   3  -4  171.33   13.71
  12   3  -4  189.05   14.87
  12  -3  -3  365.99   21.53
  12  -3  -3  368.38   22.31
  12   3  -3  352.54   20.15
  12   3  -3  385.16   20.81
  12  -3  -2  198.69   15.72
  12  -3  -2  198.13   16.10
  12   3  -2  189.64   14.94
  12   3  -2  203.74   15.06
  12   3  -2  178.46   14.58
  12  -3  -1   38.86    7.43
  12   3  -1   58.72    8.48
  12   3  -1   39.86    7.05
  12   3  -1   43.95    7.15
  12   3   0   24.43    5.17
  12   3   0   15.56    4.15
  12  -3   0   12.56    4.07
  12  -3   0   29.09    6.45
  12   3   0   22.02    5.49
  12  -3   1   30.91    6.71
  12  -3   1   51.60    8.54
  12   3   1   38.30    6.79
  12   3   1   45.54    7.88
  12  -3   2  184.40   15.41
  12  -3   2  215.10   16.92
  12   3   2  185.49   14.54
  12   3   2  171.89   14.17
  12  -3   3  380.62   21.58
  12  -3   3  347.67   21.21
  12   3   3  392.64   20.91
  12   3   4  185.84   14.92
  12  -3   4  197.71   15.82
  12  -3   4  184.83   15.83
  12   3   4  207.74   15.11
  12   3   5   35.69    6.74
  12   3   5   31.27    5.78
  12  -3   5   31.25    6.37
  12  -3   5   31.64    7.09
  12   3   6    8.82    3.45
  12   3   6   13.62    4.13
  12  -3   6    9.14    4.00
  12  -3   6   11.44    4.32
  12   3   7   13.08    4.04
  12   3   7    8.66    3.73
  12  -3   7   13.92    4.66
  12  -3   7   10.36    4.16
  12   3   8   33.61    6.05
  12  -3   8   20.72    5.39
  12   3   8   39.79    6.94
  12   3   9   33.75    6.28
  12   3   9   26.35    6.30
  12  -3   9   35.62    7.14
  12   3  10   71.01    9.74
  12  -3  10   67.10   10.02
  12   3  10   66.48    8.80
  12   3  11   45.21    7.73
  12  -3  11   59.60    9.24
  12   3  11   54.44    8.35
  12   3  12   97.83   11.30
  12  -3  12   84.89   10.86
  12   3  12   91.62   10.67
  12   3  13   -0.18    3.24
  12   3  13   -0.30    1.75
  12  -3  13    5.13    3.28
  12   3  14    9.47    4.20
  12  -3  14    8.18    3.98
  12   3  15    1.10    2.43
  12  -3  15   -0.10    2.94
  12   3  16    4.05    2.59
  12  -3  16   -0.52    2.24
  12   3  17    5.42    3.59
  12  -3  17    5.81    2.45
  12   3  18   34.76    6.96
  12  -3  18   30.46    6.28
  12   3  19    1.12    2.90
  12  -3  19   -2.37    3.91
  12   3  20    8.61    3.53
  12  -3  20    1.73    2.87
  12   3  21   15.79    6.22
  12  -3  21    4.96    2.72
  12   3  22   20.60    6.03
  12   3  23   14.69    5.42
  12   3  24    2.57    4.32
  12  -4 -23   56.16    9.89
  12  -4 -22   57.32   10.09
  12  -4 -21   28.47    7.13
  12  -4 -20   19.19    4.58
  12   4 -20   -0.46    1.35
  12  -4 -19    3.31    2.48
  12   4 -19   17.97    3.79
  12  -4 -18   21.30    5.92
  12   4 -18   16.80    5.78
  12  -4 -17   16.52    3.91
  12   4 -17    6.82    4.36
  12  -4 -16    9.28    3.62
  12  -4 -16   15.32    5.36
  12  -4 -15    6.12    3.35
  12  -4 -15   14.81    5.50
  12   4 -15    8.83    3.91
  12  -4 -14   55.43   10.01
  12  -4 -14   53.95    9.09
  12   4 -14   50.63    8.81
  12  -4 -13   50.78    9.09
  12  -4 -13   54.28    8.86
  12   4 -13   50.44    8.52
  12   4 -12    0.07    2.53
  12  -4 -12    3.08    1.86
  12  -4 -12    6.25    3.77
  12  -4 -11    5.32    3.26
  12  -4 -11    4.72    3.97
  12  -4 -10   39.63    7.25
  12   4 -10   46.46    7.59
  12  -4 -10   50.64    8.51
  12  -4  -9   88.03   11.00
  12   4  -9   85.81   10.64
  12  -4  -9   75.28   10.17
  12  -4  -8  280.18   19.72
  12  -4  -8  280.70   19.40
  12  -4  -7  237.13   18.10
  12  -4  -7  263.43   19.39
  12   4  -7  241.03   17.50
  12  -4  -6   72.47    9.92
  12  -4  -6   66.27    9.86
  12   4  -6   68.50    8.73
  12   4  -6   72.82    9.51
  12  -4  -5  172.41   15.10
  12  -4  -5  193.80   16.24
  12   4  -5  166.52   14.08
  12   4  -5  175.66   14.56
  12  -4  -4  453.45   24.59
  12  -4  -4  504.04   26.45
  12   4  -4  513.63   25.20
  12  -4  -3  249.98   18.25
  12  -4  -3  313.43   21.02
  12   4  -3  280.93   18.43
  12   4  -3  308.22   19.52
  12  -4  -2  386.93   22.46
  12  -4  -2  359.11   22.60
  12   4  -2  404.21   21.71
  12   4  -2  381.60   21.64
  12   4  -1  144.10   13.05
  12  -4  -1  181.21   15.39
  12  -4  -1  148.83   14.25
  12   4  -1  175.23   14.42
  12   4  -1  160.22   14.12
  12   4   0   28.34    6.12
  12  -4   0   25.42    6.25
  12   4   0   24.37    5.61
  12  -4   0   18.87    4.57
  12   4   1  144.24   13.37
  12  -4   1  155.59   14.49
  12  -4   1  132.48   13.30
  12   4   2  385.72   21.97
  12   4   2  426.58   22.54
  12  -4   2  402.69   22.73
  12  -4   2  403.70   23.52
  12   4   3  259.88   17.93
  12   4   3  268.20   17.97
  12  -4   3  255.34   18.57
  12  -4   3  272.87   19.85
  12   4   4  505.51   24.94
  12   4   4  492.21   24.67
  12  -4   4  552.21   26.86
  12  -4   4  541.72   27.42
  12   4   5  170.95   14.79
  12   4   5  153.66   13.76
  12  -4   5  180.24   15.49
  12  -4   5  199.19   16.76
  12   4   6   75.51    9.99
  12   4   6   75.71    9.73
  12  -4   6   62.15    8.96
  12  -4   6   64.92   10.02
  12   4   7  223.89   16.68
  12  -4   7  215.34   17.19
  12  -4   7  269.05   19.49
  12   4   8  292.05   19.02
  12   4   8  281.22   18.71
  12  -4   8  292.04   20.10
  12  -4   8  234.06   18.73
  12   4   9   83.72   10.38
  12   4   9   83.98   10.60
  12  -4   9   85.96   10.73
  12  -4   9   62.64    9.52
  12   4  10   37.09    7.42
  12  -4  10   36.05    7.53
  12   4  10   28.92    6.40
  12  -4  10   49.27    8.55
  12   4  11   11.66    3.67
  12  -4  11    9.77    4.05
  12   4  11    5.91    2.30
  12  -4  12    1.69    1.86
  12   4  12    0.48    2.22
  12   4  13   39.07    8.00
  12   4  13   39.19    7.82
  12  -4  13   36.69    7.21
  12   4  14   33.06    6.15
  12   4  14   51.66    8.86
  12  -4  15   15.36    5.41
  12   4  15    7.59    2.73
  12  -4  16   12.88    4.81
  12   4  16   16.51    5.63
  12  -4  17    9.46    5.11
  12   4  17   18.59    4.81
  12  -4  18   30.07    7.08
  12   4  18   18.76    4.93
  12  -4  19    9.93    3.35
  12   4  19   12.40    4.73
  12  -4  20   25.41    7.84
  12   4  20   19.96    5.78
  12   4  21   21.13    6.22
  12   4  22   60.68    9.73
  12   4  23   63.79   10.94
  12  -5 -21   -2.78    4.30
  12  -5 -20    2.22    3.18
  12  -5 -19   18.29    5.92
  12   5 -19    3.76    2.30
  12  -5 -18    9.09    4.77
  12   5 -18    8.33    3.77
  12  -5 -17   20.33    6.48
  12  -5 -17    7.04    4.62
  12   5 -17   15.75    6.07
  12   5 -16    8.00    4.06
  12  -5 -16    5.30    4.18
  12  -5 -16    0.41    2.99
  12   5 -15    0.50    3.43
  12  -5 -15    6.50    2.13
  12  -5 -15    2.20    3.92
  12  -5 -14    1.91    2.14
  12  -5 -14    2.31    2.20
  12  -5 -13   19.51    6.21
  12   5 -13   19.24    5.81
  12  -5 -13   16.72    5.80
  12   5 -12   17.80    5.38
  12  -5 -12   20.80    5.77
  12  -5 -12   13.99    5.23
  12   5 -11   10.75    4.51
  12  -5 -11    8.40    3.24
  12  -5 -11   14.49    6.19
  12   5 -10   36.95    7.40
  12  -5 -10   36.26    7.91
  12  -5 -10   41.77    7.50
  12   5  -9   17.26    4.87
  12  -5  -9   19.36    5.38
  12  -5  -9   11.43    4.51
  12   5  -8    0.16    1.71
  12  -5  -8    1.12    2.07
  12  -5  -8    4.06    3.05
  12   5  -7    6.68    3.07
  12  -5  -7    9.92    3.90
  12  -5  -7   13.04    4.90
  12   5  -6    0.68    2.04
  12  -5  -6    0.76    2.04
  12  -5  -6    0.46    2.10
  12   5  -5   -0.60    2.13
  12  -5  -5    1.14    2.23
  12   5  -5    0.05    3.03
  12  -5  -5    1.66    3.23
  12   5  -4   -0.60    1.96
  12  -5  -4    6.05    4.40
  12   5  -4    0.60    1.40
  12  -5  -4    3.67    3.11
  12   5  -3   22.80    5.75
  12  -5  -3   16.29    4.68
  12   5  -3   25.69    6.82
  12  -5  -3   17.19    5.27
  12   5  -2   77.27    9.70
  12  -5  -2   82.42   10.65
  12   5  -2   99.00   10.95
  12  -5  -2   89.19   11.73
  12  -5  -1   49.99    8.49
  12   5  -1   41.07    7.45
  12   5  -1   40.08    6.77
  12  -5  -1   36.99    7.22
  12   5   0    8.09    4.89
  12  -5   0    8.25    3.27
  12   5   0   14.29    4.74
  12  -5   0   10.50    4.46
  12  -5   1   43.02    7.53
  12   5   1   27.70    6.30
  12   5   1   44.51    7.50
  12  -5   1   59.20    9.19
  12   5   2   82.00   10.64
  12  -5   2   64.72    9.45
  12   5   2   67.34    9.37
  12  -5   2   92.88   11.75
  12   5   3   21.43    5.78
  12  -5   3   20.00    5.32
  12   5   3   12.63    4.30
  12  -5   3   18.56    4.73
  12   5   4    5.93    4.65
  12  -5   4    3.17    2.87
  12   5   4    2.94    2.86
  12  -5   4    0.26    2.00
  12   5   5    1.37    1.93
  12  -5   5   -1.68    1.82
  12   5   5    1.11    1.74
  12  -5   5    0.31    2.36
  12   5   6    3.74    3.75
  12  -5   6    1.28    1.95
  12   5   6   -0.71    2.77
  12  -5   6    0.83    2.65
  12   5   7   10.00    4.01
  12  -5   7    9.21    4.52
  12   5   7   15.23    4.69
  12  -5   7    7.74    3.76
  12   5   8    4.50    2.81
  12  -5   8    5.66    3.09
  12   5   8    2.07    2.90
  12  -5   8    2.01    3.87
  12   5   9   15.89    4.49
  12  -5   9    9.70    3.94
  12   5   9   20.52    5.51
  12  -5   9   23.42    7.23
  12   5  10   38.34    7.06
  12  -5  10   37.99    7.76
  12   5  10   41.07    6.92
  12  -5  10   49.59    8.24
  12   5  11   12.46    4.69
  12  -5  11    9.40    3.75
  12   5  11   15.67    5.19
  12  -5  11   10.88    4.59
  12   5  12   16.29    5.29
  12  -5  12   18.67    5.99
  12   5  12   19.04    5.16
  12  -5  12   10.97    4.52
  12   5  13   23.57    5.22
  12  -5  13   28.42    7.05
  12   5  13   22.74    5.85
  12  -5  13   20.38    6.62
  12   5  14   -0.14    1.98
  12  -5  14    0.62    3.64
  12   5  14    1.03    3.44
  12  -5  14    2.20    3.41
  12  -5  15    1.19    2.00
  12   5  15    1.41    2.24
  12  -5  16    3.40    4.01
  12   5  16    7.53    4.26
  12  -5  17    8.46    4.08
  12   5  17   11.84    4.31
  12  -5  18    9.13    3.00
  12   5  18   -3.23    3.01
  12   5  19   15.87    3.85
  12   5  20   -0.17    2.85
  12   5  21    0.15    3.10
  12  -6 -19   39.81    8.25
  12   6 -18    5.82    4.50
  12  -6 -18   -2.51    2.54
  12  -6 -18    8.68    5.62
  12  -6 -17   50.66   10.12
  12   6 -17   57.80   10.03
  12   6 -16   23.75    6.37
  12  -6 -16   36.58    8.20
  12  -6 -16   17.08    6.11
  12   6 -15    9.89    2.65
  12  -6 -15    4.85    4.22
  12  -6 -15   10.47    5.25
  12  -6 -14   78.52   11.25
  12  -6 -14   90.55   11.60
  12   6 -14   74.28   10.96
  12  -6 -13  106.69   13.14
  12  -6 -13  110.77   13.26
  12   6 -13  128.93   14.44
  12  -6 -12    2.34    2.25
  12   6 -12    9.33    3.11
  12  -6 -12    7.75    2.51
  12  -6 -11   44.90    8.37
  12   6 -11   36.19    7.14
  12  -6 -11   52.16    8.85
  12  -6 -10   66.92   10.57
  12  -6 -10   59.20    9.93
  12   6 -10   67.77   10.22
  12  -6  -9   27.02    6.50
  12   6  -9   34.40    7.40
  12  -6  -9   36.09    7.71
  12  -6  -8  177.81   16.09
  12  -6  -8  176.94   16.57
  12   6  -8  156.57   15.19
  12   6  -7  163.46   15.71
  12  -6  -7  225.26   18.77
  12  -6  -7  196.21   16.95
  12   6  -6   33.95    7.57
  12  -6  -6   26.31    5.78
  12  -6  -6   41.08    8.47
  12   6  -5   54.64    8.64
  12  -6  -5   65.73   10.23
  12  -6  -5   54.47    8.90
  12   6  -4  128.47   13.76
  12   6  -4  129.22   13.52
  12  -6  -4  146.93   14.82
  12  -6  -4  134.55   14.23
  12   6  -3  168.35   15.27
  12   6  -3  159.96   14.50
  12  -6  -3  177.80   16.91
  12  -6  -3  163.73   15.13
  12   6  -2  175.02   15.09
  12   6  -2  186.15   15.85
  12  -6  -2  157.74   15.94
  12  -6  -2  196.48   17.01
  12   6  -1   44.37    9.08
  12   6  -1   49.10    8.58
  12  -6  -1   48.55    9.09
  12  -6  -1   43.80    8.28
  12   6   0   -2.32    3.63
  12  -6   0   -2.28    2.39
  12  -6   0   -0.79    3.91
  12   6   0    0.50    2.20
  12   6   1   30.78    6.81
  12  -6   1   34.83    7.30
  12  -6   1   41.88    8.34
  12   6   1   31.85    6.48
  12  -6   2  152.61   15.21
  12   6   2  195.02   16.21
  12   6   2  194.41   16.23
  12  -6   2  196.61   17.44
  12   6   3  162.98   14.82
  12  -6   3  173.92   15.91
  12   6   3  169.52   15.18
  12  -6   3  180.42   16.79
  12   6   4  115.77   12.60
  12  -6   4  139.76   14.14
  12   6   4  143.84   14.13
  12  -6   4  127.43   13.99
  12   6   5   53.11    8.54
  12  -6   5   40.21    8.48
  12   6   5   59.81    8.85
  12  -6   5   50.88    9.17
  12   6   6   34.52    7.74
  12  -6   6   27.82    7.26
  12  -6   6   18.94    6.81
  12   6   6   28.52    6.38
  12   6   7  186.46   16.06
  12  -6   7  161.99   15.52
  12   6   7  215.90   17.03
  12  -6   7  163.82   16.79
  12   6   8  174.65   15.55
  12  -6   8  181.50   16.50
  12   6   8  165.80   15.20
  12  -6   8  148.71   16.04
  12   6   9   26.50    6.55
  12  -6   9   14.52    4.94
  12  -6   9   33.59    6.95
  12   6   9   27.83    6.31
  12   6  10   84.62   11.30
  12   6  10   76.68   10.47
  12  -6  10   68.98   10.55
  12   6  11   66.03   10.44
  12  -6  11   53.03    9.65
  12   6  11   40.53    8.05
  12  -6  11   40.15    7.97
  12   6  12   12.77    4.73
  12  -6  12   10.96    5.06
  12  -6  12    7.38    2.97
  12   6  12    4.34    1.53
  12   6  13   97.42   12.46
  12  -6  13   90.10   13.16
  12   6  13  116.73   13.17
  12  -6  13  101.44   13.39
  12   6  14   96.49   12.32
  12  -6  14   87.26   11.86
  12   6  14   79.45   10.84
  12  -6  14   79.14   11.93
  12  -6  15   12.31    4.73
  12  -6  15    6.51    5.67
  12   6  15    7.96    3.42
  12  -6  16   31.57    7.28
  12  -6  16   29.44    7.73
  12   6  16   34.23    7.33
  12  -6  17   60.41   11.08
  12   6  17   56.62    9.47
  12  -6  17   46.48   10.99
  12   6  18    3.50    3.34
  12  -6  18    3.74    5.27
  12   6  19   32.05    7.92
  12  -6  19   41.86    9.90
  12   7 -17    3.85    3.06
  12  -7 -17    8.14    3.87
  12  -7 -17   12.98    6.05
  12   7 -16    1.12    2.92
  12  -7 -16   -1.76    2.29
  12  -7 -16    0.11    3.67
  12   7 -15   50.73    9.21
  12  -7 -15   55.59   10.50
  12  -7 -15   49.84    9.52
  12   7 -14   10.92    3.81
  12  -7 -14    5.17    4.44
  12  -7 -14    0.81    3.49
  12   7 -13   20.53    5.47
  12  -7 -13   20.31    5.79
  12  -7 -13   12.62    5.17
  12   7 -12   19.73    5.60
  12  -7 -12   27.58    6.99
  12  -7 -12   14.60    4.96
  12   7 -11    5.72    4.78
  12  -7 -11    7.90    6.18
  12  -7 -11    1.37    1.65
  12  -7 -10    6.55    4.28
  12   7 -10   27.55    6.48
  12  -7 -10   18.12    5.71
  12   7  -9   58.11   10.26
  12  -7  -9   80.55   11.52
  12  -7  -9   73.68   11.89
  12  -7  -8   17.63    6.32
  12   7  -8   21.75    5.93
  12  -7  -8    8.53    3.12
  12  -7  -7   29.43    7.09
  12   7  -7   27.75    6.73
  12  -7  -7   37.33    8.42
  12  -7  -6    0.34    2.70
  12   7  -6    4.89    3.15
  12  -7  -6    2.32    2.58
  12  -7  -5    4.55    2.43
  12   7  -5    1.01    3.84
  12  -7  -5    1.47    3.04
  12   7  -4   58.94    9.21
  12  -7  -4   46.36    8.14
  12  -7  -4   70.22   10.60
  12  -7  -3   10.92    4.60
  12   7  -3   17.86    5.45
  12  -7  -3    2.70    2.57
  12  -7  -2   23.02    6.41
  12   7  -2   18.51    5.09
  12  -7  -2   21.62    6.58
  12   7  -2   31.02    6.95
  12   7  -1   26.23    5.65
  12  -7  -1   41.49    8.71
  12   7  -1   39.81    7.53
  12  -7   0   26.75    6.57
  12   7   0   22.77    5.66
  12  -7   0   18.47    5.99
  12   7   0   10.06    4.20
  12   7   1   67.28    9.45
  12  -7   1   74.22   11.02
  12   7   1   37.61    7.34
  12  -7   1   43.42    8.70
  12   7   2   35.28    7.53
  12  -7   2   20.61    5.41
  12  -7   2   19.69    5.41
  12   7   2   34.34    7.02
  12   7   3   16.23    5.59
  12  -7   3    8.64    4.68
  12  -7   3   13.77    6.27
  12   7   3   12.79    3.84
  12   7   4   61.08    9.30
  12   7   4   50.56    8.57
  12  -7   4   68.44   10.76
  12  -7   4   68.76   11.11
  12   7   5    1.34    2.52
  12   7   5    2.31    2.22
  12  -7   5    0.23    1.82
  12  -7   5    7.88    4.86
  12   7   6    0.47    2.00
  12   7   6    8.25    4.33
  12  -7   6    3.94    2.85
  12  -7   6    2.30    2.28
  12   7   7   21.43    4.83
  12   7   7   29.29    7.05
  12  -7   7   16.49    4.75
  12  -7   7   15.86    5.39
  12   7   8   26.20    6.68
  12   7   8   16.99    5.33
  12  -7   8   25.31    7.56
  12  -7   8   24.36    6.62
  12  -7   9   84.63   11.81
  12   7   9   84.18   11.53
  12   7   9   78.91   10.97
  12  -7   9   60.24   10.09
  12   7  10   17.42    5.26
  12   7  10   31.31    6.60
  12  -7  10   28.79    6.96
  12  -7  10   36.14    7.76
  12   7  11   -3.96    3.36
  12   7  11    1.94    3.60
  12  -7  11    1.01    1.95
  12  -7  11   -0.56    4.27
  12   7  12   11.65    4.37
  12   7  12   21.44    6.67
  12  -7  12   12.45    5.82
  12  -7  12   14.77    5.31
  12   7  13   17.02    4.29
  12   7  13   27.64    7.56
  12  -7  13   13.28    5.22
  12  -7  13   24.49    7.73
  12   7  14    5.01    2.38
  12   7  14    8.99    5.73
  12  -7  14    8.48    3.52
  12  -7  14    3.78    5.06
  12   7  15   37.30    8.45
  12  -7  15   46.36    9.91
  12   7  15   53.42    9.39
  12   7  16    0.01    1.79
  12   7  17    7.57    5.21
  12   8 -13   42.36    8.86
  12  -8 -13   51.50   10.26
  12  -8 -13   26.04    7.29
  12  -8 -12   60.07    9.94
  12  -8 -12   33.18    7.59
  12   8 -12   53.97   10.71
  12   8 -11    4.68    4.45
  12  -8 -11   17.51    5.06
  12  -8 -11   15.62    4.85
  12   8 -10   11.41    5.67
  12  -8 -10   22.50    6.11
  12  -8 -10   16.53    6.22
  12   8  -9   17.07    6.17
  12  -8  -9   21.82    5.00
  12   8  -8   33.20    7.38
  12  -8  -8   30.29    6.72
  12  -8  -8   19.07    7.10
  12   8  -7   63.06   10.09
  12  -8  -7   64.39   10.78
  12  -8  -7   46.11    9.50
  12  -8  -6   36.00    7.78
  12   8  -6   41.12    8.54
  12  -8  -6   23.21    6.61
  12  -8  -5    1.95    3.66
  12   8  -5   -2.52    3.03
 -12   8  -5    4.67    3.40
  12  -8  -4   13.12    6.47
  12   8  -4    8.94    4.00
 -12   8  -4   15.89    5.23
  12  -8  -4   13.33    5.56
  12   8  -3   83.87   11.42
 -12   8  -3   67.21   10.14
  12  -8  -3   81.72   11.69
  12  -8  -3   57.55    9.60
  12  -8  -2   29.96    7.33
  12   8  -2   22.24    5.52
  12  -8  -2   17.99    5.34
  12  -8  -1   -3.34    3.86
  12   8  -1    3.57    2.77
  12  -8  -1    0.73    2.25
  12   8  -1    8.33    4.13
  12  -8   0    5.26    4.83
  12   8   0   -0.07    3.82
  12  -8   0    3.97    3.90
  12   8   0   -0.17    2.22
  12  -8   1    3.23    3.17
  12   8   1   -0.49    2.00
  12  -8   1   10.01    5.51
  12   8   1    5.95    4.31
  12   8   2   22.43    5.70
  12  -8   2   26.11    6.25
  12   8   2   36.80    8.01
  12  -8   2   18.48    5.61
  12   8   3   71.50   10.56
  12   8   3   55.29    9.57
  12  -8   3   57.95   10.29
  12  -8   3   79.32   11.64
  12   8   4    3.52    2.18
  12  -8   4    5.65    2.37
  12   8   4   10.35    5.18
  12  -8   4    9.34    4.90
  12   8   5    6.65    3.13
  12  -8   5   -4.33    4.05
  12   8   5   -0.11    3.11
  12  -8   5    5.91    3.62
  12   8   6   29.79    7.10
  12  -8   6   28.05    5.86
  12   8   6   30.98    6.13
  12  -8   6   22.04    7.45
  12   8   7   48.65    8.66
  12  -8   7   52.12    9.68
  12   8   7   53.07    9.39
  12  -8   7   63.91   11.23
  12   8   8   24.63    5.83
  12  -8   8   24.44    6.56
  12   8   8   32.21    7.15
  12  -8   8   24.07    8.49
  12   8   9   23.87    6.71
  12  -8   9   26.74    7.32
  12   8   9   21.96    7.00
  12   8  10   23.02    7.14
  12  -8  10   21.52    6.69
  12   8  10   18.37    6.20
  12   8  11   10.14    4.60
  12  -8  11   21.15    6.54
  12   8  11   11.31    4.37
  12  -8  12   51.96   10.29
  12   8  12   50.06    9.10
  12   8  12   67.80   10.42
  12  -8  13   29.14    8.06
  12   8  13   32.73    7.11
  12   9  -8   -0.58    2.45
  12  -9  -8    5.53    2.50
  12  -9  -8    5.65    4.92
  12   9  -7    2.96    3.02
  12  -9  -7    2.90    4.18
  12  -9  -7    1.23    2.94
  12   9  -6    6.10    4.27
  12  -9  -6    3.48    2.50
  12  -9  -6    8.35    3.73
  12   9  -5    5.48    1.93
  12  -9  -5   11.42    4.59
  12   9  -4   -0.75    2.15
 -12   9  -4    0.28    4.07
  12  -9  -4   -3.12    3.17
  12  -9  -4    0.35    2.45
  12  -9  -3   21.45    6.23
 -12   9  -3   33.58    7.42
  12  -9  -3   23.65    6.37
  12  -9  -2    0.94    3.02
  12   9  -2    2.72    3.16
 -12   9  -2   -1.36    2.01
  12  -9  -2    2.03    5.01
  12  -9  -1    9.12    4.99
  12   9  -1    8.21    3.75
 -12   9  -1   11.93    5.06
  12  -9  -1    6.20    2.67
  12  -9   0    4.58    3.96
  12   9   0    1.70    2.45
 -12   9   0    1.99    3.18
  12  -9   0   11.14    6.83
  12  -9   1    8.92    2.59
  12   9   1    3.28    3.15
  12   9   1   15.80    5.64
 -12   9   1    4.29    3.31
  12  -9   1    8.00    4.75
  12  -9   2   -3.89    2.51
  12   9   2   -6.36    4.92
  12   9   2    7.57    4.60
 -12   9   2   -1.17    3.36
  12  -9   2   -2.95    3.21
  12  -9   3   28.39    7.10
  12   9   3   35.30    8.13
  12   9   3   33.39    7.29
 -12   9   3   20.87    7.29
  12  -9   4   -0.15    2.90
  12   9   4    8.16    5.09
  12   9   4    5.21    4.78
 -12   9   4    0.90    2.82
  12  -9   5   13.37    4.60
  12   9   5   11.99    4.26
  12   9   5   12.06    4.84
 -12   9   5   20.52    6.19
  12  -9   6   -0.58    3.11
  12   9   6    3.82    4.47
  12   9   6    3.49    2.18
 -12   9   6    1.20    4.56
  12  -9   7   -0.62    3.48
  12   9   7    2.81    1.87
  12   9   7   -0.87    3.46
 -12   9   7    6.02    4.36
  12  -9   8    5.02    3.64
  12   9   8    9.35    4.56
  12   9   8   11.51    4.19
 -12   9   8   11.17    5.62
  13   0 -22   -3.84    2.63
  13   0 -21   -0.58    2.11
  13   0 -20    1.56    3.27
  13   0 -19    5.16    4.55
  13   0 -18    5.86    3.25
  13   0 -17    3.31    2.49
  13   0 -16    1.01    2.25
  13   0 -15   -0.85    1.83
  13   0 -14    2.69    3.02
  13   0 -13   -0.74    2.67
  13   0 -12    3.50    3.70
  13   0 -11   -2.06    2.35
  13   0 -11    0.33    2.50
  13   0 -10   -0.46    2.13
  13   0 -10   -2.01    1.59
  13   0  -9    0.49    2.43
  13   0  -9   -2.02    2.92
  13   0  -8    0.67    1.18
  13   0  -8    0.92    2.65
  13   0  -7   -0.48    3.14
  13   0  -7    0.45    1.37
  13   0  -6    2.16    1.89
  13   0  -6    0.10    1.48
  13   0  -5   -1.24    2.17
  13   0  -5   -0.78    2.88
  13   0  -4   -1.35    2.31
  13   0  -4   -0.31    1.90
  13   0  -4   -0.98    2.51
  13   0  -3   -1.07    2.42
  13   0  -3   -0.39    3.41
  13   0  -3    3.03    3.33
  13   0  -2   -0.61    1.46
  13   0  -2    2.03    2.20
  13   0  -2   -2.48    3.24
  13   0  -1   -1.34    2.14
  13   0  -1    0.06    2.50
  13   0  -1   -0.70    1.51
  13   0   0    0.98    2.36
  13   0   0   -0.92    2.16
  13   0   0    1.51    1.63
  13   0   1   -0.41    2.05
  13   0   1    0.91    3.09
  13   0   1   -1.81    2.27
  13   0   2   -0.95    3.15
  13   0   2   -1.60    1.92
  13   0   2    1.65    1.71
  13   0   3    1.20    2.77
  13   0   3    0.58    1.19
  13   0   3    0.90    2.42
  13   0   4    0.55    2.29
  13   0   4    0.15    2.81
  13   0   5    1.98    1.53
  13   0   5   -0.20    2.44
  13   0   6    0.30    2.08
  13   0   6    2.09    3.63
  13   0   7    1.22    2.57
  13   0   7    1.10    1.53
  13   0   8   -2.70    3.18
  13   0   8    0.66    1.68
  13   0   9   -0.49    2.15
  13   0   9   -1.45    3.37
  13   0  10   -1.15    3.81
  13   0  11   -1.70    2.27
  13   0  12    0.80    2.65
  13   0  13   -0.86    2.50
  13   0  14   -0.12    2.78
  13   0  15    1.83    3.44
  13   0  16    3.51    2.57
  13   0  17   -1.41    3.14
  13   0  18    3.45    3.54
  13   0  19    2.45    3.09
  13   0  20   -1.17    1.94
  13   0  21   -2.67    2.78
  13   0  22   17.88    8.68
  13   0  23   -1.92    3.84
  13   0  24   -0.77    3.84
  13  -1 -24    7.61    3.74
  13  -1 -23   12.57    4.46
  13  -1 -22   10.30    4.50
  13  -1 -21   71.19   11.22
  13  -1 -20  111.51   13.39
  13  -1 -19    9.23    4.59
  13  -1 -18   13.68    4.93
  13   1 -17   49.25   10.04
  13  -1 -17   23.33    5.80
  13   1 -16  143.74   14.66
  13  -1 -16  132.89   14.23
  13   1 -15   52.14    8.87
  13  -1 -15   48.99    8.07
  13   1 -14  109.04   12.54
  13  -1 -14  103.84   12.17
  13   1 -13   18.13    4.89
  13  -1 -13   15.50    4.33
  13  -1 -12   63.29    8.97
  13   1 -12   75.53   10.39
  13  -1 -12   55.07    9.60
  13  -1 -11   11.91    4.67
  13  -1 -11    7.12    3.38
  13   1 -11   17.66    4.35
  13   1 -11   11.76    4.24
  13  -1 -10  138.60   13.33
  13   1 -10  143.22   13.43
  13  -1 -10  136.67   13.55
  13   1 -10  151.53   14.25
  13   1 -10  144.16   13.45
  13  -1  -9  180.32   15.34
  13   1  -9  161.98   13.68
  13  -1  -9  172.34   15.13
  13   1  -9  158.34   14.48
  13   1  -9  180.36   14.97
  13  -1  -8   29.41    6.34
  13   1  -8   22.70    5.25
  13  -1  -8   26.08    6.35
  13   1  -8   30.83    6.69
  13   1  -8   23.49    6.01
  13  -1  -7   60.28    8.62
  13   1  -7   48.36    7.32
  13  -1  -7   40.31    7.66
  13   1  -7   66.10    9.32
  13   1  -7   53.81    7.98
  13  -1  -6   76.03    9.35
  13   1  -6   53.95    7.76
  13  -1  -6   58.44    9.14
  13   1  -6   59.13    8.19
  13   1  -6   56.89    8.58
  13  -1  -5  352.53   20.91
  13   1  -5  350.06   20.11
  13  -1  -5  398.74   23.12
  13   1  -5  383.24   22.21
  13   1  -5  383.29   21.29
  13  -1  -4   49.34    7.61
  13   1  -4   52.35    7.80
  13  -1  -4   61.98    9.41
  13   1  -4   61.96    8.88
  13   1  -4   49.91    7.77
  13  -1  -3   90.58   10.39
  13   1  -3  105.32   11.03
  13  -1  -3  108.33   11.97
  13   1  -3   91.88   10.59
  13   1  -3  115.23   11.56
  13  -1  -2  168.22   14.13
  13   1  -2  157.87   13.63
  13  -1  -2  168.86   15.10
  13   1  -2  166.56   14.67
  13   1  -2  177.73   14.04
  13  -1  -1  103.38   10.99
  13   1  -1  114.81   11.43
  13  -1  -1  124.66   12.72
  13   1  -1  136.39   13.31
  13  -1   0 1279.96   39.64
  13   1   0 1304.81   38.91
  13  -1   0 1316.50   41.26
  13   1   0 1372.80   41.65
  13   1   0 1333.24   38.64
  13  -1   1  122.36   12.22
  13   1   1  121.86   11.98
  13  -1   1  109.92   12.09
  13   1   1  108.96   11.71
  13   1   1  115.87   11.64
  13  -1   2  147.53   13.41
  13   1   2  183.10   14.60
  13  -1   2  167.83   14.72
  13   1   2  159.09   13.36
  13  -1   3   89.32   10.70
  13   1   3   90.82   10.43
  13  -1   3  100.20   11.71
  13   1   3   74.71    9.12
  13  -1   4   58.65    8.30
  13   1   4   61.29    8.87
  13  -1   4   72.08   10.02
  13   1   4   67.57    8.74
  13  -1   5  362.23   21.13
  13   1   5  348.55   20.90
  13   1   5  378.44   20.34
  13  -1   6   71.88    9.48
  13   1   6   60.00    8.49
  13   1   6   72.95    9.26
  13  -1   7   46.21    8.13
  13   1   7   51.12    8.12
  13   1   7   56.28    8.19
  13   1   8   16.06    4.46
  13  -1   8   25.72    5.51
  13   1   8   16.01    4.17
  13  -1   9  139.71   14.04
  13   1   9  157.26   14.34
  13   1   9  171.08   14.01
  13  -1  10  143.96   13.78
  13   1  10  124.20   12.72
  13   1  11   17.41    4.96
  13  -1  11   17.64    4.90
  13   1  11   19.03    3.53
  13  -1  12   68.72    9.97
  13   1  12   73.22    9.78
  13   1  12   66.22    8.71
  13   1  13   22.17    5.80
  13  -1  13   13.95    4.61
  13  -1  14  120.37   13.16
  13   1  14  130.53   13.44
  13  -1  15   76.73   10.35
  13   1  15   49.07    8.69
  13  -1  16  110.39   13.13
  13   1  16  162.34   15.78
  13   1  17   24.76    6.04
  13  -1  17   28.57    6.83
  13   1  18    6.80    3.96
  13  -1  18    3.04    1.67
  13   1  19    8.24    3.66
  13  -1  19    8.96    4.56
  13  -1  20   87.69   11.81
  13   1  20  120.85   13.67
  13  -1  21   89.89   12.53
  13   1  21   79.79   12.53
  13   1  22   19.77    6.60
  13  -1  22   10.49    3.09
  13   1  23   10.92    5.05
  13  -1  23    9.06    5.32
  13   1  24   17.51    6.57
  13  -2 -23   17.22    6.68
  13  -2 -22   16.05    5.88
  13  -2 -21   13.36    4.20
  13  -2 -20    1.48    2.41
  13  -2 -19   -0.35    2.27
  13  -2 -18    5.61    3.95
  13  -2 -17   89.64   11.75
  13  -2 -16    4.37    1.65
  13  -2 -15    5.57    1.63
  13   2 -15    5.23    2.13
  13  -2 -14    9.01    3.62
  13   2 -14    4.12    2.62
  13  -2 -13   13.85    4.33
  13  -2 -13   10.94    4.56
  13   2 -13    7.38    3.54
  13  -2 -12   58.54    9.34
  13   2 -12   48.48    8.30
  13  -2 -12   36.72    7.40
  13   2 -12   56.38    8.75
  13  -2 -11  217.46   17.33
  13   2 -11  207.55   16.54
  13  -2 -11  247.83   18.64
  13  -2 -10   12.69    4.03
  13  -2 -10    9.15    3.43
  13   2 -10   15.19    5.05
  13   2 -10   11.88    4.33
  13  -2  -9   11.35    4.11
  13  -2  -9   12.54    4.62
  13   2  -9   22.34    5.27
  13   2  -9   25.14    6.31
  13  -2  -8   49.34    8.04
  13   2  -8   63.79    8.45
  13  -2  -8   60.66    9.37
  13   2  -8   62.51    9.15
  13   2  -8   67.46    9.31
  13  -2  -7   26.53    6.07
  13   2  -7   41.97    6.79
  13  -2  -7   26.55    6.16
  13   2  -7   29.29    6.17
  13   2  -7   21.43    5.11
  13  -2  -6    6.31    2.48
  13  -2  -6    4.57    1.34
  13   2  -6   11.50    3.87
  13   2  -6    2.38    1.83
  13   2  -6   12.54    3.71
  13  -2  -5    1.94    1.96
  13  -2  -5   -0.11    2.30
  13   2  -5    1.62    2.93
  13   2  -5    2.58    3.00
  13   2  -5    1.84    1.41
  13  -2  -4   14.66    5.06
  13  -2  -4    8.56    3.21
  13   2  -4   14.80    4.58
  13   2  -4   22.28    5.33
  13   2  -4   11.36    4.68
  13  -2  -3  101.32   11.58
  13   2  -3   99.16   10.57
  13  -2  -3   78.75   10.64
  13   2  -3   90.41   10.88
  13   2  -3  124.77   12.14
  13  -2  -2   60.23    8.52
  13   2  -2   45.40    7.35
  13  -2  -2   48.85    8.14
  13   2  -2   47.48    7.59
  13   2  -2   38.55    7.28
  13  -2  -1   52.48    8.20
  13   2  -1   44.94    7.33
  13  -2  -1   57.08    8.74
  13   2  -1   66.18    9.05
  13   2  -1   72.30    9.69
  13  -2   0  597.94   27.57
  13   2   0  649.40   27.73
  13  -2   0  594.05   28.44
  13   2   0  579.03   27.12
  13   2   0  606.08   26.82
  13  -2   1   61.70    8.88
  13  -2   1   55.07    8.76
  13   2   1   70.81    9.05
  13   2   1   58.42    9.05
  13   2   1   62.49    8.50
  13  -2   2   46.43    7.75
  13  -2   2   48.68    7.76
  13   2   2   50.19    7.85
  13   2   2   43.26    7.42
  13  -2   3   91.29   10.84
  13  -2   3   77.40   10.25
  13   2   3  111.74   11.57
  13   2   3   87.72   10.22
  13   2   4   19.83    5.49
  13   2   4   12.65    3.97
  13  -2   4   10.73    4.31
  13  -2   4   13.43    4.08
  13   2   5   -0.70    2.86
  13   2   5    0.84    2.50
  13  -2   5    1.57    2.20
  13  -2   5    0.60    1.31
  13   2   6   11.96    3.72
  13   2   6    5.60    2.63
  13  -2   6    3.78    2.02
  13  -2   6    9.30    4.69
  13   2   7   32.21    6.65
  13   2   7   33.94    6.11
  13  -2   7   38.65    6.87
  13  -2   8   73.53    9.99
  13   2   8   82.42   10.44
  13   2   8   78.79    9.55
  13   2   9    4.69    1.81
  13   2   9   20.10    5.62
  13  -2   9   18.25    4.20
  13   2  10    8.63    3.18
  13   2  10   14.21    4.30
  13  -2  10   14.20    5.32
  13   2  11  206.79   17.12
  13   2  11  192.44   15.89
  13  -2  12   55.14    8.67
  13   2  12   67.84    9.32
  13   2  12   66.68    9.67
  13   2  13   10.27    4.46
  13  -2  13    6.22    3.84
  13   2  14   10.37    4.85
  13  -2  14    6.59    3.39
  13   2  15    4.65    3.27
  13  -2  15    4.01    2.08
  13   2  16    6.27    2.03
  13  -2  16    9.06    3.73
  13  -2  17   83.45   11.57
  13   2  17   73.78   11.46
  13   2  18    5.76    2.38
  13  -2  18    2.68    3.14
  13   2  19   -2.63    4.01
  13  -2  19   -2.67    2.78
  13   2  20   -0.77    2.86
  13  -2  20    1.24    3.45
  13   2  21   19.67    7.16
  13  -2  21   20.54    5.44
  13   2  22    2.35    4.72
  13  -2  22    4.51    3.42
  13   2  23   11.95    5.67
  13  -3 -22   60.44   10.57
  13  -3 -21   18.94    4.59
  13  -3 -20   32.74    6.54
  13  -3 -19   19.81    5.53
  13  -3 -18   17.03    5.64
  13   3 -18   12.29    5.24
  13  -3 -17   25.08    6.40
  13   3 -17   17.15    5.08
  13  -3 -16  252.99   20.13
  13   3 -16  264.55   19.89
  13  -3 -15   52.15    9.26
  13   3 -15   48.79    8.45
  13  -3 -14  117.66   13.41
  13   3 -14  126.82   13.25
  13  -3 -14  118.19   13.15
  13   3 -13   44.55    9.58
  13  -3 -13   51.05    8.36
  13  -3 -12  214.19   17.81
  13   3 -12  198.93   16.90
  13  -3 -12  202.82   17.17
  13  -3 -11   24.54    5.58
  13  -3 -11   14.68    5.12
  13   3 -11   24.78    5.72
  13  -3 -10  350.99   22.45
  13   3 -10  352.93   21.85
  13  -3  -9   46.48    8.28
  13  -3  -9   53.34    8.75
  13   3  -9   60.52    9.10
  13  -3  -8   76.26    9.93
  13  -3  -8   59.56    9.32
  13   3  -8   64.24    9.52
  13  -3  -7   33.26    7.32
  13  -3  -7   45.44    7.99
  13   3  -7   41.70    7.56
  13   3  -7   33.38    6.25
  13  -3  -6   75.44   10.44
  13   3  -6   77.42    9.68
  13  -3  -6   91.46   11.90
  13   3  -6   79.58   10.59
  13   3  -6   76.35   10.30
  13   3  -5    9.19    3.79
  13   3  -5    8.19    3.30
  13  -3  -5    5.17    3.02
  13  -3  -5    8.80    3.49
  13   3  -5    6.24    2.34
  13  -3  -4  277.20   19.10
  13  -3  -4  242.86   18.54
  13   3  -4  284.38   18.27
  13   3  -4  275.49   18.56
  13   3  -4  324.53   20.16
  13   3  -3   35.08    6.95
  13  -3  -3   49.75    8.17
  13   3  -3   47.04    7.61
  13  -3  -3   30.16    6.33
  13   3  -3   38.45    7.23
  13   3  -2    9.27    4.14
  13   3  -2    6.18    3.46
  13  -3  -2    0.68    2.24
  13  -3  -2    4.53    3.58
  13   3  -2    2.67    1.40
  13   3  -1   21.60    5.24
  13   3  -1   11.60    3.80
  13  -3  -1   27.66    6.75
  13  -3  -1   18.10    6.06
  13   3  -1   20.02    5.60
  13  -3   0  104.54   12.03
  13  -3   0  118.29   12.85
  13   3   0  101.27   11.48
  13   3   0   79.88   10.04
  13   3   0  112.55   11.87
  13   3   1   10.85    4.01
  13   3   1   17.96    3.71
  13  -3   1   13.17    4.30
  13  -3   1   25.20    5.58
  13   3   2    4.14    1.69
  13   3   2    3.33    1.29
  13  -3   2    6.73    3.10
  13  -3   2    5.89    3.70
  13  -3   3   46.55    7.66
  13  -3   3   42.74    7.78
  13   3   3   51.99    7.88
  13   3   3   42.12    7.52
  13  -3   4  267.32   18.70
  13  -3   4  287.21   20.41
  13   3   4  297.81   19.35
  13   3   4  288.59   18.52
  13   3   5    5.86    3.81
  13   3   5   12.43    3.57
  13  -3   5   12.12    4.14
  13  -3   5    9.28    4.56
  13  -3   6   78.27    9.87
  13  -3   6   76.51    9.99
  13   3   6   93.85   10.60
  13   3   6   85.02   10.45
  13   3   7   46.23    8.12
  13  -3   7   51.45    8.45
  13  -3   7   42.26    8.58
  13   3   7   47.00    8.08
  13   3   8   69.09    9.66
  13  -3   8   59.24    8.74
  13  -3   8   63.63    9.93
  13   3   8   60.00    8.16
  13   3   9   53.90    8.41
  13  -3   9   56.58    8.79
  13   3   9   49.73    8.00
  13   3  10  399.66   23.46
  13  -3  10  340.23   21.92
  13   3  10  356.21   21.44
  13   3  11   14.81    5.70
  13   3  11   19.86    5.52
  13   3  12  213.52   17.63
  13  -3  12  191.71   16.34
  13   3  12  168.18   14.90
  13   3  13   51.81    8.95
  13   3  13   53.96    8.16
  13  -3  13   60.99    9.38
  13   3  14  140.05   14.55
  13  -3  14  129.07   13.71
  13   3  15   39.68    8.12
  13  -3  15   45.73    8.01
  13   3  16  302.59   21.09
  13  -3  16  286.07   20.90
  13   3  17   21.00    5.43
  13  -3  17   30.13    7.34
  13   3  18   17.22    5.31
  13  -3  18   21.64    6.29
  13   3  19    9.69    5.14
  13  -3  19   18.01    5.44
  13   3  20   29.07    6.66
  13  -3  20   25.98    7.18
  13   3  21   21.94    5.93
  13  -3  21   16.75    6.31
  13   3  22   61.97   10.98
  13  -4 -21   24.59    7.03
  13  -4 -20   15.57    6.15
  13   4 -20   15.57    7.46
  13  -4 -19   22.02    7.04
  13   4 -19   17.18    6.26
  13  -4 -18    0.83    2.23
  13   4 -18    0.07    2.89
  13  -4 -17   23.17    6.09
  13   4 -17   27.28    6.78
  13  -4 -16   -2.43    2.61
  13  -4 -16    7.01    3.94
  13   4 -16    4.94    3.79
  13  -4 -15   17.04    5.43
  13  -4 -15   16.94    5.67
  13   4 -15   28.12    6.28
  13  -4 -14    9.02    4.32
  13  -4 -14    0.32    2.90
  13   4 -14    4.54    3.50
  13  -4 -13    0.15    1.78
  13  -4 -13    2.87    4.31
  13   4 -13   -1.90    2.70
  13   4 -12   12.05    5.21
  13  -4 -12    8.94    3.18
  13  -4 -12    5.56    1.98
  13   4 -11   -1.62    2.95
  13  -4 -11    1.18    1.94
  13  -4 -11    1.19    1.94
  13   4 -10   13.15    4.92
  13  -4 -10   14.03    4.86
  13  -4 -10    7.07    4.31
  13  -4  -9  201.33   17.26
  13   4  -9  233.13   17.65
  13  -4  -9  197.38   16.69
  13   4  -8    3.25    3.14
  13  -4  -8    2.00    2.33
  13  -4  -8    1.38    2.62
  13   4  -7   11.60    4.30
  13  -4  -7   14.62    4.30
  13  -4  -7   13.85    4.51
  13  -4  -6  116.10   12.80
  13  -4  -6  133.52   14.02
  13   4  -6  120.65   12.11
  13   4  -6  106.32   12.24
  13   4  -5    7.55    2.70
  13   4  -5    9.92    2.77
  13  -4  -5    4.82    3.69
  13  -4  -5    4.05    2.77
  13   4  -4   28.67    5.83
  13   4  -4   24.65    5.36
  13  -4  -4   31.49    6.65
  13  -4  -4   38.08    8.77
  13   4  -3   11.63    4.02
  13   4  -3   17.46    4.78
  13  -4  -3    7.60    4.06
  13  -4  -3   12.93    4.32
  13  -4  -2  170.53   15.33
  13  -4  -2  190.55   16.75
  13   4  -2  196.54   15.48
  13   4  -2  180.82   15.26
  13  -4  -1  116.48   12.31
  13  -4  -1   87.56   11.54
  13   4  -1  103.08   11.55
  13   4  -1   79.32   10.38
  13   4   0    4.32    3.14
  13  -4   0   11.48    4.17
  13   4   0    5.70    3.52
  13  -4   0    4.59    3.17
  13   4   0    5.17    3.36
  13   4   1   94.81   11.27
  13  -4   1   88.21   11.29
  13  -4   1   89.66   11.76
  13   4   1  102.70   11.02
  13   4   2  148.15   14.03
  13  -4   2  180.15   15.63
  13  -4   2  198.74   17.06
  13   4   2  188.67   15.33
  13   4   3    9.85    4.51
  13  -4   3   16.99    5.08
  13   4   3   10.17    4.27
  13  -4   3   12.29    3.64
  13   4   4   36.70    7.09
  13  -4   4   43.82    7.49
  13   4   4   22.63    6.22
  13  -4   4   21.71    4.93
  13   4   5    9.28    3.61
  13  -4   5   17.12    5.52
  13   4   5    7.65    3.68
  13  -4   5    9.96    4.23
  13   4   6  112.00   12.06
  13  -4   6  125.52   13.04
  13  -4   6  146.68   15.33
  13   4   6   89.46   10.88
  13   4   7    9.86    2.27
  13  -4   7   11.35    3.02
  13   4   7   11.78    4.12
  13  -4   7   17.58    6.53
  13   4   8   -0.81    1.97
  13  -4   8    1.61    2.66
  13   4   8    1.51    2.43
  13  -4   8    2.44    2.51
  13   4   9  204.80   16.94
  13  -4   9  223.09   17.83
  13  -4   9  231.73   18.62
  13   4   9  214.96   16.78
  13   4  10    3.87    3.49
  13  -4  10    6.68    3.77
  13   4  10    4.28    3.83
  13  -4  10    1.03    2.74
  13   4  11    3.80    2.75
  13  -4  11    0.27    2.62
  13   4  11    0.17    2.17
  13  -4  11    5.13    4.31
  13   4  12   10.55    3.88
  13  -4  12   12.83    4.35
  13   4  12    7.95    3.46
  13   4  13    0.67    2.87
  13  -4  13    0.25    3.24
  13   4  13    0.03    2.21
  13  -4  14    3.23    3.38
  13   4  14    3.86    1.70
  13  -4  15   17.64    5.18
  13   4  15   10.46    4.89
  13  -4  16    6.55    4.59
  13   4  16    9.23    3.51
  13  -4  17   20.90    6.06
  13   4  17   29.92    7.47
  13  -4  18    1.92    2.85
  13   4  18    2.28    3.82
  13  -4  19   18.40    6.12
  13   4  19   19.99    6.20
  13   4  20    7.83    5.51
  13  -4  20    6.59    4.84
  13   4  21   17.74    5.26
  13  -5 -20   27.05    6.44
  13  -5 -19   14.75    4.00
  13   5 -19   12.01    5.39
  13  -5 -18    7.00    4.32
  13   5 -18    5.41    3.55
  13  -5 -17   51.94    9.39
  13   5 -17   27.72    6.51
  13  -5 -16   23.52    5.94
  13  -5 -16   24.87    6.89
  13   5 -16   28.06    6.77
  13   5 -15   11.71    4.14
  13  -5 -15   14.68    5.27
  13  -5 -15    9.18    4.52
  13   5 -14   35.67    8.04
  13  -5 -14   29.41    6.81
  13  -5 -14   34.33    7.56
  13   5 -13    5.46    3.26
  13  -5 -13    2.81    4.11
  13  -5 -13    7.15    2.30
  13   5 -12   30.66    6.45
  13  -5 -12   22.11    5.76
  13  -5 -12   22.50    7.02
  13  -5 -11  111.33   12.76
  13  -5 -11   96.59   11.99
  13   5 -11   86.48   11.67
  13   5 -10   36.77    7.79
  13  -5 -10   26.46    6.52
  13  -5 -10   39.55    8.49
  13   5  -9    3.63    3.90
  13  -5  -9    4.25    3.35
  13  -5  -9    7.06    4.02
  13   5  -8   16.76    4.92
  13  -5  -8    6.52    3.66
  13  -5  -8    7.17    3.48
  13  -5  -7   72.75   10.28
  13   5  -7   58.59    8.85
  13  -5  -7   47.07    8.61
  13   5  -6  128.45   13.01
  13  -5  -6  134.65   14.12
  13  -5  -5   34.56    6.94
  13   5  -5   15.99    5.88
  13  -5  -5   40.92    8.23
  13   5  -5   44.49    8.05
  13  -5  -4   79.52   10.92
  13  -5  -4   97.31   12.70
  13   5  -4   91.84   11.04
  13   5  -4  121.54   13.10
  13  -5  -3   90.37   11.45
  13  -5  -3   91.66   11.62
  13   5  -3   79.18   10.27
  13   5  -3   73.82    9.95
  13   5  -2  229.27   17.76
  13  -5  -2  263.28   19.38
  13  -5  -2  209.40   17.84
  13   5  -2  218.49   17.38
  13   5  -1  140.84   13.78
  13   5  -1  148.33   14.19
  13  -5  -1  136.16   13.90
  13  -5  -1  169.59   16.08
  13   5   0   18.14    5.67
  13  -5   0    8.47    3.65
  13   5   0   11.16    3.61
  13  -5   0    9.59    3.45
  13   5   1  154.94   14.43
  13  -5   1  160.55   15.20
  13   5   1  157.57   14.53
  13  -5   1  160.75   15.90
  13   5   2  214.54   17.04
  13   5   2  204.10   16.56
  13  -5   2  223.85   18.15
  13  -5   2  232.25   18.65
  13   5   3  100.79   11.91
  13  -5   3   90.08   11.36
  13   5   3   75.94   10.12
  13  -5   3   89.13   11.33
  13   5   4  104.39   12.30
  13  -5   4  100.30   12.04
  13   5   4   95.96   11.68
  13  -5   4  101.78   13.04
  13   5   5   39.32    7.69
  13  -5   5   41.46    8.08
  13   5   5   34.09    6.96
  13  -5   5   29.42    7.04
  13   5   6   77.09   11.08
  13  -5   6   95.11   12.06
  13  -5   6  117.17   13.74
  13   5   7   51.86    8.53
  13  -5   7   50.46    9.36
  13   5   7   71.44    9.88
  13  -5   7   43.02    8.18
  13   5   8   17.84    4.84
  13  -5   8   15.23    4.29
  13   5   8    9.93    4.51
  13  -5   8   16.28    4.78
  13   5   9    8.00    4.40
  13  -5   9    4.14    1.75
  13   5   9    3.34    1.21
  13  -5   9    5.19    4.21
  13   5  10   40.72    7.96
  13  -5  10   39.69    8.03
  13   5  10   28.48    7.06
  13  -5  10   42.01    8.45
  13   5  11   63.35   10.17
  13   5  11   76.51   11.10
  13  -5  11   79.28   11.79
  13   5  12   21.17    6.51
  13  -5  12   21.01    6.21
  13   5  12   16.46    4.50
  13  -5  12   25.23    6.97
  13   5  13    3.62    3.76
  13  -5  13    5.05    3.00
  13   5  13    8.24    3.17
  13  -5  13    1.89    2.18
  13   5  14   24.28    6.81
  13  -5  14   35.72    7.55
  13   5  14   28.14    6.69
  13  -5  14   27.75    7.15
  13  -5  15   12.99    5.96
  13   5  15   14.36    4.61
  13  -5  15   17.34    5.51
  13  -5  16   31.61    8.98
  13   5  16   18.57    6.92
  13  -5  17   36.55    8.71
  13   5  17   40.39    7.99
  13  -5  18    8.40    3.75
  13   5  18   18.23    6.44
  13  -5  19   23.50    6.37
  13   5  19   12.32    5.48
  13   5  20   21.76    5.97
  13  -6 -18    1.78    2.98
  13   6 -18   -2.48    3.24
  13   6 -17   -4.06    4.22
  13  -6 -17    2.61    2.50
  13  -6 -17    4.44    4.23
  13   6 -16   -2.95    3.91
  13  -6 -16    6.43    4.05
  13  -6 -16   -0.54    2.93
  13   6 -15    1.77    2.68
  13  -6 -15   -3.73    3.89
  13  -6 -15    6.10    3.70
  13   6 -14    8.52    3.28
  13  -6 -14   13.61    5.95
  13  -6 -14   12.48    4.63
  13   6 -13    5.03    2.08
  13  -6 -13    8.06    4.18
  13  -6 -12    7.78    3.15
  13   6 -12    5.78    3.13
  13  -6 -12   -2.48    4.09
  13  -6 -11    3.86    3.64
  13   6 -11   16.38    4.25
  13  -6 -11   17.06    7.03
  13  -6 -10   11.16    5.16
  13   6 -10    8.14    4.36
  13  -6 -10    7.86    4.21
  13   6  -9    1.53    2.07
  13  -6  -9    4.55    2.81
  13   6  -8    0.21    3.45
  13  -6  -8    6.56    4.28
  13  -6  -8    1.58    2.97
  13   6  -7   11.93    3.75
  13  -6  -7    8.49    3.24
  13  -6  -7   14.95    5.47
  13   6  -6    1.45    2.81
  13  -6  -6    5.47    4.37
  13  -6  -6    1.52    3.70
  13   6  -5    1.04    2.39
  13  -6  -5   -0.42    1.61
  13  -6  -5   -0.63    3.21
  13   6  -4    1.30    3.30
  13  -6  -4   -0.81    2.21
  13  -6  -4    5.48    1.82
  13   6  -3    8.86    4.74
  13  -6  -3   14.91    5.01
  13   6  -3    5.18    3.45
  13  -6  -3   10.71    2.83
  13   6  -2   22.05    7.00
  13  -6  -2   14.04    4.91
  13   6  -2   16.71    4.60
  13  -6  -2   13.03    5.28
  13   6  -1   13.25    4.53
  13  -6  -1   11.76    4.55
  13   6  -1   13.83    4.13
  13  -6  -1   15.22    5.66
  13   6   0    1.46    1.62
  13  -6   0    2.83    1.66
  13   6   0    1.06    2.21
  13  -6   0    1.44    2.12
  13   6   1   20.51    5.50
  13  -6   1   12.11    3.58
  13   6   1    8.83    3.58
  13  -6   1    7.87    4.01
  13   6   2   15.19    4.61
  13  -6   2   12.90    5.75
  13   6   2   11.39    4.50
  13  -6   2   13.01    4.89
  13   6   3   10.80    5.37
  13  -6   3   21.81    6.64
  13   6   3    2.88    2.40
  13  -6   3   14.01    4.53
  13   6   4    0.01    2.92
  13  -6   4    1.80    2.10
  13   6   4   -0.73    2.38
  13  -6   4    0.01    2.26
  13   6   5    2.90    3.06
  13  -6   5    0.41    3.32
  13   6   5   -0.35    2.27
  13  -6   5   -2.53    3.80
  13  -6   6    7.08    4.09
  13   6   6    3.04    2.99
  13  -6   6    0.53    2.45
  13   6   7    3.56    2.97
  13  -6   7    2.03    1.73
  13   6   7   11.52    5.10
  13  -6   7    6.05    4.82
  13   6   8    5.20    3.39
  13  -6   8    8.02    4.95
  13   6   8    4.43    3.47
  13  -6   8    1.85    2.88
  13   6   9    7.99    4.33
  13  -6   9    7.91    4.84
  13   6   9    1.70    2.72
  13  -6   9    4.15    3.96
  13   6  10    5.95    4.14
  13  -6  10    1.55    2.07
  13   6  10    8.24    3.46
  13  -6  10    0.43    2.67
  13   6  11    9.80    5.28
  13  -6  11   11.59    5.03
  13   6  11   12.57    4.69
  13  -6  11   16.88    4.65
  13   6  12    6.18    4.06
  13  -6  12    5.29    3.37
  13   6  12    4.37    2.85
  13  -6  12    1.18    3.15
  13   6  13    0.89    3.33
  13  -6  13    3.57    3.96
  13   6  13    6.64    3.97
  13  -6  13   11.22    4.95
  13   6  14    7.10    5.07
  13   6  14    4.57    2.91
  13  -6  14   10.36    4.78
  13  -6  15    3.85    4.81
  13   6  15    0.69    3.78
  13  -6  15    1.72    4.22
  13  -6  16   -3.49    3.33
  13   6  16    1.05    3.32
  13  -6  16   -2.08    3.73
  13  -6  17    3.02    4.31
  13   6  17    3.57    2.76
  13  -6  17    2.47    2.78
  13   6  18    6.06    3.79
  13  -6  18   -3.71    4.53
  13   7 -15    7.26    4.23
  13  -7 -15   15.46    5.32
  13  -7 -15   13.59    5.98
  13   7 -14   20.70    5.85
  13  -7 -14   19.13    5.70
  13  -7 -14   12.45    4.94
  13   7 -13    9.22    4.17
  13  -7 -13    3.23    3.78
  13  -7 -13   10.18    4.82
  13   7 -12   13.07    5.59
  13  -7 -12   12.10    4.94
  13  -7 -12    6.15    4.52
  13   7 -11   21.03    6.21
  13  -7 -11   27.48    7.76
  13  -7 -11   19.46    6.39
  13  -7 -10   66.95   10.96
  13  -7 -10   77.93   11.37
  13   7 -10   93.50   11.61
  13  -7  -9   12.81    4.75
  13   7  -9   11.59    4.45
  13  -7  -9   13.88    5.40
  13  -7  -8   12.40    4.38
  13   7  -8   16.78    5.39
  13  -7  -8   16.57    5.77
  13  -7  -7   24.58    7.19
  13   7  -7   19.89    5.02
  13  -7  -7   25.21    6.15
  13   7  -6   80.42   11.10
  13  -7  -6   65.73   10.56
  13  -7  -5   16.83    5.60
  13   7  -5   15.98    4.99
  13  -7  -5   18.75    6.25
  13   7  -4   50.21    9.24
  13  -7  -4   40.49    8.16
  13  -7  -4   51.22    9.25
  13   7  -3   20.83    5.56
  13  -7  -3   26.15    6.58
  13  -7  -3   28.87    7.29
  13   7  -2   54.21    8.91
  13  -7  -2   48.02    8.36
  13   7  -2   52.75    9.93
  13  -7  -2   24.50    6.85
  13   7  -1    9.08    5.06
  13  -7  -1   27.56    7.13
  13   7  -1   11.55    4.09
  13  -7  -1   22.51    6.52
  13   7   0   12.71    5.20
  13  -7   0   11.33    5.33
  13   7   0   12.74    4.23
  13  -7   0   19.62    5.85
  13   7   1   13.28    5.36
  13  -7   1    8.16    3.83
  13   7   1   11.36    3.99
  13   7   2   45.56    8.58
  13  -7   2   45.57    8.52
  13  -7   2   39.86    8.05
  13   7   2   32.90    7.20
  13   7   3   19.90    5.76
  13  -7   3   22.67    5.68
  13  -7   3   17.16    5.87
  13   7   3   13.99    4.98
  13   7   4   57.79    8.98
  13  -7   4   43.97    7.97
  13  -7   4   42.74    8.25
  13   7   4   39.93    7.61
  13   7   5    7.78    4.02
  13  -7   5   11.76    4.75
  13  -7   5   20.28    6.19
  13   7   5   11.87    5.35
  13  -7   6   72.96   10.76
  13   7   6   77.83   10.67
  13   7   6   72.75   10.79
  13  -7   6   76.26   12.13
  13   7   7   11.19    3.72
  13  -7   7   26.69    6.48
  13  -7   7   13.61    6.48
  13   7   7   14.37    5.33
  13   7   8   17.16    5.76
  13  -7   8   22.72    6.59
  13  -7   8   22.55    7.39
  13   7   8   13.10    4.77
  13   7   9   19.68    6.84
  13  -7   9   10.88    4.20
  13  -7   9   15.39    4.50
  13  -7  10   77.99   11.84
  13   7  10   96.18   11.90
  13   7  10   94.21   11.74
  13  -7  10   87.01   12.85
  13   7  11   16.48    6.27
  13  -7  11   20.36    6.26
  13  -7  11   23.77    6.04
  13   7  11   27.74    6.58
  13   7  12    5.94    3.90
  13  -7  12   13.11    4.11
  13  -7  12    4.15    3.15
  13   7  12   16.47    6.00
  13   7  13    6.33    3.41
  13  -7  13    5.80    4.20
  13  -7  13    9.50    6.48
  13   7  13   10.38    5.17
  13   7  14   28.26    7.27
  13  -7  14   20.76    7.63
  13  -7  14   22.12    4.16
  13   7  14   22.22    5.94
  13  -7  15    4.61    2.66
  13   7  15   13.49    4.45
  13   8 -11   12.26    5.84
  13  -8 -11   17.61    5.62
  13  -8 -11    9.34    4.97
  13   8 -10    2.50    3.90
  13  -8 -10   -2.54    3.87
  13  -8 -10   -0.91    2.62
  13   8  -9   11.86    4.82
  13  -8  -9   12.35    6.38
  13  -8  -9    7.17    4.18
  13  -8  -8    9.49    2.89
  13   8  -8    8.16    4.66
  13  -8  -8   11.20    5.44
  13  -8  -7    3.89    2.55
  13   8  -7   10.38    5.39
  13  -8  -7    7.41    4.81
  13  -8  -6    7.00    4.14
  13   8  -6    4.60    4.63
  13  -8  -6   -0.77    2.85
  13  -8  -5    7.67    4.71
  13   8  -5    0.51    1.77
 -13   8  -5   12.55    6.61
  13  -8  -5    6.23    3.84
  13  -8  -4    1.52    1.90
  13   8  -4    1.80    2.55
  13  -8  -4    1.39    2.81
  13  -8  -3    4.03    2.31
  13   8  -3    7.18    4.29
  13  -8  -3    7.26    5.79
  13  -8  -2    7.90    4.60
  13   8  -2   13.26    5.29
  13  -8  -2    4.38    3.50
  13  -8  -1   -0.36    2.30
  13   8  -1   -3.30    3.05
  13  -8  -1    1.88    4.77
  13  -8   0    3.34    3.83
  13   8   0    5.23    4.08
  13  -8   0    0.94    4.07
  13   8   0   -1.81    2.02
  13  -8   1    7.49    5.21
  13   8   1    3.14    3.63
  13  -8   1    1.87    3.71
  13   8   1    0.58    2.28
  13  -8   2    5.17    3.49
  13   8   2    7.38    4.05
  13  -8   2    9.65    4.72
  13   8   2    1.60    1.74
  13  -8   3    2.16    3.30
  13   8   3    4.47    4.52
  13  -8   3    4.98    4.14
  13   8   3    6.30    3.06
  13  -8   4    3.39    3.13
  13   8   4   -2.32    2.90
  13  -8   4   -3.26    3.87
  13   8   4    1.51    2.93
  13  -8   5    6.91    3.88
  13   8   5    3.22    3.06
  13  -8   5    9.30    4.60
  13   8   5   12.90    4.97
  13  -8   6    5.24    3.19
  13   8   6    0.90    1.72
  13  -8   6    4.22    2.86
  13   8   6    2.43    3.28
  13  -8   7    9.04    4.26
  13   8   7    6.79    3.08
  13  -8   7   12.56    6.56
  13   8   7    6.74    4.12
  13   8   8   15.34    5.13
  13  -8   8    9.31    4.05
  13  -8   8    7.18    5.24
  13   8   8    0.48    2.61
  13   8   9    4.60    3.26
  13  -8   9    6.94    2.22
  13  -8   9   10.89    7.04
  13   8   9    3.64    1.55
  13   8  10   -1.59    3.46
  13  -8  10   -0.44    2.93
  13   8  10   -1.52    3.43
  13  -8  11    3.69    3.71
  13   8  11    3.79    3.06
  13  -9  -3    3.27    3.50
  13   9  -3    6.55    3.95
 -13   9  -3    5.88    2.28
  13  -9  -3    2.71    3.42
  13   9  -2    2.31    2.38
 -13   9  -2    1.57    3.91
  13  -9  -2    1.33    4.11
  13  -9  -1    8.81    5.18
  13   9  -1   -0.35    1.89
 -13   9  -1    0.43    3.55
  13  -9  -1    3.03    2.52
  13  -9   0   20.56    6.63
  13   9   0   41.57    8.29
 -13   9   0   27.48    7.52
  13  -9   0   24.61    7.66
  13  -9   1    0.14    2.52
  13   9   1    0.97    2.87
 -13   9   1    1.57    1.95
  13  -9   1    0.87    5.10
  13  -9   2    3.94    3.80
  13   9   2    1.61    2.99
 -13   9   2   15.67    6.72
  13  -9   2   12.89    6.74
  13   9   2    3.35    2.98
  13  -9   3    7.38    4.72
  13   9   3   17.48    5.15
 -13   9   3   16.93    6.38
  13  -9   3    7.60    5.22
  13   9   3    7.71    4.35
  14   0 -20   27.00    7.00
  14   0 -19   17.75    7.05
  14   0 -18    0.42    2.90
  14   0 -17   10.68    4.00
  14   0 -16  106.84   13.68
  14   0 -15   10.13    4.05
  14   0 -14   41.84    7.78
  14   0 -13   96.44   11.78
  14   0 -12  164.65   15.92
  14   0 -11   11.90    4.62
  14   0 -10  194.27   16.13
  14   0 -10  172.38   15.88
  14   0  -9   16.42    5.12
  14   0  -9   23.65    5.87
  14   0  -8   38.54    6.99
  14   0  -8   33.28    6.86
  14   0  -7  208.66   16.49
  14   0  -7  204.81   17.19
  14   0  -6  311.98   20.20
  14   0  -6  363.93   22.61
  14   0  -5  197.94   15.90
  14   0  -5  182.08   15.84
  14   0  -4  229.90   17.23
  14   0  -4  262.14   19.29
  14   0  -3  118.23   12.35
  14   0  -3   78.25   10.54
  14   0  -2   81.33   10.40
  14   0  -2   57.34    8.77
  14   0  -1  147.49   13.67
  14   0  -1  115.41   12.97
  14   0  -1  154.83   13.36
  14   0   0  194.21   15.97
  14   0   0  194.31   16.06
  14   0   0  169.68   14.02
  14   0   1  130.70   13.19
  14   0   1  127.61   13.44
  14   0   1  113.73   12.10
  14   0   2   70.73    9.57
  14   0   2   57.12    8.40
  14   0   3  109.38   11.71
  14   0   3  105.00   12.49
  14   0   3  109.53   11.09
  14   0   4  239.54   17.65
  14   0   4  213.37   15.94
  14   0   5  159.19   14.66
  14   0   5  172.01   14.00
  14   0   6  290.40   19.54
  14   0   6  275.13   18.43
  14   0   7  210.45   17.01
  14   0   8   34.03    6.64
  14   0   9   22.92    5.42
  14   0  10  198.15   16.62
  14   0  11   12.17    4.57
  14   0  12  148.65   14.50
  14   0  13   90.19   11.61
  14   0  14   39.23    7.77
  14   0  15   13.42    5.40
  14   0  16  109.18   12.85
  14   0  17   13.27    5.45
  14   0  18   -2.13    2.41
  14   0  19   18.23    6.38
  14   0  20   37.26    7.37
  14   0  21   75.21   11.40
  14   0  22   28.52    6.78
  14  -1 -22    4.79    5.28
  14  -1 -21   -4.21    2.48
  14  -1 -20    0.33    2.66
  14  -1 -19    4.77    4.15
  14  -1 -18    4.83    3.30
  14  -1 -17    3.90    3.69
  14   1 -16   -0.55    3.22
  14  -1 -16    7.36    4.28
  14   1 -15   12.53    3.51
  14  -1 -15   22.43    6.40
  14   1 -14    2.43    2.36
  14  -1 -14    3.75    4.27
  14   1 -13    4.13    4.28
  14  -1 -13    1.02    1.63
  14  -1 -12    3.08    3.51
  14   1 -12    4.46    4.15
  14  -1 -12    2.29    1.64
  14  -1 -11    1.74    2.30
  14  -1 -11    5.56    2.33
  14   1 -11   -1.43    2.55
  14  -1 -10    4.80    3.57
  14  -1 -10    9.65    3.11
  14   1 -10   10.46    3.98
  14   1 -10    7.17    2.76
  14  -1  -9   45.19    8.16
  14   1  -9   23.63    5.85
  14  -1  -9   22.02    6.07
  14   1  -9   23.17    6.12
  14   1  -9   26.90    5.36
  14  -1  -8    8.33    4.13
  14   1  -8    6.78    3.00
  14  -1  -8    2.56    1.68
  14   1  -8   10.32    3.84
  14   1  -8    9.93    4.69
  14   1  -7   36.09    7.52
  14  -1  -7   27.33    5.90
  14  -1  -7   43.55    7.78
  14   1  -7   47.43    7.79
  14   1  -7   50.01    8.16
  14  -1  -6    2.64    3.00
  14   1  -6    6.42    2.68
  14  -1  -6    0.33    2.29
  14   1  -6    0.10    3.00
  14   1  -6    7.40    3.26
  14  -1  -5   -1.05    3.71
  14   1  -5    3.75    2.16
  14  -1  -5    1.22    2.02
  14   1  -5    4.20    3.69
  14   1  -5    1.14    2.47
  14  -1  -4   22.41    5.25
  14   1  -4   17.31    5.29
  14  -1  -4   13.81    4.28
  14   1  -4   15.11    4.67
  14  -1  -3    9.39    3.92
  14  -1  -3   17.81    6.04
  14   1  -3    7.42    2.61
  14   1  -3   11.18    4.13
  14   1  -3   15.92    4.82
  14  -1  -2   79.69   10.31
  14   1  -2   63.44    8.61
  14  -1  -2   68.13   10.02
  14   1  -2   65.79   10.14
  14   1  -2   64.51    8.79
  14  -1  -1   86.74   10.29
  14   1  -1   97.05   10.84
  14  -1  -1   71.25   10.38
  14   1  -1   84.41   10.96
  14   1  -1   64.18    8.84
  14  -1   0   58.18    8.95
  14   1   0   62.37    8.99
  14  -1   0   69.13    9.71
  14   1   0   58.89    8.81
  14   1   0   84.29   10.15
  14  -1   1   73.23    9.89
  14   1   1   83.29   10.56
  14  -1   1   59.68    9.36
  14   1   1   79.54   10.81
  14   1   1  105.77   11.37
  14  -1   2   67.15    9.05
  14   1   2   58.28    8.81
  14  -1   2   56.43    9.20
  14   1   2   69.87    9.90
  14   1   2   68.75    9.35
  14   1   3    9.28    3.97
  14  -1   3   16.05    4.56
  14  -1   3    9.91    4.08
  14   1   3   14.19    4.62
  14   1   4   30.32    6.28
  14  -1   4   23.81    5.60
  14  -1   4   29.32    6.80
  14   1   4   18.87    5.32
  14   1   5   -0.41    1.32
  14  -1   5    3.61    2.66
  14  -1   5    0.17    2.30
  14   1   5   -1.39    2.69
  14   1   6    3.62    3.34
  14  -1   6    4.28    3.34
  14   1   6    1.41    1.94
  14   1   7   40.42    7.25
  14  -1   7   38.55    6.61
  14   1   7   51.30    8.48
  14   1   8    3.26    2.14
  14  -1   8    9.88    3.63
  14   1   8    6.26    3.69
  14   1   9   23.15    5.88
  14  -1   9   29.16    7.05
  14   1   9   24.84    5.79
  14   1  10   10.29    3.96
  14  -1  10    3.22    1.94
  14   1  10    9.62    4.28
  14   1  11    3.38    2.62
  14  -1  11    1.09    1.89
  14   1  11    2.90    2.89
  14   1  12   -1.99    3.69
  14  -1  12   -1.33    2.70
  14   1  13    2.91    3.35
  14  -1  13    2.78    2.96
  14   1  14   -0.06    2.17
  14  -1  14    5.37    2.70
  14   1  15   20.29    4.85
  14  -1  15   16.89    5.59
  14   1  16    7.06    3.80
  14  -1  16    4.69    2.94
  14   1  17   -0.11    1.72
  14  -1  17   -4.62    3.90
  14   1  18    3.72    3.45
  14  -1  18   17.49    5.33
  14   1  19    7.93    4.84
  14  -1  19    7.72    2.71
  14   1  20    1.58    2.83
  14  -1  20   11.26    4.41
  14   1  21    0.72    2.41
  14  -1  21    3.00    2.91
  14   1  22    3.89    4.14
  14  -1  22    0.74    2.62
  14  -2 -22   24.30    6.55
  14  -2 -21   27.50    7.23
  14  -2 -20   46.48    9.09
  14  -2 -19    1.39    2.24
  14  -2 -18    2.69    2.90
  14  -2 -17   21.41    6.33
  14  -2 -16  103.48   12.67
  14  -2 -15   39.59    7.51
  14  -2 -14   91.10   11.91
  14   2 -14   60.18    9.66
  14  -2 -13   30.90    8.02
  14  -2 -13   23.71    6.14
  14   2 -13   21.45    5.99
  14  -2 -12   72.78   10.27
  14  -2 -12   57.21    9.76
  14   2 -12   78.77   10.57
  14  -2 -11   14.58    4.67
  14   2 -11   15.78    4.32
  14  -2 -10   75.64   10.37
  14  -2 -10   80.34   11.41
  14   2 -10   60.65    9.51
  14   2 -10   61.26    9.09
  14  -2  -9  121.35   13.15
  14  -2  -9  141.95   14.49
  14   2  -9  136.38   14.27
  14   2  -9  140.69   14.06
  14  -2  -8   24.53    6.03
  14   2  -8   22.62    4.42
  14  -2  -8   24.08    7.24
  14   2  -8   28.38    6.83
  14   2  -8   22.30    5.59
  14  -2  -7   18.75    5.74
  14  -2  -7   13.95    3.74
  14   2  -7   24.94    5.74
  14   2  -7   20.69    5.67
  14   2  -7   17.71    6.17
  14  -2  -6  113.27   12.52
  14   2  -6   85.00   10.10
  14  -2  -6   97.80   11.93
  14   2  -6  100.57   11.79
  14   2  -6   92.37   11.22
  14  -2  -5   98.98   11.94
  14   2  -5   98.35   11.25
  14  -2  -5  119.30   13.31
  14   2  -5  128.40   13.41
  14   2  -5  124.76   12.55
  14  -2  -4  142.23   13.99
  14   2  -4  147.53   13.89
  14  -2  -4  126.37   13.78
  14   2  -4  134.13   13.49
  14   2  -4  137.95   13.37
  14  -2  -3   33.00    6.85
  14  -2  -3   25.34    5.71
  14   2  -3   25.74    5.86
  14   2  -3   24.96    6.00
  14   2  -3   16.78    4.72
  14  -2  -2   16.35    5.49
  14  -2  -2   22.24    5.86
  14   2  -2   12.93    4.62
  14   2  -2   10.87    1.47
  14   2  -2   15.75    4.21
  14   2  -1   23.27    5.47
  14  -2  -1   23.21    5.74
  14  -2  -1   18.86    5.27
  14   2  -1   18.36    5.69
  14   2  -1   19.75    5.39
  14  -2   0  275.09   19.35
  14   2   0  272.08   18.47
  14  -2   0  279.88   20.19
  14   2   0  279.75   19.99
  14   2   0  299.96   19.70
  14   2   1   18.86    4.74
  14   2   1   15.35    4.94
  14  -2   1   19.08    5.51
  14  -2   1   12.63    3.72
  14   2   1   16.71    5.12
  14   2   2   12.92    4.65
  14   2   2   19.30    4.94
  14  -2   2   16.66    5.28
  14  -2   2   21.41    5.86
  14   2   2   18.53    5.70
  14   2   3   19.91    5.23
  14  -2   3   31.17    6.67
  14   2   3   36.37    7.25
  14  -2   3   27.56    7.01
  14  -2   4  125.18   12.78
  14   2   4  133.57   13.34
  14  -2   4  109.28   12.35
  14   2   4  134.09   13.12
  14  -2   5  113.01   12.27
  14   2   5  115.09   12.48
  14  -2   5   95.31   11.67
  14   2   5  104.13   11.51
  14  -2   6   91.28   11.16
  14  -2   6  109.22   12.78
  14   2   6  102.46   11.73
  14   2   6   86.65   10.82
  14   2   7   22.12    5.74
  14   2   7   21.65    5.59
  14  -2   7   16.74    4.79
  14  -2   7   27.13    6.26
  14   2   8   30.02    6.60
  14   2   8   25.38    6.16
  14  -2   8   32.76    6.52
  14  -2   9  140.50   13.92
  14   2   9  144.92   13.93
  14   2   9  122.80   13.37
  14  -2  10   71.90   10.48
  14   2  10   86.48   11.01
  14   2  10   72.12    9.84
  14   2  11   15.50    4.58
  14  -2  11    6.64    2.03
  14   2  11   14.69    4.99
  14  -2  12   91.66   11.28
  14   2  12   68.93   10.11
  14   2  12   62.26    9.48
  14   2  13   11.04    4.32
  14  -2  13   28.14    7.07
  14  -2  14   74.20   11.23
  14   2  14   80.50   11.40
  14   2  15   30.10    7.55
  14  -2  15   21.68    6.78
  14  -2  16   74.69   11.45
  14   2  16   91.13   12.22
  14   2  17   21.73    6.01
  14  -2  17   24.16    7.23
  14   2  18   11.47    5.32
  14  -2  18    2.35    3.69
  14   2  19    7.12    4.43
  14  -2  19    3.07    2.39
  14   2  20   44.01    9.13
  14  -2  20   39.80    9.25
  14   2  21   26.91    6.84
  14  -2  21   31.38    7.76
  14   2  22   34.52    8.28
  14  -2  22   14.28    5.19
  14  -3 -21   -0.17    1.73
  14  -3 -20    9.52    4.28
  14  -3 -19    4.10    3.07
  14  -3 -18    5.32    2.35
  14   3 -18    8.44    4.42
  14  -3 -17   -3.72    1.69
  14   3 -17   -1.77    2.99
  14  -3 -16    3.88    3.29
  14   3 -16   15.94    5.41
  14  -3 -15   10.29    3.17
  14   3 -15   18.15    5.97
  14  -3 -14   15.88    5.65
  14  -3 -14   13.19    5.13
  14   3 -14    9.51    4.80
  14  -3 -13    2.38    2.77
  14   3 -13    2.15    2.21
  14  -3 -12    5.25    3.88
  14  -3 -12    3.17    4.32
  14   3 -12    6.70    2.98
  14  -3 -11   17.76    5.50
  14  -3 -11   12.73    4.79
  14   3 -11   15.58    4.75
  14  -3 -10   49.18    8.87
  14  -3 -10   60.60    9.58
  14   3 -10   61.09    9.35
  14  -3  -9    5.66    3.12
  14  -3  -9   10.51    5.39
  14   3  -9    2.16    1.89
  14  -3  -8   -2.22    3.32
  14  -3  -8   -0.23    2.62
  14   3  -8   -1.59    1.73
  14   3  -7   -0.21    1.85
  14  -3  -7    0.92    2.24
  14  -3  -7   15.09    5.60
  14   3  -7   13.41    5.14
  14   3  -6   11.51    3.72
  14  -3  -6   17.44    4.54
  14  -3  -6   17.76    5.91
  14   3  -6   16.90    4.85
  14   3  -5   28.77    6.07
  14  -3  -5   19.41    5.28
  14   3  -5   29.89    8.25
  14  -3  -5   19.65    5.72
  14   3  -5   12.54    3.81
  14   3  -4    8.57    4.01
  14   3  -4    1.38    1.92
  14  -3  -4    1.07    3.99
  14  -3  -4    3.89    3.72
  14   3  -4    7.32    3.77
  14   3  -3   25.19    6.36
  14   3  -3   23.28    5.66
  14  -3  -3   11.59    3.81
  14  -3  -3   21.26    6.66
  14   3  -3   24.38    6.10
  14  -3  -2  185.87   16.20
  14  -3  -2  162.78   16.10
  14   3  -2  195.25   15.88
  14   3  -2  197.31   16.35
  14   3  -2  171.55   14.98
  14   3  -1   39.98    7.44
  14  -3  -1   35.74    6.84
  14   3  -1   40.03    7.12
  14  -3  -1   39.76    7.84
  14   3  -1   23.04    6.11
  14  -3   0  137.67   13.79
  14  -3   0  164.84   15.55
  14   3   0  166.21   15.07
  14   3   0  158.45   14.35
  14   3   0  165.17   14.42
  14   3   1   24.43    4.87
  14   3   1   35.67    6.55
  14  -3   1   23.44    5.84
  14  -3   1   29.47    7.08
  14   3   1   29.34    6.87
  14  -3   2  171.55   15.62
  14  -3   2  176.67   16.09
  14   3   2  201.96   16.35
  14   3   2  210.69   16.75
  14   3   3   14.30    5.24
  14   3   3   18.81    5.23
  14  -3   3   23.03    6.14
  14  -3   3   19.63    6.20
  14   3   4    4.33    2.86
  14   3   4    5.33    1.38
  14  -3   4    0.67    1.42
  14  -3   4    3.09    2.94
  14   3   5   26.48    7.08
  14  -3   5   18.03    6.05
  14  -3   5   10.46    4.51
  14   3   6    7.01    2.10
  14   3   6   14.85    4.74
  14  -3   6   17.57    4.80
  14  -3   6   10.97    4.40
  14   3   7    2.29    1.78
  14   3   7    6.87    4.27
  14  -3   7    9.48    3.73
  14  -3   7    0.55    3.22
  14   3   8   -2.58    4.22
  14   3   8    1.73    3.49
  14  -3   8   -2.42    2.75
  14  -3   8   -0.33    3.17
  14   3   9    7.98    2.76
  14   3   9    2.01    1.71
  14  -3   9    8.01    3.30
  14  -3  10   49.16    8.72
  14   3  10   61.43    9.20
  14   3  10   65.37    9.75
  14   3  11   18.17    5.28
  14   3  11   14.41    4.16
  14  -3  11    6.66    3.25
  14   3  12    4.21    3.95
  14   3  12    6.31    3.04
  14  -3  12    5.84    3.80
  14   3  13   10.34    4.55
  14  -3  13    7.44    3.69
  14   3  14   13.62    5.31
  14  -3  14   10.44    5.04
  14   3  15   13.90    5.12
  14  -3  15   12.67    5.94
  14   3  16   22.60    7.10
  14  -3  16   23.20    6.00
  14   3  17    3.35    3.79
  14  -3  17   -4.42    3.90
  14   3  18    1.09    1.96
  14  -3  18    5.26    2.84
  14   3  19    9.46    4.67
  14  -3  19    2.91    2.37
  14   3  20    8.08    4.77
  14  -3  20    6.15    2.60
  14   3  21   -3.78    3.67
  14  -3  21   -2.61    2.36
  14  -4 -20   48.18    9.15
  14   4 -20   68.24   11.58
  14  -4 -19    0.06    2.42
  14   4 -19   -0.33    3.70
  14  -4 -18    6.42    2.96
  14   4 -18   12.64    5.98
  14  -4 -17   53.36    9.53
  14   4 -17   64.74    9.46
  14  -4 -16   57.85    9.97
  14   4 -16   58.25    9.89
  14  -4 -15   30.98    7.63
  14  -4 -15   32.37    7.39
  14   4 -15   16.19    6.02
  14  -4 -14   51.54    9.32
  14  -4 -14   51.63    9.29
  14   4 -14   58.05    9.17
  14  -4 -13    7.74    3.39
  14  -4 -13   12.94    5.22
  14   4 -13   15.34    4.87
  14  -4 -12   53.08    8.85
  14  -4 -12   45.68    9.08
  14   4 -12   53.65    8.30
  14  -4 -11   71.80   10.09
  14   4 -11  109.06   12.98
  14  -4 -11  106.82   12.95
  14   4 -10   44.28    8.11
  14  -4 -10   26.84    6.82
  14  -4 -10   42.62    8.54
  14  -4  -9   80.29   11.47
  14   4  -9   90.31   11.70
  14  -4  -9  101.65   12.61
  14  -4  -8   32.45    7.00
  14  -4  -8   23.92    6.56
  14   4  -8   45.45    8.05
  14   4  -7   12.60    5.22
  14  -4  -7    6.79    3.84
  14  -4  -7   10.00    4.07
  14  -4  -6   91.47   11.45
  14  -4  -6   97.54   11.99
  14   4  -6  113.98   12.60
  14   4  -5   41.85    7.68
  14   4  -5   32.35    6.16
  14  -4  -5   25.04    5.82
  14  -4  -5   35.32    7.21
  14  -4  -4   84.50   11.41
  14  -4  -4   86.62   11.78
  14   4  -4   87.96   11.14
  14   4  -4   86.80   11.30
  14  -4  -3   57.59    9.26
  14  -4  -3   74.74   11.07
  14   4  -3   53.57    8.64
  14   4  -3   67.67    9.70
  14   4  -2   13.73    5.40
  14   4  -2    9.65    3.49
  14  -4  -2   18.33    5.97
  14  -4  -2   14.41    5.29
  14   4  -1   28.20    6.62
  14   4  -1   25.29    6.24
  14  -4  -1   34.82    7.24
  14  -4  -1   40.44    8.74
  14  -4   0  592.83   29.28
  14  -4   0  586.07   30.45
  14   4   0  596.70   28.22
  14   4   0  586.54   28.38
  14   4   1   30.87    6.58
  14  -4   1   31.42    7.16
  14  -4   1   37.99    7.48
  14   4   1   48.05    9.12
  14   4   1   40.30    8.13
  14   4   2   19.29    5.43
  14   4   2   12.62    4.15
  14  -4   2   21.17    5.91
  14  -4   2   11.31    4.02
  14   4   3   40.68    7.06
  14  -4   3   58.90    9.31
  14  -4   3   74.32   10.51
  14   4   3   52.75    8.64
  14  -4   4   93.54   11.64
  14  -4   4   85.93   11.25
  14   4   4   96.06   11.31
  14   4   4   95.38   11.73
  14   4   5   31.81    6.18
  14   4   5   32.46    6.50
  14  -4   5   22.02    5.89
  14  -4   5   21.70    5.51
  14   4   6  121.68   13.20
  14  -4   6  106.38   12.82
  14  -4   6  110.21   13.34
  14   4   6  108.23   12.30
  14   4   7    6.06    2.88
  14   4   7   10.26    3.93
  14  -4   7   11.05    3.89
  14  -4   7   13.74    5.21
  14   4   8   31.62    6.56
  14  -4   8   43.94    8.78
  14   4   8   34.86    6.72
  14  -4   8   29.21    6.90
  14   4   9   88.98   11.04
  14  -4   9   90.17   12.15
  14  -4   9   81.45   11.31
  14   4   9   84.70   10.57
  14   4  10   35.45    7.92
  14   4  10   43.46    8.16
  14  -4  10   37.93    8.31
  14  -4  10   35.81    7.49
  14   4  11  114.23   13.15
  14  -4  11   79.22   11.64
  14  -4  11   74.18   11.03
  14   4  11  102.58   11.89
  14   4  12   64.30    9.88
  14   4  12   53.67    8.70
  14  -4  12   52.58    8.88
  14  -4  12   66.76   10.73
  14   4  13    8.48    4.40
  14   4  13   16.72    5.42
  14  -4  13    8.73    4.43
  14   4  14   46.60    8.82
  14  -4  14   40.40    8.63
  14   4  15   24.86    5.97
  14  -4  15   39.69    7.54
  14   4  16   46.63    8.98
  14  -4  16   34.06    7.45
  14  -4  17   67.77   11.51
  14   4  17   60.82    9.37
  14   4  18   10.06    3.64
  14  -4  18    5.74    4.43
  14   4  19    7.96    3.00
  14  -4  19    1.34    2.56
  14   4  20   48.30    8.85
  14  -4  20   54.74   10.84
  14  -5 -18    1.93    3.20
  14   5 -18    5.46    4.60
  14  -5 -17    5.63    4.61
  14   5 -17    4.85    4.19
  14  -5 -16    9.65    5.33
  14   5 -16    3.90    2.51
  14  -5 -16    4.45    4.21
  14  -5 -15   -4.96    2.68
  14  -5 -15   -1.75    3.38
  14   5 -15    2.21    2.91
  14  -5 -14    9.79    4.71
  14  -5 -14   10.51    3.82
  14   5 -14   15.28    5.05
  14   5 -13    4.99    3.79
  14  -5 -13   10.42    4.27
  14  -5 -13    4.37    3.63
  14   5 -12   19.95    5.42
  14  -5 -12   13.69    4.83
  14  -5 -12   18.53    5.56
  14   5 -11   26.95    5.96
  14  -5 -11   28.28    6.09
  14  -5 -11   20.13    5.38
  14   5 -10   15.49    5.81
  14  -5 -10    9.04    4.69
  14   5  -9   23.23    5.80
  14  -5  -9   15.13    4.60
  14  -5  -9   24.82    6.66
  14   5  -8    4.10    4.12
  14  -5  -8    5.09    2.85
  14  -5  -8   11.05    5.40
  14   5  -7   12.50    4.92
  14  -5  -7   17.95    5.80
  14  -5  -7   14.89    5.75
  14   5  -6    1.58    2.39
  14  -5  -6    1.37    2.59
  14  -5  -6   -1.97    4.14
  14   5  -5    5.28    2.93
  14  -5  -5    6.52    2.58
  14  -5  -5    1.24    3.34
  14   5  -4   13.84    4.99
  14  -5  -4    9.23    3.16
  14   5  -4   14.08    5.32
  14  -5  -4   22.35    6.87
  14   5  -3    7.91    3.39
  14   5  -3   11.72    5.06
  14  -5  -3    4.95    3.65
  14   5  -2   17.46    4.52
  14  -5  -2   19.04    5.78
  14   5  -2    8.24    3.15
  14  -5  -2   16.81    5.92
  14  -5  -1   61.58    9.57
  14  -5  -1   63.36   10.48
  14   5  -1   55.09    9.01
  14   5  -1   68.65   10.01
  14  -5   0  126.51   13.96
  14  -5   0  123.34   14.56
  14   5   0  117.06   12.63
  14   5   0  122.04   13.09
  14   5   1   80.59   10.28
  14  -5   1   58.76    9.76
  14  -5   1   56.72    9.50
  14   5   1   76.13   10.52
  14   5   2   15.24    5.40
  14  -5   2   11.72    4.84
  14   5   2   23.00    5.96
  14  -5   2   16.35    6.42
  14   5   3    8.26    3.89
  14  -5   3    5.23    3.26
  14   5   3   13.24    4.63
  14  -5   3   15.17    6.00
  14   5   4    9.31    5.45
  14  -5   4    8.52    1.56
  14   5   4   18.81    5.23
  14   5   5   -2.18    3.33
  14  -5   5    3.69    4.13
  14   5   5    2.42    2.81
  14  -5   5    1.82    3.77
  14   5   6   -2.80    3.27
  14  -5   6   -3.67    3.28
  14   5   6   -0.51    2.04
  14  -5   6   -2.15    2.82
  14   5   7    7.53    4.23
  14  -5   7    9.32    3.80
  14   5   7   12.69    4.55
  14  -5   7   15.29    4.47
  14   5   8    1.31    2.54
  14  -5   8    2.62    1.78
  14   5   8    6.60    3.48
  14  -5   8   -2.02    2.55
  14   5   9   23.79    6.76
  14  -5   9   19.41    6.97
  14   5   9   21.33    5.86
  14  -5   9   27.39    6.14
  14   5  10   16.98    4.41
  14  -5  10   12.57    5.51
  14   5  10   13.37    4.80
  14  -5  10   12.62    5.63
  14   5  11   12.32    2.92
  14  -5  11   14.19    5.14
  14  -5  11   22.72    7.02
  14   5  12   15.71    6.00
  14  -5  12   23.63    6.26
  14   5  12   24.12    6.31
  14  -5  12   21.48    6.40
  14   5  13    3.56    3.81
  14  -5  13    4.25    3.77
  14   5  13   12.23    3.88
  14  -5  13    3.01    2.61
  14  -5  14   11.92    3.96
  14   5  14    8.76    3.33
  14  -5  14    7.20    2.80
  14  -5  15    1.01    2.10
  14   5  15    4.84    4.14
  14  -5  15   -0.30    3.35
  14  -5  16    4.14    3.85
  14   5  16    6.81    4.81
  14  -5  16    4.62    3.87
  14  -5  17    8.31    4.77
  14   5  17    5.30    2.67
  14  -5  17    3.85    4.80
  14  -5  18    1.18    4.15
  14   5  18    0.13    2.81
  14   6 -16   52.16    9.51
  14  -6 -16   55.40   10.14
  14  -6 -16   42.75    9.18
  14   6 -15    6.78    3.82
  14  -6 -15    6.95    4.51
  14  -6 -15    8.87    5.05
  14   6 -14    6.79    3.10
  14  -6 -14    4.52    3.04
  14  -6 -14    5.96    3.72
  14  -6 -13   18.25    5.05
  14   6 -13   13.13    4.63
  14  -6 -13   15.10    5.24
  14   6 -12   50.36    8.70
  14  -6 -12   39.38    8.10
  14  -6 -12   48.23    9.87
  14   6 -11   21.74    5.49
  14  -6 -11   18.09    6.39
  14  -6 -11   17.61    5.05
  14  -6 -10  125.51   14.27
  14  -6 -10  108.59   13.53
  14   6 -10  114.71   13.78
  14   6  -9   34.23    7.52
  14  -6  -9   17.24    4.39
  14  -6  -9   34.69    7.54
  14   6  -8   13.90    5.05
  14  -6  -8   23.99    6.03
  14  -6  -8   13.19    5.66
  14   6  -7   31.02    7.19
  14  -6  -7   13.93    4.38
  14  -6  -7   28.84    6.67
  14  -6  -6  140.48   15.59
  14  -6  -6  145.97   15.59
  14   6  -6  147.61   14.82
  14   6  -5    0.31    2.26
  14  -6  -5    1.46    2.46
  14  -6  -5    4.47    2.18
  14  -6  -4  105.98   13.65
  14  -6  -4  120.98   13.79
  14   6  -4  101.35   12.20
  14   6  -3   50.36    8.04
  14  -6  -3   45.39    8.54
  14  -6  -3   33.13    6.99
  14   6  -2   36.04    7.82
  14  -6  -2   38.41    7.86
  14   6  -2   40.70    7.92
  14  -6  -2   37.01    7.96
  14  -6  -1   53.67    8.89
  14   6  -1   58.45    9.69
  14   6  -1   45.11    8.50
  14  -6  -1   53.66    9.47
  14   6   0  270.30   19.62
  14  -6   0  281.66   20.83
  14   6   0  261.26   19.87
  14  -6   0  284.57   21.80
  14  -6   1   49.81    8.70
  14   6   1   54.00    9.39
  14   6   1   43.50    8.33
  14  -6   1   53.14    9.86
  14   6   2   37.02    7.60
  14  -6   2   40.77    7.66
  14   6   2   46.32    8.12
  14  -6   2   28.41    7.00
  14   6   3   47.54    8.45
  14   6   3   56.79    9.05
  14  -6   3   49.85    8.67
  14  -6   3   33.79    7.12
  14   6   4  103.24   12.92
  14  -6   4  132.38   14.36
  14   6   4  116.80   13.23
  14  -6   4   94.47   12.97
  14   6   5    2.50    4.15
  14  -6   5    8.35    5.09
  14   6   5    3.60    2.36
  14  -6   5    1.37    3.05
  14   6   6  137.26   14.67
  14  -6   6  146.70   15.10
  14   6   6  140.70   14.93
  14  -6   6  172.39   17.42
  14   6   7   15.48    6.87
  14  -6   7   20.44    5.98
  14   6   7   22.94    6.51
  14  -6   7   40.71    9.36
  14   6   8   12.20    3.96
  14  -6   8   -1.34    3.29
  14   6   8   14.01    4.67
  14  -6   8   12.15    5.24
  14   6   9   29.66    6.53
  14  -6   9   34.34    7.14
  14   6   9   26.61    6.45
  14  -6   9   20.18    6.77
  14   6  10   87.51   11.84
  14  -6  10   82.65   11.92
  14   6  10  112.52   12.95
  14   6  11   20.78    5.34
  14  -6  11   25.03    6.60
  14   6  11   25.22    6.65
  14  -6  11    9.06    5.74
  14   6  12   51.66    9.71
  14  -6  12   43.11    8.81
  14   6  12   33.87    6.99
  14  -6  12   40.64    8.55
  14   6  13    9.06    5.37
  14  -6  13    2.56    5.46
  14   6  13    4.76    2.42
  14  -6  13    8.83    6.09
  14  -6  14    8.49    5.50
  14   6  14    2.78    2.25
  14  -6  14    4.65    3.60
  14  -6  15    4.43    5.08
  14   6  15    5.51    3.37
  14  -6  15    0.46    4.28
  14  -6  16   26.05    8.36
  14   6  16   42.83    9.05
  14  -6  16   52.70   10.32
  14   7 -13    4.54    3.87
  14  -7 -13    5.18    2.66
  14   7 -12    6.88    4.41
  14  -7 -12    9.71    4.81
  14  -7 -12   19.27    5.41
  14  -7 -11    6.14    4.02
  14   7 -11    9.41    3.24
  14  -7 -11    6.28    3.63
  14  -7 -10    5.02    3.44
  14   7 -10    8.95    4.90
  14  -7 -10    6.83    4.72
  14  -7  -9   -1.74    3.02
  14   7  -9   -0.75    2.85
  14  -7  -9    5.16    4.32
  14  -7  -8    8.50    4.36
  14   7  -8   21.12    6.22
  14  -7  -8   16.56    6.35
  14  -7  -7    6.77    4.20
  14   7  -7    1.62    2.49
  14  -7  -7    1.48    2.73
  14   7  -6   38.77    8.27
  14  -7  -6   20.73    6.58
  14  -7  -6   30.22    7.74
  14   7  -5   18.10    5.89
  14  -7  -5   26.73    7.01
  14  -7  -5   21.53    6.14
  14   7  -4    3.65    3.12
  14  -7  -4    6.55    3.91
  14  -7  -4    7.16    5.52
  14   7  -3   15.19    5.21
  14  -7  -3   16.59    6.20
  14  -7  -3   17.68    7.34
  14   7  -2   23.30    6.31
  14  -7  -2   24.17    6.44
  14  -7  -2   24.23    6.33
  14   7  -1   -0.14    2.19
  14  -7  -1    0.64    1.62
  14   7  -1   -1.12    4.40
  14  -7  -1    3.11    4.48
  14   7   0   46.68    9.62
  14  -7   0   55.50    9.16
  14   7   0   56.48    9.21
  14  -7   0   72.71   12.02
  14   7   1   -1.50    3.37
  14  -7   1   -0.76    2.88
  14   7   1   -1.68    3.88
  14  -7   1    0.56    3.25
  14   7   2   32.29    6.97
  14  -7   2   21.13    6.31
  14   7   2   33.58    7.57
  14  -7   2   17.17    4.66
  14   7   3   27.18    6.79
  14  -7   3   11.41    4.65
  14   7   3   14.05    5.23
  14  -7   3   20.84    6.54
  14   7   4   10.53    3.66
  14  -7   4    4.18    1.96
  14   7   4    3.27    3.01
  14  -7   4    9.32    4.62
  14   7   5   20.32    6.05
  14  -7   5    8.87    3.91
  14   7   5   25.99    6.30
  14  -7   5   19.20    7.48
  14   7   6   35.83    7.96
  14  -7   6   28.00    7.32
  14   7   6   36.48    8.39
  14  -7   6   32.23    7.31
  14   7   7    1.43    2.52
  14  -7   7   12.72    5.05
  14   7   7    7.11    4.16
  14  -7   7    1.82    5.21
  14   7   8   25.77    7.00
  14  -7   8   17.56    4.04
  14   7   8   21.62    6.53
  14  -7   8   18.85    5.72
  14   7   9    2.35    3.80
  14  -7   9   -4.55    2.01
  14   7   9    2.99    3.03
  14  -7   9    1.35    4.40
  14   7  10    2.33    3.65
  14  -7  10    1.60    3.70
  14   7  10   -0.89    2.92
  14  -7  10   -5.11    6.31
  14   7  11    4.39    3.78
  14  -7  11   15.15    4.92
  14   7  11    5.54    2.62
  14  -7  11   10.55    4.37
  14   7  12    8.21    5.24
  14  -7  12    3.27    2.87
  14   7  12   20.74    5.98
  14  -7  12   25.78    8.17
  14   7  13    8.47    2.91
  14  -7  13    5.14    4.69
  14   7  13   17.11    5.10
  14  -7  13    5.04    3.51
  14  -8  -8   17.59    5.74
  14   8  -8   14.75    4.82
  14  -8  -8   14.45    5.19
  14  -8  -7    5.07    3.46
  14   8  -7    7.69    4.58
  14  -8  -7    7.08    3.42
  14  -8  -6   17.02    5.06
  14   8  -6   18.12    6.25
  14  -8  -6   10.15    3.77
  14  -8  -5    1.52    3.10
  14   8  -5    1.55    3.36
  14  -8  -5    1.84    4.31
  14  -8  -4   35.82    8.16
  14   8  -4   42.37    8.47
  14  -8  -4   42.68    7.90
  14  -8  -3    8.31    2.88
  14   8  -3   16.46    5.28
  14  -8  -3   10.98    5.63
  14  -8  -2   11.13    5.75
  14   8  -2    1.91    2.36
  14  -8  -2    6.60    4.20
  14  -8  -1   15.96    5.68
  14   8  -1   13.58    4.24
  14  -8  -1   21.68    7.01
  14  -8   0   -1.00    3.15
  14   8   0    2.77    3.55
  14  -8   0    4.89    2.57
  14  -8   1   18.66    4.71
  14   8   1    9.11    4.84
  14   8   1    9.70    4.78
  14  -8   2    4.91    2.51
  14   8   2    4.13    3.99
  14   8   2    3.23    2.34
  14  -8   2    3.94    4.27
  14   8   3    4.38    3.93
  14  -8   3   15.23    4.25
  14  -8   3    6.47    4.06
  14   8   3    9.15    2.32
  14   8   4   37.28    8.12
  14  -8   4   25.55    6.71
  14  -8   4   50.58    9.78
  14   8   4   38.94    8.60
  14   8   5   -4.22    4.56
  14  -8   5    4.79    4.66
  14  -8   5    3.56    3.43
  14   8   5   -3.46    4.06
  14   8   6   21.25    6.25
  14  -8   6   29.60    7.88
  14  -8   6   23.11    8.08
  14   8   6   21.72    5.95
  14  -8   7    3.29    3.10
  14  -8   7    4.39    3.75
  14   8   7    0.82    1.90
  14   8   8   14.31    5.65
  14  -8   8   17.12    5.42
  14  -8   8   19.26    5.57
  14   8   8   21.15    6.19
  15   0 -19   17.30    8.80
  15   0 -18   -2.93    2.86
  15   0 -17   -0.33    2.06
  15   0 -16    6.32    3.90
  15   0 -15   -1.88    2.69
  15   0 -14    1.12    2.59
  15   0 -13    2.18    2.93
  15   0 -12   -1.48    4.23
  15   0 -11    0.08    2.95
  15   0 -10    2.89    4.35
  15   0 -10   -2.11    4.20
  15   0  -9   -1.51    2.73
  15   0  -9   -1.05    3.74
  15   0  -8    2.46    3.98
  15   0  -8    0.11    2.66
  15   0  -7    1.43    3.10
  15   0  -7    1.67    3.59
  15   0  -6    2.03    3.75
  15   0  -6   -0.64    2.55
  15   0  -5   -2.08    2.86
  15   0  -5   -1.10    4.28
  15   0  -4    1.55    1.83
  15   0  -4   -0.24    3.78
  15   0  -3    1.22    2.96
  15   0  -3   -0.82    3.92
  15   0  -2    0.22    1.69
  15   0  -2   -0.39    2.88
  15   0  -1   -1.96    2.91
  15   0  -1    0.03    1.67
  15   0   0    1.10    1.74
  15   0   0    0.43    2.05
  15   0   1    0.01    1.48
  15   0   1   -1.55    3.53
  15   0   2   -0.83    1.90
  15   0   2    1.60    3.93
  15   0   3    0.89    2.53
  15   0   3   -0.82    1.82
  15   0   4   -1.67    2.06
  15   0   4   -1.04    3.16
  15   0   5   -0.97    2.38
  15   0   6   -0.96    1.58
  15   0   7    0.07    2.26
  15   0   8    1.22    2.24
  15   0   9   -2.15    3.32
  15   0  10   -0.01    1.81
  15   0  11    0.75    2.06
  15   0  12    1.80    2.37
  15   0  13    1.49    2.49
  15   0  14   -2.39    3.16
  15   0  15    3.82    3.89
  15   0  16    2.46    1.98
  15   0  17   -0.81    3.19
  15   0  18    5.28    3.67
  15   0  19   -2.75    2.90
  15   0  20    1.08    3.41
  15   0  21    5.02    5.79
  15  -1 -21    3.40    3.07
  15  -1 -20   -0.93    3.10
  15  -1 -19   13.23    4.14
  15  -1 -18    3.22    4.07
  15  -1 -17   50.48    9.91
  15  -1 -16   23.20    5.89
  15  -1 -15    7.21    3.96
  15   1 -14   16.78    5.40
  15  -1 -14   22.86    6.60
  15   1 -13  188.54   17.04
  15  -1 -13  208.12   18.13
  15   1 -12   31.33    6.98
  15  -1 -12   34.55    8.03
  15  -1 -11   -0.18    2.28
  15  -1 -11    3.21    4.13
  15   1 -11    6.23    4.14
  15  -1 -10   21.49    6.41
  15  -1 -10   35.58    7.96
  15   1 -10   27.93    6.88
  15  -1  -9   14.15    4.52
  15   1  -9    1.19    3.44
  15  -1  -9   11.29    4.06
  15   1  -9    7.88    3.59
  15   1  -9    4.22    2.04
  15  -1  -8   42.29    8.10
  15   1  -8   34.99    6.78
  15  -1  -8   47.59    8.61
  15   1  -8   25.52    6.96
  15   1  -8   55.93    8.61
  15  -1  -7  135.28   13.66
  15   1  -7  129.03   13.50
  15  -1  -7  127.45   14.15
  15   1  -7  136.65   14.58
  15   1  -7  111.13   12.60
  15  -1  -6   11.86    4.48
  15   1  -6    5.14    2.41
  15  -1  -6   14.36    4.35
  15   1  -6   13.31    5.12
  15   1  -6    6.67    3.12
  15  -1  -5   49.88    8.72
  15  -1  -5   44.95    9.08
  15   1  -5   51.90    8.80
  15   1  -5   37.59    6.94
  15   1  -5   31.57    7.19
  15  -1  -4   61.35    9.09
  15   1  -4   55.21    8.33
  15  -1  -4   59.57    9.48
  15   1  -4   59.28    9.57
  15   1  -4   44.92    8.14
  15  -1  -3   82.34   10.69
  15   1  -3   98.51   11.70
  15  -1  -3   88.32   11.56
  15   1  -3   77.76   10.52
  15   1  -3   91.31   10.89
  15  -1  -2    4.82    3.32
  15  -1  -2    6.42    1.62
  15   1  -2    9.53    4.79
  15   1  -2    8.35    3.39
  15   1  -2    7.49    3.62
  15  -1  -1    6.69    4.30
  15  -1  -1   -0.77    2.53
  15   1  -1    1.48    2.00
  15   1  -1    0.47    2.10
  15   1  -1   -0.68    2.32
  15  -1   0   -0.38    1.73
  15  -1   0   -1.65    1.97
  15   1   0   -1.73    1.97
  15   1   0    2.60    2.38
  15   1   0   -0.69    1.68
  15  -1   1    0.95    1.75
  15  -1   1    1.29    2.52
  15   1   1    2.43    3.25
  15   1   1    1.05    2.95
  15   1   1    4.59    3.32
  15  -1   2    1.99    2.00
  15  -1   2   12.19    5.43
  15   1   2    5.88    2.90
  15   1   2    6.34    2.54
  15   1   2    7.27    3.00
  15  -1   3   81.50   10.42
  15   1   3   73.42    9.94
  15  -1   3   80.30   11.05
  15   1   3   80.71   11.13
  15   1   3   91.85   10.58
  15  -1   4   56.00    8.71
  15   1   4   67.04    9.48
  15  -1   4   59.96    9.64
  15   1   4   60.11    9.47
  15  -1   5   44.41    8.27
  15   1   5   37.34    7.39
  15  -1   5   46.37    8.45
  15   1   5   55.25    8.48
  15  -1   6    8.48    3.84
  15  -1   6    3.93    4.08
  15   1   6    0.62    2.03
  15  -1   7  146.34   14.50
  15   1   7  137.39   14.12
  15   1   7  124.50   12.96
  15  -1   8   55.38    9.01
  15   1   8   44.29    8.19
  15   1   8   38.15    7.28
  15   1   9    5.82    3.79
  15  -1   9    2.72    3.59
  15   1   9   10.51    3.49
  15   1  10   17.66    5.74
  15  -1  10   21.16    5.41
  15   1  10   17.54    6.08
  15   1  11    2.88    2.39
  15  -1  11    6.05    3.82
  15   1  11    5.15    3.25
  15   1  12   35.07    7.08
  15  -1  12   33.83    7.45
  15  -1  13  210.36   18.04
  15   1  13  220.69   18.48
  15   1  14   28.88    6.13
  15  -1  14   19.97    5.67
  15   1  15    9.66    4.45
  15  -1  15   12.23    5.09
  15   1  16   37.14    7.44
  15  -1  16   39.04    8.07
  15  -1  17   58.85    9.66
  15   1  17   62.95   10.65
  15   1  18    9.39    5.39
  15  -1  18    3.76    2.63
  15   1  19    8.21    4.70
  15  -1  19   30.43    7.22
  15   1  20   -0.34    2.67
  15  -1  20    1.52    3.65
  15   1  21    0.02    3.42
  15  -1  21   -3.90    5.10
  15  -2 -20    1.57    3.02
  15  -2 -19   10.68    4.65
  15  -2 -18   10.47    4.68
  15  -2 -17    0.84    3.24
  15  -2 -16   26.06    7.33
  15  -2 -15   18.13    6.48
  15  -2 -14   13.87    4.98
  15  -2 -13   58.34    9.19
  15   2 -13   51.66    8.61
  15  -2 -12    7.20    3.98
  15  -2 -12    3.95    3.88
  15   2 -12    1.62    1.58
  15  -2 -11    9.75    4.86
  15  -2 -11    8.18    5.40
  15   2 -11    6.38    3.98
  15  -2 -10   15.36    5.32
  15  -2 -10   16.28    5.85
  15   2 -10   19.54    5.90
  15  -2  -9    3.58    3.01
  15  -2  -9   16.01    4.66
  15   2  -9    8.92    3.77
  15   2  -9    8.58    3.66
  15  -2  -8    8.83    2.27
  15  -2  -8    3.32    2.54
  15   2  -8   10.03    4.27
  15   2  -8    6.17    3.84
  15  -2  -7   11.85    4.07
  15   2  -7   23.77    5.72
  15  -2  -7   23.26    5.39
  15   2  -7   14.56    4.73
  15   2  -7   16.60    5.26
  15  -2  -6    4.99    4.14
  15  -2  -6    6.55    2.75
  15   2  -6    8.36    3.84
  15   2  -6    5.10    1.95
  15   2  -6    9.53    4.53
  15  -2  -5   11.33    3.79
  15  -2  -5   15.06    5.39
  15   2  -5   16.24    5.27
  15   2  -5   24.78    6.41
  15   2  -5    7.68    3.87
  15  -2  -4   15.14    5.04
  15  -2  -4   10.57    4.36
  15   2  -4    1.63    3.28
  15   2  -4    9.97    3.25
  15   2  -4    9.72    4.86
  15  -2  -3   -0.64    2.73
  15  -2  -3    1.46    2.83
  15   2  -3    1.70    2.74
  15   2  -3    1.11    1.75
  15   2  -3   -0.19    2.40
  15  -2  -2   -2.45    1.95
  15  -2  -2    4.13    3.36
  15   2  -2    2.55    2.27
  15   2  -2    5.81    3.25
  15   2  -2    2.38    1.87
  15  -2  -1    1.14    2.20
  15  -2  -1    4.92    3.47
  15   2  -1    5.80    3.00
  15   2  -1    2.63    1.82
  15   2  -1    2.32    1.65
  15   2   0    5.77    4.49
  15  -2   0    1.93    2.28
  15  -2   0    0.39    3.25
  15   2   0    3.44    3.57
  15   2   0    0.41    1.97
  15   2   1    5.94    3.13
  15  -2   1    1.77    3.00
  15  -2   1    3.08    1.70
  15   2   1    3.18    2.11
  15   2   1    2.98    2.68
  15   2   2    3.25    2.70
  15  -2   2    2.66    1.65
  15  -2   2   -0.48    2.96
  15   2   2    0.39    2.18
  15   2   2    4.69    3.33
  15   2   3   -0.53    3.38
  15  -2   3    1.02    2.40
  15  -2   3   -1.28    2.83
  15   2   3   -0.06    2.22
  15   2   3    3.58    3.15
  15   2   4    6.74    2.99
  15  -2   4    6.37    3.71
  15  -2   4   10.33    5.50
  15   2   4   16.12    4.92
  15   2   5   20.01    6.04
  15  -2   5   13.60    3.97
  15  -2   5   21.04    6.02
  15   2   5   17.12    5.47
  15   2   6   11.96    4.72
  15  -2   6   10.95    4.50
  15  -2   6   11.71    5.17
  15   2   6    8.17    3.56
  15   2   7   23.67    6.76
  15  -2   7   24.45    6.57
  15  -2   7   14.37    3.90
  15   2   7   22.14    5.79
  15   2   8    4.76    3.18
  15  -2   8   10.36    4.97
  15  -2   8    9.12    5.46
  15   2   8    4.02    3.87
  15   2   9    9.21    4.28
  15  -2   9    7.48    4.32
  15   2   9    8.02    3.76
  15   2  10   14.12    5.00
  15  -2  10   25.82    6.43
  15   2  10   24.47    6.42
  15   2  11    7.81    3.77
  15  -2  11    8.70    3.90
  15   2  11    9.31    4.53
  15   2  12    8.99    5.23
  15  -2  12    3.14    2.29
  15  -2  13   41.88    8.18
  15   2  13   48.04    8.98
  15   2  14   19.28    5.68
  15  -2  14   18.78    4.78
  15   2  15   15.08    5.43
  15  -2  15   18.32    6.01
  15   2  16   21.65    6.44
  15  -2  16   13.05    5.50
  15   2  17    2.74    2.47
  15  -2  17    2.07    3.39
  15   2  18    6.92    4.21
  15  -2  18   13.22    5.15
  15   2  19   13.56    5.28
  15  -2  19   12.82    5.67
  15   2  20   -0.12    2.32
  15  -2  20    2.27    3.81
  15  -3 -19    5.67    4.00
  15  -3 -18   38.21    8.49
  15  -3 -17   90.00   12.72
  15   3 -17   68.93   10.43
  15  -3 -16    8.98    4.18
  15   3 -16   15.16    5.30
  15  -3 -15   12.24    4.02
  15   3 -15    1.70    2.33
  15  -3 -14   17.23    4.78
  15   3 -14   20.13    5.86
  15  -3 -13    7.14    4.66
  15  -3 -13    9.02    4.85
  15   3 -13    5.62    3.18
  15  -3 -12   86.96   12.22
  15   3 -12   61.81    9.71
  15  -3 -12   71.07   11.44
  15  -3 -11   29.74    7.52
  15  -3 -11   29.96    7.04
  15   3 -11   28.78    6.95
  15  -3 -10    0.62    2.40
  15  -3 -10    3.81    2.35
  15   3 -10    2.25    3.42
  15  -3  -9   17.76    5.52
  15  -3  -9   19.26    6.71
  15   3  -9   12.92    4.77
  15  -3  -8   24.15    6.29
  15  -3  -8   36.50    7.76
  15   3  -8   40.44    7.88
  15  -3  -7   19.27    6.55
  15  -3  -7   19.48    5.46
  15   3  -7   25.66    5.87
  15  -3  -6   45.55    7.92
  15  -3  -6   43.57    8.11
  15   3  -6   31.07    6.36
  15   3  -6   34.02    7.03
  15  -3  -5   31.46    7.12
  15  -3  -5   26.42    6.57
  15   3  -5   33.82    7.16
  15   3  -5   19.61    5.66
  15   3  -4   28.19    6.20
  15  -3  -4   20.94    5.92
  15  -3  -4   29.99    7.31
  15   3  -4   27.81    5.82
  15  -3  -3  121.80   13.65
  15   3  -3  141.50   14.06
  15  -3  -3  103.21   13.34
  15   3  -3  139.97   14.81
  15   3  -3  121.21   13.22
  15   3  -2   31.93    6.80
  15  -3  -2   26.34    6.83
  15  -3  -2   19.71    6.04
  15   3  -2   34.81    7.49
  15   3  -2   37.74    8.25
  15  -3  -1   40.80    7.34
  15   3  -1   41.49    7.57
  15  -3  -1   42.24    8.51
  15   3  -1   33.07    7.17
  15   3  -1   52.04    8.49
  15  -3   0   67.80   10.26
  15  -3   0   62.08   10.19
  15   3   0   73.34    9.77
  15   3   0   64.40    9.47
  15   3   0   63.18    9.50
  15   3   1   35.55    6.73
  15  -3   1   38.23    7.84
  15   3   1   35.40    7.41
  15   3   1   47.18    8.96
  15  -3   1   32.64    7.89
  15   3   2   32.30    6.78
  15   3   2   32.59    6.58
  15  -3   2   40.24    7.92
  15  -3   2   33.94    7.54
  15   3   2   28.40    6.98
  15  -3   3  113.98   13.19
  15  -3   3  118.26   13.26
  15   3   3  133.28   13.50
  15   3   3  129.52   13.51
  15   3   4   25.09    5.80
  15   3   4   21.26    5.22
  15  -3   4   24.85    6.40
  15  -3   4   21.26    6.55
  15   3   5   24.75    6.31
  15   3   5   28.07    6.69
  15  -3   5   25.78    6.76
  15  -3   5   37.30    7.80
  15   3   6   35.86    7.30
  15  -3   6   39.43    7.04
  15   3   6   43.31    8.59
  15   3   7   28.84    6.15
  15   3   7   35.16    7.22
  15  -3   7   24.24    6.55
  15  -3   7   21.35    6.01
  15   3   8   26.06    6.43
  15   3   8   29.65    6.72
  15  -3   8   28.17    6.93
  15  -3   8   33.20    7.49
  15   3   9   21.69    5.75
  15   3   9   29.78    6.69
  15  -3   9   26.43    6.61
  15  -3   9   12.37    5.06
  15   3  10    9.33    4.64
  15   3  10    0.53    1.91
  15  -3  10    3.41    3.94
  15  -3  10    7.12    4.72
  15   3  11   18.99    6.16
  15   3  11   22.51    6.12
  15  -3  11   28.92    6.74
  15  -3  12   79.74   11.22
  15   3  12   82.51   11.13
  15   3  12   69.15   10.35
  15   3  13   11.62    4.17
  15  -3  13   16.69    5.43
  15   3  14   17.23    4.48
  15  -3  14   21.76    4.98
  15   3  15    2.87    2.05
  15  -3  15   10.14    4.84
  15   3  16    8.96    4.76
  15  -3  16    8.11    4.26
  15  -3  17   70.01   11.50
  15   3  17   67.52   10.89
  15   3  18   47.35    8.66
  15  -3  18   42.87    7.93
  15   3  19    3.67    3.36
  15  -3  19    5.61    3.10
  15  -4 -18   17.27    4.52
  15   4 -18    5.88    4.67
  15  -4 -17   12.87    4.93
  15   4 -17   17.60    6.55
  15  -4 -16   25.64    7.63
  15   4 -16   20.51    5.60
  15  -4 -15   28.41    6.72
  15   4 -15   34.19    6.99
  15  -4 -14   25.42    6.12
  15  -4 -14   29.56    6.58
  15   4 -14   29.06    7.80
  15  -4 -13   39.71    8.30
  15  -4 -13   37.36    7.69
  15   4 -13   39.63    8.42
  15  -4 -12    2.28    2.66
  15  -4 -12    1.13    2.13
  15   4 -12    7.98    3.72
  15  -4 -11   37.22    7.96
  15  -4 -11   50.57    9.14
  15   4 -11   35.59    7.93
  15  -4 -10   16.28    4.72
  15  -4 -10   15.49    5.20
  15   4 -10   11.74    4.84
  15  -4  -9   15.77    5.36
  15  -4  -9   15.87    5.43
  15   4  -8   42.93    7.92
  15  -4  -8   58.45    9.86
  15  -4  -8   41.84    8.49
  15  -4  -7   37.87    7.70
  15  -4  -7   42.51    8.66
  15   4  -7   47.68    8.30
  15   4  -6    5.81    4.09
  15  -4  -6    9.77    4.27
  15  -4  -6    8.51    3.41
  15   4  -5   31.50    7.10
  15  -4  -5   25.92    6.60
  15   4  -5   48.02    9.30
  15  -4  -5   26.67    6.79
  15   4  -4   19.17    5.33
  15   4  -4   15.40    4.84
  15  -4  -4   12.45    4.29
  15  -4  -4   12.41    5.22
  15   4  -3    8.82    3.23
  15   4  -3    8.13    2.87
  15  -4  -3   12.43    5.39
  15  -4  -3   10.32    2.77
  15   4  -2    1.99    2.80
  15   4  -2    1.13    2.51
  15  -4  -2    2.93    1.77
  15  -4  -2    2.14    4.49
  15   4  -1   22.64    6.50
  15   4  -1   18.97    5.54
  15  -4  -1   12.98    4.76
  15  -4  -1   19.38    5.99
  15   4   0   19.68    4.92
  15   4   0   18.46    6.11
  15  -4   0   26.44    6.64
  15  -4   0   21.31    6.25
  15   4   1   23.07    6.97
  15   4   1   17.82    5.54
  15  -4   1   11.19    4.73
  15  -4   1   14.26    6.11
  15   4   2    4.83    2.83
  15   4   2    0.89    1.95
  15  -4   2    3.26    3.59
  15  -4   2    3.67    3.26
  15   4   3   13.63    4.23
  15   4   3    6.45    3.22
  15  -4   3   10.24    4.53
  15  -4   3   14.08    5.54
  15   4   4    7.86    3.59
  15   4   4   24.03    6.53
  15  -4   4   10.49    5.64
  15  -4   4   22.23    5.97
  15   4   5   27.07    6.25
  15   4   5   35.89    7.52
  15  -4   5   30.69    7.52
  15  -4   5   31.01    7.76
  15   4   6   31.21    7.11
  15   4   6   16.88    6.72
  15  -4   6   17.52    4.49
  15  -4   6   16.75    5.92
  15  -4   7   38.39    8.01
  15  -4   7   43.27    9.24
  15   4   7   63.11    9.93
  15   4   7   46.12    8.50
  15   4   8   51.56    8.84
  15   4   8   35.07    7.37
  15  -4   8   45.90    8.48
  15  -4   8   37.50    8.85
  15   4   9   24.10    5.74
  15   4   9   23.61    5.75
  15  -4   9   30.08    7.34
  15  -4   9   32.74    7.72
  15   4  10   11.04    5.33
  15   4  10   17.42    5.46
  15  -4  10   13.83    5.07
  15  -4  10   14.58    4.42
  15   4  11   41.01    8.45
  15   4  11   38.86    7.86
  15  -4  11   45.33    9.31
  15  -4  11   40.31    9.14
  15   4  12    2.58    2.47
  15   4  12    6.75    3.89
  15  -4  12    2.37    2.68
  15  -4  12    4.11    3.43
  15   4  13   23.75    7.24
  15  -4  13   38.06    8.03
  15  -4  13   49.94   10.43
  15   4  14   28.61    6.83
  15  -4  14   50.88    9.51
  15  -4  14   42.22    9.30
  15   4  15   30.36    7.05
  15  -4  15   21.54    6.14
  15   4  16   25.65    7.20
  15  -4  16   20.32    5.77
  15   4  17   22.55    6.80
  15  -4  17   19.90    6.29
  15   4  18    7.35    3.74
  15  -4  18    8.47    4.91
  15  -5 -16   16.14    5.31
  15   5 -16   11.63    4.81
  15  -5 -15   17.61    5.09
  15  -5 -15   24.64    6.86
  15   5 -15    9.66    3.73
  15  -5 -14   10.76    5.10
  15  -5 -14   28.29    7.35
  15   5 -14   15.54    5.40
  15  -5 -13   30.32    7.37
  15  -5 -13   37.50    8.06
  15   5 -13   54.60    9.39
  15   5 -12   15.27    5.66
  15  -5 -12    6.29    3.67
  15  -5 -12    7.47    4.47
  15   5 -11   16.51    5.48
  15  -5 -11   17.64    5.54
  15  -5 -11   11.92    4.48
  15   5 -10   34.80    7.71
  15  -5 -10   30.77    7.31
  15  -5 -10   37.09    8.13
  15  -5  -9  100.60   12.95
  15   5  -9   94.12   12.20
  15  -5  -9   92.63   12.61
  15   5  -8   21.70    6.67
  15  -5  -8   14.95    4.15
  15  -5  -8   12.77    4.16
  15   5  -7   28.24    6.85
  15  -5  -7   20.94    6.79
  15  -5  -7   21.90    6.34
  15   5  -6   29.96    6.11
  15  -5  -6   23.57    6.41
  15  -5  -6   30.03    7.75
  15   5  -5    9.29    4.18
  15  -5  -5   13.19    5.30
  15  -5  -5   10.18    5.88
  15   5  -4   21.38    4.76
  15  -5  -4   29.91    6.67
  15  -5  -4   24.34    6.27
  15  -5  -3   85.88   11.44
  15  -5  -3   94.16   13.13
  15   5  -3   58.22    9.29
  15   5  -3   76.47   10.48
  15   5  -2    3.51    3.30
  15   5  -2    5.04    4.40
  15  -5  -2    1.83    2.54
  15  -5  -2   -1.52    2.14
  15  -5  -1  104.75   12.78
  15  -5  -1   90.94   12.39
  15   5  -1   79.94   10.82
  15   5  -1   82.67   11.22
  15  -5   0   75.01   10.50
  15  -5   0  117.10   13.66
  15   5   0   90.31   11.58
  15   5   0   92.53   11.90
  15  -5   1   91.13   12.28
  15  -5   1  101.77   13.04
  15   5   1   86.99   11.72
  15   5   1   75.79   10.68
  15   5   2    2.67    2.69
  15   5   2   -1.13    2.64
  15  -5   2   -0.68    2.01
  15  -5   3   56.70   10.24
  15  -5   3   74.61   11.58
  15   5   3   89.78   11.68
  15   5   3   73.39   10.74
  15  -5   4   17.21    4.93
  15   5   4   16.77    4.90
  15  -5   4   24.49    5.61
  15   5   5   -2.72    2.39
  15  -5   5    9.55    3.06
  15   5   5    1.34    1.69
  15  -5   5    9.12    3.29
  15   5   6   28.46    5.70
  15  -5   6   37.19    7.47
  15   5   6   34.95    6.95
  15  -5   6   29.33    6.59
  15   5   7   23.32    6.20
  15  -5   7    5.27    3.82
  15   5   7   15.96    4.98
  15  -5   7   21.95    6.52
  15   5   8   16.68    5.97
  15  -5   8   13.46    5.55
  15   5   8    7.08    3.28
  15  -5   8   13.69    5.73
  15   5   9   92.30   12.16
  15  -5   9   91.27   13.04
  15  -5   9   99.96   13.22
  15   5   9   98.94   12.74
  15   5  10   31.33    7.56
  15  -5  10   38.12    7.66
  15   5  10   40.83    8.33
  15  -5  10   29.43    7.98
  15   5  11    4.16    4.77
  15  -5  11    4.83    2.73
  15   5  11   17.24    4.85
  15  -5  11   14.97    5.20
  15   5  12    9.56    4.40
  15  -5  12    8.77    3.88
  15   5  12   20.57    6.19
  15  -5  12   17.14    6.67
  15  -5  13   38.26    8.25
  15   5  13   43.20    8.71
  15  -5  13   35.56    8.57
  15  -5  14    7.31    3.81
  15   5  14   23.79    6.52
  15  -5  14   17.11    6.04
  15  -5  15   21.33    6.90
  15   5  15   12.11    5.77
  15  -5  15   13.79    6.77
  15  -5  16    5.03    3.19
  15   5  16    7.59    3.23
  15  -5  16   11.23    5.64
  15  -6 -14    4.75    3.82
  15   6 -14    0.42    2.39
  15  -6 -14    0.81    3.32
  15   6 -13   -3.80    4.31
  15  -6 -13    0.53    2.33
  15  -6 -13   -0.49    3.47
  15   6 -12    8.04    3.93
  15  -6 -12   -0.52    3.21
  15  -6 -12    7.76    4.70
  15   6 -11    7.75    5.01
  15  -6 -11    5.00    3.28
  15  -6 -11    7.34    4.87
  15   6 -10   18.56    5.59
  15  -6 -10   23.87    6.89
  15  -6 -10   16.17    5.29
  15   6  -9    7.81    3.97
  15  -6  -9    0.71    3.54
  15  -6  -9    7.33    4.26
  15   6  -8    6.29    3.58
  15  -6  -8    2.30    2.68
  15  -6  -8    4.67    4.29
  15   6  -7    9.44    4.32
  15  -6  -7    0.63    2.01
  15  -6  -7    7.04    4.27
  15   6  -6    4.82    3.56
  15  -6  -6    8.71    5.16
  15  -6  -6    4.44    2.93
  15   6  -5    8.24    4.83
  15  -6  -5    6.68    3.84
  15  -6  -5    8.93    5.49
  15   6  -4   33.09    7.36
  15  -6  -4   26.62    7.10
  15  -6  -4   31.60    7.67
  15   6  -3   -1.22    2.26
  15  -6  -3    4.02    2.81
  15  -6  -3    5.46    3.25
  15   6  -2   26.95    6.71
  15  -6  -2   25.87    6.51
  15   6  -2   22.23    5.45
  15  -6  -2   28.42    7.30
  15  -6  -1   42.53    8.43
  15   6  -1   42.91    8.56
  15  -6  -1   38.73    8.75
  15   6  -1   51.54    9.16
  15   6   0   50.72    8.51
  15  -6   0   42.44    8.69
  15   6   0   33.32    7.38
  15  -6   0   43.59    9.26
  15  -6   1   33.23    6.98
  15   6   1   29.05    7.63
  15  -6   1   23.07    6.98
  15   6   2   37.15    7.08
  15  -6   2   27.20    6.77
  15   6   2   27.59    6.78
  15  -6   2   42.95    8.82
  15   6   3    2.75    3.97
  15  -6   3    1.63    4.48
  15   6   3    2.19    3.47
  15  -6   3    0.41    2.12
  15   6   4   26.71    8.45
  15  -6   4   39.81    8.22
  15   6   4   33.57    7.00
  15  -6   4   42.29    9.31
  15   6   5    9.60    4.65
  15  -6   5    7.11    3.74
  15   6   5    2.86    3.34
  15  -6   5   15.79    6.60
  15   6   6   11.49    4.48
  15  -6   6    7.91    4.23
  15   6   6    6.56    4.30
  15  -6   6    0.85    4.22
  15   6   7    8.03    3.31
  15  -6   7   11.33    4.26
  15   6   7    2.44    1.88
  15  -6   7    7.49    4.67
  15   6   8    7.07    2.79
  15  -6   8   11.94    5.80
  15   6   8    5.63    3.39
  15  -6   8    5.55    5.13
  15   6   9    7.22    4.57
  15  -6   9    6.10    4.55
  15   6   9    2.99    1.86
  15  -6   9   10.94    4.52
  15   6  10   21.49    6.96
  15  -6  10   16.62    4.67
  15   6  10   16.20    5.92
  15  -6  10   25.66    6.68
  15   6  11    5.48    4.71
  15  -6  11    8.77    4.16
  15   6  11    9.19    3.28
  15  -6  11    0.10    3.15
  15   6  12    6.01    5.57
  15  -6  12    3.28    2.50
  15   6  12    3.28    3.05
  15  -6  12    8.43    5.06
  15  -6  13    0.56    2.62
  15   6  13   -2.55    3.09
  15  -6  13   -2.87    2.41
  15  -6  14   -0.88    2.44
  15   6  14   -2.14    3.53
  15  -6  14    3.68    4.49
  15  -7 -10   34.17    7.95
  15   7 -10   24.10    6.72
  15  -7 -10   13.87    5.10
  15  -7  -9   36.90    8.43
  15   7  -9   27.98    7.44
  15  -7  -9   32.83    8.74
  15   7  -8    9.48    5.50
  15  -7  -8    0.83    4.65
  15  -7  -8    0.64    3.83
  15   7  -7   31.09    7.29
  15  -7  -7   16.70    5.38
  15  -7  -7   16.77    4.45
  15   7  -6    4.13    2.11
  15  -7  -6    3.04    2.27
  15  -7  -6    7.77    3.95
  15   7  -5   10.00    4.78
  15  -7  -5    6.29    4.08
  15  -7  -5    9.80    4.76
  15   7  -4   14.62    5.57
  15  -7  -4   10.50    5.03
  15  -7  -4   23.35    7.10
  15   7  -3   28.01    6.77
  15  -7  -3   19.26    5.65
  15  -7  -3   21.67    7.24
  15   7  -2    5.11    3.52
  15  -7  -2    4.40    2.90
  15  -7  -2    3.82    3.59
  15   7  -1   14.09    5.78
  15  -7  -1   33.33    7.59
  15  -7  -1   42.61    9.22
  15   7   0   12.70    4.64
  15  -7   0   15.46    5.07
  15   7   0   14.60    5.01
  15  -7   0    7.14    3.75
  15   7   1   31.18    7.54
  15  -7   1   30.35    7.48
  15   7   1   40.91    8.13
  15  -7   1   36.97    8.50
  15   7   2    3.43    4.01
  15  -7   2    5.03    3.39
  15   7   2    6.38    3.59
  15  -7   2    5.75    3.46
  15   7   3   34.08    7.93
  15  -7   3   41.48    8.40
  15   7   3   18.92    5.87
  15  -7   3   23.96    7.75
  15   7   4   16.47    5.61
  15  -7   4    5.19    2.34
  15   7   4   17.28    5.15
  15  -7   4   18.29    6.76
  15   7   5    6.05    4.19
  15  -7   5   14.74    6.07
  15   7   5    8.06    4.01
  15  -7   5   13.56    6.89
  15   7   6   13.69    6.00
  15  -7   6    7.02    5.90
  15   7   6   -1.29    2.03
  15  -7   6    3.85    3.88
  15   7   7   23.67    7.51
  15  -7   7   20.98    5.63
  15   7   7    9.56    3.04
  15  -7   7   33.54    8.04
  15   7   8    3.65    4.41
  15  -7   8   -6.31    5.48
  15   7   8   -1.65    3.93
  15  -7   8    1.32    2.56
  15   7   9   36.83    8.11
  15  -7   9   46.12    9.36
  15   7   9   18.76    5.64
  15  -7   9   37.21    9.19
  15   7  10   28.63    8.21
  15  -7  10   21.64    6.07
  15   7  10   23.49    6.05
  15  -7  10   15.10    5.91
  15  -8  -2   28.48    7.22
  15   8  -2   19.40    5.42
  15  -8  -2   22.24    6.89
  15   8  -1   14.52    5.56
  15  -8  -1   15.42    5.89
  15  -8  -1   13.90    4.98
  15   8   0    5.48    3.82
  15  -8   0   17.33    6.78
  15  -8   0   11.27    5.26
  15   8   1    2.47    4.44
  15  -8   1   17.65    6.74
  15   8   1   22.64    7.61
  15  -8   1   12.99    5.50
  15   8   2   36.57    8.44
  15  -8   2   14.56    5.58
  15   8   2   23.87    6.58
  15  -8   2   33.67    8.94
  16   0 -18   13.00    7.01
  16   0 -17   93.11   12.95
  16   0 -16    7.76    4.57
  16   0 -15    7.32    3.60
  16   0 -14    1.46    2.21
  16   0 -13  252.60   20.40
  16   0 -12   14.24    5.15
  16   0 -11   35.65    7.76
  16   0 -10   20.99    6.26
  16   0  -9   56.83    9.87
  16   0  -9   46.64    9.04
  16   0  -8   23.25    6.94
  16   0  -8   21.57    6.50
  16   0  -7  182.62   16.60
  16   0  -7  224.44   19.06
  16   0  -6    6.23    3.49
  16   0  -6    7.86    4.33
  16   0  -5    2.11    2.45
  16   0  -5    1.93    3.70
  16   0  -4   38.02    8.17
  16   0  -4   56.40   10.04
  16   0  -3  189.85   16.39
  16   0  -3  149.06   15.38
  16   0  -2  128.12   13.43
  16   0  -2  190.72   17.27
  16   0  -1   35.25    7.75
  16   0  -1   25.66    7.21
  16   0   0    7.22    3.49
  16   0   0   12.83    5.58
  16   0   1   27.72    6.69
  16   0   1   32.27    6.37
  16   0   2  160.97   15.14
  16   0   2  165.18   15.84
  16   0   3  153.89   15.17
  16   0   3  162.46   16.00
  16   0   4   33.55    7.77
  16   0   4   56.02   10.24
  16   0   5   -0.70    1.67
  16   0   5    2.95    2.18
  16   0   6   14.72    4.72
  16   0   6   11.67    4.08
  16   0   7  165.69   15.43
  16   0   8   22.42    6.48
  16   0   9   46.48    8.40
  16   0  10   15.66    5.04
  16   0  11   44.92    8.25
  16   0  12    9.73    3.38
  16   0  13  283.68   20.62
  16   0  14    4.75    5.20
  16   0  15   29.46    6.94
  16   0  16   12.85    5.12
  16   0  17   88.29   12.61
  16   0  18   52.67    9.04
  16   0  19  117.29   14.50
  16  -1 -19    3.74    3.95
  16  -1 -18    1.63    2.92
  16  -1 -17   13.52    6.12
  16  -1 -16   -1.72    4.01
  16  -1 -15    2.48    3.05
  16  -1 -14   27.27    6.83
  16   1 -13   20.69    8.62
  16  -1 -13    6.49    3.99
  16   1 -12   -4.03    5.71
  16  -1 -12    1.80    3.20
  16  -1 -11   -0.27    3.83
  16   1 -11   -1.30    3.59
  16  -1 -10    2.05    2.47
  16  -1 -10    1.57    2.48
  16   1 -10   -0.64    3.56
  16  -1  -9    5.86    2.53
  16  -1  -9   15.61    5.87
  16   1  -9    6.06    3.78
  16  -1  -8    1.99    2.34
  16   1  -8    0.39    2.14
  16  -1  -8   -1.43    2.84
  16   1  -8   -0.13    1.63
  16  -1  -7    2.99    2.57
  16   1  -7   -2.26    1.86
  16  -1  -7   -0.50    2.84
  16   1  -7    0.78    2.38
  16   1  -7    2.04    3.95
  16  -1  -6    3.90    3.26
  16   1  -6    2.08    2.18
  16  -1  -6    2.83    2.94
  16   1  -6   10.34    4.99
  16   1  -6    7.26    4.13
  16  -1  -5   29.52    6.83
  16  -1  -5   21.62    5.94
  16   1  -5   11.48    5.59
  16   1  -5   24.22    5.47
  16  -1  -4    0.37    1.66
  16   1  -4   -2.53    3.51
  16  -1  -4   -1.26    2.76
  16   1  -4    0.36    2.53
  16   1  -4    5.16    4.11
  16  -1  -3   39.88    7.50
  16  -1  -3   39.59    7.56
  16   1  -3   26.94    6.77
  16   1  -3   31.62    6.23
  16  -1  -2    2.02    3.64
  16   1  -2    0.84    1.88
  16  -1  -2    4.47    2.17
  16   1  -2    3.59    1.89
  16   1  -2   -2.03    2.34
  16  -1  -1    8.56    2.99
  16   1  -1   12.61    4.06
  16  -1  -1    5.76    2.26
  16   1  -1   12.39    4.97
  16   1  -1   16.32    4.80
  16  -1   0   -1.24    1.23
  16  -1   0    7.24    3.43
  16   1   0   -0.88    1.68
  16   1   0    4.92    3.63
  16   1   0    4.44    2.21
  16  -1   1    5.93    3.00
  16  -1   1   13.74    5.39
  16   1   1    5.35    3.21
  16   1   1    9.21    3.01
  16   1   1   10.60    4.60
  16  -1   2    4.73    3.08
  16  -1   2    3.29    3.22
  16   1   2    3.97    3.43
  16   1   2    3.73    2.73
  16   1   2    2.91    3.30
  16  -1   3   44.32    8.59
  16  -1   3   33.42    7.45
  16   1   3   38.79    8.17
  16   1   3   29.02    6.61
  16   1   3   36.75    7.03
  16  -1   4    3.67    4.25
  16  -1   4    3.10    1.98
  16   1   4   -1.85    2.72
  16   1   4    4.10    3.55
  16   1   4    1.98    2.62
  16  -1   5   27.20    5.92
  16  -1   5   30.06    7.52
  16   1   5   40.21    7.98
  16   1   5   28.77    6.88
  16  -1   6   12.01    4.75
  16  -1   6    7.71    4.79
  16   1   6    3.83    2.56
  16   1   6    3.35    1.88
  16  -1   7   -0.76    2.79
  16  -1   7    3.93    2.85
  16   1   7    7.61    3.72
  16   1   7    0.62    1.66
  16   1   8   -0.15    2.38
  16  -1   8    1.99    1.88
  16   1   8   -1.35    3.24
  16   1   9    8.81    3.99
  16  -1   9   14.97    5.60
  16   1   9   11.59    4.44
  16   1  10    1.18    2.19
  16  -1  10    0.73    3.64
  16   1  10    1.90    2.27
  16   1  11    4.17    4.70
  16  -1  11    2.77    3.35
  16   1  12   -2.84    3.64
  16  -1  12    2.38    2.08
  16   1  13   11.37    3.94
  16  -1  13   17.37    6.34
  16   1  14   39.58    8.00
  16  -1  14   25.04    6.99
  16   1  15    3.72    4.10
  16  -1  15    5.09    3.46
  16   1  16    1.09    1.63
  16  -1  16    4.72    2.23
  16   1  17   15.74    5.93
  16  -1  17    9.81    4.23
  16   1  18   -0.07    3.63
  16  -1  18   -4.63    3.84
  16   1  19   -1.74    4.16
  16  -1  19   -3.82    2.89
  16  -2 -19   10.77    3.97
  16  -2 -18    7.33    4.12
  16  -2 -17  108.28   14.59
  16  -2 -16   15.73    6.88
  16  -2 -15    0.96    3.18
  16  -2 -14    6.52    3.30
  16  -2 -13  150.01   16.38
  16  -2 -12   -2.09    2.03
  16  -2 -12    7.77    2.48
  16  -2 -11   18.63    5.94
  16  -2 -11   20.57    6.25
  16   2 -11   27.83    6.70
  16  -2 -10    5.59    2.98
  16  -2 -10   10.09    4.69
  16   2 -10    5.19    2.62
  16  -2  -9   14.92    5.48
  16  -2  -9   21.35    6.28
  16   2  -9   18.76    5.56
  16  -2  -8    5.15    2.35
  16  -2  -8    1.47    3.28
  16   2  -8    3.84    2.87
  16  -2  -7   83.53   11.83
  16   2  -7  109.72   13.02
  16  -2  -7   96.10   12.86
  16   2  -7   95.07   12.47
  16   2  -7  100.42   11.95
  16  -2  -6    5.55    4.14
  16   2  -6    9.62    2.26
  16  -2  -6    5.33    3.55
  16   2  -6    0.04    3.73
  16   2  -6    5.26    2.79
  16  -2  -5   13.12    4.10
  16  -2  -5   21.57    5.95
  16   2  -5   12.35    4.22
  16   2  -5    8.44    4.11
  16   2  -5   22.45    5.68
  16  -2  -4   11.55    4.89
  16  -2  -4    8.74    5.86
  16   2  -4    4.40    4.32
  16   2  -4    3.71    2.66
  16   2  -4    5.51    3.37
  16  -2  -3  127.32   14.08
  16   2  -3  145.57   14.26
  16  -2  -3  126.15   14.62
  16   2  -3  128.93   14.40
  16   2  -3  102.85   12.55
  16  -2  -2    6.55    4.10
  16  -2  -2   12.04    5.26
  16   2  -2    4.09    2.80
  16   2  -2    4.96    3.68
  16   2  -2    3.14    2.94
  16  -2  -1   11.28    3.39
  16  -2  -1   16.66    5.50
  16   2  -1   15.86    4.29
  16   2  -1   14.28    4.37
  16   2  -1   11.65    5.56
  16  -2   0    0.93    2.45
  16  -2   0    2.48    2.61
  16   2   0    2.35    3.27
  16   2   0    0.88    2.62
  16   2   0    1.81    1.87
  16  -2   1   18.57    5.50
  16  -2   1    9.71    4.12
  16   2   1   11.29    5.00
  16   2   1   16.95    5.46
  16   2   1   11.89    3.83
  16   2   2   11.46    4.80
  16  -2   2   13.49    4.74
  16  -2   2    4.57    1.81
  16   2   2    6.30    4.08
  16   2   2    2.35    3.05
  16  -2   3  139.94   14.34
  16   2   3  127.57   13.43
  16  -2   3  139.21   14.99
  16   2   3  121.51   13.75
  16   2   3  124.80   13.36
  16   2   4    3.86    2.84
  16  -2   4   12.30    5.11
  16  -2   4   12.76    5.39
  16   2   4   11.86    4.96
  16   2   4   10.34    4.67
  16   2   5    9.38    4.46
  16  -2   5   10.50    4.26
  16  -2   5    7.60    3.94
  16   2   5   14.16    5.80
  16   2   6    0.10    2.17
  16  -2   6    3.85    3.18
  16  -2   6   11.85    5.66
  16   2   6    7.10    3.75
  16  -2   7   86.83   11.33
  16   2   7  108.68   12.11
  16  -2   7   93.49   12.14
  16   2   7   75.64   10.54
  16   2   8    2.16    2.40
  16  -2   8    2.97    2.90
  16  -2   8    6.66    3.47
  16   2   8    6.57    4.73
  16   2   9   28.01    6.99
  16  -2   9   18.80    5.73
  16  -2   9   24.38    6.49
  16   2   9   20.14    5.17
  16   2  10   13.49    5.06
  16  -2  10   12.34    4.64
  16   2  10    0.10    2.84
  16   2  11   25.73    6.18
  16  -2  11   33.38    7.93
  16   2  12    9.52    3.89
  16  -2  12   21.36    4.76
  16  -2  13  136.03   14.78
  16   2  13  120.68   13.64
  16   2  14    7.18    4.69
  16  -2  14    6.11    2.98
  16   2  15    6.97    3.58
  16  -2  15    6.84    4.73
  16   2  16   11.41    5.12
  16  -2  16    6.02    3.13
  16  -2  17   87.20   12.76
  16   2  17  123.93   13.98
  16   2  18    9.18    4.30
  16  -2  18    8.56    4.22
  16   2  19   16.50    6.79
  16  -2  19    3.04    3.42
  16  -3 -18    3.05    3.55
  16  -3 -17    1.35    3.70
  16  -3 -16    3.19    3.54
  16   3 -16   -0.26    2.33
  16  -3 -15    0.94    3.46
  16   3 -15    2.42    3.10
  16  -3 -14    1.44    2.24
  16   3 -14   -1.95    2.93
  16  -3 -13   -3.77    2.88
  16  -3 -13    4.03    3.70
  16   3 -13   -1.58    2.95
  16  -3 -12    7.78    4.88
  16  -3 -12   -2.15    3.50
  16   3 -12   -3.50    3.30
  16  -3 -11   13.80    6.12
  16  -3 -11   17.74    6.34
  16   3 -11   11.41    2.81
  16  -3 -10    2.49    2.93
  16  -3 -10    3.44    3.45
  16   3 -10    1.23    2.15
  16  -3  -9   10.78    5.02
  16  -3  -9    3.70    4.49
  16   3  -9    5.37    2.76
  16  -3  -8    9.68    5.14
  16  -3  -8    2.48    3.80
  16   3  -8    3.54    3.21
  16  -3  -7    2.47    1.72
  16  -3  -7    0.87    1.90
  16  -3  -6    8.02    3.97
  16  -3  -6    2.48    3.77
  16   3  -6    3.34    3.32
  16  -3  -5    1.02    1.93
  16  -3  -5    5.75    3.43
  16   3  -5    4.35    2.44
  16   3  -5    3.53    4.17
  16  -3  -4    4.73    3.05
  16  -3  -4    5.15    3.52
  16   3  -4    4.98    3.69
  16   3  -4    2.55    2.22
  16  -3  -3    0.13    3.05
  16  -3  -3   -1.15    3.17
  16   3  -3   -1.28    3.12
  16   3  -3    0.54    2.03
  16   3  -2    0.01    3.62
  16  -3  -2   -3.63    4.20
  16  -3  -2    5.88    4.59
  16   3  -2    7.81    5.69
  16   3  -2    4.84    2.23
  16   3  -1    6.94    3.83
  16  -3  -1    5.77    3.78
  16  -3  -1    5.48    3.05
  16   3  -1    1.35    2.90
  16   3  -1    2.85    2.10
  16   3   0    5.31    3.71
  16   3   0    3.42    2.28
  16  -3   0    1.94    4.04
  16  -3   0    2.39    2.06
  16   3   0   -2.46    2.43
  16   3   1    7.70    4.24
  16   3   1    4.77    3.17
  16  -3   1   -0.24    2.88
  16  -3   1    2.09    3.26
  16   3   1   10.44    4.99
  16   3   2    3.54    3.25
  16   3   2    5.86    2.87
  16  -3   2    2.36    3.31
  16  -3   2    2.60    3.07
  16   3   2    2.70    1.74
  16   3   3   -0.64    2.48
  16   3   3    2.91    3.13
  16  -3   3    4.08    4.33
  16  -3   3   -0.96    2.89
  16   3   3   -0.79    3.90
  16   3   4    2.27    2.16
  16   3   4    2.44    2.15
  16  -3   4    7.59    4.13
  16  -3   4   -1.39    3.31
  16   3   5    6.96    3.28
  16   3   5    0.98    2.10
  16  -3   5    6.80    4.09
  16  -3   5    4.58    4.20
  16   3   6    5.79    3.35
  16   3   6    4.36    3.93
  16  -3   6    5.48    4.17
  16  -3   6    1.64    4.01
  16   3   7    5.02    3.91
  16   3   7    6.54    1.88
  16  -3   7    1.22    3.56
  16  -3   7    9.28    4.62
  16   3   8    4.08    3.85
  16   3   8    3.76    2.82
  16  -3   8   -0.50    1.98
  16  -3   8    7.67    5.20
  16   3   9    1.60    2.88
  16   3   9    6.20    2.65
  16  -3   9    2.51    1.79
  16  -3   9    4.18    2.89
  16   3  10   -3.91    4.94
  16   3  10   -0.12    1.82
  16  -3  10   -1.23    3.82
  16  -3  10    3.71    4.86
  16   3  11    7.51    2.19
  16   3  11    8.62    4.40
  16  -3  11   13.79    5.42
  16  -3  11    8.77    5.20
  16   3  12   -0.76    1.69
  16  -3  12   -0.01    2.32
  16  -3  12   -1.87    3.70
  16   3  13   10.36    2.28
  16  -3  13    0.59    2.68
  16   3  14    5.89    3.85
  16  -3  14   -0.45    2.22
  16   3  15    4.73    2.40
  16  -3  15   -0.69    2.50
  16   3  16   -0.62    3.11
  16  -3  16    2.90    2.90
  16   3  17   -0.63    2.22
  16  -3  17    0.54    3.67
  16   3  18    1.77    1.94
  16  -3  18    0.38    2.35
  16  -4 -16    3.52    2.27
  16   4 -16   11.28    5.82
  16  -4 -15    9.76    3.17
  16   4 -15   10.04    5.06
  16  -4 -14    3.73    1.79
  16   4 -14    8.73    2.87
  16  -4 -13  149.30   15.98
  16   4 -13  114.56   13.66
  16  -4 -13  126.02   14.80
  16  -4 -12   10.21    3.33
  16  -4 -12    3.57    4.19
  16   4 -12    6.37    3.93
  16  -4 -11   12.96    4.90
  16  -4 -11   26.47    7.02
  16   4 -11   17.33    5.10
  16  -4 -10   22.11    6.42
  16  -4 -10    6.95    4.80
  16   4 -10   11.05    4.85
  16  -4  -9   62.78   10.15
  16  -4  -9   64.48   10.22
  16   4  -9   57.99   10.05
  16  -4  -8   -0.87    2.00
  16  -4  -8    2.14    4.81
  16   4  -8    0.35    1.96
  16  -4  -7   74.58   10.90
  16  -4  -7   67.06   10.59
  16   4  -7   74.13   10.85
  16   4  -6    0.21    1.65
  16  -4  -6    2.97    3.25
  16  -4  -6    0.65    2.38
  16   4  -5   31.39    7.03
  16  -4  -5   32.78    7.71
  16   4  -4    8.96    3.87
  16   4  -4    9.40    5.19
  16  -4  -4    6.67    4.08
  16  -4  -4    4.71    2.36
  16  -4  -3  122.10   14.14
  16  -4  -3  138.83   15.95
  16   4  -3  121.99   13.68
  16   4  -3  139.75   14.95
  16   4  -2    6.56    3.24
  16  -4  -2    4.72    2.29
  16  -4  -2    5.24    3.46
  16   4  -1   30.36    7.06
  16   4  -1   33.53    7.48
  16  -4  -1   21.33    6.93
  16  -4  -1   14.53    5.95
  16   4   0    4.57    2.87
  16   4   0    4.09    3.81
  16  -4   0   -2.03    2.08
  16  -4   0   -4.42    3.78
  16   4   1   36.19    8.06
  16   4   1   20.18    4.92
  16  -4   1   18.39    5.37
  16  -4   1   30.89    7.69
  16   4   2   10.65    3.76
  16   4   2   16.74    5.54
  16  -4   2   16.54    5.28
  16  -4   2    6.29    3.42
  16  -4   3  153.78   15.53
  16  -4   3  115.36   14.53
  16   4   3  121.11   13.42
  16   4   3  131.52   14.11
  16   4   4    4.68    3.58
  16   4   4    7.24    3.57
  16  -4   4    9.32    2.92
  16  -4   4    2.86    2.12
  16   4   5   25.01    5.79
  16  -4   5   33.64    7.81
  16  -4   5   30.48    7.42
  16   4   5   42.02    8.34
  16   4   6    5.82    4.53
  16   4   6    2.02    3.68
  16  -4   6    2.90    4.10
  16  -4   6   -0.38    3.72
  16  -4   7   57.41   10.05
  16  -4   7   56.16    9.99
  16   4   7   75.42   11.05
  16   4   7   59.33    9.82
  16   4   8    0.38    3.46
  16   4   8   -0.34    3.41
  16  -4   8   -3.88    3.61
  16  -4   8    2.23    3.10
  16  -4   9   51.63    9.29
  16  -4   9   74.26   11.66
  16   4   9   67.70   10.21
  16   4   9   60.91   10.02
  16   4  10    8.70    3.69
  16   4  10    9.70    4.90
  16  -4  10   11.54    3.61
  16  -4  10   17.73    5.53
  16   4  11   17.89    6.37
  16   4  11   20.77    5.54
  16  -4  11   23.96    7.17
  16  -4  11   19.08    6.35
  16   4  12    9.15    4.04
  16  -4  12    3.35    3.92
  16  -4  13  134.43   15.16
  16  -4  13  145.62   15.96
  16   4  13  147.62   15.16
  16   4  14   10.20    5.81
  16  -4  14    8.75    5.21
  16  -4  14   -0.31    3.27
  16  -4  15    6.90    3.05
  16  -4  15   12.05    5.36
  16   4  16   12.90    4.75
  16  -4  16    9.79    5.10
  16  -4  16    8.58    6.11
  16  -5 -14   55.40   10.58
  16  -5 -14   45.31    9.64
  16   5 -14   55.31    9.88
  16  -5 -13   -0.50    2.14
  16  -5 -13    0.80    5.02
  16   5 -13   -2.10    3.17
  16  -5 -12    3.09    3.73
  16  -5 -12   -1.13    2.85
  16   5 -12    6.38    3.69
  16  -5 -11    4.24    3.10
  16  -5 -11    2.48    2.32
  16   5 -11    8.21    4.93
  16   5 -10   14.28    5.47
  16  -5 -10   17.91    6.07
  16  -5 -10   16.21    4.89
  16   5  -9    6.97    5.09
  16  -5  -9    3.25    3.29
  16  -5  -9    1.64    4.52
  16   5  -8   -1.80    3.68
  16  -5  -8   -0.25    2.10
  16  -5  -8   -1.87    4.34
  16   5  -7   -2.29    4.16
  16  -5  -7   -2.01    3.31
  16  -5  -7    6.02    5.09
  16   5  -6    2.25    1.71
  16  -5  -6    1.23    2.98
  16  -5  -6    3.99    3.85
  16   5  -5   19.85    6.40
  16  -5  -5   25.13    6.56
  16  -5  -5   29.51    8.10
  16   5  -4   22.73    6.87
  16  -5  -4   10.59    4.46
  16  -5  -4    9.03    4.52
  16   5  -3    7.56    4.47
  16   5  -3   17.09    6.77
  16  -5  -3    6.82    4.35
  16  -5  -3   13.09    4.30
  16   5  -2   11.42    4.57
  16   5  -2   -1.67    2.54
  16  -5  -2    9.69    4.42
  16  -5  -2   12.32    4.89
  16   5  -1   13.70    4.86
  16   5  -1   20.05    6.33
  16  -5  -1   29.02    6.99
  16  -5  -1   20.25    6.07
  16   5   0    2.15    3.47
  16   5   0    0.91    3.48
  16  -5   0    0.32    2.94
  16  -5   0    4.58    3.33
  16   5   1   17.11    5.88
  16   5   1   22.25    6.26
  16  -5   1   25.39    6.85
  16  -5   1   23.15    6.14
  16   5   2    1.87    3.11
  16   5   2    3.52    1.65
  16  -5   2    6.21    4.57
  16   5   3   14.32    4.42
  16   5   3   10.73    3.95
  16  -5   3    4.39    1.93
  16  -5   3   13.41    5.04
  16   5   4   13.31    4.60
  16   5   4   18.92    5.25
  16  -5   4    7.96    4.61
  16  -5   4   21.70    7.30
  16   5   5   32.52    7.08
  16   5   5   26.56    6.69
  16  -5   5   32.11    6.77
  16  -5   5   22.38    7.21
  16   5   6    2.57    3.27
  16  -5   6    0.39    2.39
  16   5   6    3.74    3.02
  16  -5   6    0.86    2.32
  16   5   7    0.52    3.30
  16  -5   7   -1.92    3.20
  16   5   7    1.39    3.65
  16  -5   7    2.81    4.74
  16   5   8   -0.59    2.78
  16  -5   8   -4.39    4.08
  16   5   8    3.28    3.46
  16  -5   8   -0.84    2.26
  16   5   9    3.15    4.24
  16  -5   9    4.91    3.48
  16   5   9    0.45    3.65
  16  -5   9    3.28    3.81
  16   5  10   15.95    5.51
  16  -5  10   23.95    6.16
  16   5  10   12.84    4.55
  16  -5  10   21.30    6.64
  16   5  11    7.22    4.48
  16  -5  11   14.54    5.34
  16   5  11   11.30    4.46
  16  -5  11    4.39    3.13
  16   5  12   11.12    6.14
  16  -5  12   12.02    5.43
  16   5  12   18.23    6.27
  16  -5  12    3.35    4.67
  16  -5  13    6.36    4.74
  16   5  13   -1.26    2.32
  16  -5  13    1.22    2.39
  16  -5  14   35.10    7.98
  16   5  14   40.29    7.93
  16  -5  14   42.85   10.19
  16   6 -11   32.48    7.63
  16  -6 -11   23.58    6.99
  16  -6 -11   18.27    5.90
  16  -6 -10   10.93    5.37
  16  -6 -10   11.72    4.05
  16  -6  -9   62.38   10.29
  16  -6  -9   65.51   10.87
  16   6  -9   59.08   10.09
  16   6  -8    3.65    4.91
  16  -6  -8    1.98    2.25
  16  -6  -8    1.88    2.76
  16  -6  -7   63.22   10.66
  16   6  -7   81.72   11.34
  16  -6  -7   67.47   11.06
  16   6  -6   10.53    3.40
  16  -6  -6   -0.16    2.00
  16  -6  -6    5.20    3.84
  16   6  -5    1.86    2.08
  16  -6  -5    0.18    1.99
  16  -6  -5    6.21    2.90
  16   6  -4    9.83    3.86
  16  -6  -4   21.90    6.87
  16  -6  -4    9.21    4.35
  16  -6  -3   53.76    8.96
  16  -6  -3   86.92   12.82
  16   6  -3   76.15   10.93
  16  -6  -2   61.13    9.43
  16  -6  -2   73.39   11.80
  16   6  -2   82.97   11.47
  16  -6  -1   65.60   10.61
  16   6  -1   49.81    9.18
  16  -6  -1   81.78   12.30
  16   6  -1   63.94   10.64
  16   6   0    0.89    2.82
  16  -6   0    7.38    3.82
  16   6   0    2.39    3.68
  16  -6   0    9.35    4.76
  16  -6   1   68.62   10.62
  16  -6   1   59.84    9.83
  16   6   1   60.70   10.50
  16   6   1   91.62   12.09
  16  -6   2   57.08   10.35
  16   6   2   53.86    8.82
  16  -6   2   69.45   11.17
  16   6   2   55.23    9.54
  16  -6   3   80.90   11.78
  16  -6   3   79.13   13.03
  16   6   3   66.72   10.81
  16   6   3   62.28    9.67
  16   6   4    7.90    3.74
  16  -6   4   13.68    4.40
  16   6   4    8.14    4.49
  16  -6   4    3.39    2.62
  16   6   5   -4.39    4.32
  16  -6   5    0.29    3.09
  16   6   5    2.33    2.35
  16  -6   5    4.15    4.35
  16   6   6   10.80    4.31
  16  -6   6   -0.25    3.58
  16   6   6   10.28    4.08
  16  -6   6    4.05    3.90
  16   6   7   81.03   11.56
  16  -6   7   77.26   11.82
  16  -6   7   58.37   10.66
  16   6   7   72.73   11.28
  16   6   8    6.59    4.34
  16  -6   8    3.12    3.32
  16   6   8    2.20    2.25
  16  -6   8   -0.62    2.88
  16   6   9   55.00    9.57
  16  -6   9   73.27   12.20
  16  -6   9   77.82   12.93
  16   6   9   67.64   10.51
  16   6  10   15.56    3.26
  16  -6  10   12.84    5.31
  16   6  10   22.44    6.27
  16  -6  10   23.08    8.43
  16   6  11   10.30    6.22
  16  -6  11   32.61    6.93
  16   6  11   19.87    6.11
  16  -6  11   29.41    9.05
  16   7  -6    1.46    1.64
  16  -7  -6   -1.80    3.24
  16  -7  -6    5.16    4.91
  16   7  -5   32.15    7.24
  16  -7  -5   25.25    6.19
  16  -7  -5   27.57    8.49
  16   7  -4    6.70    3.61
  16  -7  -4   -0.21    1.87
  16  -7  -4    1.36    2.82
  16   7  -3   16.77    5.71
  16  -7  -3   27.60    7.70
  16  -7  -3   29.52    8.50
  16   7  -2    0.14    3.06
  16  -7  -2    1.98    2.01
  16  -7  -2    3.48    2.47
  16   7  -1    0.34    2.86
  16  -7  -1   -0.44    4.08
  16  -7  -1    2.41    2.78
  16   7   0    0.59    2.48
  16  -7   0    4.70    4.84
  16   7   0   -1.16    1.82
  16  -7   0    1.78    3.15
  16   7   1   -3.83    5.68
  16  -7   1    2.50    2.15
  16   7   1   -3.28    3.49
  16  -7   1    1.72    3.74
  16   7   2    2.41    3.18
  16  -7   2    0.50    3.40
  16   7   2    1.50    2.72
  16  -7   2   -0.31    2.92
  16   7   3   11.78    4.69
  16  -7   3   22.72    5.35
  16   7   3   24.81    7.45
  16  -7   3   11.38    4.10
  16   7   4   -0.07    3.80
  16  -7   4    4.47    3.11
  16   7   4    4.26    4.05
  16  -7   4    5.81    3.82
  16   7   5   21.36    6.47
  16  -7   5   33.78    7.61
  16   7   5   26.48    8.61
  16  -7   5   28.38    8.32
  16   7   6   -1.83    2.43
  16  -7   6    6.60    3.41
  16   7   6    5.69    3.54
  16  -7   6   12.28    6.77
  17   0 -16    1.33    3.12
  17   0 -15    0.45    3.88
  17   0 -14    2.31    2.98
  17   0 -13    1.08    2.84
  17   0 -12    4.51    4.82
  17   0 -11    1.99    3.48
  17   0 -10    0.28    3.37
  17   0  -9   -8.29    3.66
  17   0  -9    3.19    4.29
  17   0  -8    0.01    2.87
  17   0  -8    0.65    3.19
  17   0  -7   -4.07    4.67
  17   0  -7    1.38    3.42
  17   0  -6    1.61    3.82
  17   0  -6    0.96    1.76
  17   0  -5   -0.42    2.12
  17   0  -5   -2.61    3.26
  17   0  -4    1.57    3.16
  17   0  -4    0.74    3.63
  17   0  -3    0.84    2.28
  17   0  -3   -0.46    2.97
  17   0  -2   -1.09    3.16
  17   0  -2    1.22    1.77
  17   0  -1    5.13    4.20
  17   0  -1    1.83    2.93
  17   0   0   -0.08    2.95
  17   0   0   -0.74    1.77
  17   0   1   -0.07    2.07
  17   0   1   -1.64    2.10
  17   0   2    2.25    4.14
  17   0   2    0.86    2.89
  17   0   3    1.60    1.99
  17   0   3    1.40    3.32
  17   0   4    3.78    4.33
  17   0   4    1.66    1.78
  17   0   5   -0.52    2.20
  17   0   5    1.22    2.01
  17   0   6   -1.86    2.70
  17   0   6    0.80    2.78
  17   0   7   -1.36    1.96
  17   0   7    0.07    2.74
  17   0   8   -1.02    2.69
  17   0   9    2.67    2.35
  17   0  10    0.30    2.38
  17   0  11    0.08    3.26
  17   0  12    1.77    2.44
  17   0  13   -0.14    2.36
  17   0  14   -2.30    3.23
  17   0  15   -1.16    3.51
  17   0  16   -1.72    2.90
  17   0  17   -0.54    2.69
  17  -1 -17   73.22   11.75
  17  -1 -16   40.65    9.59
  17  -1 -15    6.52    5.21
  17  -1 -14   14.30    6.49
  17  -1 -13   16.45    5.61
  17   1 -12    2.89    2.42
  17  -1 -12   28.73    8.19
  17  -1 -11   55.48    9.75
  17   1 -11   51.76    9.85
  17  -1 -10   47.78   10.61
  17  -1 -10   45.52    8.69
  17   1 -10   36.17    7.83
  17  -1  -9   25.70    6.66
  17  -1  -9   27.79    7.68
  17   1  -9   26.05    7.16
  17  -1  -8   19.28    5.42
  17  -1  -8   38.83    8.29
  17   1  -8   30.44    7.68
  17  -1  -7    5.36    1.95
  17   1  -7    5.96    1.82
  17  -1  -7    2.68    2.54
  17   1  -7    1.40    2.91
  17  -1  -6   16.97    5.03
  17   1  -6   19.29    5.59
  17  -1  -6   23.07    6.31
  17   1  -6   17.65    5.05
  17  -1  -5   14.44    6.05
  17   1  -5    2.67    2.97
  17  -1  -5   10.38    4.34
  17   1  -5   13.47    5.68
  17  -1  -4   70.41   10.21
  17   1  -4   49.81    9.57
  17  -1  -4   83.60   12.32
  17   1  -4   70.25   11.37
  17   1  -4   97.87   11.92
  17  -1  -3   99.14   12.55
  17   1  -3  124.88   13.79
  17  -1  -3  145.84   15.66
  17   1  -3  127.10   14.74
  17   1  -3  108.61   12.47
  17  -1  -2   61.88   10.04
  17   1  -2   51.38    8.85
  17  -1  -2   53.62    9.86
  17   1  -2   62.16   11.03
  17   1  -2   48.68    8.79
  17  -1  -1   25.31    6.18
  17   1  -1   20.56    5.86
  17  -1  -1   19.70    6.48
  17   1  -1   17.14    6.17
  17   1  -1   16.16    5.61
  17  -1   0   60.68    9.97
  17   1   0   76.30   10.69
  17  -1   0   78.84   12.17
  17   1   0   82.68   11.70
  17   1   0   78.15   10.46
  17  -1   1    6.73    4.11
  17   1   1   31.43    7.44
  17  -1   1   20.85    6.70
  17   1   1   16.19    5.47
  17   1   1   28.41    6.65
  17  -1   2   60.90    9.45
  17   1   2   63.71    9.89
  17  -1   2   64.04   10.73
  17   1   2   61.38    9.90
  17   1   2   63.49   10.24
  17  -1   3  105.03   12.97
  17   1   3   84.50   11.10
  17  -1   3  109.77   13.62
  17   1   3   98.60   13.49
  17   1   3  111.22   12.93
  17  -1   4   64.41   10.02
  17   1   4   87.78   11.32
  17  -1   4   76.67   11.34
  17   1   4   77.17   11.72
  17   1   4   60.39    9.18
  17  -1   5   14.06    4.71
  17  -1   5    5.54    4.05
  17   1   5   15.95    6.05
  17   1   5   11.09    4.60
  17   1   5   22.73    6.75
  17  -1   6   13.81    4.13
  17  -1   6    9.67    3.54
  17   1   6   23.76    6.36
  17   1   6   23.58    6.11
  17   1   6   10.99    4.07
  17  -1   7    3.66    2.49
  17  -1   7   10.87    4.30
  17   1   7    6.79    3.58
  17   1   7    7.75    4.00
  17  -1   8   39.57    7.96
  17  -1   8   24.30    6.45
  17   1   8   22.43    5.53
  17   1   8   33.61    7.69
  17  -1   9   33.67    8.25
  17  -1   9   22.32    6.55
  17   1   9   21.27    6.35
  17   1   9   28.82    7.07
  17  -1  10   38.70    8.16
  17   1  10   29.41    7.13
  17  -1  11   63.79   10.59
  17   1  11   59.72    9.93
  17  -1  12   20.90    6.88
  17   1  12   20.46    6.20
  17  -1  13    8.04    2.28
  17   1  13   18.75    6.33
  17  -1  14   11.35    4.45
  17   1  14   22.66    6.65
  17  -1  15    8.13    2.71
  17   1  15    2.65    3.31
  17  -1  16   42.55    8.84
  17   1  16   45.36    9.55
  17  -1  17   74.40   12.03
  17   1  17   82.86   11.71
  17  -2 -16    3.01    2.32
  17  -2 -15    3.46    2.38
  17  -2 -14    6.55    4.76
  17  -2 -13    8.90    4.14
  17  -2 -12    0.90    3.76
  17  -2 -11    4.12    5.11
  17  -2 -11   -0.95    2.77
  17   2 -11    0.13    3.32
  17  -2 -10    6.11    3.44
  17  -2 -10    8.40    4.23
  17   2 -10   10.16    4.89
  17  -2  -9   13.70    5.49
  17  -2  -9    9.77    4.90
  17   2  -9   12.98    3.71
  17  -2  -8   15.06    5.96
  17  -2  -8   13.76    4.10
  17   2  -8   11.99    3.29
  17  -2  -7   13.92    5.14
  17  -2  -7    4.14    3.02
  17   2  -7   12.07    4.87
  17  -2  -6   11.26    5.51
  17   2  -6   11.49    4.91
  17  -2  -6    5.19    3.69
  17   2  -6   10.76    5.10
  17   2  -6   21.27    6.91
  17  -2  -5   -1.31    4.27
  17   2  -5    5.11    3.77
  17  -2  -5    6.41    2.73
  17   2  -5    9.64    4.86
  17   2  -5    3.93    2.34
  17  -2  -4    1.29    2.49
  17  -2  -4    9.39    4.19
  17   2  -4   12.23    4.86
  17   2  -4    1.17    2.33
  17   2  -4   11.85    4.05
  17  -2  -3   -0.46    1.80
  17  -2  -3    1.27    2.56
  17   2  -3   -0.70    3.14
  17   2  -3   -1.54    3.10
  17   2  -3    5.14    2.16
  17  -2  -2    4.18    2.32
  17  -2  -2    5.77    3.09
  17   2  -2    7.83    4.81
  17   2  -2   10.26    4.13
  17   2  -2    5.31    3.21
  17  -2  -1    2.27    2.79
  17  -2  -1    2.37    3.37
  17   2  -1    2.82    2.07
  17   2  -1    1.40    2.37
  17  -2   0    0.33    1.74
  17  -2   0   -2.25    2.67
  17   2   0    0.03    1.97
  17   2   0   -0.17    2.61
  17   2   0    0.06    2.91
  17  -2   1    1.58    2.50
  17  -2   1    1.52    2.54
  17   2   1    3.60    3.77
  17   2   1    5.74    2.90
  17   2   1    0.44    2.41
  17  -2   2    5.43    4.42
  17  -2   2    4.80    4.59
  17   2   2    6.12    2.83
  17   2   2    0.39    3.15
  17   2   2    1.49    1.58
  17  -2   3    6.33    4.08
  17  -2   3    2.26    3.18
  17   2   3    1.32    2.70
  17   2   3    0.01    1.73
  17   2   3    1.91    2.25
  17   2   4    3.56    2.20
  17  -2   4    6.19    3.60
  17  -2   4    3.40    3.39
  17   2   4    3.32    2.67
  17   2   4    6.43    4.25
  17   2   5    5.52    3.60
  17  -2   5    4.85    3.82
  17  -2   5    3.38    2.53
  17   2   5    7.17    4.06
  17   2   5    0.77    3.19
  17   2   6   15.25    4.88
  17  -2   6    7.25    3.58
  17  -2   6   12.70    5.32
  17   2   6   12.30    5.98
  17   2   7    8.06    3.08
  17  -2   7    9.83    3.45
  17   2   7    6.78    4.01
  17   2   8   24.74    6.46
  17  -2   8   17.09    5.13
  17  -2   8   26.12    6.70
  17   2   8   19.78    4.75
  17   2   9   16.09    5.58
  17  -2   9   12.79    4.31
  17  -2   9   17.99    5.60
  17   2   9   12.27    5.81
  17   2  10    9.37    3.53
  17  -2  10    7.75    5.55
  17  -2  10   12.81    5.35
  17   2  10    4.65    3.71
  17   2  11   -0.76    3.15
  17  -2  11    1.43    2.90
  17  -2  11   -2.44    2.69
  17   2  12    3.02    2.58
  17  -2  12    8.84    5.04
  17   2  13   10.39    4.35
  17  -2  13    5.41    4.11
  17   2  14   15.13    5.43
  17  -2  14    7.61    3.43
  17   2  15   12.93    6.38
  17  -2  15    3.59    3.48
  17   2  16    3.47    2.96
  17  -2  16    9.43    5.40
  17  -3 -15   29.60    7.70
  17   3 -15   23.51    6.82
  17  -3 -14   25.11    6.57
  17   3 -14   13.04    5.03
  17  -3 -13    7.26    3.76
  17   3 -13   21.41    6.83
  17  -3 -12   16.55    7.66
  17  -3 -12    0.21    3.23
  17   3 -12   11.81    5.54
  17  -3 -11   12.96    4.74
  17  -3 -11   13.41    5.95
  17   3 -11    6.74    4.41
  17  -3 -10   53.21    9.53
  17  -3 -10   46.78    9.76
  17   3 -10   55.73    9.27
  17  -3  -9   28.65    7.22
  17  -3  -9   28.96    7.37
  17   3  -9   32.12    7.21
  17  -3  -8   -1.33    3.09
  17  -3  -8    3.80    3.87
  17   3  -8    1.45    4.17
  17  -3  -7   16.77    6.14
  17  -3  -7   25.55    7.56
  17   3  -7   23.81    5.62
  17  -3  -6   -0.37    2.69
  17  -3  -6    3.80    2.60
  17   3  -6    7.44    3.34
  17  -3  -5   82.47   11.30
  17   3  -5   88.94   12.67
  17  -3  -5   54.22   10.37
  17   3  -5   57.99    9.26
  17  -3  -4   56.50    9.88
  17   3  -4   65.67   10.28
  17  -3  -4   42.67    8.95
  17   3  -4   66.37   10.52
  17  -3  -3    5.11    1.93
  17  -3  -3    9.66    5.37
  17   3  -3    7.27    4.62
  17   3  -3   12.03    5.66
  17  -3  -2   74.94   11.07
  17   3  -2   94.20   11.77
  17  -3  -2   90.38   12.79
  17   3  -2   80.50   11.09
  17  -3  -1  169.44   16.79
  17   3  -1  131.55   14.64
  17  -3  -1  140.12   15.94
  17   3  -1  115.38   14.29
  17   3  -1  179.55   16.75
  17   3   0    3.34    2.61
  17  -3   0    2.19    3.47
  17  -3   0   -0.03    2.20
  17   3   0    3.73    4.49
  17   3   0   -0.16    3.45
  17  -3   1  165.25   16.45
  17   3   1  148.74   15.00
  17  -3   1  162.49   16.74
  17   3   1  152.54   16.37
  17   3   1  157.01   15.20
  17  -3   2   66.96   10.56
  17   3   2   91.59   11.67
  17  -3   2   84.81   12.14
  17   3   2   81.30   12.05
  17   3   2   71.01   11.07
  17   3   3   13.87    4.86
  17  -3   3    8.83    5.18
  17  -3   3    8.33    3.38
  17   3   3    2.45    1.86
  17   3   3    3.74    2.83
  17  -3   4   48.02    9.15
  17   3   4   64.57   10.29
  17  -3   4   73.95   11.07
  17   3   4   59.69   10.83
  17   3   4   58.48    9.66
  17  -3   5   67.99   10.42
  17   3   5   67.43   10.10
  17  -3   5   47.70    9.05
  17   3   5   56.24    9.46
  17   3   6    4.09    3.57
  17  -3   6   -2.96    3.86
  17  -3   6    7.41    6.54
  17   3   6   -0.27    4.54
  17   3   7   26.90    7.02
  17  -3   7   20.98    6.65
  17  -3   7   26.18    7.68
  17   3   7   31.79    8.18
  17   3   8    1.85    2.50
  17  -3   8    3.38    3.12
  17  -3   8    4.74    3.29
  17   3   8   -0.77    3.00
  17   3   9   29.85    7.17
  17  -3   9   24.83    6.39
  17  -3   9   34.68    8.45
  17   3   9   15.55    5.73
  17   3  10   47.12    8.62
  17  -3  10   66.43   10.58
  17  -3  10   48.27   10.27
  17   3  10   41.74    8.25
  17   3  11   14.68    5.00
  17  -3  11   21.93    6.87
  17  -3  11   12.35    6.14
  17   3  12    7.01    3.68
  17  -3  12    7.78    5.35
  17  -3  12    2.30    3.67
  17   3  13   31.89    7.56
  17  -3  13   22.04    6.59
  17  -3  13   24.71    7.41
  17   3  14   24.77    7.09
  17  -3  14   12.01    4.20
  17  -3  14   13.63    6.02
  17   3  15   34.33    7.84
  17  -3  15   38.16    8.79
  17  -4 -14   34.75    8.70
  17   4 -14   31.62    7.70
  17  -4 -13   42.29   10.01
  17  -4 -13   54.16   10.31
  17   4 -13   30.30    7.17
  17  -4 -12   12.84    5.45
  17  -4 -12    6.79    4.50
  17   4 -12   14.20    4.96
  17  -4 -11   14.58    5.93
  17  -4 -11   13.53    5.51
  17   4 -11   14.84    5.42
  17  -4 -10    8.07    4.71
  17  -4 -10   10.15    5.68
  17   4 -10   10.01    5.67
  17  -4  -9   -0.76    3.25
  17  -4  -9    5.31    2.86
  17   4  -9    0.85    2.10
  17  -4  -8    4.57    4.41
  17  -4  -8    7.94    4.57
  17   4  -8    6.74    3.21
  17  -4  -7    5.00    4.89
  17  -4  -7    3.29    2.54
  17   4  -7    1.28    2.91
  17  -4  -6   15.12    5.65
  17  -4  -6   21.32    5.93
  17   4  -6   22.68    6.59
  17  -4  -5   39.23    7.91
  17  -4  -5   24.83    5.95
  17   4  -5   29.84    6.78
  17   4  -4    5.91    3.01
  17  -4  -4    5.06    2.87
  17  -4  -4    1.46    2.69
  17   4  -3    0.87    3.51
  17   4  -3    1.51    4.43
  17  -4  -3   12.22    5.03
  17  -4  -3    8.16    4.65
  17   4  -2   24.19    6.06
  17   4  -2   19.53    5.81
  17  -4  -2   28.64    7.04
  17  -4  -2   28.25    8.29
  17   4  -1   20.13    5.52
  17   4  -1   27.59    6.60
  17  -4  -1   19.44    6.30
  17  -4  -1   30.08    6.71
  17   4   0   18.23    5.77
  17   4   0   19.26    6.33
  17  -4   0   13.73    4.77
  17  -4   0    9.70    5.46
  17   4   1   23.74    7.18
  17   4   1   39.88    7.49
  17  -4   1   44.77    8.46
  17  -4   1   25.89    6.33
  17   4   2   13.27    4.59
  17   4   2   13.27    4.86
  17  -4   2   14.62    5.06
  17  -4   2   11.60    3.94
  17   4   3    6.86    3.81
  17   4   3   15.30    5.56
  17  -4   3    6.45    3.95
  17  -4   3    7.59    3.03
  17   4   4    5.89    2.32
  17   4   4    5.66    3.38
  17  -4   4    9.21    5.06
  17  -4   4   11.37    5.43
  17   4   5   34.38    7.57
  17   4   5   40.77    8.15
  17  -4   5   27.88    7.49
  17  -4   5   19.02    5.85
  17   4   6   10.85    3.49
  17   4   6   17.15    5.05
  17  -4   6   20.85    5.98
  17  -4   6   13.34    5.16
  17   4   7    6.80    4.38
  17   4   7    4.13    3.27
  17  -4   7   -0.43    2.59
  17  -4   7    0.08    3.01
  17   4   8    7.38    3.69
  17   4   8    5.75    3.47
  17  -4   8    5.66    3.76
  17  -4   8    6.50    4.69
  17   4   9    4.00    3.01
  17   4   9    2.49    3.50
  17  -4   9   -4.82    4.26
  17  -4   9   -1.01    3.82
  17   4  10    0.06    2.60
  17   4  10    8.90    4.70
  17  -4  10   14.65    6.03
  17  -4  10    6.08    4.63
  17   4  11   15.77    5.18
  17   4  11   13.03    5.35
  17  -4  11   25.77    7.34
  17  -4  11   10.63    4.98
  17   4  12   11.90    4.71
  17  -4  12    6.61    2.67
  17  -4  12    9.09    3.64
  17   4  13   26.24    8.66
  17  -4  13   29.86    7.90
  17  -4  13   30.10    8.07
  17   4  14   53.76    9.49
  17  -4  14   29.85    7.76
  17  -4  14   32.93    8.83
  17  -5 -11   26.63    8.33
  17  -5 -11   14.48    5.88
  17   5 -11   24.95    6.55
  17  -5 -10   60.16   10.59
  17   5 -10   68.28   10.73
  17  -5 -10   53.24   10.63
  17  -5  -9    6.41    4.77
  17  -5  -9   18.55    6.09
  17   5  -9   10.35    4.07
  17   5  -8    9.90    5.38
  17  -5  -8    3.49    3.16
  17  -5  -8    2.15    2.29
  17  -5  -7   40.66    9.09
  17  -5  -7   53.18   10.57
  17   5  -7   62.43    9.99
  17  -5  -6   67.98   10.93
  17  -5  -6   66.91   11.13
  17   5  -6   81.38   11.76
  17   5  -5   17.63    5.42
  17  -5  -5   18.99    6.59
  17  -5  -5    9.47    2.31
  17   5  -4   19.15    6.76
  17  -5  -4    8.23    4.40
  17  -5  -4   14.08    5.09
  17   5  -3   15.70    5.44
  17  -5  -3   18.27    6.22
  17  -5  -3   17.30    6.38
  17   5  -2   18.38    5.74
  17   5  -2   12.52    5.26
  17  -5  -2   16.90    5.31
  17  -5  -2   19.76    5.94
  17   5  -1   20.76    6.25
  17   5  -1   23.43    5.70
  17  -5  -1   23.30    7.17
  17  -5  -1   30.44    7.59
  17   5   0   32.75    7.63
  17  -5   0   54.20    9.74
  17   5   0   37.02    7.61
  17  -5   0   28.35    8.29
  17   5   1   31.79    7.64
  17   5   1   25.87    6.78
  17  -5   1   23.57    6.86
  17  -5   1   35.99    8.48
  17   5   2   21.70    6.18
  17   5   2    6.64    2.82
  17  -5   2    8.88    4.65
  17  -5   2   15.38    5.22
  17   5   3   26.17    6.67
  17   5   3   16.47    5.10
  17  -5   3   29.20    7.44
  17  -5   3   23.32    7.33
  17   5   4   10.38    5.25
  17   5   4   13.10    5.26
  17  -5   4    8.55    4.17
  17  -5   4   14.16    6.34
  17   5   5   26.26    6.56
  17   5   5   18.71    5.82
  17  -5   5   17.49    6.18
  17  -5   5   16.84    4.81
  17  -5   6   69.40   10.64
  17  -5   6   61.38   10.94
  17   5   6   69.22   10.78
  17   5   6   68.40   11.32
  17   5   7   32.58    7.34
  17   5   7   35.42    8.21
  17  -5   7   51.07    9.79
  17  -5   7   29.88    7.64
  17   5   8    2.87    4.65
  17   5   8    7.84    4.15
  17  -5   8    6.61    4.13
  17  -5   8    6.76    3.22
  17   5   9   10.13    3.86
  17   5   9    7.01    3.94
  17  -5   9    5.73    2.89
  17  -5   9    9.22    4.68
  17  -5  10   76.33   11.89
  17   5  10   46.26    8.49
  17  -5  10   62.17   10.28
  17   5  10   61.44   10.85
  17   5  11   28.42    6.61
  17   5  11   15.08    5.14
  17  -5  11   20.50    7.05
  17  -5  11   13.05    5.52
  17   6  -7    1.33    3.60
  17  -6  -7    9.69    4.44
  17  -6  -7    0.17    3.12
  17   6  -6    8.14    5.08
  17  -6  -6    7.96    3.99
  17  -6  -6    5.25    5.58
  17   6  -5    4.19    1.86
  17  -6  -5   -0.28    2.47
  17  -6  -5    7.68    3.67
  17   6  -4   18.74    6.77
  17  -6  -4    5.28    5.00
  17  -6  -4   18.14    5.54
  17   6  -3   15.37    5.16
  17  -6  -3   16.37    5.49
  17  -6  -3   17.91    6.87
  17   6  -2    3.72    3.74
  17  -6  -2    1.82    3.62
  17  -6  -2   11.14    5.98
  17   6  -1    5.59    4.76
  17  -6  -1    3.26    3.83
  17  -6  -1    2.52    2.57
  17   6   0    1.63    2.12
  17  -6   0   -0.17    2.22
  17   6   0    2.46    3.90
  17  -6   0    2.08    3.50
  17   6   1    5.36    3.87
  17  -6   1    5.24    2.98
  17   6   1    6.05    4.75
  17  -6   1   -1.87    2.36
  17   6   2    6.23    1.99
  17  -6   2    0.29    2.81
  17   6   2    5.94    4.72
  17  -6   2   -3.19    5.34
  17   6   3    9.83    4.31
  17  -6   3    5.77    4.05
  17   6   3    6.84    3.69
  17  -6   3   19.46    7.78
  17   6   4    0.45    3.17
  17  -6   4   13.52    5.76
  17   6   4    8.21    4.95
  17  -6   4    6.52    2.57
  17   6   5   10.26    4.47
  17  -6   5    6.76    4.27
  17   6   5    7.34    3.98
  17  -6   5    5.99    5.63
  17   6   6   11.62    4.56
  17  -6   6   10.29    3.84
  17   6   6    5.89    1.90
  17  -6   6    3.35    3.77
  17   6   7    1.76    3.31
  17  -6   7   -0.71    3.38
  17   6   7   10.24    4.12
  17  -6   7    6.14    2.62
  18   0 -15  433.04   28.82
  18   0 -14    2.14    2.92
  18   0 -13   51.59   10.05
  18   0 -12   54.23   10.95
  18   0 -11  421.28   27.69
  18   0 -10   63.13   10.62
  18   0  -9   65.40   10.40
  18   0  -8   26.70    8.16
  18   0  -8   27.57    7.33
  18   0  -7   14.93    5.92
  18   0  -7    9.99    4.42
  18   0  -6    2.39    2.48
  18   0  -6    2.25    3.07
  18   0  -5  142.59   15.88
  18   0  -5  167.05   17.42
  18   0  -4  205.96   18.99
  18   0  -4  152.42   15.91
  18   0  -3  149.07   15.71
  18   0  -3  147.89   15.89
  18   0  -2   49.05    8.63
  18   0  -2   49.37    9.41
  18   0  -1   91.37   12.21
  18   0  -1   64.19   10.66
  18   0   0   74.75   11.17
  18   0   0   71.77   11.15
  18   0   1   58.83   10.18
  18   0   1   60.98   10.32
  18   0   2   62.04    9.93
  18   0   2   43.41    9.28
  18   0   3  139.12   15.27
  18   0   3  155.23   16.31
  18   0   4  198.92   18.56
  18   0   4  187.30   18.71
  18   0   5  152.85   16.03
  18   0   5  184.35   18.08
  18   0   6    4.79    2.81
  18   0   6    5.00    3.26
  18   0   7   25.81    6.93
  18   0   7   14.68    5.12
  18   0   8   26.74    6.82
  18   0   8   14.27    4.91
  18   0   9   61.95    9.99
  18   0   9   68.13   10.66
  18   0  10   67.72   11.22
  18   0  11  475.41   28.03
  18   0  12   60.98   11.09
  18   0  13   74.19   11.44
  18   0  14    2.00    2.52
  18   0  15  524.56   30.58
  18  -1 -15   28.72    8.35
  18  -1 -14    3.19    3.99
  18  -1 -13    4.49    4.31
  18  -1 -12    2.52    4.30
  18  -1 -11    2.65    2.75
  18  -1 -10   59.64   10.38
  18   1 -10   64.36   12.77
  18  -1  -9    3.99    2.33
  18  -1  -9    7.59    4.43
  18   1  -9    5.90    2.71
  18  -1  -8    1.25    2.91
  18  -1  -8    7.63    5.45
  18   1  -8    2.97    3.69
  18  -1  -7   -0.52    4.09
  18   1  -7    0.21    4.38
  18  -1  -7    3.88    3.18
  18  -1  -6   35.86    8.11
  18   1  -6   42.72    8.53
  18  -1  -6   58.24   10.50
  18   1  -6   37.47    8.33
  18  -1  -5    2.00    2.04
  18   1  -5    3.44    4.97
  18  -1  -5    2.78    1.89
  18   1  -5    1.64    3.07
  18  -1  -4    1.21    2.78
  18   1  -4   -3.58    3.86
  18  -1  -4    4.73    3.40
  18   1  -4   -0.68    1.99
  18  -1  -3    3.25    2.26
  18   1  -3    5.01    3.07
  18  -1  -3    2.04    2.93
  18   1  -3   -1.43    3.05
  18  -1  -2    0.49    2.23
  18   1  -2    3.51    3.27
  18  -1  -2    3.07    4.69
  18   1  -2    0.99    3.76
  18  -1  -1    4.19    2.73
  18   1  -1    4.01    3.10
  18  -1  -1    4.41    2.80
  18   1  -1    5.64    5.39
  18  -1   0    2.82    3.87
  18   1   0    0.34    3.05
  18  -1   0    0.66    2.75
  18   1   0    3.98    3.76
  18   1   0    2.27    2.05
  18  -1   1    2.70    2.27
  18   1   1    7.64    4.42
  18  -1   1   -0.99    3.03
  18   1   1   -0.83    2.01
  18   1   1   11.85    4.83
  18  -1   2   -1.82    2.00
  18   1   2    3.94    3.89
  18  -1   2    7.31    5.33
  18   1   2   -0.75    3.42
  18   1   2   -0.72    2.25
  18  -1   3    0.97    1.61
  18   1   3   -1.49    1.83
  18  -1   3    0.65    2.06
  18   1   3    3.38    2.37
  18   1   3   -0.22    2.58
  18  -1   4    0.82    1.86
  18  -1   4   -2.25    3.64
  18   1   4    3.71    2.49
  18   1   4    3.35    2.93
  18   1   4    1.11    2.91
  18  -1   5   -0.77    2.03
  18  -1   5    4.77    3.66
  18   1   5    1.43    2.45
  18   1   5    0.81    2.46
  18   1   5   -4.07    4.48
  18  -1   6   44.32    8.88
  18   1   6   42.40    8.61
  18  -1   6   45.37    9.04
  18   1   6   43.46    9.47
  18  -1   7    2.51    4.30
  18  -1   7    5.97    3.90
  18   1   7   10.44    4.63
  18   1   7   12.20    5.19
  18  -1   8    2.13    2.00
  18  -1   8    1.02    2.11
  18   1   8    4.22    2.13
  18  -1   9   -2.56    3.57
  18  -1   9    6.38    4.21
  18   1   9    4.21    2.77
  18  -1  10   70.44   11.20
  18  -1  10   70.94   11.64
  18   1  10   38.51    8.02
  18  -1  11   -4.05    5.08
  18   1  11    7.43    4.32
  18  -1  12    5.99    4.19
  18   1  12    2.55    4.53
  18  -1  13    9.44    5.39
  18   1  13    1.90    3.90
  18  -1  14   -2.45    3.58
  18   1  14    2.28    2.92
  18  -1  15   42.25    9.76
  18   1  15   38.27    8.97
  18  -2 -14    5.01    3.69
  18  -2 -13   20.85    6.47
  18  -2 -12   -0.40    2.55
  18  -2 -11   57.52   10.07
  18  -2 -10   74.67   11.34
  18  -2 -10   71.95   11.69
  18  -2  -9   -0.05    3.00
  18  -2  -9    2.05    2.21
  18   2  -9    3.06    2.59
  18  -2  -8    1.59    4.39
  18  -2  -8   -2.06    1.76
  18   2  -8    2.41    3.65
  18  -2  -7    1.44    3.45
  18  -2  -7    3.80    4.00
  18   2  -7    3.25    3.86
  18  -2  -6   47.72    9.61
  18  -2  -6   50.74    8.81
  18   2  -6   44.87    8.21
  18  -2  -5   85.26   12.49
  18   2  -5   71.36   10.54
  18  -2  -5   65.18   10.72
  18   2  -5   67.52    9.80
  18  -2  -4   84.72   11.87
  18  -2  -4   55.59   11.11
  18   2  -4   40.58    7.95
  18   2  -4   52.25    9.73
  18   2  -4   85.95   11.57
  18  -2  -3   16.57    6.58
  18   2  -3   15.33    5.96
  18  -2  -3   11.21    4.66
  18   2  -3   21.89    7.00
  18   2  -3   10.97    4.88
  18  -2  -2   18.40    5.91
  18  -2  -2   27.68    7.25
  18   2  -2   25.75    6.52
  18   2  -2   18.13    6.39
  18   2  -2   36.97    8.14
  18  -2  -1  107.81   13.33
  18   2  -1  126.16   14.36
  18  -2  -1   98.26   12.93
  18   2  -1   95.71   13.31
  18   2  -1  103.70   12.59
  18  -2   0   74.78   11.51
  18   2   0   72.62   10.88
  18  -2   0   91.03   13.05
  18   2   0  108.55   14.10
  18   2   0   84.03   11.49
  18  -2   1   92.98   12.41
  18   2   1   90.70   12.13
  18  -2   1   76.81   12.30
  18   2   1   93.56   12.44
  18   2   1   90.28   12.21
  18  -2   2   29.40    7.58
  18  -2   2   25.51    7.78
  18   2   2   34.75    7.70
  18   2   2   27.10    7.49
  18   2   2   25.66    6.04
  18  -2   3   17.81    5.50
  18  -2   3   14.04    5.29
  18   2   3   19.64    5.25
  18   2   3   17.28    5.83
  18   2   3   17.75    5.42
  18  -2   4   64.08   11.04
  18   2   4   64.34   10.32
  18  -2   4   77.07   11.28
  18   2   4   40.03    8.09
  18   2   4   53.87    9.34
  18  -2   5   58.39    9.39
  18   2   5   76.68   10.90
  18  -2   5   65.82   11.09
  18   2   5   78.59   12.41
  18   2   5   61.26    9.65
  18  -2   6   61.94    9.77
  18   2   6   54.34    9.94
  18  -2   6   52.85    9.73
  18   2   6   48.18    9.67
  18   2   6   52.79    9.37
  18  -2   7    5.18    3.63
  18  -2   7    2.69    2.12
  18   2   7    2.18    2.60
  18   2   7    5.56    2.49
  18   2   8    3.22    3.88
  18  -2   8   -1.49    3.00
  18  -2   8    0.66    3.04
  18   2   8    4.42    2.51
  18   2   9   -1.34    1.64
  18  -2   9   -0.46    2.43
  18  -2   9    0.59    3.52
  18   2   9    1.48    4.25
  18  -2  10   78.42   11.53
  18   2  10   75.45   10.59
  18  -2  10   57.03    9.69
  18  -2  11   39.95    8.89
  18   2  11   58.12    9.84
  18  -2  11   47.65   10.10
  18   2  12   -0.43    2.43
  18  -2  12    4.54    3.22
  18  -2  12    2.11    3.27
  18   2  13   10.60    4.14
  18  -2  13    6.81    2.77
  18  -2  13    9.24    7.17
  18   2  14   16.66    6.49
  18  -2  14   20.39    5.16
  18  -3 -13   32.72    7.66
  18   3 -13   30.92    7.09
  18  -3 -12   32.77    7.71
  18   3 -12   34.74    8.05
  18  -3 -11   -3.46    2.46
  18   3 -11   -1.43    2.48
  18  -3 -10   10.18    4.35
  18  -3 -10    9.84    5.57
  18   3 -10   10.88    4.00
  18  -3  -9   -0.70    2.42
  18  -3  -9    3.39    4.97
  18   3  -9    3.32    2.86
  18  -3  -8    2.76    3.88
  18  -3  -8   -4.27    3.21
  18   3  -8    0.87    2.28
  18  -3  -7    8.04    4.77
  18  -3  -7    1.58    3.52
  18   3  -7    0.78    2.35
  18  -3  -6   78.03   11.70
  18  -3  -6   68.46   11.49
  18   3  -6   74.26   11.09
  18  -3  -5   -2.60    3.49
  18  -3  -5    3.54    3.48
  18  -3  -4   26.54    6.47
  18  -3  -4   12.67    6.03
  18   3  -4   19.89    6.51
  18   3  -4   11.19    4.69
  18  -3  -3   -0.66    2.05
  18  -3  -3    0.37    2.00
  18   3  -3   -1.09    1.80
  18   3  -3   -2.01    2.37
  18  -3  -2    3.15    3.49
  18  -3  -2    2.69    3.70
  18   3  -2    5.58    2.10
  18   3  -2    5.92    2.86
  18  -3  -1    3.17    2.45
  18  -3  -1   -3.71    4.38
  18   3  -1   -1.53    2.21
  18   3  -1    4.92    2.90
  18  -3   0    5.13    1.47
  18  -3   0    6.11    3.81
  18   3   0    8.09    3.57
  18   3   0    6.48    3.79
  18  -3   1   -1.74    3.13
  18  -3   1    1.84    2.38
  18   3   1    8.96    9.26
  18   3   1    6.24    4.38
  18   3   1   -2.25    2.36
  18   3   2    4.17    4.08
  18  -3   2    2.11    2.15
  18  -3   2    1.15    4.07
  18   3   2    1.74    2.24
  18   3   2   -2.27    2.67
  18   3   3   -0.57    2.31
  18  -3   3    0.84    2.32
  18  -3   3    6.14    4.94
  18   3   3    3.74    4.11
  18   3   3   -0.86    2.53
  18   3   4   16.48    5.46
  18  -3   4   20.23    5.80
  18  -3   4   25.39    7.15
  18   3   4   15.30    6.16
  18   3   4   21.34    6.23
  18   3   5    6.21    4.38
  18  -3   5    6.63    3.44
  18  -3   5    8.66    3.38
  18   3   5    8.08    5.26
  18   3   5    8.01    4.93
  18  -3   6   68.58   11.07
  18   3   6   78.82   10.87
  18  -3   6   60.97   10.06
  18   3   6   59.76   10.68
  18   3   6   82.17   11.86
  18   3   7    3.53    2.75
  18  -3   7    8.28    3.74
  18  -3   7   11.22    6.11
  18   3   7    4.71    4.36
  18   3   8   -0.56    2.18
  18  -3   8    3.74    4.17
  18  -3   8    4.35    2.44
  18   3   8    2.74    3.86
  18   3   9    3.26    3.64
  18  -3   9    5.40    5.00
  18  -3   9    3.87    3.10
  18   3   9    3.77    4.46
  18   3  10   11.03    4.46
  18  -3  10    5.23    5.08
  18  -3  10    6.48    2.62
  18   3  11    2.64    4.75
  18  -3  11    2.52    4.24
  18  -3  11   -1.03    4.45
  18   3  12   31.95    7.24
  18  -3  12   29.58    7.64
  18  -3  12   22.59    7.12
  18   3  13   24.13    7.08
  18  -3  13   28.79    8.51
  18  -3  13   39.02    8.47
  18  -4 -11   18.98    5.94
  18  -4 -11   25.50    6.58
  18   4 -11   38.97    8.50
  18  -4 -10   44.03   10.04
  18  -4 -10   52.70   10.85
  18   4 -10   57.11    9.64
  18  -4  -9   11.97    4.76
  18  -4  -9   18.57    5.58
  18   4  -9    8.29    5.01
  18  -4  -8    7.25    3.89
  18  -4  -8   16.78    8.63
  18   4  -8    6.36    6.50
  18  -4  -7   56.84   10.62
  18  -4  -7   27.87    7.80
  18   4  -7   59.32   10.26
  18  -4  -6   98.34   13.72
  18   4  -6  134.58   14.87
  18  -4  -5   51.17    9.60
  18  -4  -5   61.37   11.40
  18   4  -5   87.14   12.39
  18  -4  -4    4.66    3.79
  18  -4  -4    2.97    3.05
  18   4  -4    4.28    4.03
  18  -4  -3    0.73    3.17
  18  -4  -3    0.28    3.68
  18   4  -3    3.00    2.46
  18   4  -3    4.42    2.99
  18  -4  -2   -3.77    3.22
  18  -4  -2    0.72    2.08
  18   4  -2    1.78    2.25
  18   4  -2    2.38    2.62
  18  -4  -1  103.85   13.14
  18   4  -1   95.29   13.25
  18  -4  -1   67.74   11.67
  18   4  -1   67.44   10.41
  18  -4   0   70.41   11.04
  18   4   0   95.48   12.59
  18  -4   0   95.71   13.09
  18   4   0   87.64   12.00
  18  -4   1   86.62   12.24
  18   4   1  107.00   13.29
  18  -4   1   69.90   12.46
  18   4   1   69.97   10.81
  18   4   2    5.75    5.15
  18   4   2    2.97    2.95
  18  -4   2    2.33    3.17
  18  -4   2    1.62    2.61
  18   4   3   -0.07    3.02
  18   4   3    3.75    2.40
  18  -4   3    1.23    2.66
  18  -4   3    5.89    4.29
  18   4   4   -0.83    2.54
  18  -4   4    3.18    2.82
  18  -4   4   -1.10    2.19
  18  -4   5   75.36   11.65
  18  -4   5   93.88   13.95
  18   4   5   71.52   10.65
  18   4   5   69.31   10.91
  18  -4   6  110.26   13.93
  18  -4   6  109.52   14.61
  18   4   6  126.12   14.64
  18   4   6  113.71   13.60
  18   4   7   50.91    9.49
  18   4   7   44.20    8.47
  18  -4   7   52.45    9.63
  18  -4   7   48.94   10.34
  18   4   8    3.74    2.33
  18   4   8    8.68    3.74
  18  -4   8   -2.08    2.99
  18  -4   8    7.30    4.98
  18   4   9   15.89    7.16
  18   4   9   20.59    6.22
  18  -4   9    9.16    5.08
  18  -4   9    7.72    2.22
  18  -4  10   61.13   11.06
  18  -4  10   60.44   11.37
  18   4  10   66.25   10.84
  18   4  10   46.03    9.75
  18   4  11   26.42    7.71
  18  -4  11   27.68    7.23
  18  -4  11   30.36    7.79
  18  -5  -7   -0.90    2.39
  18  -5  -7    5.16    4.86
  18   5  -7    0.36    2.10
  18  -5  -6   -3.11    4.84
  18  -5  -6    1.72    2.66
  18   5  -6    2.83    2.89
  18   5  -5   10.43    4.86
  18  -5  -5    1.21    3.83
  18  -5  -5   -7.26    5.94
  18   5  -4   13.28    5.16
  18  -5  -4    8.44    4.23
  18  -5  -4   12.60    6.53
  18   5  -3    0.26    2.39
  18  -5  -3    6.26    4.26
  18  -5  -3    0.89    3.17
  18   5  -2    1.86    3.23
  18  -5  -2    2.90    2.34
  18  -5  -2    0.57    3.74
  18   5  -1    8.87    4.80
  18   5  -1    2.27    2.65
  18  -5  -1   10.14    4.60
  18  -5  -1    8.81    4.92
  18   5   0   -2.74    1.65
  18   5   0   -1.97    2.69
  18  -5   0    0.11    1.75
  18  -5   0   -1.17    5.13
  18   5   1    4.63    3.69
  18   5   1    6.16    2.77
  18  -5   1    4.28    2.56
  18  -5   1    7.43    6.75
  18   5   2   -0.41    3.90
  18   5   2   -0.41    3.04
  18  -5   2   -1.43    3.73
  18  -5   2    3.77    3.77
  18   5   3   -0.75    2.60
  18   5   3    0.69    1.85
  18  -5   3    1.86    4.53
  18  -5   3   -0.08    2.58
  18   5   4    8.75    3.24
  18   5   4   13.28    5.88
  18  -5   4    0.97    2.51
  18  -5   4   13.46    4.16
  18   5   5    5.20    2.95
  18   5   5    8.38    5.00
  18  -5   5    0.52    2.98
  18  -5   5   -2.57    3.60
  18   5   6    8.97    5.96
  18   5   6    6.84    3.95
  18  -5   6   -1.79    5.08
  18  -5   6    3.97    3.91
  18   5   7    7.57    4.62
  18   5   7   -0.48    3.27
  18  -5   7    1.99    2.90
  18  -5   7   -0.10    4.45
  19   0 -12    1.28    3.77
  19   0 -11   -0.41    2.46
  19   0 -10   -0.05    2.95
  19   0  -9   -2.53    3.30
  19   0  -8    1.03    3.16
  19   0  -7   -0.09    3.32
  19   0  -7    2.80    3.62
  19   0  -6    3.48    4.58
  19   0  -6   -2.18    3.24
  19   0  -5    3.05    4.15
  19   0  -5   -1.98    3.65
  19   0  -4    1.93    3.69
  19   0  -4    2.36    2.97
  19   0  -3    3.00    3.45
  19   0  -3    4.56    3.98
  19   0  -2    0.25    2.43
  19   0  -2    0.97    3.74
  19   0  -1    8.96    5.14
  19   0  -1    0.87    3.86
  19   0   0   -2.97    3.75
  19   0   0   -3.24    2.77
  19   0   1   -0.56    2.61
  19   0   1   -2.65    4.20
  19   0   2    0.26    2.58
  19   0   2    2.95    3.84
  19   0   3   -1.47    1.89
  19   0   3    2.49    2.50
  19   0   4    1.22    3.83
  19   0   4   -4.45    4.42
  19   0   5    2.75    2.97
  19   0   5    0.93    2.80
  19   0   6    2.97    3.77
  19   0   6    0.14    2.06
  19   0   7    4.24    4.33
  19   0   7   -0.35    3.28
  19   0   8   -0.48    1.89
  19   0   8    2.91    3.71
  19   0   9   -0.94    1.71
  19   0   9   -1.63    3.04
  19   0  10    2.78    3.10
  19   0  10   -3.12    2.75
  19   0  11    1.23    2.10
  19   0  12    3.12    4.46
  19  -1 -12    9.04    4.53
  19  -1 -11   52.14    9.53
  19  -1 -10   81.11   12.88
  19  -1  -9   12.18    5.49
  19  -1  -8    7.88    4.96
  19  -1  -8   17.86    6.62
  19   1  -8   14.00    4.70
  19  -1  -7   27.52    7.18
  19  -1  -7   28.74    7.44
  19   1  -7   31.08    7.54
  19  -1  -6   69.59   11.05
  19   1  -6   55.42   10.85
  19  -1  -6   55.08   10.48
  19   1  -6   52.66   10.64
  19  -1  -5   82.14   12.08
  19   1  -5   71.47   10.96
  19   1  -5   48.60   11.09
  19  -1  -5   44.83    9.93
  19  -1  -4   16.57    5.44
  19   1  -4   22.73    5.24
  19   1  -4   25.15    7.35
  19  -1  -3   15.78    6.23
  19   1  -3   17.70    6.84
  19  -1  -3   23.23    7.03
  19   1  -3   11.25    5.64
  19  -1  -2   66.08   10.24
  19   1  -2   58.50   10.59
  19  -1  -2   76.72   12.15
  19   1  -2   61.12   10.60
  19  -1  -1   57.23   10.13
  19   1  -1   71.21   11.62
  19  -1  -1   60.25   11.29
  19   1  -1   74.31   11.32
  19  -1   0   13.06    4.85
  19   1   0   19.55    6.78
  19  -1   0    9.58    4.53
  19   1   0   11.46    3.44
  19  -1   1   97.88   12.84
  19   1   1   74.67   11.22
  19  -1   1   55.87   10.39
  19   1   1   74.05   11.84
  19  -1   2   79.47   11.53
  19   1   2   60.87   10.38
  19  -1   2   73.99   11.52
  19   1   2   63.11   11.18
  19  -1   3   20.14    5.83
  19   1   3    9.11    3.71
  19  -1   3   15.97    6.26
  19   1   3   15.62    5.47
  19  -1   4   43.17    8.67
  19   1   4   36.16    7.61
  19  -1   4   32.99    7.23
  19   1   4   34.26    8.68
  19  -1   5   60.94    9.92
  19   1   5   61.34   10.53
  19  -1   5   64.66   11.05
  19   1   5   54.97    9.72
  19  -1   6   50.89    9.49
  19   1   6   52.26    8.92
  19  -1   6   49.01    9.52
  19   1   6   52.21    9.61
  19  -1   7   20.08    7.00
  19  -1   7   36.32    8.23
  19   1   7   49.25    9.39
  19   1   7   37.82    8.15
  19  -1   8   23.67    7.38
  19  -1   8   12.03    5.34
  19   1   8   19.45    5.82
  19   1   8   14.13    4.64
  19  -1   9   24.61    6.30
  19  -1   9   22.60    6.09
  19   1   9   17.03    5.66
  19   1   9   23.49    6.72
  19  -1  10  105.25   13.83
  19   1  10  109.60   13.73
  19  -1  10   85.44   13.25
  19  -1  11   59.09   10.32
  19   1  11   56.48   10.41
  19  -1  11   51.11   10.32
  19  -1  12    1.73    4.79
  19   1  12    3.86    3.37
  19  -2 -11   18.53    6.83
  19  -2 -10    4.02    2.55
  19  -2  -9   11.88    5.50
  19  -2  -9   -5.96    5.24
  19  -2  -8    0.27    2.84
  19  -2  -8    3.10    2.38
  19  -2  -7    7.33    3.64
  19   2  -7    9.40    4.47
  19  -2  -6   32.18    8.05
  19  -2  -6   42.77    8.88
  19   2  -6   27.34    6.49
  19  -2  -5   44.03    9.23
  19  -2  -5   31.73    8.05
  19   2  -5   39.69    8.24
  19  -2  -4   16.56    7.15
  19   2  -4    7.50    4.21
  19  -2  -4   16.75    5.54
  19   2  -4   20.83    6.21
  19  -2  -3    6.55    3.99
  19   2  -3   12.58    4.81
  19  -2  -3    7.50    5.22
  19   2  -3    9.82    8.19
  19   2  -3    8.50    2.87
  19  -2  -2    2.45    3.35
  19   2  -2    6.42    2.34
  19  -2  -2    9.53    5.32
  19   2  -2    7.51    3.44
  19   2  -2    6.07    3.10
  19  -2  -1    6.85    4.18
  19   2  -1   13.86    5.10
  19  -2  -1    9.27    3.46
  19   2  -1   11.70    6.32
  19   2  -1    5.11    3.85
  19  -2   0    6.34    3.96
  19  -2   0   10.94    4.25
  19   2   0    7.71    3.20
  19   2   0    3.61    3.23
  19   2   0    6.43    4.05
  19  -2   1    9.59    4.51
  19  -2   1   10.51    4.67
  19   2   1   16.23    4.36
  19   2   1    9.10    3.09
  19   2   1   17.47    6.39
  19  -2   2    8.46    3.54
  19  -2   2   13.41    4.92
  19   2   2    3.56    3.85
  19   2   2    3.93    2.77
  19   2   2    5.65    2.78
  19  -2   3   11.78    5.26
  19  -2   3   12.40    4.65
  19   2   3    6.15    4.89
  19   2   3    5.74    3.68
  19   2   3   15.72    5.46
  19  -2   4   18.40    5.83
  19  -2   4   17.23    5.67
  19   2   4   10.11    3.64
  19   2   4   23.88    6.62
  19   2   4   15.94    5.32
  19  -2   5   31.69    7.36
  19  -2   5   45.15    9.09
  19   2   5   40.40    8.41
  19   2   5   30.50    6.74
  19   2   5   13.30    3.93
  19  -2   6   23.95    6.56
  19  -2   6   22.31    6.76
  19   2   6   30.21    8.64
  19   2   6   15.42    6.10
  19   2   6   25.86    7.05
  19  -2   7    4.25    3.70
  19  -2   7    3.15    2.64
  19   2   7    4.67    3.18
  19   2   7   11.73    4.78
  19  -2   8   -2.02    3.95
  19  -2   8    3.38    4.33
  19   2   8    4.86    3.34
  19   2   8    5.28    4.11
  19   2   8    5.41    3.97
  19  -2   9    5.92    4.70
  19  -2   9    4.51    2.64
  19   2   9    0.35    1.90
  19  -2  10    9.78    4.37
  19  -2  10    3.49    3.81
  19   2  10    3.02    2.16
  19  -2  11    3.71    2.46
  19  -2  11   10.70    5.57
  19   2  11    6.92    3.97
  19  -3  -9   18.36    6.89
  19  -3  -9   19.05    5.64
  19   3  -9   12.97    4.84
  19  -3  -8   30.01    7.98
  19  -3  -8   40.82    8.79
  19   3  -8   41.63    7.96
  19  -3  -7    8.36    3.52
  19  -3  -7   11.91    5.20
  19   3  -7    1.73    3.09
  19  -3  -6    5.67    4.44
  19  -3  -6   15.43    5.28
  19   3  -6   10.58    3.87
  19  -3  -5   10.91    4.76
  19  -3  -5   27.84    7.73
  19   3  -5   33.17    7.19
  19  -3  -4    2.14    1.74
  19  -3  -4    4.47    3.26
  19   3  -4    5.10    2.74
  19  -3  -3    6.10    3.86
  19  -3  -3   15.68    5.52
  19   3  -3   16.75    4.89
  19   3  -3    9.11    5.26
  19  -3  -2   31.47    8.08
  19  -3  -2   17.36    5.67
  19   3  -2   19.96    6.29
  19   3  -2   27.97    7.02
  19  -3  -1    8.54    4.14
  19  -3  -1   11.66    3.27
  19   3  -1   11.16    5.45
  19   3  -1   14.92    4.75
  19  -3   0    5.66    4.11
  19  -3   0   13.88    6.80
  19   3   0    3.39    3.95
  19   3   0    7.13    3.35
  19  -3   1   12.06    5.46
  19  -3   1    7.93    4.03
  19   3   1    9.72    4.68
  19   3   1   16.40    6.33
  19  -3   2   22.15    6.28
  19  -3   2   15.99    5.49
  19   3   2   24.89    6.30
  19   3   2   29.65    7.52
  19  -3   3    9.92    3.39
  19  -3   3   11.36    3.68
  19   3   3   19.78    7.92
  19   3   3    8.63    4.71
  19   3   3    6.78    4.58
  19  -3   4    9.50    4.10
  19  -3   4   12.35    5.66
  19   3   4    7.66    3.48
  19   3   4   11.83    4.27
  19   3   4    8.60    3.45
  19   3   5    9.67    5.07
  19  -3   5   19.35    5.82
  19  -3   5    4.23    1.68
  19   3   5   10.05    4.54
  19   3   5   14.95    5.48
  19   3   6    6.46    2.23
  19  -3   6   13.15    5.92
  19  -3   6   14.94    7.00
  19   3   6    7.77    3.93
  19   3   6    5.98    3.61
  19   3   7   16.37    6.80
  19  -3   7    3.67    1.54
  19  -3   7    9.30    4.95
  19   3   7    1.70    3.95
  19   3   7   18.22    6.93
  19   3   8   37.90    7.56
  19  -3   8   38.58    7.81
  19  -3   8   28.51    7.75
  19   3   8   36.74    9.54
  19   3   9   22.33    5.93
  19  -3   9   20.18    6.41
  19  -3   9   14.22    5.23
  19   3   9    9.12    4.32
  19  -4  -6    1.37    3.51
  19  -4  -6   -0.05    1.97
  19   4  -6    4.70    4.66
  19  -4  -5    6.66    4.49
  19  -4  -5    1.26    2.35
  19   4  -5    0.65    3.54
  19  -4  -4   12.83    5.30
  19  -4  -4    2.26    3.29
  19   4  -4   12.10    4.68
  19  -4  -3    5.68    4.51
  19  -4  -3    2.83    3.78
  19   4  -3    7.09    4.50
  19  -4  -2   16.50    5.14
  19  -4  -2   14.76    5.31
  19   4  -2    7.82    2.35
  19  -4  -1   -1.00    2.88
  19  -4  -1    0.16    3.88
  19   4  -1    0.93    3.39
  19   4  -1    2.10    2.99
  19  -4   0    4.84    2.64
  19  -4   0   13.71    4.14
  19   4   0    3.89    4.01
  19   4   0    4.48    3.83
  19   4   1    2.20    3.27
  19  -4   1   11.89    5.67
  19  -4   1   -0.26    3.24
  19   4   1    5.28    4.01
  19   4   2   11.36    4.07
  19  -4   2    4.48    2.97
  19  -4   2    4.41    2.64
  19   4   3   12.46    5.64
  19  -4   3    6.48    2.78
  19  -4   3    7.76    4.53
  19   4   3    4.14    2.87
  19   4   4   17.01    5.09
  19  -4   4   15.84    5.56
  19  -4   4   11.31    5.16
  19   4   4   14.98    5.88
  19   4   5    4.71    3.19
  19  -4   5   -4.68    2.63
  19  -4   5    2.66    4.30
  19   4   5    7.24    5.74
  19   4   6    2.68    3.99
  19  -4   6    7.55    5.49
  19  -4   6    4.29    5.17
  19   4   6    5.95    5.97
  20   0  -7   11.20    5.20
  20   0  -6    1.30    2.91
  20   0  -6    0.62    3.04
  20   0  -5  132.70   15.78
  20   0  -5   87.39   12.45
  20   0  -4  277.14   22.57
  20   0  -4  282.27   24.12
  20   0  -3    9.90    4.96
  20   0  -3    8.18    3.81
  20   0  -2  304.10   23.91
  20   0  -2  367.70   26.86
  20   0  -1   52.41    9.35
  20   0  -1   48.43   10.23
  20   0   0    3.49    3.14
  20   0   0    4.01    3.82
  20   0   1   47.57    9.06
  20   0   1   51.41   10.03
  20   0   2  378.10   25.42
  20   0   2  330.48   25.87
  20   0   3    1.64    2.91
  20   0   3    1.81    3.59
  20   0   4  303.89   23.27
  20   0   4  294.76   23.76
  20   0   5  103.30   13.49
  20   0   5  127.64   16.01
  20   0   6   -0.71    2.08
  20   0   6    1.99    3.97
  20   0   7    2.82    3.59
  20   0   7    9.12    3.43
  20  -1  -7    4.02    3.36
  20  -1  -7    3.69    2.36
  20   1  -7   10.54    6.51
  20  -1  -6    1.51    1.86
  20  -1  -6    0.45    2.77
  20   1  -6    0.74    2.78
  20  -1  -5    7.17    5.06
  20   1  -5    2.26    3.40
  20  -1  -5    9.91    3.79
  20   1  -5    8.12    6.13
  20  -1  -4    1.74    3.61
  20   1  -4    0.99    2.81
  20  -1  -4   -1.88    4.15
  20   1  -4    3.46    5.42
  20  -1  -3   34.02    8.58
  20   1  -3   27.59    6.97
  20  -1  -3   32.23    7.89
  20   1  -3   19.25    7.32
  20  -1  -2   12.68    5.75
  20   1  -2    6.45    2.14
  20  -1  -2    3.56    4.07
  20   1  -2    5.28    3.35
  20  -1  -1    7.78    4.09
  20   1  -1    8.64    5.09
  20  -1  -1   10.23    5.40
  20   1  -1   14.04    5.03
  20  -1   0   -0.87    1.91
  20   1   0   -0.59    4.27
  20  -1   0    2.20    4.61
  20   1   0    1.73    2.85
  20  -1   1    4.30    4.44
  20   1   1    3.25    2.66
  20  -1   1    5.99    2.31
  20   1   1    6.09    4.20
  20  -1   2    8.96    4.63
  20   1   2   12.22    6.18
  20  -1   2   12.23    4.02
  20   1   2    5.90    5.33
  20  -1   3   24.13    6.75
  20   1   3   19.29    5.90
  20  -1   3   44.14    9.39
  20   1   3   28.03    7.68
  20  -1   4    7.63    3.74
  20   1   4   -0.68    2.73
  20  -1   4   -1.33    3.30
  20   1   4    1.49    3.62
  20  -1   5    8.31    3.35
  20   1   5    6.04    3.17
  20  -1   5    8.05    4.78
  20   1   5    3.25    2.70
  20  -1   6    0.44    1.86
  20   1   6    3.11    3.20
  20  -1   6   -1.14    2.62
  20   1   6   -0.34    4.79
  20  -1   7    4.92    3.48
  20   1   7    1.38    2.82
  20  -1   7    2.61    5.29
  20   1   7    2.92    5.14
  20  -2  -5    1.71    2.42
  20  -2  -5   -2.41    4.48
  20  -2  -4   29.45    7.26
  20   2  -4   32.50    9.03
  20  -2  -4   37.36    8.64
  20  -2  -3    8.01    4.35
  20   2  -3   18.90    7.13
  20  -2  -3    8.71    5.33
  20   2  -3    2.60    3.02
  20  -2  -2  120.85   15.15
  20   2  -2   99.03   13.26
  20  -2  -2  133.76   16.41
  20   2  -2  116.39   13.38
  20  -2  -1    8.67    3.80
  20   2  -1   10.87    4.97
  20  -2  -1    4.00    3.40
  20   2  -1   14.86    6.48
  20   2  -1    7.07    4.69
  20  -2   0    0.48    2.34
  20   2   0    2.39    3.20
  20  -2   0   -0.41    2.75
  20   2   0   -1.84    4.50
  20   2   0   -1.79    3.20
  20  -2   1    6.03    1.63
  20   2   1   12.33    6.01
  20  -2   1   21.67    7.76
  20   2   1   11.68    6.64
  20   2   1    2.51    3.62
  20  -2   2  162.51   16.79
  20   2   2  131.39   15.53
  20  -2   2  120.43   14.80
  20   2   2  122.85   15.42
  20   2   2  126.41   15.22
  20  -2   3   12.02    5.04
  20  -2   3    7.90    4.50
  20   2   3    6.99    4.23
  20   2   3    9.35    5.92
  20   2   3   12.51    5.89
  20  -2   4   37.64    8.31
  20  -2   4   24.91    6.77
  20   2   4   22.74    6.48
  20   2   4   21.22    6.63
  20   2   4   33.05    8.63
  20  -2   5    4.65    3.14
  20  -2   5    8.27    5.31
  20   2   5    5.03    4.25
  20   2   5    1.89    2.72
  20   2   5   -4.34    4.61
   0   0   0    0.00    0.00
TITL 012_200K_SulfamerazineF1_ in Pna2(1)
REM Pna2(1) (#33, found as Pbn2(1) in ba-c setting)
CELL 0.68890  14.473436   8.192086  21.839678  90.0000  90.0000  90.0000
ZERR    8.00   0.000118   0.000074   0.000258   0.0000   0.0000   0.0000
LATT -1
SYMM -x,-y, z+1/2
SYMM  x+1/2,-y+1/2, z
SYMM -x+1/2, y+1/2, z+1/2
SFAC C H N O S
UNIT 88.00 96.00 32.00 16.00 8.00
TREF
HKLF 4
END
_computing_structure_solution     'SHELXT 2014/5 (Sheldrick, 2014)'
;
_shelx_hkl_checksum              24008
loop_
_space_group_symop_operation_xyz
'x, y, z'
'-x, -y, z+1/2'
'x+1/2, -y+1/2, z'
'-x+1/2, y+1/2, z+1/2'
loop_
_atom_site_label
_atom_site_type_symbol
_atom_site_fract_x
_atom_site_fract_y
_atom_site_fract_z
_atom_site_U_iso_or_equiv
_atom_site_adp_type
_atom_site_occupancy
_atom_site_site_symmetry_order
_atom_site_calc_flag
_atom_site_refinement_flags_posn
_atom_site_refinement_flags_adp
_atom_site_refinement_flags_occupancy
_atom_site_disorder_assembly
_atom_site_disorder_group
S1 S 0.64478(5) 0.49487(8) 0.34386(4) 0.02617(17) Uani 1 1 d . . . . .
S2 S 0.57794(5) 0.49723(8) 0.65302(4) 0.02526(17) Uani 1 1 d . . . . .
O1 O 0.68800(16) 0.3704(3) 0.30806(12) 0.0348(5) Uani 1 1 d . . . . .
O2 O 0.54742(15) 0.5223(3) 0.33726(13) 0.0336(5) Uani 1 1 d . . . . .
O3 O 0.67553(15) 0.4700(3) 0.65942(12) 0.0327(5) Uani 1 1 d . . . . .
O4 O 0.53559(16) 0.6246(3) 0.68813(12) 0.0337(5) Uani 1 1 d . . . . .
N1 N 0.8417(2) 1.1171(4) 0.31227(17) 0.0395(7) Uani 1 1 d . . . . .
N2 N 0.65402(19) 0.4475(4) 0.41720(14) 0.0301(6) Uani 1 1 d . . . . .
N3 N 0.81362(18) 0.4087(3) 0.41702(14) 0.0307(6) Uani 1 1 d . . . . .
N4 N 0.7277(2) 0.4307(4) 0.50955(15) 0.0432(8) Uani 1 1 d . . . . .
N5 N 0.3800(2) -0.1204(4) 0.69492(18) 0.0501(9) Uani 1 1 d . . . . .
H5A H 0.4071 -0.2119 0.6879 0.065 Uiso 1 1 calc R U . . .
H5B H 0.3238 -0.1191 0.7076 0.065 Uiso 1 1 calc R U . . .
N6 N 0.56818(19) 0.5397(4) 0.57962(14) 0.0312(6) Uani 1 1 d . . . . .
N7 N 0.40940(18) 0.5874(3) 0.58041(14) 0.0322(6) Uani 1 1 d . . . . .
N8 N 0.4954(2) 0.5657(5) 0.48721(15) 0.0438(8) Uani 1 1 d . . . . .
C1 C 0.7038(2) 0.6773(3) 0.33368(17) 0.0251(6) Uani 1 1 d . . . . .
C2 C 0.79353(19) 0.6791(4) 0.31018(15) 0.0261(6) Uani 1 1 d . . . . .
H2 H 0.8222 0.5818 0.2992 0.034 Uiso 1 1 calc R U . . .
C3 C 0.8394(2) 0.8249(4) 0.30326(16) 0.0259(6) Uani 1 1 d . . . . .
H3 H 0.8995 0.8256 0.2882 0.034 Uiso 1 1 calc R U . . .
C4 C 0.7963(2) 0.9730(4) 0.31884(15) 0.0276(6) Uani 1 1 d . . . . .
C5 C 0.7055(2) 0.9696(4) 0.34254(19) 0.0304(7) Uani 1 1 d . . . . .
H5 H 0.6762 1.0666 0.3532 0.040 Uiso 1 1 calc R U . . .
C6 C 0.6603(2) 0.8233(4) 0.34992(17) 0.0302(7) Uani 1 1 d . . . . .
H6 H 0.6007 0.8215 0.3658 0.039 Uiso 1 1 calc R U . . .
C7 C 0.7363(2) 0.4280(4) 0.44889(15) 0.0284(7) Uani 1 1 d . . . . .
C8 C 0.8062(3) 0.4058(7) 0.5407(2) 0.0592(13) Uani 1 1 d . . . . .
H8 H 0.8039 0.4034 0.5833 0.077 Uiso 1 1 calc R U . . .
C9 C 0.8897(3) 0.3838(6) 0.5124(2) 0.0563(12) Uani 1 1 d . . . . .
H9 H 0.9433 0.3664 0.5349 0.073 Uiso 1 1 calc R U . . .
C10 C 0.8917(2) 0.3883(4) 0.44948(19) 0.0377(8) Uani 1 1 d . . . . .
C11 C 0.9784(3) 0.3687(6) 0.4133(2) 0.0515(10) Uani 1 1 d . . . . .
H11A H 0.9838 0.2575 0.3998 0.067 Uiso 1 1 calc R U . . .
H11B H 1.0305 0.3961 0.4384 0.067 Uiso 1 1 calc R U . . .
H11C H 0.9766 0.4397 0.3784 0.067 Uiso 1 1 calc R U . . .
C12 C 0.5189(2) 0.3164(3) 0.66589(15) 0.0253(6) Uani 1 1 d . . . . .
C13 C 0.5636(2) 0.1689(4) 0.6555(2) 0.0340(8) Uani 1 1 d . . . . .
H13 H 0.6244 0.1681 0.6418 0.044 Uiso 1 1 calc R U . . .
C14 C 0.5178(2) 0.0238(4) 0.66533(19) 0.0383(9) Uani 1 1 d . . . . .
H14 H 0.5481 -0.0745 0.6582 0.050 Uiso 1 1 calc R U . . .
C15 C 0.4262(2) 0.0227(4) 0.68593(17) 0.0326(7) Uani 1 1 d . . . . .
C16 C 0.3820(2) 0.1727(4) 0.69656(16) 0.0286(7) Uani 1 1 d . . . . .
H16 H 0.3212 0.1741 0.7104 0.037 Uiso 1 1 calc R U . . .
C17 C 0.4280(2) 0.3181(4) 0.68669(17) 0.0269(7) Uani 1 1 d . . . . .
H17 H 0.3983 0.4169 0.6939 0.035 Uiso 1 1 calc R U . . .
C18 C 0.4865(2) 0.5659(4) 0.54844(16) 0.0294(7) Uani 1 1 d . . . . .
C19 C 0.4176(3) 0.5963(7) 0.4566(2) 0.0598(13) Uani 1 1 d . . . . .
H19 H 0.4198 0.5990 0.4141 0.078 Uiso 1 1 calc R U . . .
C20 C 0.3345(3) 0.6240(7) 0.4849(2) 0.0602(13) Uani 1 1 d . . . . .
H20 H 0.2817 0.6481 0.4623 0.078 Uiso 1 1 calc R U . . .
C21 C 0.3320(2) 0.6150(5) 0.54824(19) 0.0391(8) Uani 1 1 d . . . . .
C22 C 0.2452(3) 0.6361(6) 0.5845(2) 0.0548(11) Uani 1 1 d . . . . .
H22A H 0.2477 0.7376 0.6064 0.071 Uiso 1 1 calc R U . . .
H22B H 0.2391 0.5476 0.6130 0.071 Uiso 1 1 calc R U . . .
H22C H 0.1931 0.6368 0.5573 0.071 Uiso 1 1 calc R U . . .
H1N1 H 0.892(3) 1.123(5) 0.2904(19) 0.038(10) Uiso 1 1 d . . . . .
H2N1 H 0.811(3) 1.200(5) 0.317(2) 0.048(12) Uiso 1 1 d . . . . .
H1N2 H 0.613(3) 0.485(5) 0.438(2) 0.041(12) Uiso 1 1 d . . . . .
H1N6 H 0.621(3) 0.509(5) 0.560(3) 0.058(14) Uiso 1 1 d . . . . .
loop_
_atom_site_aniso_label
_atom_site_aniso_U_11
_atom_site_aniso_U_22
_atom_site_aniso_U_33
_atom_site_aniso_U_23
_atom_site_aniso_U_13
_atom_site_aniso_U_12
S1 0.0242(3) 0.0284(3) 0.0260(4) 0.0023(3) -0.0013(3) -0.0014(2)
S2 0.0235(3) 0.0276(3) 0.0247(4) 0.0027(3) -0.0011(3) -0.0017(2)
O1 0.0409(13) 0.0281(10) 0.0354(14) -0.0043(10) -0.0004(11) -0.0026(9)
O2 0.0253(10) 0.0428(12) 0.0328(14) 0.0056(11) -0.0046(11) -0.0038(9)
O3 0.0233(10) 0.0431(12) 0.0318(14) 0.0069(11) -0.0036(10) -0.0031(9)
O4 0.0381(13) 0.0285(10) 0.0346(14) -0.0014(9) -0.0010(11) -0.0010(9)
N1 0.0347(15) 0.0285(13) 0.055(2) -0.0068(13) 0.0157(15) -0.0047(11)
N2 0.0217(12) 0.0407(15) 0.0278(16) 0.0068(12) -0.0009(11) 0.0011(10)
N3 0.0244(12) 0.0339(13) 0.0337(16) 0.0034(11) 0.0013(11) 0.0041(10)
N4 0.0304(14) 0.070(2) 0.0290(18) 0.0043(15) -0.0028(13) 0.0123(14)
N5 0.0422(17) 0.0294(13) 0.079(3) -0.0032(15) 0.0156(18) -0.0071(12)
N6 0.0223(12) 0.0451(15) 0.0262(16) 0.0091(13) 0.0014(11) 0.0019(11)
N7 0.0253(12) 0.0370(14) 0.0343(17) 0.0020(12) 0.0010(11) 0.0029(10)
N8 0.0321(14) 0.069(2) 0.0302(18) 0.0042(15) -0.0026(13) 0.0106(14)
C1 0.0232(13) 0.0267(12) 0.0253(17) 0.0016(12) -0.0002(12) 0.0008(10)
C2 0.0240(13) 0.0296(13) 0.0246(16) -0.0006(12) 0.0006(12) 0.0022(10)
C3 0.0230(13) 0.0324(15) 0.0224(17) -0.0019(12) 0.0030(12) 0.0015(10)
C4 0.0289(15) 0.0279(13) 0.0259(17) -0.0013(11) -0.0003(13) -0.0020(10)
C5 0.0282(14) 0.0291(13) 0.0338(18) -0.0037(14) 0.0053(15) 0.0017(10)
C6 0.0254(13) 0.0334(14) 0.0318(18) 0.0006(13) 0.0078(13) 0.0016(11)
C7 0.0242(14) 0.0308(14) 0.0303(19) 0.0047(12) 0.0013(13) 0.0018(11)
C8 0.044(2) 0.103(4) 0.030(2) 0.000(2) -0.0064(18) 0.022(2)
C9 0.0310(18) 0.095(3) 0.043(3) -0.004(2) -0.0093(18) 0.017(2)
C10 0.0274(16) 0.0401(18) 0.046(2) -0.0020(16) -0.0009(15) 0.0057(13)
C11 0.0293(17) 0.066(3) 0.060(3) -0.004(2) 0.0027(18) 0.0086(16)
C12 0.0239(12) 0.0246(12) 0.0275(17) 0.0013(11) 0.0021(12) 0.0004(10)
C13 0.0249(14) 0.0304(14) 0.047(2) -0.0007(15) 0.0084(16) 0.0025(11)
C14 0.0333(16) 0.0266(14) 0.055(3) -0.0013(15) 0.0051(16) 0.0050(12)
C15 0.0329(17) 0.0283(14) 0.037(2) -0.0010(13) 0.0035(15) -0.0016(11)
C16 0.0263(14) 0.0319(14) 0.0278(18) -0.0046(13) 0.0031(12) -0.0021(11)
C17 0.0260(14) 0.0263(13) 0.0284(18) -0.0030(12) 0.0015(13) 0.0023(10)
C18 0.0266(14) 0.0330(14) 0.0286(18) 0.0032(13) -0.0015(13) 0.0023(11)
C19 0.041(2) 0.107(4) 0.031(2) 0.002(2) -0.0062(18) 0.021(2)
C20 0.0356(19) 0.099(4) 0.046(3) -0.008(2) -0.0126(19) 0.027(2)
C21 0.0277(16) 0.0436(18) 0.046(2) -0.0017(16) -0.0031(15) 0.0073(14)
C22 0.0302(17) 0.069(3) 0.066(3) -0.005(2) 0.0040(19) 0.0084(18)
loop_
_atom_type_symbol
_atom_type_description
_atom_type_scat_dispersion_real
_atom_type_scat_dispersion_imag
_atom_type_scat_source
C C 0.0033 0.0016 'International Tables Vol C Tables 4.2.6.8 and 6.1.1.4'
H H 0.0000 0.0000 'International Tables Vol C Tables 4.2.6.8 and 6.1.1.4'
N N 0.0061 0.0033 'International Tables Vol C Tables 4.2.6.8 and 6.1.1.4'
O O 0.0106 0.0060 'International Tables Vol C Tables 4.2.6.8 and 6.1.1.4'
S S 0.1246 0.1234 'International Tables Vol C Tables 4.2.6.8 and 6.1.1.4'
loop_
_geom_angle_atom_site_label_1
_geom_angle_atom_site_label_2
_geom_angle_atom_site_label_3
_geom_angle
_geom_angle_site_symmetry_1
_geom_angle_site_symmetry_3
O1 S1 O2 119.13(15) . .
O1 S1 N2 109.11(16) . .
O2 S1 N2 102.32(15) . .
O1 S1 C1 109.21(16) . .
O2 S1 C1 109.61(14) . .
N2 S1 C1 106.64(16) . .
O4 S2 O3 118.80(15) . .
O4 S2 N6 109.30(15) . .
O3 S2 N6 102.23(15) . .
O4 S2 C12 108.93(15) . .
O3 S2 C12 109.67(14) . .
N6 S2 C12 107.23(16) . .
C4 N1 H1N1 121(3) . .
C4 N1 H2N1 116(3) . .
H1N1 N1 H2N1 119(4) . .
C7 N2 S1 125.4(2) . .
C7 N2 H1N2 112(3) . .
S1 N2 H1N2 114(3) . .
C7 N3 C10 116.5(3) . .
C7 N4 C8 115.1(3) . .
C15 N5 H5A 120.0 . .
C15 N5 H5B 120.0 . .
H5A N5 H5B 120.0 . .
C18 N6 S2 125.9(2) . .
C18 N6 H1N6 122(3) . .
S2 N6 H1N6 109(3) . .
C18 N7 C21 116.7(3) . .
C19 N8 C18 114.7(3) . .
C6 C1 C2 120.2(3) . .
C6 C1 S1 118.9(2) . .
C2 C1 S1 120.9(2) . .
C3 C2 C1 119.9(3) . .
C3 C2 H2 120.0 . .
C1 C2 H2 120.0 . .
C2 C3 C4 120.6(3) . .
C2 C3 H3 119.7 . .
C4 C3 H3 119.7 . .
N1 C4 C3 120.6(3) . .
N1 C4 C5 120.4(3) . .
C3 C4 C5 119.0(3) . .
C6 C5 C4 120.2(3) . .
C6 C5 H5 119.9 . .
C4 C5 H5 119.9 . .
C5 C6 C1 120.1(3) . .
C5 C6 H6 119.9 . .
C1 C6 H6 119.9 . .
N3 C7 N4 127.1(3) . .
N3 C7 N2 118.4(3) . .
N4 C7 N2 114.5(3) . .
N4 C8 C9 122.5(4) . .
N4 C8 H8 118.7 . .
C9 C8 H8 118.7 . .
C8 C9 C10 117.8(4) . .
C8 C9 H9 121.1 . .
C10 C9 H9 121.1 . .
N3 C10 C9 120.8(3) . .
N3 C10 C11 116.2(3) . .
C9 C10 C11 123.0(4) . .
C10 C11 H11A 109.5 . .
C10 C11 H11B 109.5 . .
H11A C11 H11B 109.5 . .
C10 C11 H11C 109.5 . .
H11A C11 H11C 109.5 . .
H11B C11 H11C 109.5 . .
C13 C12 C17 120.1(3) . .
C13 C12 S2 119.1(2) . .
C17 C12 S2 120.7(2) . .
C14 C13 C12 120.1(3) . .
C14 C13 H13 120.0 . .
C12 C13 H13 120.0 . .
C13 C14 C15 120.7(3) . .
C13 C14 H14 119.7 . .
C15 C14 H14 119.7 . .
N5 C15 C14 121.1(3) . .
N5 C15 C16 120.3(3) . .
C14 C15 C16 118.7(3) . .
C17 C16 C15 120.5(3) . .
C17 C16 H16 119.7 . .
C15 C16 H16 119.7 . .
C16 C17 C12 119.9(3) . .
C16 C17 H17 120.0 . .
C12 C17 H17 120.0 . .
N7 C18 N8 127.1(3) . .
N7 C18 N6 118.7(3) . .
N8 C18 N6 114.2(3) . .
N8 C19 C20 123.2(4) . .
N8 C19 H19 118.4 . .
C20 C19 H19 118.4 . .
C19 C20 C21 117.6(4) . .
C19 C20 H20 121.2 . .
C21 C20 H20 121.2 . .
N7 C21 C20 120.7(3) . .
N7 C21 C22 116.4(4) . .
C20 C21 C22 123.0(4) . .
C21 C22 H22A 109.5 . .
C21 C22 H22B 109.5 . .
H22A C22 H22B 109.5 . .
C21 C22 H22C 109.5 . .
H22A C22 H22C 109.5 . .
H22B C22 H22C 109.5 . .
loop_
_geom_bond_atom_site_label_1
_geom_bond_atom_site_label_2
_geom_bond_distance
_geom_bond_site_symmetry_2
S1 O1 1.429(2) .
S1 O2 1.434(2) .
S1 N2 1.653(3) .
S1 C1 1.735(3) .
S2 O4 1.432(2) .
S2 O3 1.437(2) .
S2 N6 1.647(3) .
S2 C12 1.733(3) .
N1 C4 1.358(4) .
N1 H1N1 0.87(4) .
N1 H2N1 0.82(4) .
N2 C7 1.387(4) .
N2 H1N2 0.81(5) .
N3 C7 1.327(4) .
N3 C10 1.344(4) .
N4 C7 1.331(5) .
N4 C8 1.340(5) .
N5 C15 1.364(4) .
N5 H5A 0.8600 .
N5 H5B 0.8600 .
N6 C18 1.381(4) .
N6 H1N6 0.91(5) .
N7 C18 1.329(4) .
N7 C21 1.342(4) .
N8 C19 1.333(5) .
N8 C18 1.343(5) .
C1 C6 1.397(4) .
C1 C2 1.397(4) .
C2 C3 1.375(4) .
C2 H2 0.9300 .
C3 C4 1.406(4) .
C3 H3 0.9300 .
C4 C5 1.412(4) .
C5 C6 1.375(4) .
C5 H5 0.9300 .
C6 H6 0.9300 .
C8 C9 1.370(6) .
C8 H8 0.9300 .
C9 C10 1.374(6) .
C9 H9 0.9300 .
C10 C11 1.491(5) .
C11 H11A 0.9600 .
C11 H11B 0.9600 .
C11 H11C 0.9600 .
C12 C13 1.390(4) .
C12 C17 1.391(4) .
C13 C14 1.378(4) .
C13 H13 0.9300 .
C14 C15 1.400(5) .
C14 H14 0.9300 .
C15 C16 1.405(4) .
C16 C17 1.382(4) .
C16 H16 0.9300 .
C17 H17 0.9300 .
C19 C20 1.370(6) .
C19 H19 0.9300 .
C20 C21 1.386(6) .
C20 H20 0.9300 .
C21 C22 1.495(5) .
C22 H22A 0.9600 .
C22 H22B 0.9600 .
C22 H22C 0.9600 .
loop_
_geom_hbond_atom_site_label_D
_geom_hbond_atom_site_label_H
_geom_hbond_atom_site_label_A
_geom_hbond_distance_DH
_geom_hbond_distance_HA
_geom_hbond_distance_DA
_geom_hbond_angle_DHA
_geom_hbond_site_symmetry_A
N5 H5A O4 0.86 2.29 3.075(4) 151.6 1_545
N1 H1N1 O4 0.87(4) 2.47(4) 3.242(4) 148(3) 4_654
N1 H2N1 O1 0.82(4) 2.27(4) 3.044(4) 158(4) 1_565
N2 H1N2 N8 0.81(5) 2.12(5) 2.924(5) 173(4) .
N6 H1N6 N4 0.91(5) 2.00(5) 2.910(4) 173(5) .
loop_
_geom_torsion_atom_site_label_1
_geom_torsion_atom_site_label_2
_geom_torsion_atom_site_label_3
_geom_torsion_atom_site_label_4
_geom_torsion
_geom_torsion_site_symmetry_1
_geom_torsion_site_symmetry_2
_geom_torsion_site_symmetry_3
_geom_torsion_site_symmetry_4
O1 S1 N2 C7 60.8(3) . . . .
O2 S1 N2 C7 -172.1(3) . . . .
C1 S1 N2 C7 -57.0(3) . . . .
O4 S2 N6 C18 -57.6(3) . . . .
O3 S2 N6 C18 175.6(3) . . . .
C12 S2 N6 C18 60.3(3) . . . .
O1 S1 C1 C6 162.3(3) . . . .
O2 S1 C1 C6 30.2(3) . . . .
N2 S1 C1 C6 -79.9(3) . . . .
O1 S1 C1 C2 -18.2(3) . . . .
O2 S1 C1 C2 -150.4(3) . . . .
N2 S1 C1 C2 99.5(3) . . . .
C6 C1 C2 C3 0.3(5) . . . .
S1 C1 C2 C3 -179.1(3) . . . .
C1 C2 C3 C4 -0.9(5) . . . .
C2 C3 C4 N1 179.7(3) . . . .
C2 C3 C4 C5 0.9(5) . . . .
N1 C4 C5 C6 -179.1(4) . . . .
C3 C4 C5 C6 -0.2(5) . . . .
C4 C5 C6 C1 -0.4(6) . . . .
C2 C1 C6 C5 0.4(5) . . . .
S1 C1 C6 C5 179.8(3) . . . .
C10 N3 C7 N4 0.6(5) . . . .
C10 N3 C7 N2 -179.2(3) . . . .
C8 N4 C7 N3 -2.2(6) . . . .
C8 N4 C7 N2 177.6(4) . . . .
S1 N2 C7 N3 -16.2(4) . . . .
S1 N2 C7 N4 164.0(3) . . . .
C7 N4 C8 C9 1.7(7) . . . .
N4 C8 C9 C10 0.2(8) . . . .
C7 N3 C10 C9 1.6(5) . . . .
C7 N3 C10 C11 -179.3(3) . . . .
C8 C9 C10 N3 -2.0(7) . . . .
C8 C9 C10 C11 179.0(5) . . . .
O4 S2 C12 C13 -157.3(3) . . . .
O3 S2 C12 C13 -25.8(3) . . . .
N6 S2 C12 C13 84.5(3) . . . .
O4 S2 C12 C17 22.3(3) . . . .
O3 S2 C12 C17 153.9(3) . . . .
N6 S2 C12 C17 -95.8(3) . . . .
C17 C12 C13 C14 0.4(6) . . . .
S2 C12 C13 C14 -179.9(3) . . . .
C12 C13 C14 C15 -0.1(6) . . . .
C13 C14 C15 N5 179.0(4) . . . .
C13 C14 C15 C16 -0.2(6) . . . .
N5 C15 C16 C17 -179.1(3) . . . .
C14 C15 C16 C17 0.2(5) . . . .
C15 C16 C17 C12 0.2(5) . . . .
C13 C12 C17 C16 -0.5(5) . . . .
S2 C12 C17 C16 179.9(3) . . . .
C21 N7 C18 N8 -1.3(5) . . . .
C21 N7 C18 N6 179.0(3) . . . .
C19 N8 C18 N7 2.5(6) . . . .
C19 N8 C18 N6 -177.9(4) . . . .
S2 N6 C18 N7 12.5(5) . . . .
S2 N6 C18 N8 -167.2(3) . . . .
C18 N8 C19 C20 -0.7(7) . . . .
N8 C19 C20 C21 -1.8(9) . . . .
C18 N7 C21 C20 -1.5(6) . . . .
C18 N7 C21 C22 179.0(3) . . . .
C19 C20 C21 N7 3.0(7) . . . .
C19 C20 C21 C22 -177.5(5) . . . .
