#------------------------------------------------------------------------------
#$Date: 2017-09-12 06:23:18 +0300 (Tue, 12 Sep 2017) $
#$Revision: 200641 $
#$URL: file:///home/coder/svn-repositories/cod/cif/1/54/71/1547123.cif $
#------------------------------------------------------------------------------
#
# This file is available in the Crystallography Open Database (COD),
# http://www.crystallography.net/
#
# All data on this site have been placed in the public domain by the
# contributors.
#
data_1547123
loop_
_publ_author_name
'Li, Tian-Ren'
'Lu, Liang-Qiu'
'Wang, Ya-Ni'
'Wang, Bao-Cheng'
'Xiao, Wen-Jing'
_publ_section_title
;
 Divergent Synthesis of Polycyclic Indolines: Copper-Catalyzed Cascade
 Reactions of Propargylic Carbamates and Indoles.
;
_journal_issue                   15
_journal_name_full               'Organic letters'
_journal_page_first              4098
_journal_page_last               4101
_journal_paper_doi               10.1021/acs.orglett.7b01903
_journal_volume                  19
_journal_year                    2017
_chemical_formula_moiety         'C27 H26 N2 O3 S, C3 H6 O'
_chemical_formula_sum            'C30 H32 N2 O4 S'
_chemical_formula_weight         516.63
_space_group_crystal_system      triclinic
_space_group_IT_number           2
_space_group_name_Hall           '-P 1'
_space_group_name_H-M_alt        'P -1'
_symmetry_space_group_name_Hall  '-P 1'
_symmetry_space_group_name_H-M   'P -1'
_atom_sites_solution_hydrogens   geom
_audit_creation_date             2017-04-11
_audit_creation_method
;
Olex2 1.2
(compiled 2016.11.30 svn.r3356 for OlexSys, GUI svn.r5269)
;
_cell_angle_alpha                74.988(3)
_cell_angle_beta                 88.662(3)
_cell_angle_gamma                88.721(3)
_cell_formula_units_Z            2
_cell_length_a                   9.0918(15)
_cell_length_b                   12.255(2)
_cell_length_c                   12.832(2)
_cell_measurement_reflns_used    3224
_cell_measurement_temperature    100.01(10)
_cell_measurement_theta_max      24.45
_cell_measurement_theta_min      2.67
_cell_volume                     1380.4(4)
_computing_molecular_graphics    'Olex2 (Dolomanov et al., 2009)'
_computing_publication_material  'Olex2 (Dolomanov et al., 2009)'
_computing_structure_refinement  'ShelXL (Sheldrick, 2015)'
_diffrn_ambient_temperature      100.01(10)
_diffrn_measured_fraction_theta_full 0.989
_diffrn_measured_fraction_theta_max 0.989
_diffrn_measurement_device_type  'Bruker APEX-II'
_diffrn_radiation_type           MoK\a
_diffrn_radiation_wavelength     0.71073
_diffrn_reflns_av_R_equivalents  0.0230
_diffrn_reflns_av_unetI/netI     0.0398
_diffrn_reflns_Laue_measured_fraction_full 0.989
_diffrn_reflns_Laue_measured_fraction_max 0.989
_diffrn_reflns_limit_h_max       10
_diffrn_reflns_limit_h_min       -10
_diffrn_reflns_limit_k_max       14
_diffrn_reflns_limit_k_min       -14
_diffrn_reflns_limit_l_max       15
_diffrn_reflns_limit_l_min       -15
_diffrn_reflns_number            9915
_diffrn_reflns_point_group_measured_fraction_full 0.989
_diffrn_reflns_point_group_measured_fraction_max 0.989
_diffrn_reflns_theta_full        25.248
_diffrn_reflns_theta_max         25.248
_diffrn_reflns_theta_min         1.643
_exptl_absorpt_coefficient_mu    0.154
_exptl_absorpt_correction_T_max  0.7463
_exptl_absorpt_correction_T_min  0.6543
_exptl_absorpt_correction_type   multi-scan
_exptl_absorpt_process_details
;
SADABS-2008/1 (Bruker,2008) was used for absorption correction.
wR2(int) was 0.0888 before and 0.0424 after correction.
The Ratio of minimum to maximum transmission is 0.8767.
The \l/2 correction factor is 0.0015.
;
_exptl_crystal_colour            colourless
_exptl_crystal_colour_primary    colourless
_exptl_crystal_density_diffrn    1.243
_exptl_crystal_description       plate
_exptl_crystal_F_000             548
_exptl_crystal_size_max          0.27
_exptl_crystal_size_mid          0.21
_exptl_crystal_size_min          0.11
_refine_diff_density_max         0.543
_refine_diff_density_min         -0.241
_refine_diff_density_rms         0.060
_refine_ls_extinction_method     none
_refine_ls_goodness_of_fit_ref   1.031
_refine_ls_hydrogen_treatment    constr
_refine_ls_matrix_type           full
_refine_ls_number_parameters     338
_refine_ls_number_reflns         4947
_refine_ls_number_restraints     12
_refine_ls_restrained_S_all      1.032
_refine_ls_R_factor_all          0.0881
_refine_ls_R_factor_gt           0.0640
_refine_ls_shift/su_max          0.000
_refine_ls_shift/su_mean         0.000
_refine_ls_structure_factor_coef Fsqd
_refine_ls_weighting_details
'w=1/[\s^2^(Fo^2^)+(0.1397P)^2^+0.3726P] where P=(Fo^2^+2Fc^2^)/3'
_refine_ls_weighting_scheme      calc
_refine_ls_wR_factor_gt          0.1948
_refine_ls_wR_factor_ref         0.2261
_reflns_Friedel_coverage         0.000
_reflns_number_gt                3476
_reflns_number_total             4947
_reflns_threshold_expression     'I > 2\s(I)'
_cod_data_source_file            ol7b01903_si_003.cif
_cod_data_source_block           core1
_cod_database_code               1547123
_shelx_space_group_comment
;
The symmetry employed for this shelxl refinement is uniquely defined
by the following loop, which should always be used as a source of
symmetry information in preference to the above space-group names.
They are only intended as comments.
;
_olex2_refinement_description
;
1. Fixed Uiso
 At 1.2 times of:
  All C(H) groups, All C(H,H) groups
 At 1.5 times of:
  All C(H,H,H) groups
2. Uiso/Uaniso restraints and constraints
Uanis(C29) \\sim Ueq, Uanis(C30) \\sim Ueq: with sigma of 0.02 and sigma for
terminal atoms of 0.04
3.a Ternary CH refined with riding coordinates:
 C14(H14), C20(H20)
3.b Secondary CH2 refined with riding coordinates:
 C18(H18A,H18B), C19(H19A,H19B)
3.c Aromatic/amide H refined with riding coordinates:
 C2(H2), C3(H3), C5(H5), C6(H6), C9(H9), C10(H10), C11(H11), C12(H12),
 C23(H23), C24(H24), C25(H25), C26(H26)
3.d X=CH2 refined with riding coordinates:
 C16(H16A,H16B)
3.e Idealised Me refined as rotating group:
 C7(H7A,H7B,H7C), C27(H27A,H27B,H27C), C29(H29A,H29B,H29C), C30(H30A,H30B,H30C)
;
_shelx_res_file
;
    core1.res created by SHELXL-2014/7

TITL mo_151202c_0m_a.res in P-1
REM Old TITL mo_151202c_0m in P-1 #2
REM SHELXT solution in P-1
REM R1 0.240, Rweak 0.018, Alpha 0.053, Orientation as input
REM Formula found by SHELXT: C29 N3 O4 S
CELL 0.71073 9.0918 12.2555 12.832 74.988 88.662 88.721
ZERR 2 0.0015 0.002 0.002 0.003 0.003 0.003
LATT 1
SFAC C H N O S
UNIT 60 64 4 8 2
ISOR 0.02 0.04 C29 C30

L.S. 20
PLAN  -5 0 0
TEMP -173.14(10)
BOND $H
LIST 4
MORE -1
CONF
fmap 2
acta 50.5
OMIT -3 50.5
OMIT 1 5 4
OMIT 1 9 2
OMIT 1 2 2
REM <olex2.extras>
REM <HklSrc "%.\\core1.hkl">
REM </olex2.extras>

WGHT    0.139700    0.372600
FVAR       0.65666
S1    5    0.567434    0.277954    0.188147    11.00000    0.04472    0.06980 =
         0.10527   -0.03479    0.01904   -0.00471
O1    4    0.669673    0.200431    0.251842    11.00000    0.05232    0.08244 =
         0.18524   -0.04833   -0.00682    0.01541
O2    4    0.585777    0.312224    0.073534    11.00000    0.08662    0.11029 =
         0.10307   -0.04883    0.05625   -0.02534
O3    4   -0.030688   -0.104058    0.420844    11.00000    0.08360    0.06105 =
         0.08387   -0.00948    0.03773   -0.02008
N1    3    0.404593    0.218415    0.212304    11.00000    0.05061    0.05724 =
         0.06291   -0.01439    0.00613   -0.00726
N2    3   -0.036471   -0.037345    0.228217    11.00000    0.05837    0.07125 =
         0.08417   -0.02454    0.00841   -0.01532
C1    1    0.555834    0.399105    0.236802    11.00000    0.04738    0.06097 =
         0.07455   -0.01583    0.01025   -0.01142
C2    1    0.481715    0.493222    0.178908    11.00000    0.07831    0.06189 =
         0.06009   -0.00869    0.00534   -0.01124
AFIX  43
H2    2    0.438152    0.492993    0.112390    11.00000   -1.20000
AFIX   0
C3    1    0.470653    0.587881    0.217419    11.00000    0.10002    0.05411 =
         0.06879   -0.00210    0.00656   -0.00177
AFIX  43
H3    2    0.418989    0.652650    0.176842    11.00000   -1.20000
AFIX   0
C4    1    0.532324    0.590980    0.312836    11.00000    0.11286    0.05274 =
         0.06940   -0.01040    0.01109   -0.01745
C5    1    0.605674    0.497025    0.370264    11.00000    0.11736    0.08223 =
         0.08467   -0.02538   -0.02360   -0.01302
AFIX  43
H5    2    0.648988    0.498070    0.436652    11.00000   -1.20000
AFIX   0
C6    1    0.618380    0.399892    0.333758    11.00000    0.07927    0.06338 =
         0.10408   -0.01664   -0.02491   -0.00123
AFIX  43
H6    2    0.669292    0.334982    0.374815    11.00000   -1.20000
AFIX   0
C7    1    0.516016    0.693807    0.355754    11.00000    0.19468    0.06882 =
         0.10334   -0.02742    0.00836   -0.01996
AFIX 137
H7A   2    0.512612    0.761731    0.295350    11.00000   -1.50000
H7B   2    0.600020    0.697576    0.401107    11.00000   -1.50000
H7C   2    0.424786    0.689134    0.398776    11.00000   -1.50000
AFIX   0
C8    1    0.278956    0.257282    0.147191    11.00000    0.05973    0.04911 =
         0.05298   -0.01390    0.00144   -0.00974
C9    1    0.271590    0.325476    0.042814    11.00000    0.10163    0.08228 =
         0.06194   -0.00368    0.00138   -0.03461
AFIX  43
H9    2    0.358263    0.350361    0.001500    11.00000   -1.20000
AFIX   0
C10   1    0.133606    0.355975    0.000997    11.00000    0.13631    0.08787 =
         0.07466    0.00739   -0.04459   -0.02849
AFIX  43
H10   2    0.126336    0.406048   -0.068966    11.00000   -1.20000
AFIX   0
C11   1    0.009389    0.317543    0.055467    11.00000    0.09408    0.07150 =
         0.12033   -0.00599   -0.05091   -0.00566
AFIX  43
H11   2   -0.083558    0.339130    0.023484    11.00000   -1.20000
AFIX   0
C12   1    0.017331    0.245683    0.159365    11.00000    0.05912    0.05032 =
         0.10473   -0.01789   -0.01092   -0.00278
AFIX  43
H12   2   -0.070003    0.217986    0.198453    11.00000   -1.20000
AFIX   0
C13   1    0.152936    0.215380    0.204580    11.00000    0.04994    0.04052 =
         0.05639   -0.01618    0.00213   -0.00298
C14   1    0.192185    0.139033    0.312372    11.00000    0.05606    0.04374 =
         0.04957   -0.01584    0.01049   -0.00284
AFIX  13
H14   2    0.135468    0.163809    0.370170    11.00000   -1.20000
AFIX   0
C15   1    0.353171    0.163315    0.320341    11.00000    0.06460    0.04700 =
         0.05883   -0.01025   -0.00261   -0.00510
C16   1    0.428953    0.143442    0.409363    11.00000    0.10978    0.08757 =
         0.08220    0.00242   -0.03362   -0.03168
AFIX  93
H16A  2    0.528534    0.166063    0.406652    11.00000   -1.20000
H16B  2    0.384201    0.106444    0.476482    11.00000   -1.20000
AFIX   0
C17   1    0.161610    0.012553    0.322785    11.00000    0.05326    0.04669 =
         0.04816   -0.01428    0.01545   -0.00336
C18   1    0.214985   -0.066233    0.429246    11.00000    0.08145    0.05207 =
         0.05023   -0.00831    0.01336   -0.00141
AFIX  23
H18A  2    0.315947   -0.095163    0.420945    11.00000   -1.20000
H18B  2    0.213365   -0.026916    0.487641    11.00000   -1.20000
AFIX   0
C19   1    0.107126   -0.159059    0.451743    11.00000    0.09118    0.05446 =
         0.06850   -0.00803    0.02760   -0.00260
AFIX  23
H19A  2    0.131397   -0.213790    0.408874    11.00000   -1.20000
H19B  2    0.105568   -0.199495    0.529287    11.00000   -1.20000
AFIX   0
C20   1   -0.005365   -0.012230    0.328031    11.00000    0.06170    0.04588 =
         0.07344   -0.01669    0.02518   -0.00982
AFIX  13
H20   2   -0.063373    0.055976    0.334770    11.00000   -1.20000
AFIX   0
C21   1    0.092232   -0.059858    0.177636    11.00000    0.07881    0.04564 =
         0.05708   -0.01452    0.00314   -0.00478
C22   1    0.213882   -0.028549    0.226327    11.00000    0.06148    0.03828 =
         0.04943   -0.01064    0.01580   -0.00153
C23   1    0.353045   -0.042210    0.188299    11.00000    0.07243    0.04982 =
         0.06873   -0.01258    0.02558    0.00523
AFIX  43
H23   2    0.436361   -0.021346    0.221627    11.00000   -1.20000
AFIX   0
C24   1    0.369982   -0.087817    0.098790    11.00000    0.11840    0.05887 =
         0.07687   -0.01072    0.04920    0.01638
AFIX  43
H24   2    0.465531   -0.096655    0.070198    11.00000   -1.20000
AFIX   0
C25   1    0.249786   -0.119415    0.052855    11.00000    0.15147    0.07102 =
         0.06152   -0.02879    0.01922    0.00943
AFIX  43
H25   2    0.263657   -0.151835   -0.006436    11.00000   -1.20000
AFIX   0
C26   1    0.109345   -0.105820    0.089650    11.00000    0.12469    0.06769 =
         0.06354   -0.02613   -0.00323   -0.00249
AFIX  43
H26   2    0.026535   -0.127119    0.056096    11.00000   -1.20000
AFIX   0
C27   1   -0.179874   -0.079591    0.210939    11.00000    0.07525    0.10112 =
         0.12983   -0.02104   -0.01199   -0.02620
AFIX 137
H27A  2   -0.193124   -0.070558    0.133572    11.00000   -1.50000
H27B  2   -0.257192   -0.036885    0.238449    11.00000   -1.50000
H27C  2   -0.185821   -0.159763    0.249166    11.00000   -1.50000
AFIX   0

O4    4    0.161175    0.572473    0.428206    11.00000    0.20573    0.12891 =
         0.20210   -0.07876   -0.07688    0.03171
C28   1    0.110178    0.526032    0.366610    11.00000    0.14102    0.10367 =
         0.12183   -0.05377    0.00354   -0.03053
C29   1    0.149684    0.406329    0.389733    11.00000    0.20857    0.07557 =
         0.16106   -0.05610    0.03733   -0.02181
AFIX 137
H29A  2    0.251922    0.397811    0.366790    11.00000   -1.50000
H29B  2    0.084617    0.368797    0.350537    11.00000   -1.50000
H29C  2    0.139072    0.371909    0.467415    11.00000   -1.50000
AFIX   0
C30   1    0.030847    0.600476    0.279611    11.00000    0.25473    0.18677 =
         0.14575    0.01101   -0.13006   -0.00916
AFIX 137
H30A  2   -0.075153    0.590154    0.292882    11.00000   -1.50000
H30B  2    0.058489    0.582869    0.211425    11.00000   -1.50000
H30C  2    0.055293    0.678996    0.275402    11.00000   -1.50000
AFIX   0
HKLF 4

REM  mo_151202c_0m_a.res in P-1
REM R1 =  0.0640 for    3476 Fo > 4sig(Fo)  and  0.0881 for all    4947 data
REM    338 parameters refined using     12 restraints

END

WGHT      0.1397      0.3726

REM Highest difference peak  0.543,  deepest hole -0.241,  1-sigma level  0.060
Q1    1   0.0809  0.4617  0.3062  11.00000  0.05    0.54
Q2    1   0.0954  0.6282  0.2674  11.00000  0.05    0.33
Q3    1   0.0524  0.4039  0.4210  11.00000  0.05    0.26
Q4    1  -0.0378  0.6356  0.2865  11.00000  0.05    0.23
Q5    1   0.6658  0.4586  0.3385  11.00000  0.05    0.21
;
_shelx_res_checksum              35133
_shelx_hkl_file
;
  -1   0   0    8.40    0.50
  -2   0   0 2067.79   76.79
  -3   0   0   74.79    3.00
  -4   0   0  103.69    4.20
  -5   0   0  389.66   14.80
  -6   0   0    1.00    0.60
  -7   0   0   89.29    4.00
   7   0   0   86.99    3.90
  -8   0   0   15.70    1.50
   8   0   0   17.50    1.70
   8   0   0   16.20    1.60
  -9   0   0   17.90    1.60
   9   0   0   17.20    1.70
   9   0   0   16.60    1.80
  10   0   0    1.60    1.00
  11   0   0    2.00    1.20
  12   0   0    0.20    1.10
  12  -1   0    0.40    1.20
  11  -1   0   11.70    1.70
  10  -1   0   12.30    1.60
   9  -1   0   23.50    2.10
  -9   1   0   19.80    1.80
   8  -1   0   30.70    2.30
  -8   1   0   29.90    2.00
  -7   1   0   12.10    1.20
  -6   1   0  159.18    6.40
  -5   1   0   18.60    1.20
  -4   1   0   43.40    2.00
  -3   1   0   15.30    0.90
  -2   1   0   41.10    1.60
  -2   1   0   44.60    1.80
   1  -1   0 1983.50   73.59
  -1   1   0 1983.40   63.99
   0  -1   0  168.18    6.30
  -1  -1   0 2198.78   81.09
   1   1   0 2170.98   70.39
  -2  -1   0 3192.68  118.19
   2   1   0 3174.88  102.79
  -3  -1   0 1440.86   53.59
   3   1   0 1436.66   46.30
  -4  -1   0   14.60    1.00
   4   1   0   17.70    1.10
  -5  -1   0  279.57   10.80
   5   1   0  282.77    9.60
  -6  -1   0    1.70    0.60
   6   1   0    0.30    0.50
  -7  -1   0   51.89    2.70
   7   1   0   48.90    2.70
   7   1   0   51.89    2.60
  -8  -1   0   44.20    2.60
   8   1   0   40.70    2.40
   8   1   0   45.10    2.60
  -9  -1   0   14.00    1.50
   9   1   0   14.00    1.60
 -10  -1   0   19.00    1.80
  10   1   0   21.50    2.00
  11   1   0    9.70    1.60
  12   1   0    3.60    1.40
  12  -2   0   -0.90    1.10
  11  -2   0   -0.70    0.90
  10  -2   0    1.30    1.40
   9  -2   0    8.80    1.60
  -9   2   0    8.50    1.10
   8  -2   0   88.69    4.40
  -8   2   0   90.89    4.10
  -7   2   0   39.30    2.20
  -6   2   0  149.69    6.00
  -5   2   0   26.30    1.40
  -4   2   0  246.68    9.40
   3  -2   0   47.10    2.10
  -3   2   0   49.99    1.90
   2  -2   0  409.56   15.30
   1  -2   0  778.72   29.10
   0  -2   0  152.08    5.70
  -1  -2   0 1831.42   70.39
  -1  -2   0 1924.81   67.69
   1   2   0 1930.41   61.29
  -2  -2   0  362.26   13.40
   2   2   0  349.77   11.60
  -3  -2   0 1251.77   46.20
   3   2   0 1242.78   40.20
  -4  -2   0  324.07   12.30
  -5  -2   0   50.39    2.40
   5   2   0   52.19    2.30
  -6  -2   0   13.40    1.20
   6   2   0   13.70    1.10
   6   2   0   13.70    1.20
  -7  -2   0  316.47   12.30
   7   2   0  315.77   11.70
   7   2   0  311.47   10.90
  -8  -2   0    2.40    0.90
   8   2   0    2.30    0.90
  -9  -2   0    0.50    0.80
   9   2   0    2.50    1.10
 -10  -2   0    0.60    0.90
  10   2   0   -0.50    0.90
  11   2   0    0.50    1.10
  12   2   0    8.90    1.50
  12  -3   0    1.00    1.20
  11  -3   0    0.50    1.50
  10  -3   0    5.20    1.60
   9  -3   0    1.00    1.20
   9  -3   0    0.80    0.80
   8  -3   0    0.20    0.70
   8  -3   0   -2.20    1.00
   7  -3   0  145.19    6.10
   6  -3   0   28.40    1.70
   5  -3   0  181.48    7.40
  -5   3   0  193.38    6.50
   4  -3   0   60.29    2.70
  -4   3   0   60.99    2.40
   3  -3   0   31.30    1.50
   2  -3   0  133.39    5.20
  -2   3   0  136.79    4.60
   1  -3   0  202.68    7.80
  -1   3   0  208.38    6.80
   0  -3   0  142.49    5.50
  -1  -3   0  765.02   27.10
   1   3   0  747.93   24.40
  -2  -3   0   82.89    3.40
   2   3   0   82.69    2.90
  -4  -3   0  448.76   16.80
   4   3   0  443.76   16.00
   4   3   0  443.66   14.70
  -5  -3   0   22.60    1.50
   5   3   0   26.50    1.40
   5   3   0   21.60    1.20
  -6  -3   0    6.20    0.90
   6   3   0    6.20    0.90
   6   3   0    7.80    0.80
  -7  -3   0    1.40    0.90
   7   3   0    0.80    0.80
  -8  -3   0   17.60    1.70
   8   3   0   19.20    1.70
  -9  -3   0   15.90    1.70
   9   3   0   12.70    1.50
 -10  -3   0   10.70    1.50
  10   3   0    9.70    1.40
  11   3   0    7.00    1.50
  12   3   0    1.20    1.10
  11  -4   0   -0.50    1.50
  10  -4   0    1.20    1.40
   9  -4   0    9.90    1.70
   8  -4   0   -0.40    0.70
   8  -4   0   -0.70    1.10
   7  -4   0  114.49    4.90
   6  -4   0    4.20    0.80
   5  -4   0    9.30    0.90
  -5   4   0    7.40    0.80
   4  -4   0  366.26   13.80
  -4   4   0  361.96   12.10
   3  -4   0   20.50    1.10
  -3   4   0   20.40    1.10
   2  -4   0  490.65   18.30
   0  -4   0   13.60    1.10
  -1  -4   0   -0.10    0.40
  -1  -4   0    0.10    0.20
   1   4   0    0.30    0.30
  -2  -4   0  134.99    4.80
   2   4   0  126.59    4.50
  -3  -4   0  355.66   13.30
   3   4   0  344.27   11.60
  -4  -4   0  175.98    7.20
   4   4   0  186.38    6.30
  -5  -4   0   33.30    1.90
   5   4   0   34.80    1.70
  -6  -4   0    0.10    0.70
   6   4   0   -0.30    0.60
  -7  -4   0    3.40    0.90
   7   4   0    3.40    0.90
  -8  -4   0    5.80    1.20
   8   4   0    3.80    1.00
  -9  -4   0    5.20    1.20
   9   4   0    5.30    1.10
 -10  -4   0    3.90    1.20
  10   4   0    0.70    0.90
  11   4   0    4.10    1.20
  12   4   0    1.50    1.10
  12  -5   0   -0.40    1.80
  11  -5   0    2.50    1.70
  10  -5   0    3.30    1.60
   9  -5   0    1.20    1.40
   8  -5   0   37.90    2.80
   8  -5   0   33.70    2.10
   7  -5   0    3.90    0.80
   6  -5   0   54.99    2.60
  -6   5   0   53.09    2.40
   5  -5   0   -0.60    0.40
  -5   5   0    0.30    0.50
   4  -5   0    5.00    0.70
  -4   5   0    4.40    0.60
   3  -5   0   39.60    1.90
  -3   5   0   39.90    1.70
   2  -5   0    3.90    0.50
  -2   5   0    4.80    0.60
   1  -5   0   29.40    1.50
   0  -5   0    6.50    0.80
   0   5   0    5.20    0.50
  -1  -5   0  617.34   22.00
  -1  -5   0  601.24   22.90
   1   5   0  615.94   19.90
  -2  -5   0  152.68    5.60
   2   5   0  153.28    5.30
  -3  -5   0    3.90    0.80
   3   5   0    4.20    0.60
  -4  -5   0  232.58    9.20
   4   5   0  231.98    7.90
  -5  -5   0    8.00    1.10
   5   5   0    7.60    0.90
  -6  -5   0   81.39    3.90
   6   5   0   86.59    3.40
  -7  -5   0    7.30    1.20
   7   5   0    8.70    1.10
  -8  -5   0    7.20    1.30
   8   5   0    8.00    1.10
  -9  -5   0   11.30    1.50
   9   5   0    7.10    1.20
 -10  -5   0    0.70    1.00
  10   5   0   -0.30    0.80
  11   5   0    2.70    1.10
  12   5   0    0.70    1.00
  12  -6   0   -0.40    1.90
  11  -6   0    1.70    1.80
  10  -6   0    3.00    1.70
   9  -6   0   -0.30    1.30
   8  -6   0   59.19    3.60
   8  -6   0   59.19    3.00
   7  -6   0   20.30    2.00
   7  -6   0   14.20    1.30
  -7   6   0   16.20    1.30
   6  -6   0    0.90    0.60
  -6   6   0    0.90    0.60
   5  -6   0    1.70    0.60
  -5   6   0    1.40    0.60
   4  -6   0  106.59    4.30
  -4   6   0  100.79    3.90
   3  -6   0  172.48    6.80
  -3   6   0  174.78    6.10
   2  -6   0    0.00    0.50
  -2   6   0    0.10    0.40
   1  -6   0    1.00    0.50
  -1   6   0    0.70    0.30
   0  -6   0   66.49    2.90
   0   6   0   62.59    2.50
  -1  -6   0    0.20    0.60
  -1  -6   0   -0.20    0.50
   1   6   0   -0.20    0.30
  -2  -6   0   69.39    2.80
   2   6   0   69.09    2.60
  -3  -6   0   66.89    3.20
   3   6   0   65.09    2.60
  -4  -6   0   40.70    2.60
   4   6   0   52.49    2.10
  -5  -6   0    8.10    1.20
   5   6   0    7.80    0.90
  -6  -6   0   64.09    3.30
   6   6   0   66.69    2.90
  -7  -6   0    0.80    0.90
   7   6   0   -0.90    0.60
  -8  -6   0    7.40    1.40
   8   6   0    8.70    1.20
  -9  -6   0   -0.40    0.90
   9   6   0    0.40    0.80
 -10  -6   0    1.00    1.10
  10   6   0    1.50    0.90
 -11  -6   0    2.80    1.30
  11   6   0    1.80    1.10
  12  -7   0   -0.80    1.80
  11  -7   0    0.60    1.80
  10  -7   0    0.20    1.70
   9  -7   0    5.10    1.80
   8  -7   0    6.90    1.70
   7  -7   0   15.30    1.90
   7  -7   0   17.20    1.50
  -7   7   0   14.30    1.40
   6  -7   0   11.00    1.20
   6  -7   0   11.60    1.70
  -6   7   0   11.60    1.20
   5  -7   0   31.00    1.80
  -5   7   0   30.80    1.80
   4  -7   0    3.20    0.70
  -4   7   0    2.50    0.70
   3  -7   0   11.80    1.10
  -3   7   0   11.60    0.90
   2  -7   0   -0.40    0.60
  -2   7   0    0.50    0.40
   1  -7   0   83.99    3.70
   0  -7   0   43.00    2.30
   0  -7   0   36.40    2.00
   0   7   0   40.30    1.80
  -1  -7   0    7.70    0.80
  -1  -7   0    9.70    1.10
   1   7   0   10.00    0.90
  -2  -7   0  161.08    6.10
   2   7   0  161.08    5.70
  -3  -7   0   51.29    2.70
  -3  -7   0   52.39    2.10
   3   7   0   55.39    2.30
  -4  -7   0   77.19    3.80
   4   7   0   78.99    3.10
  -5  -7   0    5.40    1.10
   5   7   0    7.80    0.90
  -6  -7   0    1.20    0.90
   6   7   0   -0.50    0.60
  -7  -7   0   14.20    1.60
   7   7   0   16.70    1.50
  -8  -7   0   13.30    1.70
   8   7   0   15.40    1.50
  -9  -7   0    4.20    1.30
   9   7   0    2.80    0.90
 -10  -7   0    0.30    1.20
  10   7   0    0.10    0.80
 -11  -7   0    9.70    1.80
  11   7   0    6.10    1.30
  11  -8   0    0.90    2.00
  10  -8   0    0.30    1.80
   9  -8   0   -0.40    1.50
   8  -8   0    0.20    1.40
  -8   8   0    0.80    0.80
   7  -8   0   16.70    2.10
   7  -8   0   15.10    1.40
  -7   8   0   12.40    1.30
   6  -8   0    0.10    1.20
   6  -8   0    1.30    0.80
  -6   8   0    0.90    0.70
   5  -8   0    8.10    1.50
   5  -8   0    6.70    1.00
  -5   8   0    7.20    1.00
   4  -8   0  149.39    6.10
  -4   8   0  144.49    5.40
   3  -8   0   57.19    2.90
  -3   8   0   59.19    2.60
   2  -8   0   33.50    2.10
   2  -8   0   36.70    2.30
   1  -8   0    0.80    0.80
   1  -8   0    0.90    0.90
   0  -8   0    4.90    0.90
   0  -8   0    5.60    1.10
   0   8   0    5.60    0.70
  -1  -8   0   36.20    2.30
  -1  -8   0   34.00    2.00
   1   8   0   35.70    1.70
  -2  -8   0    2.50    0.70
  -2  -8   0    0.00    0.20
   2   8   0    0.60    0.50
  -4  -8   0   25.10    1.90
   4   8   0   25.70    1.50
  -5  -8   0   63.69    3.40
   5   8   0   62.39    2.80
  -6  -8   0    0.60    0.90
   6   8   0    0.90    0.70
  -7  -8   0    8.40    1.40
   7   8   0    7.80    1.10
  -8  -8   0    4.50    1.20
   8   8   0    4.20    1.00
  -9  -8   0    1.40    1.20
   9   8   0    2.70    1.00
 -10  -8   0    4.40    1.50
  10   8   0    4.70    1.20
 -11  -8   0   -0.50    1.20
  11   8   0    1.70    1.20
  11  -9   0   -0.90    1.90
  10  -9   0    1.90    1.90
   9  -9   0    0.60    1.80
   8  -9   0    8.00    2.00
  -8   9   0    5.90    1.10
   7  -9   0   11.50    1.90
   7  -9   0    7.00    1.20
  -7   9   0    8.70    1.20
   6  -9   0   16.50    1.50
   6  -9   0   13.70    2.00
  -6   9   0   16.20    1.50
   5  -9   0   -0.60    1.20
   5  -9   0   -0.50    0.80
  -5   9   0    0.80    0.70
   4  -9   0    4.90    1.40
   4  -9   0    4.10    1.00
  -4   9   0    5.70    0.90
   3  -9   0   20.90    2.00
   3  -9   0   20.40    2.00
  -3   9   0   19.70    1.50
   2  -9   0   38.00    2.40
   2  -9   0   39.50    2.50
  -2   9   0   33.90    1.90
   1  -9   0  210.78    8.50
   1  -9   0  222.88    8.80
   0  -9   0   29.50    2.10
   0  -9   0   32.60    2.10
  -1  -9   0   56.19    3.10
  -1  -9   0   60.29    2.80
   1   9   0   58.99    2.50
  -2  -9   0   -0.30    0.30
  -2  -9   0    0.80    0.90
   2   9   0    0.20    0.60
  -3  -9   0   -0.30    0.90
   3   9   0   -0.80    0.50
  -4  -9   0    7.60    1.40
   4   9   0    5.50    0.90
  -5  -9   0   -0.10    0.90
   5   9   0   -0.60    0.60
  -6  -9   0   16.80    1.80
   6   9   0   18.50    1.50
  -7  -9   0    1.00    1.00
   7   9   0    0.90    0.80
  -8  -9   0    1.70    1.20
   8   9   0    2.10    0.90
  -9  -9   0    8.60    1.60
   9   9   0    7.30    1.30
 -10  -9   0    1.60    1.30
  10   9   0    1.00    1.00
 -11  -9   0    1.00    1.40
  11   9   0    2.10    1.10
  10 -10   0   -3.50    1.70
   9 -10   0    2.10    1.90
  -9  10   0   -0.10    0.90
   8 -10   0    3.30    1.80
  -8  10   0    2.80    1.00
   7 -10   0    5.90    1.70
  -7  10   0    3.60    1.00
   6 -10   0   -0.90    0.90
   6 -10   0   -1.10    1.30
  -6  10   0   -0.40    0.70
   5 -10   0    8.50    1.30
   5 -10   0    7.00    1.60
  -5  10   0    7.30    1.10
   4 -10   0   13.50    1.80
   4 -10   0   12.00    1.40
  -4  10   0    9.70    1.10
   3 -10   0   21.70    2.00
   3 -10   0   23.70    2.20
  -3  10   0   23.70    1.60
   2 -10   0   34.30    2.40
   2 -10   0   30.70    2.50
  -2  10   0   31.50    1.80
   1 -10   0   10.80    1.60
   1 -10   0   10.40    1.60
  -1  10   0    9.70    1.10
   0 -10   0   39.00    2.80
   0 -10   0   42.60    2.60
   0  10   0   43.00    2.20
  -1 -10   0   88.09    3.90
  -1 -10   0   83.79    4.30
   1  10   0   87.89    3.50
  -2 -10   0   48.10    3.10
   2  10   0   50.59    2.30
  -3 -10   0   93.99    4.50
   3  10   0   92.39    3.80
  -4 -10   0   11.40    1.50
   4  10   0   14.80    1.30
  -5 -10   0    3.10    1.20
   5  10   0    1.50    0.70
  -6 -10   0   11.00    1.60
   6  10   0   10.60    1.20
  -7 -10   0    3.00    1.20
   7  10   0    2.90    0.90
  -8 -10   0    6.10    1.50
   8  10   0    5.80    1.10
  -9 -10   0    1.40    1.30
   9  10   0    0.00    0.90
 -10 -10   0    4.80    1.60
  10  10   0    1.80    1.10
 -11 -10   0    0.30    1.40
  11  10   0    0.30    1.00
   9 -11   0    2.10    2.00
  -9  11   0   -0.50    0.90
   8 -11   0   -0.40    1.70
  -8  11   0    1.30    0.90
   7 -11   0    7.10    1.90
  -7  11   0    1.60    0.90
   6 -11   0    0.30    1.10
   6 -11   0    1.00    1.40
  -6  11   0    0.40    0.70
   5 -11   0    1.00    1.40
   5 -11   0    0.80    1.00
  -5  11   0    2.30    0.90
   4 -11   0    4.00    1.50
   4 -11   0    3.40    1.20
  -4  11   0    3.50    0.90
   3 -11   0   13.10    1.80
   3 -11   0    9.80    1.50
  -3  11   0   11.60    1.20
   2 -11   0   20.00    1.90
   2 -11   0   16.10    1.90
  -2  11   0   20.00    1.50
   1 -11   0    0.40    1.10
   1 -11   0   -0.60    1.10
  -1  11   0    0.40    0.60
   0 -11   0   35.30    2.60
   0 -11   0   33.30    2.40
   0  11   0   35.00    2.00
  -1 -11   0   30.70    2.30
   1  11   0   31.40    1.90
  -2 -11   0   43.60    2.80
   2  11   0   43.20    2.20
  -3 -11   0    1.60    1.10
   3  11   0    0.70    0.70
  -4 -11   0    3.90    1.20
   4  11   0    3.70    0.90
  -5 -11   0    0.30    1.00
   5  11   0    0.90    0.80
  -6 -11   0    1.80    1.10
   6  11   0    0.80    0.80
  -7 -11   0    4.20    1.30
   7  11   0    2.20    0.90
  -8 -11   0    2.80    1.30
   8  11   0    3.30    1.00
  -9 -11   0    2.30    1.30
   9  11   0    0.00    0.90
 -10 -11   0    1.10    1.50
  10  11   0   -1.50    0.90
   9 -12   0    0.60    1.90
  -9  12   0    0.50    1.00
   8 -12   0    1.30    1.90
  -8  12   0    2.10    1.00
   7 -12   0   -0.50    1.70
   6 -12   0    3.10    1.70
  -6  12   0    1.60    0.90
   5 -12   0    0.40    1.50
   5 -12   0   -0.60    1.30
  -5  12   0   -0.20    0.80
   4 -12   0   15.40    1.90
   4 -12   0   18.50    2.30
  -4  12   0   12.80    1.50
   3 -12   0    0.30    1.30
   3 -12   0   -0.50    1.20
  -3  12   0   -1.60    0.70
   2 -12   0   14.20    1.90
   2 -12   0    8.90    1.70
  -2  12   0   10.70    1.30
   1 -12   0    3.10    1.30
   1 -12   0    2.20    1.30
  -1  12   0    1.90    0.80
   0 -12   0    1.00    1.30
   0 -12   0    3.60    1.20
   0  12   0    3.40    0.90
  -1 -12   0   -0.20    1.10
   1  12   0    1.10    0.70
  -2 -12   0   -0.40    1.10
   2  12   0    2.00    0.80
  -3 -12   0   -0.60    1.10
   3  12   0   -0.90    0.70
  -4 -12   0    3.90    1.30
   4  12   0    3.80    0.90
  -5 -12   0    1.30    1.10
   5  12   0    0.30    0.80
  -6 -12   0    1.20    1.20
   6  12   0    0.80    0.80
  -7 -12   0    0.10    1.10
   7  12   0    0.30    0.90
  -8 -12   0    3.10    1.40
   8  12   0    1.50    1.00
  -9 -12   0    1.10    1.30
   9  12   0    1.50    1.00
  10  12   0   -0.40    1.00
   8 -13   0   -0.50    1.80
  -8  13   0   -1.20    0.90
   7 -13   0    0.90    1.80
  -7  13   0   -0.10    0.90
   6 -13   0   -0.10    1.70
  -6  13   0   -1.20    0.80
   5 -13   0    2.90    1.50
   5 -13   0    4.00    1.70
  -5  13   0    3.30    1.00
   4 -13   0   -2.50    1.40
   4 -13   0   -1.00    1.40
  -4  13   0    1.30    0.90
   3 -13   0    0.80    1.40
   3 -13   0   -1.30    1.30
  -3  13   0    0.30    0.70
   2 -13   0   -1.10    1.30
   2 -13   0   -0.20    1.30
  -2  13   0    0.60    0.80
   1 -13   0    6.60    1.50
   1 -13   0    7.40    1.70
  -1  13   0    7.80    1.20
   0 -13   0    1.30    1.30
   0  13   0   -0.30    0.80
  -1 -13   0    2.40    1.40
   1  13   0    2.90    0.90
  -2 -13   0    1.40    1.30
   2  13   0    0.00    0.80
  -3 -13   0    1.30    1.20
   3  13   0    0.10    0.80
  -4 -13   0   12.50    1.80
   4  13   0   11.40    1.40
  -5 -13   0    1.20    1.20
   5  13   0    0.40    0.90
  -6 -13   0    0.70    1.20
   6  13   0    2.00    1.00
  -7 -13   0    0.50    1.30
   7  13   0    1.80    1.00
  -8 -13   0    2.30    1.40
   8  13   0    0.30    1.00
   9  13   0    1.50    1.00
   7 -14   0    0.30    1.80
  -7  14   0    3.50    1.20
   6 -14   0   -0.20    1.70
  -6  14   0   -0.50    0.90
   5 -14   0   -0.10    1.70
  -5  14   0   -0.40    0.80
   4 -14   0    1.60    1.80
   4 -14   0    2.60    1.60
  -4  14   0    3.50    1.10
   3 -14   0    2.20    1.50
   3 -14   0    1.50    1.50
  -3  14   0    1.90    1.00
   2 -14   0    0.00    1.40
   2 -14   0    0.60    1.40
  -2  14   0    1.80    0.90
   1 -14   0    0.00    1.30
  -1  14   0   -1.70    0.60
   0 -14   0    0.40    1.30
   0  14   0   -0.40    0.80
  -1 -14   0    7.50    1.70
   1  14   0    6.30    1.20
  -2 -14   0    0.50    1.30
   2  14   0    0.30    0.90
  -3 -14   0   32.30    2.80
   3  14   0   28.60    2.00
  -4 -14   0    1.90    1.40
   4  14   0    1.60    0.90
  -5 -14   0    2.20    1.40
   5  14   0    2.00    1.00
  -6 -14   0    1.30    1.30
   6  14   0    0.30    0.90
  -7 -14   0    1.80    1.40
   7  14   0   -0.20    0.90
   8  14   0    0.20    1.00
   6 -15   0   -0.90    1.80
  -6  15   0   -0.40    1.00
   5 -15   0   -0.10    1.80
  -5  15   0    2.00    1.10
   4 -15   0    0.90    1.60
   4 -15   0   -2.60    1.70
  -4  15   0   -0.40    0.90
   3 -15   0   -1.70    1.60
   3 -15   0    2.70    1.70
  -3  15   0    2.00    1.00
   2 -15   0    3.10    1.70
  -2  15   0   -0.10    0.90
   1 -15   0   -1.60    1.40
  -1  15   0    0.30    0.90
   0 -15   0   -2.10    1.40
   0  15   0   -0.50    0.80
  -1 -15   0    2.60    1.60
   1  15   0    2.00    1.10
  -2 -15   0    2.60    1.50
   2  15   0    3.30    1.10
  -3 -15   0    2.80    1.60
   3  15   0    4.20    1.20
  -4 -15   0   -0.10    1.30
   4  15   0    1.20    1.00
  -5 -15   0    3.30    1.50
   5  15   0    5.10    1.20
  -6 -15   0    1.50    1.40
   6  15   0    0.80    1.00
   5 -16   0   -0.50    2.00
   4 -16   0    0.00    1.90
  -4  16   0    0.60    1.00
   3 -16   0   -0.80    1.60
  -3  16   0   -0.20    0.90
   2 -16   0    2.10    1.70
  -2  16   0    1.20    1.00
   1 -16   0    7.10    1.90
  -1  16   0    3.70    1.20
   0 -16   0    3.30    1.70
   0  16   0    4.20    1.20
  -1 -16   0    0.80    1.60
   1  16   0   -0.10    1.00
  -2 -16   0    3.80    1.70
   2  16   0    4.30    1.20
  -3 -16   0    4.80    1.70
   3  16   0    4.90    1.20
  -4 -16   0    5.20    1.70
   4  16   0    2.60    1.10
   5  16   0    1.90    1.10
   3 -17   0    1.80    1.80
   2 -17   0    1.60    1.70
   1 -17   0    0.80    1.70
   0 -17   0    0.70    1.70
   0  17   0   -1.10    0.90
  -1 -17   0   -1.00    1.50
   1  17   0   -1.10    1.00
   0 -17   1    1.80    1.50
   1 -17   1    3.40    1.70
   2 -17   1   -0.90    1.60
   4  16  -1   -0.10    1.10
  -4 -16   1    3.10    1.60
   3  16  -1    0.30    1.10
  -3 -16   1    3.10    1.60
   2  16  -1    0.80    1.00
  -2 -16   1    0.10    1.50
   1  16  -1    0.30    1.00
  -1 -16   1    1.60    1.50
   0  16  -1    2.20    1.10
   0 -16   1    2.40    1.60
  -1  16  -1    0.40    1.00
   1 -16   1    2.50    1.60
  -2  16  -1    1.40    1.10
   2 -16   1    0.60    1.60
  -3  16  -1    0.80    1.00
   3 -16   1   -0.10    1.60
   4 -16   1   -2.80    1.70
   6  15  -1    0.60    1.00
  -6 -15   1   -1.00    1.30
   5  15  -1    1.20    1.00
  -5 -15   1    1.50    1.40
   4  15  -1    2.90    1.10
  -4 -15   1    3.20    1.60
   3  15  -1    1.40    1.00
  -3 -15   1    1.50    1.50
   2  15  -1    2.70    1.10
  -2 -15   1    2.10    1.50
   1  15  -1    2.50    1.00
  -1 -15   1    0.70    1.40
   0  15  -1    2.30    1.00
   0 -15   1    3.80    1.70
  -1  15  -1    0.20    0.90
   1 -15   1    0.50    1.50
  -2  15  -1    0.80    1.00
   2 -15   1    2.70    1.50
  -3  15  -1   -1.60    0.80
   3 -15   1    0.00    1.40
   3 -15   1   -1.60    1.50
  -4  15  -1    2.20    1.10
   4 -15   1    0.00    1.70
  -5  15  -1    2.30    1.00
   5 -15   1   -1.90    1.60
   8  14  -1    3.90    1.20
   7  14  -1    2.90    1.10
  -7 -14   1    0.20    1.30
   6  14  -1    3.90    1.10
  -6 -14   1    1.80    1.30
   5  14  -1    3.90    1.10
  -5 -14   1    2.90    1.50
   4  14  -1    5.90    1.20
  -4 -14   1    6.10    1.60
   3  14  -1    1.10    0.90
  -3 -14   1    1.40    1.40
   2  14  -1    2.70    1.00
  -2 -14   1    2.20    1.50
   1  14  -1    0.00    0.80
  -1 -14   1   -0.10    1.40
   0  14  -1    2.40    0.90
   0 -14   1    1.40    1.50
  -1  14  -1    0.50    0.90
   1 -14   1   -0.60    1.40
  -2  14  -1   -0.50    0.80
   2 -14   1    0.10    1.50
   2 -14   1   -2.80    1.30
  -3  14  -1    1.70    0.90
   3 -14   1   -1.30    1.40
   3 -14   1   -0.60    1.40
  -4  14  -1    1.50    1.00
   4 -14   1   -0.70    1.50
   4 -14   1   -2.20    1.40
  -5  14  -1    0.80    0.90
   5 -14   1    0.10    1.70
  -6  14  -1   -0.60    0.90
   6 -14   1   -3.10    1.60
  -7  14  -1   -1.60    0.90
   7 -14   1    0.00    1.90
   9  13  -1    1.30    1.00
   8  13  -1    2.50    1.10
  -8 -13   1    4.60    1.60
   7  13  -1   -0.30    0.90
  -7 -13   1    0.30    1.20
   6  13  -1    2.40    1.00
  -6 -13   1    3.00    1.40
   5  13  -1    1.90    0.90
  -5 -13   1    0.40    1.20
   4  13  -1    2.60    0.90
  -4 -13   1    2.80    1.40
   3  13  -1   30.70    2.00
  -3 -13   1   27.50    2.60
   2  13  -1   -1.40    0.70
  -2 -13   1   -0.30    1.30
   1  13  -1    3.80    1.00
  -1 -13   1    5.50    1.50
   0  13  -1   15.40    1.50
   0 -13   1   15.00    1.90
  -1  13  -1    0.00    0.80
   1 -13   1   -1.00    1.20
   1 -13   1    0.40    1.30
  -2  13  -1   -0.60    0.80
   2 -13   1    0.00    1.30
   2 -13   1   -0.70    1.30
  -3  13  -1    0.10    0.70
   3 -13   1   -1.50    1.30
   3 -13   1    0.70    1.40
  -4  13  -1    0.40    0.80
   4 -13   1   -0.10    1.40
   4 -13   1   -1.10    1.40
  -5  13  -1    1.10    0.90
   5 -13   1   -0.20    1.60
  -6  13  -1    0.70    0.90
   6 -13   1   -1.00    1.60
  -7  13  -1    0.30    0.90
   7 -13   1   -2.70    1.50
  -8  13  -1   -0.90    0.90
   9  12  -1   -0.20    0.90
  -9 -12   1    1.60    1.40
   8  12  -1   -0.70    0.80
  -8 -12   1    0.80    1.30
   7  12  -1    2.20    1.00
  -7 -12   1    3.60    1.40
   6  12  -1   -0.20    0.80
  -6 -12   1    1.80    1.30
   5  12  -1    0.80    0.80
  -5 -12   1    0.80    1.20
   4  12  -1   11.00    1.30
  -4 -12   1   11.40    1.70
   3  12  -1    0.30    0.70
  -3 -12   1   -1.20    1.00
   2  12  -1   -0.10    0.70
  -2 -12   1    1.20    1.20
   1  12  -1    1.70    0.70
  -1 -12   1    0.30    1.20
   0  12  -1    9.30    1.20
   0 -12   1   10.60    1.60
  -1  12  -1   10.80    1.20
   1 -12   1   10.40    1.60
   1 -12   1    9.80    1.60
  -2  12  -1    2.50    0.90
   2 -12   1    3.20    1.40
   2 -12   1    4.80    1.50
  -3  12  -1    1.50    0.80
   3 -12   1    2.70    1.40
   3 -12   1   -0.20    1.20
  -4  12  -1    0.50    0.80
   4 -12   1   -0.30    1.40
   4 -12   1    1.10    1.30
  -5  12  -1   10.80    1.40
   5 -12   1   14.00    2.20
   5 -12   1   12.90    1.80
  -6  12  -1   -1.30    0.80
   6 -12   1    2.10    1.60
  -7  12  -1    0.20    0.80
   7 -12   1   -1.60    1.60
  -8  12  -1    1.10    1.00
   8 -12   1    2.10    1.90
  -9  12  -1   -0.20    1.00
 -10 -11   1    0.00    1.50
   9  11  -1    1.20    1.00
  -9 -11   1    1.90    1.30
   8  11  -1    2.60    1.00
  -8 -11   1    3.10    1.40
   7  11  -1    0.70    0.80
  -7 -11   1   -0.80    1.10
   6  11  -1    4.40    1.00
  -6 -11   1    8.20    1.50
   5  11  -1   -0.30    0.70
  -5 -11   1   -0.60    0.90
   4  11  -1    6.50    1.00
  -4 -11   1    6.60    1.40
   3  11  -1   70.39    3.10
  -3 -11   1   71.19    3.80
   2  11  -1    3.70    0.90
  -2 -11   1    1.70    1.20
   1  11  -1   32.20    2.00
  -1 -11   1   34.30    2.60
   0  11  -1    0.80    0.70
   0 -11   1    1.00    1.10
   0 -11   1    0.50    1.10
  -1  11  -1   35.70    2.00
   1 -11   1   32.50    2.40
   1 -11   1   33.00    2.50
  -2  11  -1    9.20    1.10
   2 -11   1   11.00    1.70
   2 -11   1    9.40    1.50
  -3  11  -1    8.60    1.10
   3 -11   1   10.10    1.60
   3 -11   1    7.10    1.60
  -4  11  -1   51.19    2.60
   4 -11   1   48.80    3.30
   4 -11   1   52.79    3.10
  -5  11  -1    0.50    0.80
   5 -11   1   -0.90    1.10
   5 -11   1    0.40    1.40
  -6  11  -1    2.30    0.90
   6 -11   1    2.40    1.60
  -7  11  -1    2.10    1.00
   7 -11   1    1.50    1.70
  -8  11  -1    5.00    1.20
   8 -11   1    6.50    2.10
  -9  11  -1    1.60    1.10
   9 -11   1    1.10    1.80
 -11 -10   1    2.00    1.50
  10  10  -1    1.40    1.00
 -10 -10   1    2.70    1.40
   9  10  -1    4.50    1.10
  -9 -10   1    2.90    1.30
   8  10  -1    0.40    0.80
  -8 -10   1    0.70    1.20
   7  10  -1    1.30    0.80
  -7 -10   1    3.30    1.20
   6  10  -1    1.20    0.80
  -6 -10   1    3.10    1.20
   5  10  -1    5.00    0.90
  -5 -10   1    3.20    1.20
   4  10  -1   44.90    2.30
  -4 -10   1   44.90    2.90
   3  10  -1   43.40    2.20
  -3 -10   1   38.90    2.80
   2  10  -1    3.20    0.80
  -2 -10   1    1.90    1.20
   1  10  -1    1.00    0.70
  -1 -10   1    0.60    0.90
  -1 -10   1    0.20    1.10
   0  10  -1   16.80    1.40
   0 -10   1   17.70    1.70
   0 -10   1   13.00    1.70
  -1  10  -1   41.00    2.20
   1 -10   1   45.30    2.60
   1 -10   1   38.40    2.70
  -2  10  -1   99.19    3.90
   2 -10   1   94.29    4.60
   2 -10   1   96.59    4.60
  -3  10  -1   -0.10    0.60
   3 -10   1    0.50    1.30
   3 -10   1   -0.40    1.10
  -4  10  -1    6.20    1.00
   4 -10   1    4.80    1.20
   4 -10   1   10.20    1.70
  -5  10  -1    0.20    0.70
   5 -10   1   -2.50    0.90
   5 -10   1   -0.80    1.30
  -6  10  -1    1.30    0.80
   6 -10   1    2.60    1.50
  -7  10  -1   -0.50    0.80
   7 -10   1   -0.10    1.30
  -8  10  -1   -0.90    0.80
   8 -10   1   -0.60    1.60
   9 -10   1    2.60    1.90
  10 -10   1    2.40    2.00
 -11  -9   1    2.30    1.60
  10   9  -1    2.40    1.10
 -10  -9   1    2.60    1.50
   9   9  -1   11.60    1.40
  -9  -9   1   12.10    1.90
   8   9  -1   10.90    1.30
  -8  -9   1   12.90    1.80
   7   9  -1    0.30    0.70
  -7  -9   1    0.80    1.10
   6   9  -1    0.60    0.70
  -6  -9   1   -0.50    1.00
   5   9  -1   -0.80    0.60
  -5  -9   1   -0.30    0.90
   4   9  -1   91.69    3.70
  -4  -9   1   95.89    4.60
   3   9  -1   17.30    1.30
  -3  -9   1   15.20    1.70
   2   9  -1   31.50    1.70
  -2  -9   1   33.70    2.40
   1   9  -1    0.40    0.50
  -1  -9   1    0.00    0.80
  -1  -9   1   -1.00    1.00
   0   9  -1   29.70    1.70
   0  -9   1   27.50    2.20
   0  -9   1   27.00    1.90
  -1   9  -1   20.80    1.40
   1  -9   1   21.80    2.00
   1  -9   1   21.40    1.90
  -2   9  -1   -0.30    0.60
   2  -9   1    1.30    1.00
   2  -9   1    0.20    1.10
  -3   9  -1   38.80    2.10
   3  -9   1   37.70    2.40
   3  -9   1   39.30    2.70
  -4   9  -1   87.29    3.70
   4  -9   1   91.29    4.60
   4  -9   1   93.29    4.20
  -5   9  -1    3.80    0.90
   5  -9   1    1.70    1.20
   5  -9   1    2.10    0.90
  -6   9  -1   -0.90    0.60
   6  -9   1    1.60    1.40
   6  -9   1   -1.20    0.80
  -7   9  -1   -0.10    0.70
   7  -9   1    0.80    1.40
  -8   9  -1    1.70    0.90
   8  -9   1    1.70    1.50
   9  -9   1   -2.50    1.60
  10  -9   1    0.60    1.80
 -12  -8   1   -0.10    1.40
 -11  -8   1    1.50    1.30
  10   8  -1    3.10    1.10
 -10  -8   1    5.80    1.60
   9   8  -1    1.80    0.90
  -9  -8   1    2.30    1.30
   8   8  -1    5.30    1.00
  -8  -8   1    3.30    1.10
   7   8  -1   21.10    1.50
  -7  -8   1   18.60    1.90
   6   8  -1   37.20    2.00
  -6  -8   1   38.30    2.60
   5   8  -1    1.90    0.70
  -5  -8   1    1.90    1.10
   4   8  -1  100.09    3.90
  -4  -8   1  104.09    4.80
   2   8  -1   24.90    1.40
  -2  -8   1   23.50    2.00
   1   8  -1    3.30    0.60
  -1  -8   1    4.70    0.90
  -1  -8   1    2.70    1.00
   0   8  -1    0.10    0.50
   0  -8   1   -0.80    0.90
   0  -8   1   -0.20    0.80
  -1   8  -1   79.79    3.40
   1  -8   1   92.39    4.00
   1  -8   1   90.39    4.00
   2  -8   1   11.20    1.50
   2  -8   1   14.60    1.40
   3  -8   1    6.50    1.40
   3  -8   1    6.40    1.00
  -4   8  -1    6.40    1.00
   4  -8   1    5.80    1.50
   4  -8   1    8.10    1.10
  -5   8  -1    0.00    0.70
   5  -8   1    0.00    0.70
   5  -8   1    0.40    1.10
  -6   8  -1    4.30    0.90
   6  -8   1    5.20    1.00
   6  -8   1    5.00    1.50
  -7   8  -1    1.70    0.80
   7  -8   1    0.50    1.40
  -8   8  -1    6.00    1.10
   8  -8   1    5.60    1.80
   9  -8   1    2.40    1.70
  10  -8   1    1.00    1.80
  11  -8   1    2.50    2.10
 -11  -7   1   -0.20    1.20
  10   7  -1   10.60    1.40
 -10  -7   1   10.20    1.80
   9   7  -1    1.30    0.80
  -9  -7   1   -0.30    1.00
   8   7  -1    1.10    0.80
  -8  -7   1    1.60    1.00
   7   7  -1    0.00    0.60
  -7  -7   1    1.80    1.00
   6   7  -1   17.30    1.30
  -6  -7   1   14.90    1.70
   5   7  -1  115.89    4.30
  -5  -7   1  112.09    5.20
  -4  -7   1   14.50    1.40
   3   7  -1   74.79    2.90
  -3  -7   1   72.09    2.80
   2   7  -1    6.40    0.70
  -2  -7   1    6.40    1.10
  -2  -7   1    7.40    0.80
   1   7  -1   58.19    2.40
  -1  -7   1   59.39    3.00
   0   7  -1  221.58    7.70
   0  -7   1  224.98    8.60
   0  -7   1  226.18    8.90
  -1   7  -1    8.80    0.80
   1  -7   1    8.40    1.10
   1  -7   1    8.40    1.00
   2  -7   1   12.00    1.40
   2  -7   1    9.90    1.10
   3  -7   1  207.68    8.30
   3  -7   1  207.48    8.20
  -4   7  -1    1.30    0.60
   4  -7   1    1.20    0.70
   4  -7   1   -0.50    1.10
  -5   7  -1   24.00    1.50
   5  -7   1   27.00    2.30
   5  -7   1   24.30    1.60
  -6   7  -1   13.40    1.30
   6  -7   1   13.10    1.80
   6  -7   1   15.60    1.40
  -7   7  -1    9.20    1.10
   7  -7   1    9.00    1.80
   8  -7   1    0.70    1.40
   9  -7   1   -0.30    1.50
  10  -7   1   -0.10    1.60
  11  -7   1    2.50    2.00
  12  -7   1   -1.80    1.80
 -11  -6   1    7.50    1.70
  10   6  -1    2.90    1.00
 -10  -6   1    2.80    1.30
   9   6  -1    9.60    1.20
  -9  -6   1    7.30    1.50
   8   6  -1    0.20    0.70
  -8  -6   1    0.70    1.00
   7   6  -1    3.40    0.80
  -7  -6   1    3.60    1.10
   6   6  -1    3.30    0.80
  -6  -6   1    3.30    1.10
   5   6  -1   40.90    2.00
  -5  -6   1   42.60    2.40
   4   6  -1   17.10    1.10
  -4  -6   1   15.30    1.50
   3   6  -1   10.70    0.90
  -3  -6   1   10.30    0.60
   2   6  -1   22.40    1.20
  -2  -6   1   21.90    1.20
  -2  -6   1   20.60    1.60
   1   6  -1    0.80    0.40
  -1  -6   1    0.20    0.60
  -1  -6   1    1.40    0.60
   0   6  -1   85.49    3.20
   0  -6   1   86.89    3.80
  -1   6  -1   97.09    3.50
   1  -6   1   96.19    4.00
   1  -6   1   91.89    4.00
   2  -6   1   41.80    2.10
   2  -6   1   40.80    2.30
  -3   6  -1    0.90    0.40
   3  -6   1    0.30    0.50
   3  -6   1    1.70    0.90
  -4   6  -1    5.40    0.70
   4  -6   1    6.20    0.80
  -5   6  -1    0.00    0.60
   5  -6   1    0.50    0.40
   5  -6   1    0.60    0.60
  -6   6  -1   32.80    1.90
   6  -6   1   36.00    2.50
   6  -6   1   39.50    2.00
  -7   6  -1    6.10    1.00
   7  -6   1    5.40    1.40
   7  -6   1    5.50    0.90
   8  -6   1   14.70    2.10
   9  -6   1    4.10    1.70
  10  -6   1    0.00    1.50
  11  -6   1   -1.60    1.60
  12  -6   1   -0.90    1.90
  11   5  -1   13.70    1.70
 -11  -5   1   14.20    2.00
  10   5  -1   -0.10    0.80
 -10  -5   1    0.70    1.10
   9   5  -1    7.70    1.20
  -9  -5   1    5.70    1.30
   8   5  -1    8.10    1.10
  -8  -5   1    6.30    1.30
   7   5  -1   12.20    1.20
  -7  -5   1   12.50    1.50
   6   5  -1   20.90    1.40
  -6  -5   1   22.90    1.90
   5   5  -1   18.80    1.20
  -5  -5   1   14.40    1.50
   4   5  -1   54.19    2.30
  -4  -5   1   57.49    2.80
   3   5  -1  174.08    6.00
  -3  -5   1  172.18    6.30
  -3  -5   1  174.88    7.00
   2   5  -1  125.09    4.20
  -2  -5   1  101.69    4.80
  -2  -5   1  129.29    4.50
   1   5  -1    8.30    0.70
  -1  -5   1    9.50    0.90
  -1  -5   1    8.70    0.80
   0   5  -1  887.31   29.00
   0  -5   1  878.31   33.40
   0  -5   1  922.51   32.30
  -1   5  -1   26.10    1.20
   1  -5   1   25.30    1.60
   1  -5   1   26.50    1.50
   2  -5   1    3.80    0.60
   2  -5   1    3.10    0.80
  -3   5  -1   67.99    2.60
   3  -5   1   66.39    2.80
   3  -5   1   65.29    3.10
  -4   5  -1  181.18    6.20
   4  -5   1  173.78    6.90
  -5   5  -1    1.00    0.50
   5  -5   1    0.30    1.00
   5  -5   1    0.30    0.50
  -6   5  -1    0.40    0.60
   6  -5   1    0.00    1.10
   6  -5   1    0.70    0.50
   7  -5   1   39.90    2.10
   7  -5   1   42.70    2.90
   8  -5   1   13.70    2.00
   9  -5   1   -1.00    1.40
  10  -5   1    1.00    1.60
  11  -5   1    1.80    1.60
  12  -5   1   -1.90    1.80
  11   4  -1    0.60    1.00
 -11  -4   1    1.60    1.20
  10   4  -1    1.60    1.00
 -10  -4   1    2.70    1.20
   9   4  -1    7.50    1.20
  -9  -4   1    9.30    1.50
   8   4  -1    0.80    0.70
  -8  -4   1    1.00    0.90
   7   4  -1   30.00    1.80
  -7  -4   1   32.90    2.20
   6   4  -1   61.29    2.60
  -6  -4   1   62.29    3.10
   5   4  -1   19.10    1.10
  -5  -4   1   12.10    1.20
   4   4  -1   67.09    2.60
  -4  -4   1   66.59    3.10
   3   4  -1   75.99    2.80
  -3  -4   1   75.19    3.30
  -3  -4   1   73.19    2.70
   2   4  -1  493.45   16.30
  -2  -4   1  509.45   18.00
   1   4  -1   21.00    1.00
  -1  -4   1   20.10    1.30
  -1  -4   1   19.90    1.10
   0   4  -1  531.25   17.10
   0  -4   1  520.55   19.70
   0  -4   1  528.95   19.10
  -1   4  -1  189.88    6.40
   1  -4   1  178.38    7.20
   1  -4   1  208.08    7.40
   2  -4   1  188.78    7.10
   2  -4   1  181.28    7.10
  -3   4  -1  370.06   12.20
   3  -4   1  366.36   13.80
  -4   4  -1  165.08    5.70
   4  -4   1  160.98    6.40
   4  -4   1  165.98    6.60
  -5   4  -1   15.20    1.10
   5  -4   1   15.30    1.00
   5  -4   1   17.50    1.60
   6  -4   1   25.20    2.20
   6  -4   1   25.30    1.50
   7  -4   1   71.69    3.20
   7  -4   1   68.99    3.80
   8  -4   1   26.70    2.40
   9  -4   1    0.10    1.40
  10  -4   1   -2.00    1.40
  11  -4   1   -2.20    1.50
  13  -4   1    2.00    1.40
  11   3  -1    6.20    1.30
 -11  -3   1    4.60    1.40
  10   3  -1    3.10    1.00
 -10  -3   1    5.30    1.20
   9   3  -1    2.60    0.90
  -9  -3   1    2.30    1.00
   8   3  -1    0.50    0.70
  -8  -3   1    0.60    0.80
   7   3  -1    1.60    0.80
  -7  -3   1    2.10    0.90
   6   3  -1    0.00    0.50
  -6  -3   1   -0.60    0.50
   5   3  -1   76.59    3.10
  -5  -3   1   78.69    3.50
   4   3  -1   80.39    3.00
  -4  -3   1   77.99    2.90
  -4  -3   1   76.89    3.50
   3   3  -1  262.87    8.80
  -3  -3   1  261.77   10.10
  -3  -3   1  267.37    9.50
   2   3  -1    1.00    0.30
  -2  -3   1    0.70    0.20
  -2  -3   1    0.30    0.10
   1   3  -1    2.70    0.30
  -1  -3   1    2.50    0.50
   0   3  -1 1512.95   49.00
   0  -3   1 1527.75   54.79
   0  -3   1 1505.05   56.29
  -1   3  -1   69.59    2.40
   1  -3   1   67.89    2.80
   1  -3   1   67.79    2.90
  -3   3  -1  226.58    7.50
   3  -3   1  226.18    8.50
   3  -3   1  221.48    8.50
  -4   3  -1  817.92   26.50
   4  -3   1  806.42   29.60
   4  -3   1  821.22   30.30
  -5   3  -1    9.80    0.90
   5  -3   1   12.60    1.30
   5  -3   1    9.90    0.90
   6  -3   1   28.40    1.60
   6  -3   1   29.50    2.20
   7  -3   1    4.80    1.30
   7  -3   1    6.50    1.00
   8  -3   1    9.10    1.60
   8  -3   1    9.80    1.20
   9  -3   1    6.40    1.60
  10  -3   1    4.60    1.60
  11  -3   1   -1.20    1.50
  12  -3   1   -0.10    1.10
  13  -3   1    1.60    1.40
  11   2  -1   12.20    1.60
  10   2  -1    3.70    1.10
 -10  -2   1    4.20    1.10
   9   2  -1   11.90    1.40
  -9  -2   1   12.30    1.50
   8   2  -1   11.70    1.30
  -8  -2   1    9.50    1.30
   7   2  -1   82.09    3.50
  -7  -2   1   79.99    3.80
   6   2  -1   28.70    1.60
  -6  -2   1   30.80    1.90
   5   2  -1  307.17   10.20
  -5  -2   1  298.87   11.70
   4   2  -1    9.60    0.90
  -4  -2   1   12.00    0.70
  -4  -2   1    9.90    0.90
   3   2  -1   10.50    0.70
  -3  -2   1    9.90    0.60
   2   2  -1    4.30    0.40
  -2  -2   1    3.00    0.50
  -2  -2   1    4.00    0.40
   1   2  -1  102.79    3.30
  -1  -2   1   93.19    3.90
  -1  -2   1  103.29    3.70
   0   2  -1 2378.46   78.09
   0  -2   1 2458.25   89.79
   0  -2   1 2413.06   86.99
   1  -2   1 3089.19  115.89
   1  -2   1 3171.18  112.89
   2  -2   1   32.00    1.30
   2  -2   1   29.50    1.50
   3  -2   1  308.37   11.50
   3  -2   1  301.67   11.30
   4  -2   1   -0.30    0.60
   4  -2   1   -0.30    0.40
   5  -2   1  155.68    6.20
   6  -2   1  129.99    5.50
   7  -2   1  125.59    5.50
   8  -2   1   40.00    2.90
   9  -2   1   -0.90    1.20
  10  -2   1    0.30    1.30
  11  -2   1    0.70    1.10
  12  -2   1    2.70    1.30
  13  -2   1    0.00    1.20
  11   1  -1    6.10    1.30
  10   1  -1    0.90    1.00
 -10  -1   1    0.80    0.90
   9   1  -1    3.90    1.00
  -9  -1   1    3.00    1.00
   8   1  -1   59.39    2.90
  -8  -1   1   60.69    3.10
   7   1  -1   23.00    1.60
  -7  -1   1   21.80    1.70
   6   1  -1   12.60    1.10
  -6  -1   1   16.90    1.40
   5   1  -1   61.79    2.50
  -5  -1   1   61.59    2.80
   4   1  -1 2421.56   73.99
  -4  -1   1 2345.17   82.19
  -4  -1   1 2085.79   84.99
   3   1  -1 1146.49   36.60
  -3  -1   1 1139.19   42.10
  -3  -1   1 1121.59   40.80
   2   1  -1 3575.84  115.19
  -2  -1   1 3487.15  127.89
  -2  -1   1 3667.73  132.79
   1   1  -1   86.09    2.90
  -1  -1   1   84.89    3.20
   0   1  -1 2020.70   66.39
   0  -1   1 2062.89   76.49
   0  -1   1 2095.89   74.19
  -1   1  -1 2177.38   78.49
   1  -1   1 2721.13   92.59
  -2   1  -1  998.00   32.60
   2  -1   1 1024.10   36.40
   2  -1   1 1025.40   37.70
  -3   1  -1  159.38    5.80
   3  -1   1  144.99    5.80
  -4   1  -1    3.70    0.50
   4  -1   1    3.10    0.70
  -5   1  -1   42.90    2.00
   5  -1   1   44.40    2.30
  -6   1  -1   47.10    2.20
   6  -1   1   42.50    2.50
  -7   1  -1   88.99    3.90
   7  -1   1   85.99    4.10
  -8   1  -1    1.00    0.80
   8  -1   1    1.30    1.10
   9  -1   1   21.80    2.10
  10  -1   1    3.10    1.10
  11  -1   1    4.00    1.30
  12  -1   1    1.00    1.20
  13  -1   1    1.30    1.30
  11   0  -1    8.30    1.40
  10   0  -1   29.20    2.20
 -10   0   1   27.60    2.20
   9   0  -1    7.40    1.20
  -9   0   1    7.70    1.20
   8   0  -1    8.10    1.20
  -8   0   1    8.90    1.20
   7   0  -1   -0.20    0.70
  -7   0   1   -0.40    0.70
  -6   0   1   22.10    1.50
  -5   0   1  280.87   10.80
  -3   0   1    6.30    0.60
  -3   0   1    6.80    0.60
  -2   0   1 1469.65   53.19
  -2   0   1 1390.76   51.49
  -1   0   1  212.18    8.10
   0   0  -1    1.00    0.20
   0   0   1   -0.60    0.20
  -1   0  -1 2821.22  103.19
   1   0   1 2752.02   99.89
  -2   0  -1 1960.50   71.69
   2   0   1 1910.11   69.69
  -3   0  -1  498.35   18.00
   3   0   1  468.45   17.50
  -4   0  -1   18.00    1.00
   4   0   1   16.70    1.30
  -5   0  -1   95.19    4.40
   5   0   1  125.79    4.50
  -6   0  -1   70.19    3.10
   6   0   1   67.49    3.20
  -7   0  -1  106.39    4.50
   7   0   1  103.19    4.60
  -8   0  -1    1.10    0.70
   8   0   1    0.50    1.10
   9   0   1    2.40    1.00
   9   0   1    0.80    1.10
  10   0   1   13.90    1.70
  11   0   1    1.70    1.20
  12   0   1    6.60    1.60
  13   0   1    1.60    1.40
  11  -1  -1   -1.10    1.00
  10  -1  -1   -0.90    0.80
 -10   1   1   -0.10    0.90
   9  -1  -1   17.40    1.70
   9  -1  -1   22.00    2.00
  -9   1   1   17.80    1.70
  -8   1   1   21.00    1.70
  -7   1   1  343.57   13.30
  -6   1   1    7.20    0.90
  -5   1   1  678.23   25.40
  -3   1   1  502.85   18.50
  -3   1   1  485.35   17.80
  -2   1   1  147.79    5.60
  -2   1   1  144.39    5.40
  -2   1   1  143.59    4.80
  -1   1   1 2710.13  100.69
  -1   1   1 2807.72   90.19
  -1   1   1 2899.31  104.09
   0  -1  -1 1556.34   56.99
   0   1   1 1538.85   55.09
   0   1   1 1503.65   49.40
  -1  -1  -1    0.10    0.20
   1   1   1   -0.30    0.20
  -2  -1  -1    4.10    0.40
   2   1   1    2.80    0.40
   2   1   1    3.50    0.40
  -3  -1  -1   27.40    1.30
   3   1   1   27.10    1.30
   3   1   1   28.10    1.30
  -4  -1  -1   26.10    1.30
   4   1   1   20.90    1.30
   4   1   1   22.40    1.30
   5   1   1   10.10    1.00
   5   1   1   10.20    1.00
  -6  -1  -1   15.10    1.20
   6   1   1   16.10    1.30
   6   1   1   16.40    1.40
  -7  -1  -1   45.90    2.40
   7   1   1   48.20    2.60
   7   1   1   43.50    2.40
  -8  -1  -1   51.69    2.60
   8   1   1   46.10    2.70
   8   1   1   44.30    2.60
  -9  -1  -1   12.80    1.40
   9   1   1   10.50    1.50
  10   1   1    5.40    1.30
  11   1   1    0.40    1.10
  12   1   1    1.50    1.30
  13   1   1    1.40    1.30
  11  -2  -1    8.10    1.50
  10  -2  -1    9.00    1.60
  -9   2   1   14.00    1.50
  -8   2   1   41.70    2.50
  -7   2   1    4.80    1.00
  -6   2   1  218.98    8.60
  -5   2   1    2.60    0.60
  -3   2   1   72.69    2.60
  -3   2   1   71.09    2.90
  -3   2   1   74.29    3.00
   2  -2  -1   49.60    2.10
  -2   2   1   47.20    1.70
  -2   2   1   47.90    2.00
   1  -2  -1   37.00    1.50
  -1   2   1   36.30    1.30
  -1   2   1   30.90    1.40
   0   2   1  615.24   19.90
   0   2   1  596.54   21.80
  -1  -2  -1  108.39    4.20
   1   2   1  109.39    3.90
  -2  -2  -1    8.00    0.70
   2   2   1    7.70    0.60
   2   2   1    6.80    0.40
  -3  -2  -1   53.49    2.30
   3   2   1   55.59    2.20
   3   2   1   55.99    2.20
  -4  -2  -1  261.57   10.10
   4   2   1  268.87    9.00
   4   2   1  267.57    9.70
  -5  -2  -1   49.50    2.30
   5   2   1   54.09    2.30
   5   2   1   46.30    2.20
  -6  -2  -1   29.10    1.70
   6   2   1   27.30    1.70
   6   2   1   28.50    1.70
  -7  -2  -1   41.20    2.30
   7   2   1   40.80    2.30
   7   2   1   39.00    2.20
  -8  -2  -1   48.80    2.70
   8   2   1   45.10    2.60
  -9  -2  -1   30.80    2.10
   9   2   1   34.60    2.30
  10   2   1   12.10    1.70
  11   2   1   11.80    1.80
  12   2   1    1.80    1.20
  13   2   1   -0.90    1.10
  10  -3  -1    0.90    1.20
   9  -3  -1    4.30    1.10
   5  -3  -1    8.00    0.90
   4  -3  -1   49.30    2.30
  -4   3   1   49.00    2.00
   3  -3  -1   86.39    3.40
  -3   3   1   72.79    2.80
   2  -3  -1  433.86   16.40
  -2   3   1  440.56   14.20
   1  -3  -1    7.60    0.60
  -1   3   1    9.70    0.70
  -1   3   1    7.40    0.50
   0   3   1 9999.00  364.36
   0   3   1 9969.70  332.47
  -1  -3  -1  497.25   18.70
   1   3   1  502.45   17.90
  -2  -3  -1  307.77   11.60
   2   3   1  307.47   10.10
  -3  -3  -1 1286.97   47.30
   3   3   1 1265.07   41.20
  -4  -3  -1   48.70    2.30
   4   3   1   47.50    1.90
   4   3   1   49.99    2.10
  -5  -3  -1  325.77   12.50
   5   3   1  322.27   11.80
   5   3   1  329.07   11.10
  -6  -3  -1   58.19    2.80
   6   3   1   55.19    2.40
   6   3   1   55.99    2.60
  -7  -3  -1  107.09    4.80
   7   3   1  109.59    4.40
  -8  -3  -1    0.00    0.80
   8   3   1    0.70    0.90
  -9  -3  -1   25.00    2.10
   9   3   1   23.80    1.90
  10   3   1   -0.90    0.80
  11   3   1    0.40    1.00
  12   3   1    4.90    1.40
  13   3   1    2.90    1.30
  11  -4  -1    4.60    1.70
  10  -4  -1    6.40    1.60
   9  -4  -1   10.20    1.40
   8  -4  -1   -0.60    0.80
   7  -4  -1   18.30    1.60
   6  -4  -1   66.99    3.20
   5  -4  -1   15.90    1.20
  -5   4   1   16.60    1.10
   4  -4  -1    6.00    0.80
  -4   4   1    6.10    0.60
   3  -4  -1  144.39    5.80
  -3   4   1  146.99    5.00
   1  -4  -1   12.10    0.80
  -1   4   1   11.20    0.70
  -1   4   1   10.50    0.90
   0   4   1 1985.10   70.99
   0   4   1 1967.90   64.29
  -1  -4  -1    2.20    0.40
  -3  -4  -1 1486.95   54.99
   3   4   1 1479.75   47.80
  -4  -4  -1   20.80    1.40
   4   4   1   20.20    1.20
  -5  -4  -1   95.69    4.20
   5   4   1   98.89    3.80
  -6  -4  -1   31.20    2.00
   6   4   1   33.80    1.80
  -7  -4  -1   49.20    2.70
   7   4   1   48.10    2.40
  -8  -4  -1    0.50    0.90
   8   4   1    1.00    0.90
  -9  -4  -1   16.00    1.60
   9   4   1   15.90    1.70
 -10  -4  -1   11.20    1.50
  10   4   1    9.90    1.50
  11   4   1    4.70    1.30
  12   4   1    1.50    1.20
  13   4   1    0.00    1.10
  12  -5  -1    1.90    1.80
  11  -5  -1    3.90    1.70
  10  -5  -1    2.80    1.50
   9  -5  -1    3.60    1.00
   9  -5  -1    5.10    1.50
   8  -5  -1   40.40    2.40
   7  -5  -1   90.19    4.20
   6  -5  -1   65.89    3.20
  -6   5   1   65.79    2.80
   5  -5  -1    6.00    0.80
  -5   5   1    6.90    0.80
   4  -5  -1  238.18    9.20
  -4   5   1  236.98    8.10
   3  -5  -1   24.20    1.40
  -3   5   1   26.10    1.30
   2  -5  -1    0.10    0.40
  -2   5   1   -0.20    0.30
   1  -5  -1  404.56   15.40
  -1   5   1  415.66   13.40
  -1  -5  -1   -0.40    0.10
  -2  -5  -1   69.79    3.10
   2   5   1   69.29    2.60
  -3  -5  -1   -0.30    0.50
   3   5   1    0.40    0.40
  -4  -5  -1  396.66   15.30
   4   5   1  402.56   13.30
  -5  -5  -1   -0.20    0.70
   5   5   1    0.20    0.50
  -6  -5  -1    1.40    0.80
   6   5   1    1.70    0.70
  -7  -5  -1  126.69    5.60
   7   5   1  128.59    5.00
  -8  -5  -1   23.00    2.00
   8   5   1   20.00    1.70
  -9  -5  -1    1.80    1.00
   9   5   1    3.90    1.00
 -10  -5  -1    0.10    0.90
  10   5   1    0.50    0.90
  11   5   1    1.90    1.10
  12   5   1    0.20    1.10
  13   5   1   -0.70    1.00
  12  -6  -1   -1.00    1.90
  11  -6  -1    0.50    1.70
  10  -6  -1    5.80    1.70
   9  -6  -1    2.30    1.40
   8  -6  -1    7.40    1.10
   7  -6  -1    0.20    0.70
  -7   6   1    0.10    0.70
   6  -6  -1   12.50    1.20
  -6   6   1   11.70    1.20
   5  -6  -1  146.29    6.00
  -5   6   1  147.19    5.30
   4  -6  -1    6.80    0.80
  -4   6   1    4.80    0.70
   3  -6  -1   27.40    1.60
  -3   6   1   30.10    1.40
   2  -6  -1    3.20    0.60
  -2   6   1    3.70    0.50
   1  -6  -1  156.68    6.30
  -1   6   1  161.58    5.50
   0  -6  -1   21.10    1.40
   0   6   1   21.10    1.10
   1   6   1   21.30    1.10
  -2  -6  -1   83.49    3.80
   2   6   1   90.59    3.30
  -3  -6  -1  104.89    4.40
   3   6   1  101.49    3.80
  -4  -6  -1  816.82   31.10
   4   6   1  840.92   27.10
  -5  -6  -1    4.50    1.00
   5   6   1    4.50    0.80
  -6  -6  -1    9.20    1.30
   6   6   1    9.80    1.10
  -7  -6  -1   13.90    1.50
   7   6   1   13.10    1.40
  -8  -6  -1    8.40    1.30
   8   6   1    7.80    1.20
  -9  -6  -1    8.30    1.40
   9   6   1    7.50    1.20
 -10  -6  -1    1.20    1.10
  10   6   1    1.60    1.00
  11   6   1    3.80    1.20
  12   6   1    3.40    1.30
  12  -7  -1    1.80    2.00
  11  -7  -1    2.30    1.90
  10  -7  -1   -0.50    1.60
   9  -7  -1    5.60    1.70
   8  -7  -1   16.30    1.60
   7  -7  -1   20.70    1.60
  -7   7   1   20.20    1.50
   6  -7  -1   18.50    1.40
  -6   7   1   18.80    1.40
   5  -7  -1    3.70    0.80
  -5   7   1    2.70    0.70
   4  -7  -1  161.58    6.60
  -4   7   1  163.18    5.80
   3  -7  -1   31.80    1.80
  -3   7   1   31.90    1.60
   2  -7  -1  179.48    7.20
  -2   7   1  184.78    6.30
   1  -7  -1   21.20    1.50
  -1   7   1   20.80    1.10
   0  -7  -1    3.30    0.80
   0   7   1    1.50    0.40
  -1  -7  -1   77.19    3.30
   1   7   1   66.99    2.80
  -2  -7  -1  219.58    8.30
  -2  -7  -1  222.18    8.90
   2   7   1  230.28    7.70
  -3  -7  -1  258.77   10.10
  -3  -7  -1  252.47    9.30
   3   7   1  258.07    8.80
  -4  -7  -1    0.60    0.90
   4   7   1    1.90    0.60
  -5  -7  -1   93.69    4.30
   5   7   1   90.69    3.70
  -6  -7  -1  104.29    4.80
   6   7   1  106.29    4.20
  -7  -7  -1    0.30    0.90
   7   7   1    0.50    0.70
  -8  -7  -1    0.10    0.90
   8   7   1   -0.60    0.80
  -9  -7  -1    2.00    1.10
   9   7   1    1.90    0.90
 -10  -7  -1    2.70    1.30
  10   7   1    2.10    1.10
  11   7   1    1.70    1.20
  12   7   1   -1.00    1.00
  11  -8  -1   -1.70    1.80
  10  -8  -1   -1.40    1.60
   9  -8  -1    0.60    1.40
   8  -8  -1   11.90    1.40
   8  -8  -1   11.50    1.90
  -8   8   1   11.80    1.40
   7  -8  -1    6.00    1.10
  -7   8   1    6.80    1.00
   6  -8  -1   18.10    1.50
  -6   8   1   17.40    1.40
   5  -8  -1   32.20    1.90
  -5   8   1   28.70    1.70
   4  -8  -1  127.69    5.30
  -4   8   1  117.29    4.60
   3  -8  -1   37.90    2.20
  -3   8   1   39.40    1.90
   2  -8  -1    0.30    0.70
  -2   8   1    0.00    0.50
   1  -8  -1   12.00    1.20
  -1   8   1   13.30    1.00
   0  -8  -1    1.80    0.90
   0   8   1    0.60    0.40
  -1  -8  -1   26.80    1.90
   1   8   1   18.30    1.20
  -2  -8  -1   62.69    2.70
   2   8   1   65.09    2.60
  -3  -8  -1    2.40    1.00
   3   8   1    5.20    0.80
  -4  -8  -1    3.10    1.00
   4   8   1    3.20    0.70
  -5  -8  -1   38.90    2.50
   5   8   1   38.70    2.00
  -6  -8  -1    2.90    1.10
   6   8   1    5.00    0.90
  -7  -8  -1   40.00    2.60
   7   8   1   39.10    2.20
  -8  -8  -1    9.40    1.50
   8   8   1    9.80    1.30
  -9  -8  -1    1.40    1.10
   9   8   1    2.30    1.00
 -10  -8  -1    5.00    1.40
  10   8   1    5.80    1.20
  11   8   1    9.30    1.50
  12   8   1   -1.10    1.00
  11  -9  -1    7.30    2.30
  10  -9  -1    2.60    1.90
   9  -9  -1    1.70    1.70
   8  -9  -1   23.10    2.60
  -8   9   1   19.40    1.60
   7  -9  -1    5.70    1.60
   7  -9  -1    5.20    1.10
  -7   9   1    5.20    1.00
   6  -9  -1   16.70    1.50
  -6   9   1   13.90    1.40
   5  -9  -1   18.90    1.70
  -5   9   1   15.00    1.40
   4  -9  -1  106.79    4.70
  -4   9   1  103.99    4.20
   3  -9  -1  208.58    8.50
  -3   9   1  213.88    7.50
   2  -9  -1   83.39    4.00
  -2   9   1   89.09    3.50
  -1   9   1   22.30    1.30
   0  -9  -1    4.90    1.20
  -1  -9  -1    0.50    0.70
  -1  -9  -1    0.70    1.00
   1   9   1    0.10    0.20
  -2  -9  -1    1.50    0.40
   2   9   1    6.20    0.80
  -3  -9  -1   25.90    2.20
   3   9   1   24.40    1.50
  -4  -9  -1    1.70    1.10
   4   9   1    3.00    0.80
  -5  -9  -1    6.00    1.20
   5   9   1    5.90    0.90
  -6  -9  -1    0.80    0.90
   6   9   1    0.60    0.70
  -7  -9  -1    0.90    1.00
   7   9   1    0.40    0.80
  -8  -9  -1    1.60    1.10
   8   9   1    3.80    1.10
  -9  -9  -1    4.70    1.30
   9   9   1    3.60    1.10
 -10  -9  -1    1.70    1.30
  10   9   1    1.70    1.10
 -11  -9  -1    0.30    1.30
  11   9   1    1.80    1.20
  10 -10  -1    5.10    2.10
   9 -10  -1    6.70    2.10
  -9  10   1    6.20    1.30
   8 -10  -1    0.20    1.60
  -8  10   1    0.30    0.80
   7 -10  -1    1.90    1.40
   7 -10  -1   -2.00    0.80
  -7  10   1   -0.10    0.70
   6 -10  -1   14.50    1.50
   6 -10  -1   16.40    2.10
  -6  10   1   14.00    1.40
   5 -10  -1    0.10    0.90
  -5  10   1    0.30    0.70
   4 -10  -1   -0.60    0.80
  -4  10   1    1.20    0.70
   3 -10  -1    0.90    1.00
  -3  10   1    1.30    0.70
   2 -10  -1   22.20    2.10
  -2  10   1   21.30    1.50
   1 -10  -1  226.48    9.30
  -1  10   1  225.88    8.00
   0 -10  -1    8.60    1.40
   0 -10  -1    8.50    1.30
   0  10   1    7.20    1.00
  -1 -10  -1    6.60    1.10
  -1 -10  -1    6.00    1.40
   1  10   1    6.50    0.90
  -2 -10  -1    1.40    1.10
   2  10   1    0.20    0.60
  -3 -10  -1    0.00    1.00
   3  10   1    0.10    0.60
  -4 -10  -1    7.50    1.40
   4  10   1    8.00    1.00
  -5 -10  -1    1.90    1.10
   5  10   1    2.60    0.80
  -6 -10  -1    3.50    1.20
   6  10   1    4.90    1.00
  -7 -10  -1   -0.60    1.00
   7  10   1   -0.20    0.70
  -8 -10  -1   11.10    1.70
   8  10   1   12.30    1.40
  -9 -10  -1    4.80    1.40
   9  10   1    4.60    1.20
 -10 -10  -1    0.20    1.30
  10  10   1   -0.40    0.90
 -11 -10  -1    0.30    1.40
  11  10   1    0.20    1.00
   9 -11  -1    1.40    1.90
  -9  11   1    0.50    1.00
   8 -11  -1    1.70    1.60
  -8  11   1    0.20    0.80
   7 -11  -1    4.10    1.30
   7 -11  -1    5.60    1.80
  -7  11   1    5.00    1.10
   6 -11  -1    0.30    1.30
   6 -11  -1   -1.40    0.90
  -6  11   1   -0.90    0.70
   5 -11  -1    1.30    1.30
   5 -11  -1    1.80    1.10
  -5  11   1   -0.20    0.70
   4 -11  -1   27.10    2.30
   4 -11  -1   28.80    2.40
  -4  11   1   28.60    1.80
   3 -11  -1   -0.50    1.00
   3 -11  -1    0.50    1.20
  -3  11   1    0.00    0.60
   2 -11  -1    6.00    1.40
   2 -11  -1    8.30    1.40
  -2  11   1    5.70    0.90
   1 -11  -1   39.50    2.80
   1 -11  -1   38.80    2.60
  -1  11   1   41.20    2.20
   0 -11  -1   -0.70    1.10
   0 -11  -1   -0.60    0.90
   0  11   1    0.50    0.60
  -1 -11  -1   45.40    3.00
   1  11   1   44.20    2.20
  -2 -11  -1    1.90    1.20
   2  11   1    3.20    0.80
  -3 -11  -1    3.80    1.30
   3  11   1    3.10    0.80
  -4 -11  -1    2.40    1.20
   4  11   1    1.50    0.80
  -5 -11  -1    8.40    1.50
   5  11   1    6.80    1.10
  -6 -11  -1   -1.00    0.90
   6  11   1   -0.60    0.70
  -7 -11  -1   -0.30    1.10
   7  11   1    0.10    0.80
  -8 -11  -1    1.50    1.30
   8  11   1    1.60    1.00
  -9 -11  -1    0.10    1.20
   9  11   1   -0.80    0.90
 -10 -11  -1    1.90    1.30
  10  11   1    3.00    1.20
   9 -12  -1    0.50    1.90
  -9  12   1    1.20    1.00
   8 -12  -1    3.50    1.90
  -8  12   1    1.00    0.90
   7 -12  -1    0.40    1.60
  -7  12   1   -0.90    0.80
   6 -12  -1   -2.00    1.10
   6 -12  -1   -1.40    1.40
  -6  12   1   -0.50    0.80
   5 -12  -1    6.70    1.40
   5 -12  -1    5.80    1.70
  -5  12   1    6.00    1.10
   4 -12  -1   11.50    1.90
   4 -12  -1    9.30    1.60
  -4  12   1   12.50    1.40
   3 -12  -1    5.20    1.50
   3 -12  -1    1.60    1.30
  -3  12   1    3.60    0.90
   2 -12  -1    1.80    1.30
   2 -12  -1    0.90    1.20
  -2  12   1    3.80    0.90
   1 -12  -1    0.20    1.10
   1 -12  -1    0.70    1.10
  -1  12   1   -0.30    0.60
   0 -12  -1    0.00    1.30
   0 -12  -1   -0.20    1.00
   0  12   1    0.00    0.60
  -1 -12  -1    9.50    1.60
   1  12   1    9.30    1.10
  -2 -12  -1    2.10    1.20
   2  12   1    3.00    0.80
  -3 -12  -1    6.70    1.50
   3  12   1    6.30    1.10
  -4 -12  -1    1.20    1.20
   4  12   1    1.10    0.80
  -5 -12  -1    3.20    1.30
   5  12   1    2.00    0.90
  -6 -12  -1    8.60    1.60
   6  12   1    8.80    1.20
  -7 -12  -1    1.00    1.20
   7  12   1    0.10    0.90
  -8 -12  -1    1.40    1.30
   8  12   1    1.30    1.00
  -9 -12  -1    3.30    1.40
   9  12   1    0.60    1.00
 -10 -12  -1    1.90    1.40
  10  12   1    1.10    1.10
   8 -13  -1   -1.40    1.80
  -8  13   1   -0.40    0.90
   7 -13  -1    2.00    1.80
  -7  13   1    0.70    0.90
   6 -13  -1   -1.80    1.30
   6 -13  -1    1.10    1.70
  -6  13   1   -0.20    0.80
   5 -13  -1    7.40    1.70
   5 -13  -1    8.20    1.90
  -5  13   1    7.40    1.20
   4 -13  -1    0.60    1.40
   4 -13  -1    0.00    1.30
  -4  13   1   -1.10    0.70
   3 -13  -1    5.20    1.50
   3 -13  -1    0.60    1.40
  -3  13   1    2.90    0.90
   2 -13  -1   -1.70    1.20
   2 -13  -1    0.60    1.20
  -2  13   1   -1.10    0.70
   1 -13  -1    0.40    1.30
   1 -13  -1    0.70    1.20
  -1  13   1    0.30    0.70
   0 -13  -1    0.80    1.40
   0  13   1    1.30    0.80
  -1 -13  -1   -0.10    1.30
   1  13   1    1.60    0.80
  -2 -13  -1    8.70    1.70
   2  13   1    7.50    1.20
  -3 -13  -1    5.60    1.50
   3  13   1    7.30    1.10
  -4 -13  -1    1.80    1.20
   4  13   1   -1.10    0.70
  -5 -13  -1    0.90    1.30
   5  13   1    3.00    0.90
  -6 -13  -1    0.00    1.20
   6  13   1    0.70    0.90
  -7 -13  -1    0.80    1.20
   7  13   1    1.30    1.00
  -8 -13  -1    2.60    1.40
   8  13   1    2.30    1.10
  -9 -13  -1    0.40    1.30
   9  13   1    0.70    1.00
   7 -14  -1    0.90    1.90
  -7  14   1    0.50    1.00
   6 -14  -1   -0.20    1.70
  -6  14   1    1.50    1.00
   5 -14  -1    0.70    1.70
   5 -14  -1   -1.10    1.50
  -5  14   1   -0.10    0.90
   4 -14  -1   -1.10    1.50
   4 -14  -1    2.20    1.60
  -4  14   1   -0.60    0.90
   3 -14  -1   -0.50    1.50
   3 -14  -1    2.20    1.60
  -3  14   1    0.50    0.90
   2 -14  -1   11.10    1.90
   2 -14  -1   11.70    2.00
  -2  14   1   10.70    1.40
   1 -14  -1    0.30    1.40
  -1  14   1    2.00    0.90
   0 -14  -1   -1.10    1.40
   0  14   1   -0.50    0.70
  -1 -14  -1   -0.10    1.40
   1  14   1    2.10    0.90
  -2 -14  -1    0.60    1.40
   2  14   1    0.40    0.80
  -3 -14  -1    3.70    1.50
   3  14   1    3.80    0.90
  -4 -14  -1    0.00    1.20
   4  14   1    0.20    0.80
  -5 -14  -1    0.80    1.30
   5  14   1   -1.20    0.80
  -6 -14  -1   -0.10    1.30
   6  14   1    0.60    0.90
  -7 -14  -1    0.70    1.30
   7  14   1    0.20    0.90
  -8 -14  -1    2.60    1.40
   8  14   1    1.00    1.10
   6 -15  -1    0.10    1.80
  -6  15   1   -0.90    0.90
   5 -15  -1    0.80    1.80
   5 -15  -1   -2.20    1.60
  -5  15   1    2.20    1.00
   4 -15  -1    1.20    1.80
   4 -15  -1    5.80    2.00
  -4  15   1    5.90    1.30
   3 -15  -1    0.40    1.60
   3 -15  -1    1.80    1.70
  -3  15   1    1.10    1.00
   2 -15  -1   12.30    2.10
  -2  15   1   11.10    1.50
   1 -15  -1   -2.80    1.40
  -1  15   1   -1.10    0.80
   0 -15  -1    3.70    1.70
   0  15   1    1.10    1.00
  -1 -15  -1    0.00    1.60
   1  15   1    1.80    1.00
  -2 -15  -1    5.60    1.80
   2  15   1    4.80    1.20
  -3 -15  -1    4.60    1.70
   3  15   1    4.00    1.10
  -4 -15  -1    1.90    1.50
   4  15   1    0.80    0.90
  -5 -15  -1    1.80    1.30
   5  15   1   -1.60    0.80
  -6 -15  -1    1.50    1.40
   6  15   1   -0.50    0.90
   7  15   1   -0.20    1.00
   5 -16  -1   -0.40    1.80
   4 -16  -1   -0.40    1.80
   4 -16  -1   -1.30    1.80
  -4  16   1    2.30    1.10
   3 -16  -1    2.30    1.80
  -3  16   1    2.80    1.10
   2 -16  -1    0.70    1.70
  -2  16   1   -0.80    0.90
   1 -16  -1   -0.90    1.60
  -1  16   1    2.20    1.10
   0 -16  -1    2.40    1.70
   0  16   1    2.50    1.10
  -1 -16  -1    2.80    1.70
   1  16   1    2.30    1.10
  -2 -16  -1   -0.60    1.50
   2  16   1    0.30    1.00
  -3 -16  -1    1.10    1.60
   3  16   1    2.50    1.10
  -4 -16  -1   -0.80    1.50
   4  16   1    0.10    0.90
  -5 -16  -1    6.70    1.80
   5  16   1    5.50    1.30
   4 -17  -1   -0.80    1.80
   3 -17  -1   -2.10    1.70
   2 -17  -1    0.40    1.70
   1 -17  -1    1.50    1.80
  -1  17   1    0.00    1.00
   0 -17  -1   -0.50    1.60
   0  17   1   -1.50    0.90
  -1 -17  -1    2.50    1.70
   1  17   1   -0.50    1.00
  -2 -17  -1    1.90    1.70
   2  17   1    0.10    1.10
   1 -17   2    5.30    1.80
   4  16  -2    1.80    1.10
   3  16  -2   -0.90    1.00
  -3 -16   2    0.10    1.50
   2  16  -2    0.00    1.00
  -2 -16   2    3.60    1.60
   1  16  -2    0.60    1.00
  -1 -16   2    1.40    1.50
   0  16  -2    3.80    1.20
   0 -16   2    2.80    1.60
  -1  16  -2    4.80    1.30
   1 -16   2    2.80    1.60
  -2  16  -2   -0.50    0.90
   2 -16   2    1.60    1.60
   6  15  -2    1.40    1.00
   5  15  -2    3.50    1.10
  -5 -15   2    2.50    1.60
   4  15  -2    2.50    1.10
  -4 -15   2    1.90    1.50
   3  15  -2    1.90    1.10
  -3 -15   2    2.00    1.60
   2  15  -2    0.30    0.90
  -2 -15   2    0.50    1.40
   1  15  -2   -0.70    0.90
  -1 -15   2   -0.10    1.40
   0  15  -2    0.20    0.90
   0 -15   2    1.50    1.50
  -1  15  -2   -0.20    0.90
   1 -15   2   -0.50    1.30
  -2  15  -2   -1.20    0.90
   2 -15   2    3.80    1.60
  -3  15  -2   -0.90    0.90
   3 -15   2   -1.80    1.60
  -4  15  -2    0.70    1.00
   4 -15   2   -1.90    1.60
   5 -15   2    0.50    2.00
   7  14  -2    1.80    1.00
   6  14  -2    1.20    1.00
  -6 -14   2   -0.10    1.30
   5  14  -2    1.50    1.00
  -5 -14   2    3.70    1.60
   4  14  -2    1.90    1.00
  -4 -14   2    0.70    1.40
   3  14  -2   13.30    1.60
  -3 -14   2   13.40    2.00
   2  14  -2   -1.10    0.90
  -2 -14   2   -0.30    1.30
   1  14  -2   -0.30    0.90
  -1 -14   2   -0.70    1.30
   0  14  -2    0.70    0.90
   0 -14   2    3.00    1.40
  -1  14  -2    2.50    0.90
   1 -14   2    4.50    1.60
  -2  14  -2   -0.10    0.90
   2 -14   2   -0.90    1.50
   2 -14   2    0.30    1.30
  -3  14  -2    1.00    1.00
   3 -14   2   -0.90    1.30
   3 -14   2   -0.80    1.60
  -4  14  -2    1.20    1.00
   4 -14   2   -3.50    1.50
  -5  14  -2    0.40    0.90
   5 -14   2   -0.80    1.80
  -6  14  -2    1.90    1.00
   6 -14   2   -2.20    1.80
   8  13  -2   -0.20    1.00
  -8 -13   2    0.00    1.20
   7  13  -2   -0.50    0.80
  -7 -13   2   -0.60    1.20
   6  13  -2    2.20    1.00
  -6 -13   2    1.60    1.40
   5  13  -2    3.60    1.00
  -5 -13   2    2.50    1.40
   4  13  -2   15.60    1.60
  -4 -13   2   16.00    2.10
   3  13  -2   10.20    1.30
  -3 -13   2   10.70    1.70
   2  13  -2    3.50    1.00
  -2 -13   2    3.00    1.40
   1  13  -2    5.40    1.10
  -1 -13   2    4.60    1.40
   0  13  -2    2.40    0.90
   0 -13   2    2.40    1.40
  -1  13  -2    8.50    1.30
   1 -13   2    9.30    1.70
  -2  13  -2    6.00    1.20
   2 -13   2    4.60    1.50
   2 -13   2    4.20    1.50
  -3  13  -2   -1.00    0.70
   3 -13   2   -0.40    1.40
   3 -13   2   -1.90    1.20
  -4  13  -2    1.60    0.90
   4 -13   2    1.40    1.60
  -5  13  -2   -0.10    0.80
   5 -13   2    3.20    1.80
  -6  13  -2    0.40    0.90
   6 -13   2   -2.90    1.50
  -7  13  -2   -0.90    0.90
   7 -13   2   -0.40    1.80
  -9 -12   2    1.70    1.40
   8  12  -2   -0.40    0.90
  -8 -12   2    3.60    1.50
   7  12  -2    1.30    1.00
  -7 -12   2    3.20    1.40
   6  12  -2   11.50    1.40
  -6 -12   2   12.50    1.80
   5  12  -2   18.30    1.70
  -5 -12   2   17.90    2.10
   4  12  -2    1.40    0.80
  -4 -12   2   -1.40    1.10
   3  12  -2    7.60    1.10
  -3 -12   2    7.00    1.60
   2  12  -2    5.30    1.00
  -2 -12   2    2.90    1.30
   1  12  -2    1.50    0.80
  -1 -12   2    2.40    1.20
   0  12  -2    4.10    1.00
   0 -12   2    4.00    1.40
  -1  12  -2    6.00    1.00
   1 -12   2    8.70    1.60
   1 -12   2   10.40    1.60
  -2  12  -2    1.80    0.90
   2 -12   2    1.80    1.30
   2 -12   2    1.90    1.30
  -3  12  -2   -0.10    0.70
   3 -12   2   -0.80    1.30
   3 -12   2    0.30    1.20
  -4  12  -2   11.60    1.40
   4 -12   2   10.30    1.90
   4 -12   2    9.90    1.70
  -5  12  -2    0.60    0.80
   5 -12   2    0.20    1.60
  -6  12  -2   -0.40    0.80
   6 -12   2   -1.00    1.60
  -7  12  -2   -0.40    0.90
   7 -12   2    1.80    1.80
  -8  12  -2    2.90    1.10
   8 -12   2    0.60    1.90
  -9 -11   2    0.70    1.30
   8  11  -2    2.40    1.00
  -8 -11   2    4.30    1.50
   7  11  -2    5.10    1.10
  -7 -11   2    5.40    1.50
   6  11  -2    4.50    1.00
  -6 -11   2    5.50    1.40
   5  11  -2   -0.50    0.70
  -5 -11   2    1.70    1.20
   4  11  -2    1.70    0.80
  -4 -11   2    2.60    1.10
   3  11  -2   14.40    1.40
  -3 -11   2   11.90    1.70
   2  11  -2   72.39    3.20
  -2 -11   2   76.09    4.00
   1  11  -2   26.70    1.80
  -1 -11   2   32.30    2.40
   0  11  -2    6.60    1.00
   0 -11   2    7.20    1.40
   0 -11   2    8.30    1.50
  -1  11  -2    0.70    0.70
   1 -11   2    0.40    1.10
   1 -11   2    1.00    1.10
  -2  11  -2    0.10    0.70
   2 -11   2    1.00    1.30
   2 -11   2    0.80    1.10
  -3  11  -2    0.60    0.70
   3 -11   2    0.60    1.20
   3 -11   2    1.40    1.30
  -4  11  -2    7.60    1.20
   4 -11   2    8.50    1.50
   4 -11   2    8.50    1.70
  -5  11  -2   -0.20    0.70
   5 -11   2   -0.20    1.40
  -6  11  -2    0.60    0.80
   6 -11   2   -1.00    1.50
  -7  11  -2    0.20    0.80
   7 -11   2   -2.50    1.50
  -8  11  -2    1.10    0.90
   8 -11   2    1.20    1.80
  -9  11  -2   -0.70    0.90
   9 -11   2   -2.60    1.70
 -10 -10   2    6.30    1.70
   9  10  -2    1.20    0.90
  -9 -10   2    0.70    1.40
   8  10  -2   11.70    1.40
  -8 -10   2   12.00    1.80
   7  10  -2    0.30    0.80
  -7 -10   2    3.60    1.20
   6  10  -2    4.00    0.90
  -6 -10   2    4.50    1.30
   5  10  -2    9.60    1.10
  -5 -10   2    6.50    1.40
   4  10  -2   10.90    1.20
  -4 -10   2   11.20    1.60
   3  10  -2  234.28    8.40
  -3 -10   2  241.58    9.90
   2  10  -2    0.00    0.70
  -2 -10   2    0.30    1.10
   1  10  -2   58.49    2.70
  -1 -10   2   55.99    3.00
  -1 -10   2   57.79    3.30
   0  10  -2   13.60    1.30
   0 -10   2   15.60    1.60
   0 -10   2   14.60    1.70
  -1  10  -2   10.50    1.10
   1 -10   2    8.60    1.50
   1 -10   2    7.90    1.50
  -2  10  -2    1.60    0.80
   2 -10   2   -0.70    1.10
   2 -10   2    0.40    1.00
  -3  10  -2    1.10    0.70
   3 -10   2    0.30    1.20
   3 -10   2    0.20    1.00
  -4  10  -2   13.20    1.40
   4 -10   2    9.30    1.50
   4 -10   2    9.60    1.80
  -5  10  -2    0.60    0.70
   5 -10   2   -0.10    1.00
   5 -10   2   -0.30    1.20
  -6  10  -2    2.50    0.90
   6 -10   2    2.70    1.50
  -7  10  -2    1.30    0.90
   7 -10   2    1.00    1.60
  -8  10  -2   -1.70    0.70
   8 -10   2    0.80    1.70
   9 -10   2    0.20    1.80
  10 -10   2   -1.10    1.80
 -11  -9   2    2.00    1.50
 -10  -9   2    2.50    1.50
   9   9  -2    3.80    1.00
  -9  -9   2    4.20    1.50
   8   9  -2    3.20    0.90
  -8  -9   2    3.10    1.30
   7   9  -2   13.50    1.30
  -7  -9   2   14.40    1.90
   6   9  -2    2.80    0.80
  -6  -9   2    2.20    1.10
   5   9  -2    3.10    0.80
  -5  -9   2    2.90    1.10
   4   9  -2   18.40    1.30
  -4  -9   2   12.60    1.70
   3   9  -2   44.70    2.20
  -3  -9   2   45.40    2.80
   2   9  -2   20.50    1.40
  -2  -9   2   21.10    1.90
   1   9  -2    2.10    0.70
  -1  -9   2    1.30    0.90
  -1  -9   2    1.90    1.10
   0   9  -2   25.10    1.60
   0  -9   2   27.80    2.00
   0  -9   2   26.70    2.00
  -1   9  -2   13.80    1.20
   1  -9   2   16.50    1.60
   1  -9   2   14.40    1.60
  -2   9  -2   23.60    1.60
   2  -9   2   24.40    2.10
   2  -9   2   24.10    2.20
  -3   9  -2    6.00    1.00
   3  -9   2    4.60    1.20
   3  -9   2    7.60    1.50
  -4   9  -2    0.70    0.60
   4  -9   2   -0.60    1.20
   4  -9   2   -1.40    0.90
  -5   9  -2   19.10    1.50
   5  -9   2   19.20    1.80
   5  -9   2   19.10    2.20
  -6   9  -2    2.70    0.90
   6  -9   2    5.10    1.60
  -7   9  -2    1.60    0.80
   7  -9   2    0.40    1.40
  -8   9  -2    0.00    0.80
   8  -9   2   -0.50    1.50
   9  -9   2   -0.90    1.50
  10  -9   2    1.00    1.90
 -11  -8   2    8.10    1.80
 -10  -8   2    0.50    1.30
   9   8  -2   16.70    1.60
  -9  -8   2   15.90    2.10
   8   8  -2    0.10    0.70
  -8  -8   2   -0.20    1.00
   7   8  -2    1.20    0.70
  -7  -8   2    1.20    1.10
   6   8  -2    0.40    0.60
  -6  -8   2    0.70    0.90
   5   8  -2   22.60    1.40
  -5  -8   2   22.10    1.90
   4   8  -2   72.39    3.00
  -4  -8   2   72.19    3.70
   3   8  -2   27.80    1.60
  -3  -8   2   29.60    2.10
   2   8  -2   40.80    1.90
  -2  -8   2   32.20    1.90
  -2  -8   2   43.30    2.50
   1   8  -2   24.60    1.40
  -1  -8   2   25.30    1.90
  -1  -8   2   26.40    1.80
   0   8  -2   42.80    2.00
   0  -8   2   44.80    2.50
   0  -8   2   41.60    2.50
  -1   8  -2   22.90    1.40
   1  -8   2   19.40    1.80
   1  -8   2   22.30    1.90
  -2   8  -2   12.00    1.10
   2  -8   2   12.90    1.50
   2  -8   2    9.90    1.30
  -3   8  -2   32.00    1.80
   3  -8   2   43.40    2.70
   3  -8   2   41.80    2.40
  -4   8  -2   92.39    3.80
   4  -8   2   94.79    4.60
   4  -8   2   91.39    4.10
  -5   8  -2   12.70    1.30
   5  -8   2   11.30    1.20
   5  -8   2   13.00    1.90
  -6   8  -2   20.40    1.60
   6  -8   2   20.60    2.30
  -7   8  -2   -0.40    0.60
   7  -8   2    1.10    1.30
  -8   8  -2    2.30    1.00
   8  -8   2    1.00    1.60
   9  -8   2    1.10    1.70
  10  -8   2   -1.70    1.60
  11  -8   2    1.70    2.10
 -12  -7   2    0.90    1.40
 -11  -7   2    0.10    1.30
 -10  -7   2    5.90    1.60
   9   7  -2   -0.30    0.80
  -9  -7   2   -0.50    1.10
   8   7  -2   11.70    1.30
  -8  -7   2   11.50    1.70
   7   7  -2    1.00    0.70
  -7  -7   2    0.30    1.00
   6   7  -2    0.60    0.60
  -6  -7   2    0.70    0.90
   5   7  -2    1.10    0.60
  -5  -7   2    1.40    1.00
   4   7  -2   10.50    1.00
   3   7  -2   28.00    1.40
  -3  -7   2   24.80    1.30
  -3  -7   2   18.30    1.70
   2   7  -2    0.10    0.40
  -2  -7   2   -0.70    0.80
  -2  -7   2   -0.80    0.50
   1   7  -2   96.69    3.70
  -1  -7   2  101.39    4.40
  -1  -7   2   99.69    4.10
   0   7  -2    8.60    0.90
   0  -7   2    8.20    1.10
   0  -7   2    6.50    1.00
  -1   7  -2  201.28    6.90
   1  -7   2  198.98    7.90
   1  -7   2  195.08    7.80
  -2   7  -2   24.90    1.50
   2  -7   2   26.00    2.00
   2  -7   2   25.80    1.90
   3  -7   2    1.10    0.80
   3  -7   2    1.90    1.00
   4  -7   2   61.59    3.40
   4  -7   2   63.69    3.00
  -5   7  -2   42.90    2.10
   5  -7   2   45.10    3.00
   5  -7   2   41.50    2.20
  -6   7  -2   -0.30    0.60
   6  -7   2    0.20    0.60
   6  -7   2    0.00    1.30
  -7   7  -2    1.80    0.80
   7  -7   2    3.20    1.50
   8  -7   2    4.50    1.70
   9  -7   2    4.50    1.80
  10  -7   2    1.30    1.70
  11  -7   2    1.00    1.90
 -12  -6   2   -0.80    1.10
 -11  -6   2    4.90    1.50
 -10  -6   2   10.00    1.70
   9   6  -2    0.80    0.80
  -9  -6   2    0.40    1.10
   8   6  -2   14.30    1.40
  -8  -6   2   18.00    1.90
   7   6  -2   21.30    1.50
  -7  -6   2   20.20    1.90
   6   6  -2   16.90    1.30
  -6  -6   2   17.40    1.70
   5   6  -2   30.50    1.60
  -5  -6   2   29.30    2.10
   3   6  -2   32.10    1.50
  -3  -6   2   35.60    2.10
  -3  -6   2   30.90    1.40
   2   6  -2    0.60    0.40
  -2  -6   2    0.30    0.70
  -2  -6   2    0.10    0.50
   1   6  -2  204.28    6.90
  -1  -6   2  201.98    8.00
   0   6  -2    0.00    0.40
   0  -6   2    0.30    0.70
   0  -6   2    0.20    0.70
  -1   6  -2   64.39    2.60
   1  -6   2   63.79    3.00
   1  -6   2   70.19    3.10
  -2   6  -2    9.40    0.80
   2  -6   2    7.00    1.10
   2  -6   2    8.20    0.90
   3  -6   2   11.40    1.40
   3  -6   2    9.70    0.90
  -5   6  -2   40.50    2.10
   5  -6   2   40.60    2.10
  -6   6  -2    1.00    0.70
   6  -6   2    1.80    0.70
   6  -6   2    3.30    1.40
  -7   6  -2    2.10    0.80
   7  -6   2    0.50    1.30
   8  -6   2    8.50    1.80
   9  -6   2    1.30    1.50
  10  -6   2   -1.40    1.50
  11  -6   2    1.30    1.90
  12  -6   2   -1.90    1.90
 -12  -5   2    0.20    1.30
 -11  -5   2    4.60    1.40
  10   5  -2    0.70    0.80
 -10  -5   2    2.10    1.20
   9   5  -2    1.20    0.80
  -9  -5   2    2.00    1.10
   8   5  -2    0.90    0.80
  -8  -5   2    1.00    1.10
   7   5  -2   15.90    1.20
  -7  -5   2   14.10    1.60
   6   5  -2   19.60    1.30
  -6  -5   2   17.00    1.70
   5   5  -2    4.90    0.70
  -5  -5   2    3.20    0.90
   4   5  -2   49.60    2.00
  -4  -5   2   47.70    1.90
  -4  -5   2   50.89    2.60
   3   5  -2  139.79    4.90
  -3  -5   2  143.39    5.20
   2   5  -2  110.09    4.00
  -2  -5   2  112.09    4.30
  -2  -5   2  114.69    4.70
   1   5  -2   90.19    3.30
  -1  -5   2   95.09    3.70
  -1  -5   2   91.69    3.90
   0   5  -2  323.77   10.80
   0  -5   2  326.37   12.40
  -1   5  -2    0.20    0.30
   1  -5   2    0.30    0.60
   1  -5   2    0.10    0.50
  -2   5  -2    1.00    0.40
   2  -5   2    0.50    0.50
   2  -5   2    2.00    0.80
   3  -5   2  129.89    5.30
   3  -5   2  140.79    5.60
  -4   5  -2   60.09    2.50
   4  -5   2   59.19    2.60
  -5   5  -2    0.80    0.60
   5  -5   2    0.80    0.50
   5  -5   2    1.90    1.10
  -6   5  -2   11.00    1.10
   6  -5   2   10.70    0.90
   6  -5   2   10.70    1.70
   7  -5   2   11.30    1.80
   8  -5   2   35.60    2.90
   9  -5   2   -0.80    1.30
  10  -5   2    0.60    1.50
  11  -5   2   -0.20    1.70
  12  -5   2   -1.20    1.70
 -12  -4   2    3.10    1.40
 -11  -4   2   12.90    1.90
  10   4  -2    2.20    0.90
 -10  -4   2    3.90    1.20
   9   4  -2    2.40    0.80
  -9  -4   2    1.80    1.10
   8   4  -2    6.40    1.00
  -8  -4   2    8.10    1.30
   7   4  -2    3.10    0.80
  -7  -4   2    3.90    1.10
   6   4  -2    7.10    0.90
  -6  -4   2    6.60    1.10
   5   4  -2   -0.50    0.40
  -5  -4   2   -0.40    0.60
  -5  -4   2   -0.10    0.30
   4   4  -2  110.69    3.90
  -4  -4   2  113.19    4.70
  -4  -4   2  107.79    4.10
   3   4  -2   76.09    2.80
  -3  -4   2   78.69    2.90
   2   4  -2   14.40    0.80
  -2  -4   2   14.70    1.10
  -2  -4   2   14.50    0.90
   1   4  -2  529.55   17.30
  -1  -4   2  531.95   20.00
  -1  -4   2  535.65   19.20
   0   4  -2  770.22   24.40
   0  -4   2  752.12   28.10
   0  -4   2  741.73   27.20
  -1   4  -2  363.06   12.10
   1  -4   2  373.76   13.90
  -2   4  -2   84.29    3.10
   2  -4   2   81.99    3.40
   2  -4   2   81.69    3.60
   3  -4   2  149.88    5.80
  -4   4  -2   25.00    1.40
   4  -4   2   25.40    1.80
   4  -4   2   25.00    1.30
  -5   4  -2   24.20    1.40
   5  -4   2   25.30    1.30
   5  -4   2   25.50    2.00
   6  -4   2   14.60    1.70
   6  -4   2   11.10    0.90
   7  -4   2   29.20    2.50
   8  -4   2    0.10    1.20
   9  -4   2    0.60    1.30
  10  -4   2   -0.20    1.50
  11  -4   2    0.50    1.70
 -11  -3   2    2.90    1.30
  10   3  -2    3.10    1.00
 -10  -3   2    4.30    1.20
   9   3  -2   10.70    1.30
  -9  -3   2   10.50    1.50
   8   3  -2    1.00    0.70
  -8  -3   2    1.30    0.90
   7   3  -2   17.40    1.30
  -7  -3   2   14.90    1.50
   6   3  -2   62.89    2.70
  -6  -3   2   65.89    3.20
   5   3  -2   84.59    3.20
  -5  -3   2   85.69    3.80
  -5  -3   2   83.69    3.30
   4   3  -2  169.88    5.90
  -4  -3   2  175.98    7.00
  -4  -3   2  173.28    6.30
   3   3  -2  170.98    5.80
  -3  -3   2  175.98    6.30
   2   3  -2   29.70    1.20
  -2  -3   2   28.60    1.50
  -2  -3   2   31.80    1.30
   1   3  -2  122.69    4.20
  -1  -3   2  124.89    4.70
  -1  -3   2  123.39    4.90
   0   3  -2 2418.86   79.39
   0  -3   2 2479.25   88.09
   0  -3   2 2452.35   90.99
  -1   3  -2    1.70    0.30
   1  -3   2    1.20    0.50
   1  -3   2    1.50    0.60
  -2   3  -2  353.66   11.50
   2  -3   2  343.17   13.00
   3  -3   2  248.38    9.30
   3  -3   2  239.48    9.20
  -4   3  -2    5.50    0.70
   4  -3   2    5.50    0.50
   4  -3   2    6.70    1.00
   5  -3   2    5.50    1.10
   5  -3   2    7.30    0.70
   6  -3   2   49.30    2.30
   6  -3   2   53.19    3.00
   7  -3   2   48.10    2.30
   7  -3   2   47.00    3.00
   8  -3   2   31.60    2.50
   9  -3   2    0.60    1.30
  10  -3   2   -0.30    1.40
  11  -3   2   -0.60    1.40
  13  -3   2    1.10    1.30
 -11  -2   2   22.40    2.30
  10   2  -2    1.70    0.90
 -10  -2   2    2.00    1.00
   9   2  -2    2.40    0.90
  -9  -2   2    2.10    1.00
   8   2  -2   12.20    1.30
  -8  -2   2   11.70    1.40
   7   2  -2    8.30    1.00
  -7  -2   2   10.00    1.30
   6   2  -2    9.20    0.90
  -6  -2   2    9.10    1.10
   5   2  -2   77.29    3.00
  -5  -2   2   77.19    3.10
  -5  -2   2   78.09    3.50
   4   2  -2  439.16   14.50
  -4  -2   2  446.46   16.00
  -4  -2   2  441.26   16.80
   3   2  -2 1190.48   38.60
  -3  -2   2 1207.98   43.00
   2   2  -2 1011.10   32.40
  -2  -2   2  991.50   35.90
   1   2  -2  673.53   22.10
  -1  -2   2  691.63   25.30
  -1  -2   2  681.63   24.50
   0   2  -2 2402.26   79.79
   0  -2   2 2524.05   88.99
   0  -2   2 2499.05   92.09
  -1   2  -2  823.42   26.50
   1  -2   2  822.22   29.60
   1  -2   2  827.42   30.60
  -2   2  -2   25.60    1.10
   2  -2   2   25.90    1.10
   3  -2   2  270.17   10.10
   3  -2   2  270.17   10.10
   4  -2   2   51.69    2.60
   4  -2   2   52.39    2.20
   5  -2   2   26.20    1.40
   5  -2   2   30.60    2.00
   6  -2   2   -1.50    0.90
   6  -2   2    0.50    0.50
   7  -2   2   21.40    1.40
   7  -2   2   21.40    2.00
   8  -2   2    0.80    1.20
   9  -2   2    2.60    1.30
  10  -2   2    1.90    1.40
  12  -2   2    3.00    1.40
  13  -2   2    2.50    1.40
 -11  -1   2    3.10    1.20
  10   1  -2    1.80    1.00
 -10  -1   2    3.30    1.10
   9   1  -2   14.70    1.50
  -9  -1   2   14.70    1.60
   8   1  -2   -0.30    0.80
  -8  -1   2   -0.40    0.80
   7   1  -2   30.20    1.70
  -7  -1   2   27.80    2.00
   6   1  -2   36.80    1.80
  -6  -1   2   34.30    2.10
   5   1  -2   74.59    2.90
  -5  -1   2   73.89    3.40
  -5  -1   2   73.59    3.00
   4   1  -2  715.13   23.30
  -4  -1   2  722.33   25.80
  -4  -1   2  714.63   26.90
   3   1  -2    5.80    0.50
  -3  -1   2    5.50    0.50
   2   1  -2 5450.05  180.38
  -2  -1   2 5376.66  200.78
   1   1  -2  556.94   19.30
  -1  -1   2  588.54   20.60
  -1  -1   2  575.84   21.30
   0   1  -2  466.65   15.20
   0  -1   2  475.45   17.60
   0  -1   2  480.75   17.10
  -1   1  -2 1279.07   41.30
   1  -1   2 1287.47   47.50
  -2   1  -2   82.89    2.90
   2  -1   2   86.99    3.40
   2  -1   2   82.69    3.20
   3  -1   2    4.90    0.40
   3  -1   2    5.50    0.70
  -4   1  -2  199.18    7.50
   4  -1   2  198.48    7.60
  -5   1  -2   17.50    1.00
   5  -1   2   16.70    1.60
  -6   1  -2   82.19    3.40
  -7   1  -2  215.38    8.30
   7  -1   2  211.98    8.50
   8  -1   2   11.10    1.60
   9  -1   2    1.80    1.30
  10  -1   2    0.00    1.30
  11  -1   2    2.40    1.20
  12  -1   2    0.50    1.10
  13  -1   2   -0.80    1.20
 -11   0   2    7.20    1.50
  10   0  -2    0.40    0.90
 -10   0   2   -0.40    0.80
   9   0  -2    5.50    1.10
  -9   0   2    5.90    1.10
   8   0  -2   43.60    2.30
  -8   0   2   43.40    2.60
   7   0  -2   14.00    1.30
  -7   0   2   14.20    1.40
   6   0  -2    0.60    0.50
  -6   0   2   -0.50    0.50
   5   0  -2   19.60    1.20
  -5   0   2   20.80    1.40
   4   0  -2  623.64   20.40
  -4   0   2  639.64   22.70
  -4   0   2  622.54   23.60
   3   0  -2    5.40    0.50
  -3   0   2    5.80    0.50
  -3   0   2    4.60    0.60
   2   0  -2 2230.58   70.09
  -2   0   2 2038.70   80.79
  -2   0   2 2257.57   78.29
   1   0  -2  699.53   22.60
  -1   0   2  721.53   26.10
  -1   0   2  693.73   25.40
   0   0   2 3732.93  130.49
   0   0   2 3044.20  120.59
   1   0   2  963.10   34.50
  -2   0  -2    2.00    0.20
   2   0   2    2.70    0.50
  -3   0  -2    2.40    0.30
   3   0   2    2.40    0.60
  -4   0  -2  533.95   19.20
   4   0   2  496.45   18.80
  -5   0  -2  161.48    6.20
   5   0   2  159.38    6.30
   6   0   2   54.59    2.80
  -7   0  -2    2.40    0.70
   7   0   2    0.70    1.00
  -8   0  -2   32.10    1.90
   8   0   2   28.20    2.30
   9   0   2   31.10    2.50
   9   0   2   31.80    2.30
  10   0   2   14.90    1.80
  11   0   2    8.70    1.60
  12   0   2    1.90    1.30
  13   0   2   -0.40    1.20
  10  -1  -2   17.40    1.70
 -10   1   2   17.50    1.80
   9  -1  -2    4.00    1.00
  -9   1   2    4.10    1.10
   8  -1  -2    1.60    0.80
  -8   1   2   -0.10    0.70
  -7   1   2   66.89    3.30
  -6   1   2   34.60    2.00
  -5   1   2   23.90    1.50
  -5   1   2   24.90    1.40
  -3   1   2   63.49    2.60
  -3   1   2   65.29    2.70
  -2   1   2    2.90    0.40
  -2   1   2    1.10    0.40
  -1   1   2  656.53   20.90
  -1   1   2  640.54   23.30
   0  -1  -2 1708.13   63.49
   0   1   2 1725.13   54.99
   0   1   2 1691.33   61.49
  -1  -1  -2  491.65   18.70
   1   1   2  515.75   18.10
   1   1   2  507.95   16.30
  -2  -1  -2    1.40    0.30
   2   1   2    1.60    0.40
  -3  -1  -2  460.35   17.00
   3   1   2  455.55   16.60
  -4  -1  -2  397.76   14.90
   4   1   2  396.26   14.50
  -5  -1  -2  317.17   12.00
   5   1   2  315.17   11.70
  -6  -1  -2   19.10    1.30
   6   1   2   24.60    1.60
   6   1   2   21.30    1.60
  -7  -1  -2  102.79    4.50
   7   1   2  105.79    4.60
   7   1   2  107.69    4.40
  -8  -1  -2   17.60    1.50
   8   1   2   16.50    1.70
   8   1   2   14.10    1.50
   9   1   2    1.90    1.00
  10   1   2   18.70    2.00
  11   1   2    7.90    1.50
  12   1   2    7.20    1.60
  13   1   2    2.00    1.40
  10  -2  -2    0.00    0.90
 -10   2   2    0.80    0.90
  -9   2   2    2.20    0.90
  -8   2   2   95.39    4.40
  -7   2   2   18.30    1.60
  -6   2   2   12.80    1.20
  -5   2   2   38.30    1.90
  -5   2   2   36.30    2.00
  -4   2   2   91.49    3.80
  -4   2   2   88.49    3.60
  -2   2   2 2274.17   72.89
  -2   2   2 2225.68   84.19
  -2   2   2 2280.47   81.59
  -1   2   2 5094.99  168.88
   0  -2  -2  941.41   34.40
   0   2   2  930.51   30.10
   0   2   2  921.01   33.50
  -1  -2  -2   32.60    1.30
   1   2   2   28.60    1.20
   1   2   2   29.90    1.20
  -2  -2  -2 1398.66   48.90
   2   2   2 1119.69   42.10
   2   2   2 1417.26   47.20
  -3  -2  -2  540.05   19.90
   3   2   2  529.35   19.20
  -4  -2  -2  284.87   10.70
   4   2   2  277.17   10.30
   4   2   2  285.57    9.60
  -5  -2  -2    0.70    0.20
   5   2   2    0.30    0.50
   5   2   2   -0.40    0.50
  -6  -2  -2   38.80    2.00
   6   2   2   36.90    2.00
   6   2   2   35.80    2.10
  -7  -2  -2   53.99    2.70
   7   2   2   50.79    2.70
   7   2   2   53.49    2.80
  -8  -2  -2   -0.10    0.70
   8   2   2   -0.60    0.80
   9   2   2   17.40    1.80
  10   2   2    8.80    1.50
  11   2   2    0.20    1.10
  12   2   2    0.20    1.20
  13   2   2    0.30    1.20
  10  -3  -2    5.20    1.30
  -8   3   2   12.50    1.40
  -7   3   2    1.80    0.80
  -6   3   2    4.00    0.80
  -5   3   2   17.60    1.30
  -5   3   2   14.40    1.20
  -4   3   2    9.20    0.90
   3  -3  -2   38.30    1.80
  -3   3   2   38.30    1.50
  -3   3   2   30.50    1.70
   2  -3  -2   34.20    1.60
  -2   3   2   30.80    1.30
  -1   3   2  904.81   32.40
  -1   3   2  904.51   29.10
   0  -3  -2 2784.82  101.19
   0   3   2 2667.83   87.89
   0   3   2 2722.43   97.99
  -1  -3  -2  432.86   16.40
   1   3   2  449.16   14.30
   1   3   2  435.06   15.80
  -2  -3  -2  131.59    5.10
   2   3   2  127.99    4.70
  -3  -3  -2    4.30    0.60
   3   3   2    5.00    0.40
   3   3   2    5.00    0.60
   4   3   2  821.92   29.60
   4   3   2  833.22   27.00
  -5  -3  -2   44.30    2.10
   5   3   2   44.50    1.90
   5   3   2   45.00    2.20
  -6  -3  -2   -0.20    0.60
   6   3   2    0.30    0.70
   6   3   2    0.50    0.60
  -7  -3  -2   65.39    3.20
   7   3   2   63.19    3.10
  -8  -3  -2    6.40    1.00
   8   3   2    6.10    1.20
  -9  -3  -2   19.00    1.80
   9   3   2   15.10    1.80
  10   3   2    6.10    1.40
  11   3   2    0.50    1.00
  12   3   2    2.00    1.30
  13   3   2   -1.30    1.20
  11  -4  -2    7.40    1.80
  10  -4  -2    0.80    1.00
   9  -4  -2    7.50    1.30
   8  -4  -2    7.20    1.30
   7  -4  -2  111.69    5.00
   6  -4  -2   14.30    1.40
   5  -4  -2  178.78    7.20
  -5   4   2  174.98    6.10
   4  -4  -2  175.48    6.90
  -4   4   2  173.78    5.90
  -4   4   2  168.68    6.70
  -3   4   2   41.60    1.90
   2  -4  -2   31.30    1.60
  -2   4   2   31.70    1.30
  -2   4   2   34.50    1.60
   1  -4  -2  389.06   15.80
  -1   4   2  436.26   15.30
  -1   4   2  439.36   13.70
   0   4   2 2450.15   88.79
   0   4   2 2480.95   79.89
  -1  -4  -2   38.90    1.90
   1   4   2   38.80    1.60
  -2  -4  -2  164.08    7.10
   2   4   2  203.68    6.70
   3   4   2   60.79    2.40
   3   4   2   57.49    2.20
  -4  -4  -2   10.30    1.00
   4   4   2   11.90    0.60
   4   4   2   10.80    1.00
  -5  -4  -2   49.30    2.50
   5   4   2   50.49    2.30
   5   4   2   49.50    2.00
  -6  -4  -2   25.00    1.70
   6   4   2   26.70    1.70
  -7  -4  -2   29.30    1.90
   7   4   2   25.70    1.90
  -8  -4  -2    0.00    0.80
   8   4   2   -0.20    0.80
  -9  -4  -2    7.80    1.20
   9   4   2    6.50    1.20
  10   4   2    1.00    1.10
  11   4   2    0.50    1.00
  12   4   2   -1.20    1.10
  13   4   2   -1.10    1.20
  11  -5  -2    2.20    1.60
   9  -5  -2   27.80    2.10
   8  -5  -2   11.50    1.40
   7  -5  -2   20.90    1.80
   6  -5  -2   36.90    2.10
  -6   5   2   34.40    1.70
   5  -5  -2   11.60    1.20
  -5   5   2   11.20    1.00
   4  -5  -2  320.17   12.20
  -4   5   2  314.77   10.60
   3  -5  -2   10.30    0.90
  -3   5   2    9.90    1.00
  -3   5   2   10.00    0.70
   2  -5  -2  461.35   17.00
  -2   5   2  441.16   14.70
  -2   5   2  449.16   16.40
   1  -5  -2    6.40    0.70
  -1   5   2    6.00    0.70
  -1  -5  -2  211.58    8.20
   1   5   2  194.68    7.10
   1   5   2  227.28    7.80
  -2  -5  -2  259.77   10.00
   2   5   2  257.57    9.40
  -3  -5  -2  243.08    9.40
   3   5   2  244.38    8.20
   3   5   2  236.98    8.70
  -4  -5  -2   51.89    2.60
   4   5   2   51.79    2.30
  -5  -5  -2  142.89    5.90
   5   5   2  144.89    5.30
  -6  -5  -2   -0.30    0.70
   6   5   2   -1.00    0.60
  -7  -5  -2    6.20    1.10
   7   5   2    5.20    1.00
  -8  -5  -2   10.20    1.30
   8   5   2   10.80    1.40
  -9  -5  -2   10.00    1.40
   9   5   2    5.80    1.20
  10   5   2    3.80    1.20
  11   5   2    2.70    1.20
  12   5   2    1.50    1.20
  13   5   2   -0.80    1.10
  12  -6  -2    1.60    1.90
  11  -6  -2    3.10    1.80
  10  -6  -2    4.20    1.50
   9  -6  -2    0.00    0.90
   8  -6  -2   86.99    4.20
   7  -6  -2   46.50    2.60
  -7   6   2   46.40    2.30
   6  -6  -2   69.09    3.30
  -6   6   2   66.69    2.80
   5  -6  -2   18.20    1.40
  -5   6   2   18.60    1.20
   4  -6  -2   15.30    1.20
  -4   6   2   15.40    1.00
   3  -6  -2  193.58    7.60
  -3   6   2  190.28    6.60
   2  -6  -2  364.06   13.70
  -2   6   2  361.96   13.20
  -2   6   2  348.67   11.80
   1  -6  -2  103.19    4.20
  -1   6   2   98.19    3.60
  -1   6   2   99.29    4.00
   0   6   2  623.84   19.70
   0   6   2  585.34   21.80
  -1  -6  -2  240.58    9.50
   1   6   2  245.68    9.00
   1   6   2  247.38    8.20
  -2  -6  -2  319.47   12.40
   2   6   2  323.77   11.60
  -3  -6  -2  131.09    5.40
   3   6   2  128.79    4.70
  -4  -6  -2    0.50    0.80
   4   6   2    2.30    0.70
  -5  -6  -2   11.30    1.30
   5   6   2   12.20    1.10
  -6  -6  -2   42.20    2.50
   6   6   2   44.40    2.20
  -7  -6  -2   46.80    2.70
   7   6   2   44.80    2.40
  -8  -6  -2   11.90    1.40
   8   6   2   10.00    1.30
  -9  -6  -2    8.70    1.40
   9   6   2    7.60    1.20
  10   6   2   -0.20    0.90
  11   6   2   -0.90    1.00
  12   6   2    0.90    1.10
  12  -7  -2    1.90    2.00
  11  -7  -2    2.90    1.80
  10  -7  -2    3.80    1.60
   9  -7  -2    0.50    0.80
   8  -7  -2    8.10    1.20
   7  -7  -2    5.10    1.00
  -7   7   2    5.70    0.90
   6  -7  -2   27.20    1.80
  -6   7   2   29.40    1.70
   5  -7  -2   34.20    2.00
  -5   7   2   31.90    1.70
   4  -7  -2   68.59    3.20
  -4   7   2   66.89    2.80
   3  -7  -2  186.48    7.40
  -3   7   2  180.68    6.40
   2  -7  -2    3.20    0.70
  -2   7   2    2.10    0.50
   1  -7  -2    1.90    0.60
  -1   7   2    2.10    0.50
   0  -7  -2    6.20    0.80
   0   7   2    4.90    0.60
  -1  -7  -2  222.68    9.20
   1   7   2  245.78    8.00
  -3  -7  -2 1241.28   46.40
   3   7   2 1249.47   40.30
  -4  -7  -2  125.99    5.40
   4   7   2  126.49    4.70
  -5  -7  -2    1.30    0.90
   5   7   2    2.10    0.70
  -6  -7  -2    2.50    1.00
   6   7   2    3.00    0.90
  -7  -7  -2    0.30    0.90
   7   7   2    1.10    0.80
  -8  -7  -2    8.00    1.30
   8   7   2    7.90    1.20
  -9  -7  -2    6.90    1.40
   9   7   2    6.40    1.20
 -10  -7  -2    1.30    1.20
  10   7   2    0.80    1.00
  11   7   2    8.60    1.50
  12   7   2   -0.10    1.10
  11  -8  -2    3.10    1.90
  10  -8  -2    1.20    1.60
   8  -8  -2    6.00    1.10
  -8   8   2    6.70    1.10
   7  -8  -2   36.50    2.30
  -7   8   2   33.60    2.00
   6  -8  -2   13.70    1.40
  -6   8   2   11.50    1.20
   5  -8  -2    5.90    1.00
  -5   8   2    6.80    0.90
   4  -8  -2  174.08    7.20
  -4   8   2  176.68    6.30
   3  -8  -2   65.89    3.20
  -3   8   2   66.89    2.80
   2  -8  -2  190.58    7.80
  -2   8   2  199.98    6.80
   1  -8  -2  178.98    7.10
  -1   8   2  167.68    6.10
   0  -8  -2   -0.20    0.70
   0   8   2    2.10    0.50
  -1  -8  -2   -0.40    0.30
   1   8   2    1.40    0.50
  -3  -8  -2    2.70    1.00
   3   8   2    1.30    0.50
  -4  -8  -2   12.30    1.40
   4   8   2   10.80    1.10
  -5  -8  -2   46.70    2.70
   5   8   2   46.40    2.30
  -6  -8  -2   12.70    1.50
   6   8   2   12.40    1.30
  -7  -8  -2   12.60    1.60
   7   8   2   11.90    1.40
  -8  -8  -2    0.50    0.90
   8   8   2   -1.00    0.70
  -9  -8  -2    0.70    1.10
   9   8   2    0.20    0.80
 -10  -8  -2    4.00    1.30
  10   8   2    2.20    1.10
  11   8   2    0.20    1.10
  12   8   2   -0.80    1.00
  11  -9  -2   -0.70    1.80
  10  -9  -2    2.40    1.80
   9  -9  -2    3.40    1.70
   8  -9  -2    7.30    1.30
  -8   9   2    5.80    1.10
   7  -9  -2    5.10    1.10
  -7   9   2    5.90    1.00
   6  -9  -2    1.30    0.90
  -6   9   2    1.90    0.80
   5  -9  -2   15.70    1.50
  -5   9   2   14.20    1.30
   4  -9  -2   12.40    1.40
  -4   9   2   15.70    1.30
   3  -9  -2   -0.80    0.70
  -3   9   2   -0.30    0.60
   2  -9  -2   20.00    1.80
  -2   9   2   21.50    1.30
   1  -9  -2   18.80    1.80
  -1   9   2   17.20    1.30
   0  -9  -2  158.48    6.70
   0   9   2  164.88    5.80
  -1  -9  -2   -0.50    0.20
   1   9   2   -0.10    0.20
   2   9   2    0.00    0.20
  -3  -9  -2   22.10    2.10
   3   9   2   19.60    1.40
  -4  -9  -2   78.19    3.90
   4   9   2   81.29    3.30
  -5  -9  -2    4.10    1.20
   5   9   2    4.40    0.90
  -6  -9  -2    6.10    1.30
   6   9   2    4.70    0.90
  -7  -9  -2    1.40    1.00
   7   9   2    0.80    0.90
  -8  -9  -2   13.70    1.70
   8   9   2   14.50    1.60
  -9  -9  -2    8.00    1.50
   9   9   2    7.00    1.30
 -10  -9  -2   15.30    2.00
  10   9   2   13.00    1.70
  11   9   2    0.80    1.10
  10 -10  -2    3.50    1.90
   9 -10  -2    4.40    1.80
  -9  10   2    2.80    1.10
   8 -10  -2   17.00    1.80
  -8  10   2   18.10    1.70
   7 -10  -2    1.70    1.00
  -7  10   2    0.50    0.80
   6 -10  -2   -1.30    0.90
  -6  10   2   -0.10    0.70
   5 -10  -2    0.10    0.80
  -5  10   2    0.50    0.70
   4 -10  -2   11.10    1.30
  -4  10   2    9.00    1.10
   3 -10  -2    6.30    1.10
  -3  10   2    5.20    0.90
   2 -10  -2   20.00    1.80
  -2  10   2   15.50    1.30
   1 -10  -2    7.10    1.30
  -1  10   2    8.90    1.00
   0 -10  -2    1.00    1.10
   0  10   2    1.20    0.60
  -1 -10  -2    8.70    1.50
   1  10   2    9.70    1.00
  -2 -10  -2    3.50    1.20
   2  10   2    3.50    0.80
  -3 -10  -2   10.40    1.50
   3  10   2   13.00    1.20
  -4 -10  -2    0.00    1.00
   4  10   2    0.60    0.70
  -5 -10  -2    1.10    1.10
   5  10   2    2.00    0.80
  -6 -10  -2   32.30    2.40
   6  10   2   30.80    2.00
  -7 -10  -2    2.00    1.10
   7  10   2    1.50    0.80
  -8 -10  -2    4.80    1.30
   8  10   2    2.20    1.00
  -9 -10  -2    1.60    1.20
   9  10   2    2.40    1.10
 -10 -10  -2    4.00    1.30
  10  10   2   -0.70    1.10
  11  10   2    1.40    1.20
   9 -11  -2    2.20    1.80
  -9  11   2    1.60    1.00
   8 -11  -2    3.20    1.70
  -8  11   2    0.70    0.90
   7 -11  -2    0.20    1.10
  -7  11   2    0.60    0.80
   6 -11  -2   13.90    1.60
  -6  11   2    9.40    1.30
   5 -11  -2    3.20    1.10
  -5  11   2    0.50    0.80
   4 -11  -2    6.70    1.30
  -4  11   2    6.40    1.00
   3 -11  -2   27.60    2.20
  -3  11   2   27.90    1.70
   2 -11  -2    2.80    1.20
  -2  11   2    4.20    0.80
   1 -11  -2    9.70    1.60
  -1  11   2    9.60    1.10
   0 -11  -2    6.40    1.40
   0  11   2    4.30    0.80
  -1 -11  -2    1.20    0.80
  -1 -11  -2    1.30    1.20
   1  11   2    0.80    0.70
  -2 -11  -2   22.00    2.10
   2  11   2   23.00    1.60
  -3 -11  -2    2.90    1.30
   3  11   2    3.40    0.90
  -4 -11  -2    1.10    1.10
   4  11   2    3.00    0.80
  -5 -11  -2    2.60    1.10
   5  11   2    0.30    0.80
  -6 -11  -2    1.10    1.10
   6  11   2    2.00    0.90
  -7 -11  -2   10.30    1.60
   7  11   2    6.30    1.20
  -8 -11  -2    5.60    1.40
   8  11   2    5.00    1.10
  -9 -11  -2    1.70    1.30
   9  11   2   -1.10    0.90
 -10 -11  -2    0.30    1.20
  10  11   2    0.10    1.00
   9 -12  -2   -2.30    1.70
  -9  12   2    1.70    1.10
   8 -12  -2    0.30    1.60
  -8  12   2   -1.00    0.80
   7 -12  -2    2.40    1.60
   7 -12  -2   -2.90    1.00
  -7  12   2    0.60    0.90
   6 -12  -2    1.80    1.40
   6 -12  -2    0.70    1.20
  -6  12   2    1.60    0.90
   5 -12  -2    6.40    1.50
  -5  12   2    8.00    1.20
   4 -12  -2   26.10    2.30
  -4  12   2   22.40    1.70
   3 -12  -2    0.80    1.20
  -3  12   2    0.20    0.70
   2 -12  -2   29.80    2.50
  -2  12   2   31.50    1.90
   1 -12  -2    6.60    1.50
  -1  12   2    9.40    1.10
   0 -12  -2    3.70    1.10
   0 -12  -2    4.20    1.30
   0  12   2    3.20    0.80
  -1 -12  -2   -0.30    1.20
   1  12   2   -0.60    0.50
  -2 -12  -2    0.80    1.20
   2  12   2    3.20    0.90
  -3 -12  -2    5.70    1.50
   3  12   2    7.60    1.10
  -4 -12  -2    1.50    1.10
   4  12   2    1.10    0.80
  -5 -12  -2   17.60    2.00
   5  12   2   16.50    1.60
  -6 -12  -2    0.70    1.20
   6  12   2   -0.30    0.80
  -7 -12  -2    0.40    1.10
   7  12   2    0.90    0.90
  -8 -12  -2   -0.50    1.20
   8  12   2   -0.20    0.90
  -9 -12  -2    0.10    1.20
   9  12   2   -0.40    1.00
 -10 -12  -2    3.40    1.40
  10  12   2    0.80    1.10
  -9  13   2    0.70    1.00
   8 -13  -2    1.70    1.90
  -8  13   2    0.30    0.90
   7 -13  -2    1.80    1.70
  -7  13   2   -1.50    0.80
   6 -13  -2    0.30    1.50
   6 -13  -2   -3.00    1.10
  -6  13   2   -0.30    0.80
   5 -13  -2    4.00    1.60
   5 -13  -2    1.80    1.30
  -5  13   2    3.00    1.00
   4 -13  -2   23.30    2.30
   4 -13  -2   24.90    2.50
  -4  13   2   21.90    1.70
   3 -13  -2    6.10    1.60
   3 -13  -2    5.10    1.50
  -3  13   2    3.60    1.00
   2 -13  -2    0.80    1.20
   2 -13  -2   -3.70    1.20
  -2  13   2    0.20    0.70
   1 -13  -2   35.10    2.90
   1 -13  -2   40.50    2.70
  -1  13   2   36.90    2.20
   0 -13  -2    4.50    1.50
   0  13   2    3.40    0.90
  -1 -13  -2    7.70    1.70
   1  13   2    9.80    1.20
  -2 -13  -2   -0.80    1.30
   2  13   2    0.20    0.70
  -3 -13  -2    0.80    1.20
   3  13   2    0.20    0.70
  -4 -13  -2   -0.90    1.20
   4  13   2    0.80    0.80
  -5 -13  -2    0.70    1.20
   5  13   2   -1.00    0.60
  -6 -13  -2    3.10    1.40
   6  13   2    5.20    1.10
  -7 -13  -2    1.20    1.20
   7  13   2   -0.50    0.90
  -8 -13  -2    2.40    1.40
   8  13   2    2.50    1.10
  -9 -13  -2    0.10    1.30
   9  13   2    0.40    1.00
  -8  14   2   -0.50    0.90
   7 -14  -2    2.80    1.90
  -7  14   2    1.40    1.10
   6 -14  -2   -4.10    1.40
   6 -14  -2   -0.90    1.60
  -6  14   2    0.50    0.90
   5 -14  -2   -1.70    1.40
   5 -14  -2    2.20    1.60
  -5  14   2    0.50    0.90
   4 -14  -2    2.40    1.50
   4 -14  -2   -1.30    1.40
  -4  14   2    0.60    0.90
   3 -14  -2    6.70    1.70
   3 -14  -2    3.90    1.70
  -3  14   2    4.10    1.10
   2 -14  -2    1.60    1.30
   2 -14  -2   -0.90    1.40
  -2  14   2   -0.10    0.80
   1 -14  -2   20.30    2.40
  -1  14   2   25.10    1.90
   0 -14  -2    0.40    1.50
   0  14   2    1.90    0.90
  -1 -14  -2    0.80    1.50
   1  14   2    1.80    0.90
  -2 -14  -2    9.00    1.80
   2  14   2   11.10    1.40
  -3 -14  -2    3.10    1.50
   3  14   2    3.70    1.00
  -4 -14  -2    0.10    1.30
   4  14   2    0.80    0.90
  -5 -14  -2    2.70    1.40
   5  14   2   -1.10    0.70
  -6 -14  -2    1.30    1.30
   6  14   2   -0.10    0.90
  -7 -14  -2    1.20    1.30
   7  14   2   -0.70    0.90
  -8 -14  -2    1.00    1.40
   8  14   2    0.00    0.90
   6 -15  -2    1.40    1.80
  -6  15   2    1.10    1.00
   5 -15  -2    2.80    1.80
   5 -15  -2    5.30    2.00
  -5  15   2    3.20    1.10
   4 -15  -2    6.90    1.90
   4 -15  -2    2.20    1.80
  -4  15   2    5.30    1.20
   3 -15  -2    2.10    1.60
   3 -15  -2   -1.90    1.50
  -3  15   2    0.70    0.90
   2 -15  -2   11.80    2.10
  -2  15   2    9.90    1.40
   1 -15  -2   -0.30    1.60
  -1  15   2    1.70    1.00
   0 -15  -2    2.50    1.70
   0  15   2    2.90    1.10
  -1 -15  -2    4.70    1.70
   1  15   2    5.10    1.10
  -2 -15  -2    1.90    1.60
   2  15   2    2.00    1.00
  -3 -15  -2    4.50    1.60
   3  15   2    4.10    1.10
  -4 -15  -2    1.30    1.40
   4  15   2   -0.40    0.90
  -5 -15  -2   -0.10    1.40
   5  15   2    0.10    0.90
  -6 -15  -2    2.30    1.40
   6  15   2    2.30    1.10
  -7 -15  -2    0.80    1.30
   7  15   2    0.40    1.00
   5 -16  -2    7.80    2.30
   5 -16  -2    8.80    2.20
  -5  16   2    7.50    1.40
   4 -16  -2    2.10    1.90
   4 -16  -2   -1.20    1.70
  -4  16   2    0.20    1.00
   3 -16  -2   -0.80    1.70
  -3  16   2    0.40    1.00
   2 -16  -2    1.60    1.80
  -2  16   2    1.00    1.00
   1 -16  -2    0.90    1.80
  -1  16   2    2.50    1.00
   0 -16  -2    4.50    1.90
   0  16   2    3.40    1.10
  -1 -16  -2    3.60    1.80
   1  16   2    1.70    1.10
  -2 -16  -2    1.60    1.70
   2  16   2    1.20    1.00
  -3 -16  -2   12.10    2.10
   3  16   2   11.20    1.50
  -4 -16  -2   -2.20    1.30
   4  16   2   -0.90    0.90
  -5 -16  -2    0.60    1.50
   5  16   2    0.30    1.00
   4 -17  -2    5.10    2.10
   3 -17  -2   -2.40    1.70
   2 -17  -2    1.20    1.70
  -2  17   2   -0.70    0.90
   1 -17  -2   -2.00    1.70
  -1  17   2   -0.80    0.90
   0 -17  -2    0.00    1.70
   0  17   2   -1.70    0.90
  -1 -17  -2    1.90    1.80
   1  17   2    2.00    1.10
  -2 -17  -2    5.60    1.90
   2  17   2    4.50    1.30
   3  17   2    6.20    1.40
   3  16  -3    1.10    1.10
   2  16  -3   -1.20    0.80
  -2 -16   3    2.90    1.60
   1  16  -3   -0.10    1.00
  -1 -16   3    3.00    1.60
   0  16  -3   -0.10    1.00
   0 -16   3    1.10    1.40
  -1  16  -3   -0.20    1.00
   1 -16   3    1.50    1.40
   6  15  -3    2.70    1.10
   5  15  -3    0.00    1.00
   4  15  -3    0.40    1.00
  -4 -15   3    2.70    1.60
   3  15  -3   -0.60    0.90
  -3 -15   3    1.00    1.40
   2  15  -3    1.10    1.00
  -2 -15   3    0.80    1.40
   1  15  -3   -0.10    0.90
  -1 -15   3    2.40    1.50
   0  15  -3    0.70    1.00
   0 -15   3    4.00    1.60
  -1  15  -3   -0.20    0.90
   1 -15   3   -0.10    1.40
  -2  15  -3    0.80    1.00
  -3  15  -3    0.90    1.00
  -4  15  -3   -0.30    1.00
   4 -15   3   -1.00    1.80
   5 -15   3   -3.60    1.80
   6  14  -3    1.00    1.00
  -6 -14   3    1.60    1.40
   5  14  -3   10.40    1.40
  -5 -14   3    8.40    1.80
   4  14  -3   -0.90    0.90
  -4 -14   3    0.20    1.40
   3  14  -3    1.30    1.00
  -3 -14   3    2.70    1.50
   2  14  -3    4.40    1.20
  -2 -14   3    4.70    1.60
   1  14  -3    1.60    1.00
  -1 -14   3    1.50    1.40
   0  14  -3   -0.40    0.90
   0 -14   3    1.50    1.30
  -1  14  -3    4.50    1.20
   1 -14   3    5.30    1.60
  -2  14  -3    0.90    0.90
   2 -14   3    2.00    1.40
  -3  14  -3    0.90    0.90
   3 -14   3   -0.90    1.60
  -4  14  -3    2.80    1.10
   4 -14   3    1.80    1.80
  -5  14  -3    0.00    1.00
   5 -14   3   -2.50    1.80
  -6  14  -3   -0.30    0.90
   6 -14   3   -2.60    1.70
   7  13  -3   -0.10    0.90
  -7 -13   3    3.10    1.50
   6  13  -3    2.60    1.00
  -6 -13   3    1.10    1.40
   5  13  -3    8.50    1.30
  -5 -13   3    5.00    1.60
   4  13  -3    3.30    1.00
  -4 -13   3    1.00    1.30
   3  13  -3    0.20    0.80
  -3 -13   3    1.50    1.30
   2  13  -3    0.10    0.90
  -2 -13   3    0.60    1.30
   1  13  -3    1.10    0.90
  -1 -13   3    3.30    1.40
   0  13  -3   16.60    1.70
   0 -13   3   17.70    2.00
  -1  13  -3    2.60    1.00
   1 -13   3    3.10    1.30
  -2  13  -3   -0.20    0.80
   2 -13   3   -0.80    1.30
   2 -13   3    0.30    1.30
  -3  13  -3    0.90    0.90
   3 -13   3    0.80    1.60
  -4  13  -3    3.10    1.00
   4 -13   3    1.40    1.60
  -5  13  -3    1.80    1.00
   5 -13   3   -2.00    1.60
  -6  13  -3   -0.30    0.90
   6 -13   3    1.50    1.80
  -7  13  -3   -0.30    0.80
   7 -13   3   -1.10    1.80
  -8 -12   3    1.70    1.40
   7  12  -3    1.50    1.00
  -7 -12   3    1.70    1.40
   6  12  -3    0.60    0.90
  -6 -12   3   -0.70    1.20
   5  12  -3    4.10    1.00
  -5 -12   3    5.00    1.50
   4  12  -3   -0.30    0.80
  -4 -12   3   -1.10    1.10
   3  12  -3    7.40    1.20
  -3 -12   3    5.60    1.40
   2  12  -3   -1.30    0.70
  -2 -12   3    1.30    1.20
   1  12  -3    0.00    0.80
  -1 -12   3   -0.10    1.10
   0  12  -3    1.00    0.80
   0 -12   3    2.70    1.30
  -1  12  -3    1.70    0.90
   1 -12   3    4.00    1.30
   1 -12   3    2.80    1.40
  -2  12  -3   11.90    1.40
   2 -12   3   12.90    1.80
   2 -12   3   12.90    1.90
  -3  12  -3    1.20    0.90
   3 -12   3    2.10    1.50
   3 -12   3    1.40    1.30
  -4  12  -3    5.00    1.10
   4 -12   3    8.20    1.90
  -5  12  -3    3.80    1.10
   5 -12   3    2.60    1.70
  -6  12  -3    0.20    0.90
   6 -12   3   -2.00    1.60
  -7  12  -3   -0.40    0.90
   7 -12   3   -0.30    1.70
  -8  12  -3    0.20    0.90
   8 -12   3   -0.90    1.80
  -9 -11   3    3.50    1.60
  -8 -11   3   -0.20    1.30
   7  11  -3   23.40    1.90
  -7 -11   3   26.60    2.60
   6  11  -3    5.50    1.10
  -6 -11   3    4.40    1.40
   5  11  -3   10.70    1.20
  -5 -11   3    7.10    1.50
   4  11  -3    3.30    0.90
  -4 -11   3    3.70    1.30
   3  11  -3   10.20    1.20
  -3 -11   3    8.70    1.60
   2  11  -3    7.40    1.10
  -2 -11   3    6.40    1.40
   1  11  -3   42.70    2.30
  -1 -11   3   43.10    2.80
   0  11  -3    2.00    0.80
   0 -11   3    2.80    1.20
   0 -11   3    3.20    1.20
  -1  11  -3    1.60    0.80
   1 -11   3    1.60    1.20
   1 -11   3    1.40    1.30
  -2  11  -3    0.80    0.80
   2 -11   3    1.50    1.30
   2 -11   3   -1.30    1.00
  -3  11  -3    7.20    1.10
   3 -11   3    7.10    1.40
   3 -11   3    5.10    1.60
  -4  11  -3    0.10    0.80
   4 -11   3    1.20    1.50
  -5  11  -3    3.40    1.00
   5 -11   3    1.40    1.50
  -6  11  -3    1.00    0.90
   6 -11   3   -0.90    1.50
  -7  11  -3    0.70    0.90
   7 -11   3   -1.00    1.70
  -8  11  -3    2.90    1.10
   8 -11   3    4.40    2.00
   9 -11   3   -0.70    1.90
 -10 -10   3    2.60    1.60
  -9 -10   3    1.30    1.40
  -8 -10   3    1.00    1.30
   7  10  -3    1.80    0.80
  -7 -10   3    1.40    1.10
   6  10  -3    7.40    1.10
  -6 -10   3    7.60    1.60
   5  10  -3   -1.40    0.70
  -5 -10   3    1.20    1.00
   4  10  -3    3.40    0.80
  -4 -10   3    2.80    1.30
   3  10  -3   38.50    2.10
  -3 -10   3   38.60    2.80
   2  10  -3   -1.60    0.70
  -2 -10   3   -0.30    1.10
   1  10  -3   -0.30    0.70
  -1 -10   3   -0.70    1.00
  -1 -10   3    1.70    1.10
   0  10  -3   41.00    2.10
   0 -10   3   42.10    2.70
   0 -10   3   41.70    2.70
  -1  10  -3   -0.40    0.70
   1 -10   3   -1.20    1.10
   1 -10   3   -0.20    1.00
  -2  10  -3   31.00    1.80
   2 -10   3   26.20    2.30
   2 -10   3   25.50    2.30
  -3  10  -3    1.60    0.80
   3 -10   3   -0.10    1.00
   3 -10   3   -0.70    1.20
  -4  10  -3    2.20    0.80
   4 -10   3    3.70    1.50
   4 -10   3    3.10    1.20
  -5  10  -3    3.70    1.00
   5 -10   3    2.00    1.50
  -6  10  -3    0.60    0.70
   6 -10   3    0.20    1.40
  -7  10  -3   -0.10    0.70
   7 -10   3    1.40    1.60
  -8  10  -3    3.60    1.10
   8 -10   3    1.00    1.80
   9 -10   3    1.10    1.90
 -10  -9   3    5.70    1.70
  -9  -9   3   12.10    2.00
   8   9  -3   14.40    1.40
  -8  -9   3   14.90    2.00
   7   9  -3    1.00    0.80
  -7  -9   3    0.70    1.20
   6   9  -3   19.80    1.40
  -6  -9   3   19.10    2.00
   5   9  -3    5.30    0.90
  -5  -9   3    5.50    1.20
   4   9  -3   80.09    3.30
  -4  -9   3   79.99    4.10
   3   9  -3   10.10    1.10
  -3  -9   3   10.30    1.50
   2   9  -3    0.70    0.60
  -2  -9   3   -0.50    1.00
   1   9  -3   11.80    1.20
  -1  -9   3   12.90    1.40
  -1  -9   3   13.60    1.50
   0   9  -3   92.09    3.70
   0  -9   3   98.19    4.30
   0  -9   3   91.49    4.40
  -1   9  -3    6.70    1.00
   1  -9   3    6.00    1.20
   1  -9   3    4.00    1.30
  -2   9  -3    8.00    1.10
   2  -9   3    8.40    1.30
   2  -9   3    9.30    1.50
  -3   9  -3    2.90    0.90
   3  -9   3    2.60    1.30
   3  -9   3    2.80    1.10
  -4   9  -3   10.30    1.20
   4  -9   3   10.60    1.40
   4  -9   3   10.90    1.80
  -5   9  -3    2.10    0.80
   5  -9   3    2.30    1.40
  -6   9  -3   -0.10    0.70
   6  -9   3   -0.20    1.20
  -7   9  -3    1.50    0.90
   7  -9   3    2.20    1.60
  -8   9  -3    2.30    1.00
   8  -9   3   -0.80    1.60
   9  -9   3    0.00    1.70
  10  -9   3    0.10    1.90
 -11  -8   3   -0.10    1.40
 -10  -8   3    1.30    1.40
  -9  -8   3    1.40    1.30
   8   8  -3    3.20    0.90
  -8  -8   3    3.70    1.40
   7   8  -3   33.60    1.90
  -7  -8   3   37.00    2.70
   6   8  -3    2.00    0.70
  -6  -8   3    3.10    1.20
   5   8  -3   14.80    1.30
  -5  -8   3   16.70    1.80
   4   8  -3    5.70    0.90
  -4  -8   3    4.40    1.20
   3   8  -3   15.90    1.20
  -3  -8   3   15.60    1.70
   2   8  -3    2.30    0.60
  -2  -8   3    2.10    0.80
  -2  -8   3    3.10    1.10
   1   8  -3    4.10    0.80
  -1  -8   3    4.80    1.00
  -1  -8   3    3.20    1.10
   0   8  -3  116.99    4.30
   0  -8   3  112.49    4.90
   0  -8   3  109.19    5.00
  -1   8  -3  236.68    8.30
   1  -8   3  241.38    9.50
   1  -8   3  238.98    9.40
  -2   8  -3    2.20    0.70
   2  -8   3    1.90    0.90
   2  -8   3    1.60    1.10
  -3   8  -3    8.20    1.00
   3  -8   3    7.80    1.50
   3  -8   3    5.40    1.20
  -4   8  -3   91.09    3.70
   4  -8   3   90.59    4.50
   4  -8   3   84.29    4.00
  -5   8  -3    0.60    0.70
   5  -8   3    1.20    1.30
  -6   8  -3    2.90    0.90
   6  -8   3    3.10    1.40
  -7   8  -3    0.00    0.70
   7  -8   3   -0.30    1.30
   8  -8   3   -0.40    1.50
   9  -8   3    2.10    1.80
  10  -8   3    1.20    1.90
  11  -8   3    1.50    2.10
 -11  -7   3    1.90    1.50
 -10  -7   3    2.90    1.40
  -9  -7   3    6.90    1.60
   8   7  -3    5.80    1.00
  -8  -7   3    8.30    1.50
   7   7  -3    3.70    0.80
  -7  -7   3    4.80    1.20
   6   7  -3    0.20    0.60
  -6  -7   3    0.90    1.00
   5   7  -3  130.99    4.90
  -5  -7   3  134.89    6.00
   4   7  -3    9.20    0.90
  -4  -7   3    9.90    1.40
   3   7  -3  171.18    6.00
  -3  -7   3  182.58    7.20
  -3  -7   3  162.28    6.40
   2   7  -3    5.90    0.70
  -2  -7   3    5.20    0.80
  -2  -7   3    5.60    1.00
   1   7  -3    2.10    0.50
  -1  -7   3    1.20    0.80
  -1  -7   3    0.40    0.70
   0   7  -3  330.07   10.90
   0  -7   3  320.87   12.20
   0  -7   3  322.97   12.60
  -1   7  -3  163.68    5.80
   1  -7   3  164.38    6.70
   1  -7   3  163.18    6.60
  -2   7  -3    2.00    0.60
   2  -7   3    2.10    1.10
   2  -7   3    1.50    0.90
  -3   7  -3   25.50    1.50
   3  -7   3   25.30    1.90
   3  -7   3   28.60    2.20
  -4   7  -3   64.29    2.80
   4  -7   3   62.29    3.40
   4  -7   3   64.09    3.10
  -5   7  -3    2.40    0.80
   5  -7   3    3.40    1.30
   5  -7   3    2.40    0.80
  -6   7  -3   50.89    2.60
   6  -7   3   52.49    3.30
  -7   7  -3    2.60    0.90
   7  -7   3    1.00    1.40
   8  -7   3    0.00    1.40
   9  -7   3   -0.50    1.50
  10  -7   3   -0.50    1.70
  11  -7   3    1.30    1.90
 -12  -6   3    0.40    1.30
 -11  -6   3    1.90    1.40
 -10  -6   3    0.60    1.30
  -9  -6   3   -0.40    1.10
   8   6  -3    4.50    0.90
  -8  -6   3    6.00    1.40
   7   6  -3   14.30    1.20
  -7  -6   3   13.70    1.70
   6   6  -3    0.00    0.50
  -6  -6   3    0.80    0.90
   5   6  -3   72.59    2.90
  -5  -6   3   73.39    3.70
   4   6  -3   24.30    1.30
   3   6  -3   57.29    2.40
  -3  -6   3   60.19    2.50
  -3  -6   3   60.89    3.10
   2   6  -3    0.40    0.40
  -2  -6   3    0.80    0.30
  -2  -6   3    0.90    0.80
   1   6  -3   29.20    1.40
  -1  -6   3   29.40    1.90
  -1  -6   3   29.70    1.70
   0   6  -3  637.64   20.90
   0  -6   3  636.04   24.10
   0  -6   3  648.84   23.40
  -1   6  -3  443.66   14.50
   1  -6   3  434.46   16.60
   1  -6   3  438.26   16.30
  -2   6  -3   17.90    1.20
   2  -6   3   15.90    1.50
   2  -6   3   18.90    1.60
  -3   6  -3   13.50    1.10
   3  -6   3   11.90    1.40
   3  -6   3   11.70    1.10
   4  -6   3    2.10    0.80
   4  -6   3    2.20    0.90
  -5   6  -3   -0.40    0.60
   5  -6   3   -0.40    0.60
   5  -6   3   -0.70    1.00
  -6   6  -3    0.00    0.60
   6  -6   3    0.80    1.10
  -7   6  -3    1.00    0.80
   7  -6   3    2.50    1.40
   8  -6   3    6.90    1.80
   9  -6   3    2.50    1.60
  10  -6   3    0.00    1.60
  11  -6   3    2.80    1.90
  12  -6   3   -3.40    1.90
 -12  -5   3    1.70    1.40
 -11  -5   3   14.90    2.10
 -10  -5   3    1.40    1.20
   9   5  -3   10.20    1.20
  -9  -5   3   11.90    1.70
   8   5  -3    3.10    0.80
  -8  -5   3    2.40    1.10
   7   5  -3    5.70    0.90
  -7  -5   3    6.30    1.30
   6   5  -3   44.50    2.00
  -6  -5   3   42.70    2.70
   5   5  -3    2.50    0.60
  -5  -5   3    1.40    0.80
   4   5  -3  128.49    4.60
  -4  -5   3  134.19    4.90
   3   5  -3    5.30    0.60
  -3  -5   3    5.50    0.60
  -3  -5   3    5.40    1.00
   2   5  -3   89.89    3.30
  -2  -5   3   91.89    3.60
  -2  -5   3   91.29    3.90
   1   5  -3   18.60    1.00
  -1  -5   3   18.70    1.40
   0   5  -3   30.90    1.40
   0  -5   3   33.20    1.90
   0  -5   3   32.70    1.80
  -1   5  -3   13.60    0.90
   1  -5   3   14.10    1.20
   1  -5   3   16.70    1.40
  -2   5  -3    3.10    0.60
   2  -5   3    2.40    0.80
   2  -5   3    0.80    0.60
  -3   5  -3    6.40    0.70
   3  -5   3    6.50    0.80
   3  -5   3    6.40    1.10
   5  -5   3    4.10    0.60
   5  -5   3    5.00    1.30
  -6   5  -3   -0.20    0.60
   6  -5   3    0.70    1.20
   7  -5   3   15.10    1.90
   8  -5   3    3.10    1.50
   9  -5   3    1.10    1.50
  10  -5   3   -2.90    1.40
  11  -5   3   -2.80    1.70
  12  -5   3   -1.40    1.70
 -12  -4   3    4.10    1.50
 -11  -4   3    0.50    1.40
 -10  -4   3    0.80    1.00
   9   4  -3    0.70    0.80
  -9  -4   3    0.20    1.00
   8   4  -3    8.40    1.10
  -8  -4   3    7.40    1.30
   7   4  -3   28.60    1.70
  -7  -4   3   30.50    2.30
   6   4  -3   36.90    1.80
  -6  -4   3   34.20    2.30
   5   4  -3    2.30    0.60
  -5  -4   3    3.20    0.80
  -5  -4   3    1.70    0.40
   4   4  -3   17.20    1.00
  -4  -4   3   18.10    1.00
   3   4  -3    3.20    0.50
  -3  -4   3    3.20    0.40
  -3  -4   3    2.70    0.70
   2   4  -3    3.40    0.40
  -2  -4   3    2.30    0.50
  -2  -4   3    2.80    0.60
   1   4  -3   20.30    1.00
  -1  -4   3   19.30    1.40
  -1  -4   3   19.50    1.20
   0   4  -3  224.38    7.40
   0  -4   3  217.18    8.50
  -1   4  -3 1307.57   41.80
   1  -4   3 1297.97   48.10
   1  -4   3 1291.77   46.70
  -2   4  -3  119.29    4.30
   2  -4   3  122.49    4.80
   2  -4   3  118.79    4.90
  -3   4  -3  169.88    5.60
   3  -4   3  152.38    6.40
   3  -4   3  158.58    6.20
  -4   4  -3  220.98    8.90
   4  -4   3  292.17   10.20
   4  -4   3  276.07    9.90
   5  -4   3    6.90    0.70
   5  -4   3    9.10    1.40
   6  -4   3   10.30    1.60
   7  -4   3   19.90    2.10
   8  -4   3    2.10    1.40
   9  -4   3    1.20    1.40
  10  -4   3   -0.90    1.40
  11  -4   3    0.90    1.70
 -12  -3   3    8.50    1.70
 -11  -3   3   10.20    1.80
 -10  -3   3    7.90    1.50
   9   3  -3   11.40    1.20
  -9  -3   3    8.80    1.50
   8   3  -3   35.70    1.90
  -8  -3   3   33.90    2.30
   7   3  -3   35.30    1.90
  -7  -3   3   36.70    2.40
   6   3  -3   58.59    2.50
  -6  -3   3   58.19    2.50
  -6  -3   3   62.39    3.10
   5   3  -3   23.10    1.30
  -5  -3   3   23.00    1.30
  -5  -3   3   24.80    1.80
   4   3  -3    1.90    0.40
  -4  -3   3    3.00    0.40
  -4  -3   3    3.50    0.70
   3   3  -3  120.69    4.10
  -3  -3   3  126.09    4.50
  -3  -3   3  106.89    4.80
   2   3  -3   44.00    1.70
  -2  -3   3   45.60    1.90
  -2  -3   3   42.80    2.10
   1   3  -3  309.87   10.20
  -1  -3   3  312.87   11.40
  -1  -3   3  309.27   11.80
   0   3  -3   39.80    1.60
   0  -3   3   39.90    1.80
   0  -3   3   40.30    1.90
  -1   3  -3  300.17    9.90
   1  -3   3  300.37   11.30
  -2   3  -3  598.14   19.60
   2  -3   3  608.44   22.00
   2  -3   3  603.94   22.40
  -3   3  -3   50.89    2.10
   3  -3   3   52.59    2.10
   3  -3   3   47.10    2.40
   4  -3   3   19.50    1.00
   4  -3   3   21.30    1.70
   5  -3   3  115.79    4.90
   5  -3   3  106.99    4.30
   6  -3   3    9.10    1.40
   6  -3   3    7.70    0.70
   7  -3   3    6.60    1.50
   8  -3   3    4.20    1.40
   9  -3   3    1.00    1.30
  10  -3   3   -2.40    1.40
  11  -3   3   -1.20    1.40
 -12  -2   3   -0.40    1.20
 -11  -2   3    2.40    1.30
 -10  -2   3    2.20    1.10
   9   2  -3    7.80    1.10
  -9  -2   3    7.90    1.30
   8   2  -3   -0.10    0.70
  -8  -2   3   -0.80    0.70
   7   2  -3  203.68    7.30
  -7  -2   3  209.98    8.50
   6   2  -3   74.19    2.90
  -6  -2   3   73.19    3.60
   5   2  -3  207.48    7.00
  -5  -2   3  207.78    7.70
  -5  -2   3  204.98    8.30
   4   2  -3  280.47    9.30
  -4  -2   3  281.87   10.30
  -4  -2   3  282.67   10.90
   3   2  -3    5.30    0.50
  -3  -2   3    6.20    0.50
   2   2  -3  245.28    8.20
  -2  -2   3  252.07    9.20
  -2  -2   3  255.67    9.60
   1   2  -3   52.79    1.80
  -1  -2   3   50.29    2.30
  -1  -2   3   51.29    2.20
   0   2  -3  484.45   15.50
   0  -2   3  487.45   17.40
   0  -2   3  470.05   17.90
  -1   2  -3   46.50    1.70
   1  -2   3   37.90    2.00
   1  -2   3   46.80    1.90
  -2   2  -3    6.20    0.60
   2  -2   3    7.50    0.60
  -3   2  -3  155.98    5.40
   3  -2   3  159.28    6.20
   3  -2   3  157.98    5.90
   4  -2   3   70.39    3.20
   4  -2   3   69.49    2.70
   5  -2   3   18.50    1.70
   5  -2   3   16.60    0.90
   6  -2   3    5.00    0.60
   6  -2   3    5.50    1.20
   7  -2   3  111.59    5.10
   8  -2   3   65.69    3.60
   9  -2   3    0.60    1.20
  10  -2   3    2.80    1.50
  12  -2   3   -0.40    1.20
 -12  -1   3    5.50    1.50
 -11  -1   3   16.00    1.90
 -10  -1   3    3.20    1.10
   9   1  -3   -0.90    0.70
  -9  -1   3    0.40    0.90
   8   1  -3   19.30    1.50
  -8  -1   3   21.50    1.90
   7   1  -3   -0.30    0.60
  -7  -1   3    0.30    0.70
  -7  -1   3   -0.80    0.80
   6   1  -3   90.39    3.60
  -6  -1   3   93.99    4.20
  -6  -1   3   96.49    3.80
   5   1  -3    6.10    0.70
  -5  -1   3    6.10    0.90
   4   1  -3 1086.49   35.50
  -4  -1   3 1130.29   39.50
  -4  -1   3 1086.89   41.00
   3   1  -3  173.58    5.80
  -3  -1   3  179.38    6.50
   2   1  -3    0.10    0.20
  -2  -1   3    0.20    0.40
  -2  -1   3   -0.20    0.30
   1   1  -3  100.09    3.30
  -1  -1   3  100.29    3.80
  -1  -1   3   95.89    3.90
   0   1  -3 1690.23   53.39
   0  -1   3 1623.24   61.29
   0  -1   3 1656.93   59.79
  -1   1  -3    0.10    0.20
   1  -1   3    0.50    0.20
   1  -1   3    0.10    0.20
  -2   1  -3  147.19    5.00
   2  -1   3  145.69    5.60
   3  -1   3   25.50    1.60
   3  -1   3   25.40    1.00
   4  -1   3   56.29    2.60
   4  -1   3   51.99    2.10
   5  -1   3   12.40    1.30
   6  -1   3    5.60    1.20
   7  -1   3   29.40    2.50
   8  -1   3    7.70    1.50
   9  -1   3   10.70    1.70
  10  -1   3    2.20    1.40
  11  -1   3    1.30    1.20
  12  -1   3    2.80    1.30
  13  -1   3    2.30    1.40
 -11   0   3    1.80    1.20
 -10   0   3    9.00    1.40
   9   0  -3   12.60    1.40
  -9   0   3   12.20    1.50
   8   0  -3    5.90    1.00
  -8   0   3    6.90    1.20
   7   0  -3    6.90    1.00
  -7   0   3    8.20    1.00
  -7   0   3    7.90    1.20
   6   0  -3    3.80    0.70
  -6   0   3    3.80    0.90
  -6   0   3    4.90    0.80
   5   0  -3    4.40    0.60
  -5   0   3    5.50    0.70
  -5   0   3    5.50    0.80
   4   0  -3   14.00    0.90
  -4   0   3   12.70    1.20
   3   0  -3    3.70    0.40
  -3   0   3    4.00    0.50
   2   0  -3    1.80    0.20
  -2   0   3    1.40    0.40
  -2   0   3    2.00    0.40
  -1   0   3 1836.62   66.39
  -1   0   3 1749.92   64.59
   0   0   3    0.10    0.30
   0   0   3   -0.20    0.20
   1   0   3  260.57    9.40
   1   0   3  247.38    9.30
   2   0   3  284.37   10.50
  -3   0  -3   66.99    2.60
   3   0   3   70.09    2.90
  -4   0  -3   14.90    0.80
   4   0   3   18.70    1.40
  -5   0  -3    2.20    0.40
   5   0   3    1.40    0.80
  -6   0  -3  182.18    7.10
   6   0   3  188.48    7.30
  -7   0  -3   21.80    1.20
   8   0   3   32.00    2.40
   9   0   3    4.10    1.10
   9   0   3    2.10    1.30
  10   0   3    0.30    1.10
  11   0   3    2.80    1.30
  12   0   3    3.10    1.40
  13   0   3    0.00    1.20
 -11   1   3    3.60    1.30
 -10   1   3   -0.60    0.90
   9  -1  -3    0.60    0.80
  -9   1   3    0.50    0.90
   8  -1  -3   61.29    2.90
  -8   1   3   62.89    3.20
   7  -1  -3   19.40    1.50
  -7   1   3   21.50    1.70
  -6   1   3    4.80    0.80
  -6   1   3    4.00    0.80
  -5   1   3   32.50    1.70
  -5   1   3   32.90    1.90
  -4   1   3    7.70    0.90
  -4   1   3   10.50    0.80
  -3   1   3  140.19    5.30
  -2   1   3  221.68    8.20
  -1   1   3   34.90    1.50
  -1   1   3   35.50    1.60
   0   1   3   98.19    3.10
   0   1   3   85.39    3.50
   0   1   3   94.59    3.60
  -1  -1  -3  892.51   33.20
   1   1   3  896.31   32.00
  -2  -1  -3   60.39    2.40
   2   1   3   60.09    2.50
  -3  -1  -3  841.22   31.20
   3   1   3  849.41   30.40
  -4  -1  -3   30.30    1.40
   4   1   3   28.80    1.60
  -5  -1  -3   29.00    1.50
   5   1   3   29.60    1.80
  -6  -1  -3   53.29    2.50
   6   1   3   60.09    2.80
  -7  -1  -3    2.30    0.70
   7   1   3    1.70    0.90
   7   1   3    1.40    1.00
   8   1   3   -1.10    1.00
   8   1   3    0.50    0.80
   9   1   3   16.40    1.80
  10   1   3   10.50    1.70
  11   1   3    0.90    1.20
  12   1   3   -1.00    1.10
  13   1   3    1.80    1.40
 -11   2   3    1.80    1.20
 -10   2   3    3.90    1.20
   9  -2  -3    1.80    0.90
  -9   2   3    3.70    1.10
  -8   2   3   -0.30    0.80
  -7   2   3   51.79    2.80
  -6   2   3   41.00    2.30
  -6   2   3   42.30    2.20
  -5   2   3    4.60    0.70
  -5   2   3    4.10    0.70
  -4   2   3    6.50    0.70
  -4   2   3    5.00    0.70
  -2   2   3  321.17   11.70
  -2   2   3  319.97   10.40
   1  -2  -3  526.75   19.30
  -1   2   3  505.45   16.60
   0  -2  -3 3709.63  134.99
   0   2   3 3593.64  130.49
   0   2   3 3605.34  116.99
  -1  -2  -3  549.35   20.50
   1   2   3  550.14   17.90
   1   2   3  556.34   19.80
  -2  -2  -3    5.80    0.50
   2   2   3    4.90    0.50
   2   2   3    4.50    0.50
  -3  -2  -3  151.88    5.70
   3   2   3  144.79    5.60
  -4  -2  -3   21.80    1.20
   4   2   3   21.50    1.30
  -5  -2  -3  307.77   11.50
   5   2   3  296.57   11.20
   5   2   3  303.97   10.40
  -6  -2  -3  103.49    4.90
   6   2   3  137.49    4.90
   6   2   3  137.09    5.00
  -7  -2  -3  176.68    7.10
   7   2   3  175.48    7.00
   7   2   3  180.68    6.70
   8   2   3    1.90    1.00
   9   2   3    0.70    1.00
  10   2   3    5.40    1.40
  11   2   3    1.10    1.20
  12   2   3    2.70    1.40
  13   2   3   -0.20    1.20
  11  -3  -3    6.50    1.40
  -9   3   3    2.50    0.90
  -8   3   3   77.49    3.80
  -7   3   3   16.00    1.50
  -6   3   3   57.99    2.80
  -6   3   3   54.79    2.70
  -5   3   3   13.00    1.20
  -5   3   3   11.70    1.10
  -4   3   3  135.79    5.00
  -4   3   3  128.59    4.80
  -4   3   3  104.09    4.20
   3  -3  -3   47.60    2.30
  -3   3   3   51.29    1.80
  -3   3   3   49.00    2.20
  -1   3   3  657.23   23.60
  -1   3   3  651.83   21.10
   0  -3  -3   36.80    1.60
   0   3   3   33.80    1.50
   0   3   3   35.70    1.30
  -1  -3  -3  387.96   14.60
   1   3   3  390.26   14.10
   1   3   3  391.06   12.70
  -2  -3  -3   50.89    2.20
   2   3   3   52.29    2.10
  -3  -3  -3    5.40    0.60
   3   3   3    3.80    0.50
   3   3   3    3.40    0.50
  -4  -3  -3   12.30    1.00
   4   3   3   11.40    0.90
   5   3   3   34.70    1.70
   5   3   3   33.70    1.90
  -6  -3  -3    9.20    1.00
   6   3   3    9.60    1.20
   6   3   3    9.00    0.90
  -7  -3  -3    0.50    0.70
   7   3   3   -0.80    0.70
   7   3   3   -0.30    0.80
  -8  -3  -3    9.00    1.10
   8   3   3    9.10    1.40
   9   3   3   22.80    1.90
  10   3   3    9.50    1.60
  11   3   3    1.60    1.20
  12   3   3    0.20    1.20
  13   3   3   -0.40    1.20
  10  -4  -3    9.20    1.50
   9  -4  -3    3.50    1.20
   8  -4  -3   26.90    2.10
   7  -4  -3   -0.90    0.80
   6  -4  -3    2.30    0.80
  -6   4   3    3.30    0.90
   5  -4  -3    0.90    0.60
  -5   4   3    0.60    0.70
  -5   4   3    0.70    0.40
   4  -4  -3   60.39    2.90
  -4   4   3   59.59    2.30
  -4   4   3   56.99    2.70
   3  -4  -3    0.30    0.50
  -3   4   3    0.10    0.30
  -3   4   3    0.60    0.50
   2  -4  -3    0.20    0.40
  -2   4   3    2.50    0.50
  -2   4   3    0.00    0.20
   1  -4  -3    0.00    0.10
  -1   4   3    0.20    0.30
  -1   4   3    0.30    0.20
   0   4   3 2966.60  107.69
   0   4   3 3010.10   96.59
  -1  -4  -3  145.99    5.30
   1   4   3  112.99    4.60
   1   4   3  146.49    5.10
  -2  -4  -3  116.19    4.60
   2   4   3  119.69    4.30
   2   4   3  104.79    4.00
   3   4   3  149.69    5.30
   3   4   3  152.68    5.60
  -4  -4  -3   23.30    1.40
   4   4   3   25.40    1.20
  -5  -4  -3  123.19    5.00
   5   4   3  118.79    4.60
   5   4   3  122.49    4.60
  -6  -4  -3    0.40    0.60
   6   4   3   -0.40    0.40
   6   4   3    0.40    0.70
  -7  -4  -3   16.90    1.50
   7   4   3   18.80    1.70
  -8  -4  -3    1.30    0.80
   8   4   3   -1.30    0.70
   9   4   3    0.10    1.00
  10   4   3    5.20    1.30
  11   4   3    0.90    1.10
  12   4   3    2.50    1.30
  13   4   3    0.40    1.20
  10  -5  -3    0.90    1.00
   9  -5  -3    0.30    0.90
   8  -5  -3   16.40    1.70
   7  -5  -3   95.49    4.50
   6  -5  -3    8.80    1.20
  -6   5   3    8.60    0.90
   5  -5  -3   63.99    3.20
  -5   5   3   71.69    2.70
  -5   5   3   71.39    3.20
   4  -5  -3   19.90    1.40
  -4   5   3   19.80    1.10
  -4   5   3   19.30    1.40
   3  -5  -3   22.00    1.30
  -3   5   3   19.00    1.00
   2  -5  -3    3.10    0.60
  -2   5   3    2.90    0.60
   0  -5  -3  120.99    5.00
   0   5   3  126.89    4.80
  -1  -5  -3    4.30    0.70
   1   5   3    5.00    0.60
   1   5   3    5.70    0.50
  -2  -5  -3  344.57   13.10
   2   5   3  339.37   12.40
   2   5   3  343.47   11.40
  -3  -5  -3  199.88    7.70
   3   5   3  196.08    7.10
   3   5   3  184.68    6.70
  -4  -5  -3   26.10    1.60
   4   5   3   25.50    1.10
   4   5   3   21.30    1.40
  -5  -5  -3    1.90    0.70
   5   5   3    2.10    0.30
   5   5   3    1.00    0.60
  -6  -5  -3    2.40    0.80
   6   5   3    3.10    0.90
  -7  -5  -3    9.00    1.20
   7   5   3    9.50    1.30
  -8  -5  -3    0.30    0.80
   8   5   3    0.70    0.80
   9   5   3    8.20    1.40
  10   5   3    4.80    1.30
  11   5   3    4.10    1.30
  12   5   3    1.20    1.30
  12  -6  -3    4.10    1.80
  10  -6  -3    4.00    1.30
   9  -6  -3   16.20    1.80
   8  -6  -3   13.60    1.60
   7  -6  -3   24.50    1.90
  -7   6   3   22.20    1.60
   6  -6  -3    4.70    1.00
  -6   6   3    5.20    0.80
   5  -6  -3    4.70    0.90
  -5   6   3    5.70    0.70
   4  -6  -3  151.98    6.20
  -4   6   3  150.48    5.30
   3  -6  -3    3.00    0.60
  -3   6   3    4.20    0.50
   2  -6  -3   41.60    2.00
  -2   6   3   38.40    1.70
  -2   6   3   38.80    1.90
   1  -6  -3  386.86   16.80
  -1   6   3  470.55   14.60
  -1   6   3  480.25   16.30
   0  -6  -3  312.67   12.10
   0   6   3  314.87   11.60
   0   6   3  319.07   10.50
  -1  -6  -3   13.10    1.20
   1   6   3   12.20    0.90
   1   6   3   11.60    0.90
  -2  -6  -3  220.58    8.50
   2   6   3  217.88    7.40
   2   6   3  211.78    7.90
  -3  -6  -3  193.48    7.60
   3   6   3  186.38    6.90
  -4  -6  -3  600.64   21.70
   4   6   3  542.15   18.90
   4   6   3  576.14   20.50
  -5  -6  -3   66.99    3.30
   5   6   3   73.79    3.00
  -6  -6  -3    3.40    0.90
   6   6   3    3.80    0.90
  -7  -6  -3   92.49    4.20
   7   6   3   87.49    3.90
  -8  -6  -3    2.20    0.90
   8   6   3    1.20    0.90
  -9  -6  -3    5.30    1.20
   9   6   3    6.00    1.20
  10   6   3   -0.30    0.90
  11   6   3   -0.10    1.10
  12   6   3    6.80    1.60
  12  -7  -3    5.40    2.00
  11  -7  -3    2.80    1.70
   9  -7  -3    3.00    1.10
   8  -7  -3   35.20    2.30
   7  -7  -3   44.20    2.60
  -7   7   3   46.90    2.30
   6  -7  -3   88.89    4.20
  -6   7   3   91.99    3.60
   5  -7  -3   30.50    1.90
   4  -7  -3    0.80    0.60
  -4   7   3    0.50    0.50
   3  -7  -3    8.10    0.90
  -3   7   3    7.70    0.80
  -3   7   3    7.30    1.00
   2  -7  -3   32.30    1.80
  -2   7   3   30.40    1.70
  -2   7   3   28.10    1.40
   1  -7  -3  194.48    7.60
  -1   7   3  188.38    6.60
  -1   7   3  194.78    7.30
   0  -7  -3    3.20    0.70
   0   7   3    6.00    0.80
   0   7   3    6.70    0.70
  -1  -7  -3   39.40    2.20
   1   7   3   41.00    1.90
   1   7   3   40.60    1.80
  -2  -7  -3   29.30    1.90
   2   7   3   26.60    1.40
   2   7   3   28.00    1.50
  -3  -7  -3  150.48    6.30
   3   7   3  150.58    5.60
  -4  -7  -3   10.90    1.30
  -5  -7  -3   11.40    1.40
   5   7   3   13.30    1.20
  -6  -7  -3   93.49    4.40
   6   7   3   98.19    4.00
  -7  -7  -3    6.50    1.20
   7   7   3    6.60    1.10
  -8  -7  -3   -0.30    0.90
   8   7   3    0.40    0.80
  -9  -7  -3   13.20    1.60
   9   7   3   15.90    1.70
  10   7   3    2.40    1.10
  11   7   3   -2.00    0.90
  12   7   3   -0.80    1.10
  11  -8  -3    2.80    1.80
   9  -8  -3    1.00    0.90
   8  -8  -3    1.10    0.90
  -8   8   3    0.50    0.80
   7  -8  -3    1.80    0.90
  -7   8   3    4.70    0.90
   6  -8  -3   37.20    2.30
  -6   8   3   39.00    2.00
   5  -8  -3   23.90    1.80
  -5   8   3   23.70    1.50
   4  -8  -3  213.68    8.60
  -4   8   3  211.68    7.40
   3  -8  -3   34.20    2.00
  -3   8   3   31.90    1.70
   2  -8  -3   99.59    4.30
  -2   8   3   97.59    3.70
   1  -8  -3  133.19    5.60
  -1   8   3  137.09    5.40
  -1   8   3  134.19    4.80
   0   8   3   94.89    3.90
   0   8   3   94.89    3.60
  -1  -8  -3   21.10    1.80
   1   8   3   20.80    1.30
   1   8   3   20.00    1.30
  -2  -8  -3    0.40    0.90
   2   8   3    0.10    0.50
   4   8   3   16.90    1.20
  -5  -8  -3   -0.10    0.90
   5   8   3    0.70    0.70
  -6  -8  -3   17.20    1.70
   6   8   3   19.00    1.60
  -7  -8  -3    0.80    0.90
   7   8   3    0.70    0.80
  -8  -8  -3    3.00    1.10
   8   8   3    3.10    1.00
  -9  -8  -3    4.20    1.30
   9   8   3    4.90    1.20
  10   8   3    0.30    1.00
  11   8   3   11.70    1.70
  12   8   3    0.80    1.10
  11  -9  -3    2.80    1.90
   9  -9  -3    1.20    1.00
   8  -9  -3   11.80    1.50
  -8   9   3   13.30    1.40
   7  -9  -3   12.10    1.50
  -7   9   3   12.90    1.30
   6  -9  -3   -0.70    0.80
  -6   9   3    0.90    0.70
   5  -9  -3   66.69    3.40
  -5   9   3   67.59    2.90
   4  -9  -3   23.80    1.90
  -4   9   3   25.70    1.60
   3  -9  -3  114.49    5.00
  -3   9   3  112.79    4.30
   2  -9  -3   37.90    2.20
  -2   9   3   36.20    1.80
   1  -9  -3    1.10    0.80
  -1   9   3    0.40    0.50
   0   9   3    4.30    0.70
  -1  -9  -3   -1.10    0.30
   1   9   3   -0.80    0.40
  -2  -9  -3    8.60    1.40
  -3  -9  -3   -0.30    1.10
   3   9   3    0.50    0.40
  -4  -9  -3    7.20    1.40
   4   9   3    7.70    1.00
  -5  -9  -3   37.00    2.50
   5   9   3   38.60    2.20
  -6  -9  -3   23.40    2.00
   6   9   3   23.60    1.70
  -7  -9  -3   23.40    2.00
   7   9   3   22.50    1.80
  -8  -9  -3    1.00    1.10
   8   9   3    0.40    0.90
  -9  -9  -3    3.80    1.20
   9   9   3    3.70    1.10
  10   9   3    2.50    1.20
  11   9   3    2.30    1.20
  10 -10  -3    1.00    1.70
  -9  10   3    1.00    0.90
   8 -10  -3   -1.00    1.00
  -8  10   3    0.50    0.80
   7 -10  -3    5.60    1.20
  -7  10   3    6.10    1.10
   6 -10  -3    5.80    1.20
  -6  10   3    7.30    1.10
   5 -10  -3   41.20    2.50
  -5  10   3   36.00    2.00
   4 -10  -3    1.30    0.90
  -4  10   3    2.90    0.80
   3 -10  -3   18.50    1.70
  -3  10   3   15.60    1.30
   2 -10  -3    0.80    0.90
  -2  10   3    1.30    0.60
   1 -10  -3   44.30    2.60
  -1  10   3   39.00    2.00
   0 -10  -3    2.30    1.10
   0  10   3    1.60    0.70
  -1 -10  -3   27.20    2.10
   1  10   3   24.10    1.60
  -2 -10  -3   12.80    1.70
   2  10   3   11.20    1.10
  -3 -10  -3   99.99    4.80
   3  10   3  100.19    4.00
  -4 -10  -3    2.40    1.10
   4  10   3    3.80    0.90
  -5 -10  -3    9.40    1.50
   5  10   3   10.40    1.20
  -6 -10  -3    8.30    1.40
   6  10   3    9.10    1.20
  -7 -10  -3    2.20    1.10
   7  10   3    1.40    0.90
  -8 -10  -3   19.30    2.00
   8  10   3   18.90    1.80
  -9 -10  -3    7.90    1.50
   9  10   3    6.20    1.30
  10  10   3    8.20    1.50
  11  10   3    0.80    1.20
  10 -11  -3    1.60    1.80
   9 -11  -3    5.20    1.80
  -9  11   3    0.00    1.00
   8 -11  -3    4.70    1.40
  -8  11   3    3.50    1.00
   7 -11  -3    0.20    1.10
  -7  11   3    1.40    0.90
   6 -11  -3    7.80    1.40
  -6  11   3    8.90    1.20
   5 -11  -3    8.40    1.40
  -5  11   3    7.40    1.10
   4 -11  -3   17.20    1.70
  -4  11   3   16.80    1.40
   3 -11  -3    8.00    1.30
  -3  11   3    8.70    1.10
   2 -11  -3    7.80    1.30
  -2  11   3    8.50    1.10
   1 -11  -3   16.30    1.70
  -1  11   3   17.70    1.40
   0 -11  -3    1.10    1.10
   0  11   3    0.70    0.60
  -1 -11  -3    8.50    1.50
   1  11   3    8.30    1.00
  -2 -11  -3   31.40    2.60
   2  11   3   33.20    1.90
  -3 -11  -3    4.40    1.40
   3  11   3    4.30    0.90
  -4 -11  -3    5.80    1.40
   4  11   3    6.20    1.00
  -5 -11  -3   10.60    1.60
   5  11   3   12.60    1.30
  -6 -11  -3    9.60    1.60
   6  11   3   12.60    1.40
  -7 -11  -3    1.00    1.10
   7  11   3    0.90    0.90
  -8 -11  -3    0.60    1.10
   8  11   3   -0.50    0.90
  -9 -11  -3    1.00    1.30
   9  11   3    0.50    1.00
 -10 -11  -3    3.10    1.30
  10  11   3   -1.40    0.90
   9 -12  -3    2.00    1.80
  -9  12   3    0.50    0.90
   8 -12  -3    2.10    1.70
   8 -12  -3    0.20    1.30
  -8  12   3    1.80    1.00
   7 -12  -3    0.50    1.20
  -7  12   3    0.10    0.80
   6 -12  -3    0.20    1.10
  -6  12   3    0.00    0.80
   5 -12  -3   -0.40    1.00
  -5  12   3   -0.10    0.70
   4 -12  -3   59.29    3.40
  -4  12   3   53.89    2.70
   3 -12  -3   23.90    2.30
  -3  12   3   28.50    1.80
   2 -12  -3    4.90    1.30
  -2  12   3    4.70    0.90
   1 -12  -3    1.90    1.30
  -1  12   3    0.80    0.70
   0 -12  -3   17.30    2.00
   0  12   3   18.50    1.40
  -1 -12  -3   16.50    2.00
   1  12   3   18.10    1.50
  -2 -12  -3   11.10    1.60
   2  12   3    9.20    1.20
  -3 -12  -3   -0.40    1.20
   3  12   3   -1.00    0.60
  -4 -12  -3   -0.70    1.20
   4  12   3    0.30    0.70
  -5 -12  -3    9.70    1.60
   5  12   3   12.10    1.40
  -6 -12  -3    2.80    1.30
   6  12   3    0.10    0.80
  -7 -12  -3    7.70    1.50
   7  12   3    5.40    1.20
  -8 -12  -3    3.30    1.40
   8  12   3    5.50    1.20
  -9 -12  -3    0.50    1.20
   9  12   3    0.00    1.00
 -10 -12  -3    2.80    1.40
  10  12   3    2.00    1.20
  -9  13   3    2.00    1.10
   8 -13  -3    1.20    1.70
  -8  13   3    0.10    0.90
   7 -13  -3   -2.30    1.10
   7 -13  -3    4.70    1.70
  -7  13   3    0.30    0.80
   6 -13  -3    1.30    1.30
  -6  13   3    0.20    0.80
   5 -13  -3    1.90    1.40
  -5  13   3    4.20    1.10
   4 -13  -3    2.00    1.30
  -4  13   3    2.00    0.90
   3 -13  -3   -1.50    1.20
  -3  13   3   -0.30    0.80
   2 -13  -3   15.00    2.00
  -2  13   3   18.50    1.50
   1 -13  -3    3.50    1.40
  -1  13   3    4.50    1.00
   0 -13  -3    3.00    1.50
   0  13   3    2.40    0.90
  -1 -13  -3   -0.70    1.10
   1  13   3   -0.10    0.60
  -2 -13  -3    3.10    1.40
   2  13   3    5.20    1.00
  -3 -13  -3    8.10    1.70
   3  13   3    7.30    1.20
  -4 -13  -3    0.50    1.20
   4  13   3   -0.60    0.70
  -5 -13  -3    2.20    1.30
   5  13   3   -0.10    0.80
  -6 -13  -3    0.20    1.20
   6  13   3   -0.40    0.80
  -7 -13  -3   -0.20    1.20
   7  13   3   -0.40    0.90
  -8 -13  -3    1.40    1.30
   8  13   3    0.20    1.00
  -9 -13  -3    3.70    1.50
   9  13   3   -0.50    1.00
  -8  14   3    0.20    1.00
   7 -14  -3    3.60    1.80
   7 -14  -3   -0.80    1.40
  -7  14   3    1.20    1.00
   6 -14  -3    5.90    1.70
   6 -14  -3   10.60    2.10
  -6  14   3    6.90    1.30
   5 -14  -3    2.80    1.50
   5 -14  -3    1.70    1.50
  -5  14   3    1.10    0.90
   4 -14  -3    3.20    1.50
   4 -14  -3   -0.40    1.40
  -4  14   3    0.80    0.90
   3 -14  -3    0.50    1.50
  -3  14   3    0.80    0.90
   2 -14  -3    3.40    1.30
   2 -14  -3   -0.10    1.50
  -2  14   3    1.20    0.90
   1 -14  -3    6.60    1.80
  -1  14   3    9.50    1.30
   0 -14  -3   -0.90    1.40
   0  14   3    0.90    0.80
  -1 -14  -3    2.90    1.60
   1  14   3    1.60    0.90
  -2 -14  -3    0.70    1.30
   2  14   3   -0.70    0.70
  -3 -14  -3    8.90    1.80
   3  14   3   12.80    1.40
  -4 -14  -3   -0.10    1.30
   4  14   3    0.60    0.90
  -5 -14  -3   -0.50    1.20
   5  14   3   -0.30    0.80
  -6 -14  -3    1.00    1.30
   6  14   3   -0.50    0.90
  -7 -14  -3    0.90    1.30
   7  14   3   -2.50    0.80
  -8 -14  -3    2.20    1.40
   8  14   3    2.10    1.20
  -7  15   3    0.20    0.90
   6 -15  -3    3.10    1.80
   6 -15  -3   -0.20    1.70
  -6  15   3    2.10    1.10
   5 -15  -3   12.10    2.20
   5 -15  -3    5.20    1.80
  -5  15   3    6.60    1.30
   4 -15  -3    4.90    1.90
   4 -15  -3    7.70    1.80
  -4  15   3    5.50    1.20
   3 -15  -3    3.20    1.50
   3 -15  -3   -0.90    1.60
  -3  15   3    0.30    0.90
   2 -15  -3   -0.50    1.60
  -2  15   3    2.00    1.00
   1 -15  -3   11.90    2.10
  -1  15   3   14.80    1.60
   0 -15  -3    3.90    1.80
   0  15   3    5.10    1.20
  -1 -15  -3    0.00    1.50
   1  15   3    1.50    1.00
  -2 -15  -3    0.90    1.50
   2  15   3    1.00    0.90
  -3 -15  -3   -0.80    1.30
   3  15   3    0.70    0.90
  -4 -15  -3    2.40    1.50
   4  15   3    1.00    1.00
  -5 -15  -3    1.00    1.40
   5  15   3    0.90    1.00
  -6 -15  -3    2.10    1.40
   6  15   3   -0.30    0.90
  -7 -15  -3    2.90    1.40
   7  15   3    0.20    1.00
   6 -16  -3   -3.60    1.60
   5 -16  -3   -0.70    1.80
   5 -16  -3    3.40    1.90
  -5  16   3    2.60    1.20
   4 -16  -3    6.90    1.90
   4 -16  -3    3.60    2.10
  -4  16   3    3.30    1.20
   3 -16  -3    0.10    1.80
  -3  16   3    3.90    1.20
   2 -16  -3    0.60    1.70
  -2  16   3    1.60    1.00
   1 -16  -3   -0.30    1.80
  -1  16   3    0.90    0.90
   0 -16  -3    1.10    1.60
   0  16   3    0.20    1.00
  -1 -16  -3    5.50    1.80
   1  16   3    4.20    1.20
  -2 -16  -3    0.50    1.60
   2  16   3    1.80    1.00
  -3 -16  -3    0.50    1.50
   3  16   3   -0.40    0.90
  -4 -16  -3    1.00    1.50
   4  16   3    0.40    1.00
  -5 -16  -3    3.80    1.60
   5  16   3    2.70    1.10
   4 -17  -3   -4.30    1.70
   3 -17  -3    0.60    1.80
  -3  17   3    2.80    1.10
   2 -17  -3    2.00    1.90
  -2  17   3    0.30    1.00
   1 -17  -3   -3.30    1.60
  -1  17   3   -1.00    0.90
   0 -17  -3   -0.80    1.70
   0  17   3   -0.20    0.80
  -1 -17  -3    2.60    1.80
   1  17   3    1.40    1.00
  -2 -17  -3    9.70    2.10
   2  17   3    7.10    1.40
  -3 -17  -3    1.70    1.60
   3  17   3   -0.20    1.00
  -1 -16   4    1.30    1.40
   0 -16   4    2.40    1.50
   5  15  -4    0.50    1.00
   4  15  -4    0.80    1.00
  -4 -15   4    1.70    1.50
   3  15  -4    0.00    1.00
  -3 -15   4    2.20    1.50
   2  15  -4    1.20    1.00
  -2 -15   4    0.50    1.40
   1  15  -4   -0.20    0.90
  -1 -15   4    1.60    1.50
   0  15  -4    0.10    1.00
   0 -15   4    1.70    1.50
  -1  15  -4   -1.30    0.90
   1 -15   4    2.10    1.50
  -2  15  -4    0.50    1.00
  -3  15  -4    0.60    1.00
   4 -15   4   -1.00    1.80
   5  14  -4    1.20    1.00
  -5 -14   4    2.50    1.40
   4  14  -4    4.10    1.20
  -4 -14   4    5.00    1.70
   3  14  -4    0.20    0.90
  -3 -14   4    1.80    1.40
   2  14  -4    0.80    1.00
  -2 -14   4    2.00    1.40
   1  14  -4    0.50    1.00
  -1 -14   4    3.20    1.40
   0  14  -4    0.30    0.90
   0 -14   4    2.50    1.40
  -1  14  -4    0.20    1.00
   1 -14   4    0.80    1.30
  -2  14  -4    0.40    1.00
  -3  14  -4   -0.10    0.90
   3 -14   4   -2.10    1.50
  -4  14  -4    0.40    0.90
   4 -14   4   -0.10    1.80
  -5  14  -4    1.10    1.00
   5 -14   4   -0.60    1.90
  -7 -13   4    6.60    1.80
  -6 -13   4    2.60    1.50
   5  13  -4    0.80    1.00
  -5 -13   4    2.20    1.50
   4  13  -4    4.60    1.20
  -4 -13   4    6.10    1.70
   3  13  -4    0.40    0.90
  -3 -13   4    1.90    1.30
   2  13  -4   -0.40    0.80
  -2 -13   4    0.80    1.30
   1  13  -4    0.10    0.80
  -1 -13   4   -0.40    1.20
   0  13  -4    0.20    0.90
   0 -13   4    3.10    1.40
  -1  13  -4    3.00    1.10
   1 -13   4    4.40    1.40
  -2  13  -4   -0.90    0.80
   2 -13   4    0.20    1.50
   2 -13   4    0.70    1.30
  -3  13  -4    1.30    0.90
   3 -13   4   -0.80    1.60
  -4  13  -4    1.30    0.90
   4 -13   4   -0.10    1.60
  -5  13  -4    1.10    1.00
   5 -13   4    2.80    1.80
  -6  13  -4   -0.40    0.90
   6 -13   4   -2.40    1.70
  -8 -12   4    0.60    1.40
  -7 -12   4    0.40    1.30
   6  12  -4    8.40    1.30
  -6 -12   4   11.60    1.90
   5  12  -4   17.40    1.60
  -5 -12   4   15.70    2.10
   4  12  -4    3.10    1.00
  -4 -12   4    1.40    1.40
   3  12  -4   15.80    1.50
  -3 -12   4   10.00    1.70
   2  12  -4    1.50    0.90
  -2 -12   4    1.00    1.20
   1  12  -4    1.30    0.90
  -1 -12   4    0.80    1.20
   0  12  -4   14.10    1.50
   0 -12   4   14.10    1.90
  -1  12  -4    3.10    1.00
   1 -12   4    4.10    1.30
   1 -12   4    4.10    1.50
  -2  12  -4    1.90    1.00
   2 -12   4    2.50    1.40
   2 -12   4    2.70    1.30
  -3  12  -4    0.40    0.90
   3 -12   4   -1.30    1.40
  -4  12  -4    1.80    0.90
   4 -12   4   -0.30    1.50
  -5  12  -4    1.20    1.00
   5 -12   4    0.60    1.60
  -6  12  -4    0.20    0.90
   6 -12   4   -0.60    1.70
  -7  12  -4    0.80    1.00
   7 -12   4    1.40    1.90
  -9 -11   4    0.80    1.40
  -8 -11   4    0.90    1.40
  -7 -11   4    1.60    1.40
   6  11  -4   -0.20    0.80
  -6 -11   4    0.20    1.30
   5  11  -4    1.80    0.80
  -5 -11   4    3.30    1.30
   4  11  -4   13.70    1.40
  -4 -11   4   14.20    1.90
   3  11  -4   27.80    1.90
  -3 -11   4   30.70    2.50
   2  11  -4    4.80    1.00
  -2 -11   4    3.70    1.30
   1  11  -4   12.70    1.30
  -1 -11   4    9.40    1.60
   0  11  -4   26.20    1.80
   0 -11   4   23.30    2.20
   0 -11   4   24.00    2.10
  -1  11  -4    5.90    1.00
   1 -11   4    7.10    1.40
   1 -11   4    6.90    1.50
  -2  11  -4    2.80    0.90
   2 -11   4    3.40    1.20
   2 -11   4    1.30    1.40
  -3  11  -4    4.40    1.00
   3 -11   4    3.20    1.20
   3 -11   4    3.10    1.50
  -4  11  -4    9.90    1.30
   4 -11   4    8.60    1.90
  -5  11  -4   -0.10    0.70
   5 -11   4   -1.60    1.40
  -6  11  -4    1.90    1.00
   6 -11   4    2.40    1.80
  -7  11  -4    0.70    0.80
   7 -11   4    2.00    1.90
  -8  11  -4    2.00    1.10
   8 -11   4   -1.80    1.80
  -9 -10   4    2.20    1.50
  -8 -10   4   10.10    1.90
  -7 -10   4    5.10    1.50
   6  10  -4    0.30    0.80
  -6 -10   4    0.70    1.20
   5  10  -4    1.30    0.80
  -5 -10   4    0.60    1.20
   4  10  -4    9.70    1.10
  -4 -10   4    9.10    1.60
   3  10  -4    0.50    0.70
  -3 -10   4    0.50    1.10
   2  10  -4   12.60    1.30
  -2 -10   4    9.10    1.50
   1  10  -4    1.70    0.80
  -1 -10   4    2.10    1.10
  -1 -10   4    2.00    1.10
   0  10  -4   -0.10    0.70
   0 -10   4    2.40    1.20
   0 -10   4    1.20    1.00
  -1  10  -4   27.00    1.80
   1 -10   4   32.00    2.40
   1 -10   4   30.90    2.40
  -2  10  -4    2.40    0.90
   2 -10   4    3.20    1.40
   2 -10   4    1.80    1.10
  -3  10  -4    0.00    0.70
   3 -10   4    0.30    1.30
   3 -10   4   -0.80    1.00
  -4  10  -4    3.10    0.90
   4 -10   4    2.70    1.50
  -5  10  -4    0.00    0.70
   5 -10   4   -2.80    1.30
  -6  10  -4    0.30    0.80
   6 -10   4   -1.00    1.30
  -7  10  -4    0.60    0.90
   7 -10   4    2.40    1.80
  -8  10  -4    1.40    1.00
   8 -10   4    1.30    1.80
   9 -10   4    0.50    1.90
 -10  -9   4    2.80    1.60
  -9  -9   4    0.20    1.40
  -8  -9   4    1.30    1.40
   7   9  -4    9.40    1.20
  -7  -9   4   10.00    1.70
   6   9  -4    3.70    0.90
  -6  -9   4    4.50    1.30
   5   9  -4   -0.30    0.60
  -5  -9   4    1.40    1.10
   4   9  -4    1.00    0.70
  -4  -9   4    0.10    1.00
   3   9  -4   59.19    2.60
  -3  -9   4   59.19    3.40
   2   9  -4   -0.30    0.60
  -2  -9   4    1.30    1.00
   1   9  -4    1.20    0.70
  -1  -9   4    0.60    1.00
  -1  -9   4    1.10    1.00
   0   9  -4    0.40    0.60
   0  -9   4    0.90    1.10
   0  -9   4   -0.40    1.00
  -1   9  -4   48.00    2.40
   1  -9   4   47.00    2.90
   1  -9   4   46.40    2.70
  -2   9  -4   59.39    2.70
   2  -9   4   57.99    3.20
   2  -9   4   55.29    3.40
  -3   9  -4    1.60    0.80
   3  -9   4    2.80    1.20
   3  -9   4    1.80    1.00
  -4   9  -4   32.80    2.00
   4  -9   4   31.20    2.60
  -5   9  -4    0.00    0.70
   5  -9   4   -1.10    1.30
  -6   9  -4    3.10    1.00
   6  -9   4    1.70    1.50
  -7   9  -4    0.60    0.80
   7  -9   4   -1.60    1.50
  -8   9  -4    0.80    1.00
   8  -9   4   -3.40    1.50
   9  -9   4    1.50    1.90
  10  -9   4    0.40    2.10
 -11  -8   4    1.40    1.50
 -10  -8   4    0.90    1.40
  -9  -8   4    7.40    1.80
  -8  -8   4    0.60    1.20
   7   8  -4   45.40    2.30
  -7  -8   4   46.80    3.10
   6   8  -4   -0.40    0.60
  -6  -8   4    0.50    1.00
   5   8  -4    5.10    0.80
  -5  -8   4    3.60    1.10
   4   8  -4  216.08    7.50
  -4  -8   4  209.48    8.90
   3   8  -4    0.50    0.60
  -3  -8   4    1.50    0.90
   2   8  -4    1.70    0.60
  -2  -8   4    2.80    0.80
  -2  -8   4    1.70    1.00
   1   8  -4  133.19    4.90
  -1  -8   4  131.49    5.40
  -1  -8   4  130.49    5.70
   0   8  -4   -0.10    0.50
   0  -8   4   -0.80    1.00
   0  -8   4    0.60    0.90
  -1   8  -4   63.99    2.80
   1  -8   4   68.09    3.40
   1  -8   4   66.19    3.40
  -2   8  -4   90.09    3.70
   2  -8   4   92.09    4.40
   2  -8   4   88.79    4.20
  -3   8  -4   33.90    1.90
   3  -8   4   32.40    2.30
   3  -8   4   31.70    2.50
  -4   8  -4    0.00    0.70
   4  -8   4    0.60    1.30
   4  -8   4   -0.50    0.90
  -5   8  -4   -1.10    0.60
   5  -8   4   -0.30    1.30
  -6   8  -4    3.70    0.90
   6  -8   4    5.00    1.60
  -7   8  -4    7.30    1.20
   7  -8   4    7.40    1.70
   8  -8   4    3.70    1.80
   9  -8   4    0.60    1.70
  10  -8   4    0.70    2.00
 -11  -7   4    0.70    1.40
 -10  -7   4    0.40    1.30
  -9  -7   4    1.10    1.30
  -8  -7   4    3.80    1.40
   7   7  -4    1.70    0.70
  -7  -7   4    0.50    1.10
   6   7  -4    5.80    0.90
  -6  -7   4    5.40    1.20
   5   7  -4   19.20    1.30
  -5  -7   4   17.30    1.80
   4   7  -4   65.69    2.80
  -4  -7   4   68.49    3.50
   3   7  -4    2.70    0.60
  -3  -7   4    2.90    1.00
  -3  -7   4    4.00    0.70
   2   7  -4    5.30    0.70
  -2  -7   4    5.80    0.90
  -2  -7   4    5.50    1.10
   1   7  -4   11.20    1.00
  -1  -7   4   13.40    1.40
  -1  -7   4   13.30    1.30
   0   7  -4  131.59    4.90
   0  -7   4  138.19    5.60
   0  -7   4  135.89    5.70
  -1   7  -4   46.60    2.10
   1  -7   4   43.80    2.60
   1  -7   4   46.80    2.50
  -2   7  -4    2.20    0.70
   2  -7   4    2.70    1.20
   2  -7   4    1.80    0.90
  -3   7  -4    0.40    0.60
   3  -7   4   -0.10    0.80
   3  -7   4    0.30    1.20
  -4   7  -4   35.10    2.00
   4  -7   4   38.00    2.20
   4  -7   4   35.10    2.70
  -5   7  -4    8.80    1.10
   5  -7   4    9.70    1.70
  -6   7  -4    9.80    1.20
   6  -7   4    8.20    1.70
  -7   7  -4   -0.50    0.70
   7  -7   4    0.40    1.40
   8  -7   4    1.90    1.60
   9  -7   4    6.50    2.00
  10  -7   4    0.10    1.80
  11  -7   4   -0.30    1.90
 -12  -6   4    2.10    1.50
 -11  -6   4    0.50    1.40
 -10  -6   4    8.80    1.80
  -9  -6   4    5.60    1.50
  -8  -6   4   16.20    2.00
   7   6  -4    1.00    0.70
  -7  -6   4    1.70    1.10
   6   6  -4   17.10    1.20
  -6  -6   4   17.80    1.80
   5   6  -4   56.89    2.40
  -5  -6   4   56.59    3.20
   4   6  -4   -0.10    0.50
  -4  -6   4    0.60    0.90
   3   6  -4   49.90    2.20
  -3  -6   4   51.39    2.80
   2   6  -4   33.60    1.60
  -2  -6   4   34.60    2.10
  -2  -6   4   36.70    1.80
   1   6  -4   47.50    2.00
  -1  -6   4   42.50    2.50
  -1  -6   4   47.80    2.40
   0   6  -4   67.59    2.70
   0  -6   4   69.89    3.20
   0  -6   4   67.79    3.30
  -1   6  -4   39.50    1.90
   1  -6   4   40.30    2.20
   1  -6   4   39.70    2.40
  -2   6  -4   54.79    2.40
   2  -6   4   63.29    2.80
   2  -6   4   51.39    3.00
  -3   6  -4   50.69    2.30
   3  -6   4   48.70    2.90
   3  -6   4   53.99    2.60
  -4   6  -4    5.20    0.90
   4  -6   4    4.00    1.20
   4  -6   4    5.00    0.90
  -5   6  -4    2.20    0.70
   5  -6   4    1.60    1.10
  -6   6  -4   19.10    1.50
   6  -6   4   23.70    2.30
   7  -6   4    4.00    1.50
   8  -6   4   -0.90    1.40
   9  -6   4   -0.60    1.50
  10  -6   4   -2.30    1.60
  11  -6   4   -2.50    1.90
  12  -6   4   -0.90    2.00
 -12  -5   4    2.90    1.40
 -11  -5   4    2.50    1.40
 -10  -5   4    8.90    1.80
  -9  -5   4    0.80    1.20
  -8  -5   4    2.20    1.20
   7   5  -4   42.10    2.00
  -7  -5   4   40.80    2.80
   6   5  -4    2.80    0.60
  -6  -5   4    1.70    1.00
  -5  -5   4   15.60    1.50
   4   5  -4    2.50    0.50
  -4  -5   4    2.90    0.50
  -4  -5   4    1.40    0.70
   3   5  -4  246.48    8.40
  -3  -5   4  253.37    9.90
   2   5  -4    7.90    0.70
  -2  -5   4    5.20    0.70
  -2  -5   4    9.00    1.00
   1   5  -4  146.69    5.20
  -1  -5   4  147.69    5.80
  -1  -5   4  152.88    6.10
   0   5  -4  119.59    4.30
   0  -5   4  124.59    5.00
   0  -5   4  116.79    4.90
  -1   5  -4   38.50    1.80
   1  -5   4   37.20    2.10
   1  -5   4   42.20    2.00
  -2   5  -4    0.10    0.50
   2  -5   4    0.80    0.60
   2  -5   4    0.40    0.80
  -3   5  -4   57.19    2.40
   3  -5   4   55.89    3.00
   3  -5   4   53.99    2.50
  -4   5  -4   41.90    2.00
   4  -5   4   41.10    2.10
  -5   5  -4    1.70    0.70
   5  -5   4    2.00    1.20
  -6   5  -4    0.10    0.60
   6  -5   4    2.00    1.30
   7  -5   4    9.00    1.60
   8  -5   4    1.00    1.50
   9  -5   4   -0.90    1.40
  10  -5   4    1.00    1.60
  11  -5   4   -0.30    1.80
  12  -5   4   -0.90    1.90
 -12  -4   4    0.90    1.30
 -11  -4   4   19.80    2.40
 -10  -4   4    3.10    1.30
  -9  -4   4   22.20    2.20
  -8  -4   4   -0.30    1.00
   7   4  -4   38.50    1.90
  -7  -4   4   36.50    2.60
   6   4  -4   20.20    1.30
  -6  -4   4   20.30    1.80
   5   4  -4   56.19    2.30
  -5  -4   4   56.49    2.40
   4   4  -4   75.79    2.80
  -4  -4   4   71.39    3.50
  -4  -4   4   74.89    3.00
   3   4  -4   38.00    1.60
  -3  -4   4   38.00    1.70
  -3  -4   4   40.60    2.20
   2   4  -4   11.00    0.70
  -2  -4   4   10.30    1.00
   1   4  -4   28.90    1.20
  -1  -4   4   22.30    1.40
  -1  -4   4   27.60    1.60
   0   4  -4  107.09    3.70
   0  -4   4  106.09    4.30
   0  -4   4  102.09    4.30
  -1   4  -4  494.35   15.70
   1  -4   4  484.75   18.00
   1  -4   4  459.95   17.60
  -2   4  -4    0.10    0.30
   2  -4   4   -0.70    0.60
   2  -4   4   -1.10    0.40
  -3   4  -4    0.50    0.40
   3  -4   4    0.80    0.80
   3  -4   4    0.50    0.50
  -4   4  -4   96.89    3.70
   4  -4   4   93.89    3.80
   5  -4   4   10.20    1.50
   6  -4   4   15.60    1.80
   7  -4   4    1.30    1.20
   8  -4   4    2.10    1.40
   9  -4   4   -0.10    1.40
  10  -4   4    2.00    1.70
  11  -4   4   -2.30    1.50
 -12  -3   4    2.60    1.30
 -11  -3   4    3.90    1.50
 -10  -3   4   -0.20    1.10
  -9  -3   4    1.20    1.10
  -8  -3   4    2.90    1.10
   7   3  -4   13.20    1.10
  -7  -3   4   12.40    1.50
   6   3  -4  138.29    5.10
  -6  -3   4  149.69    6.30
  -5  -3   4   76.39    3.60
   4   3  -4  173.68    5.90
  -4  -3   4  174.98    6.50
   3   3  -4    3.90    0.50
  -3  -3   4    4.30    0.70
  -3  -3   4    5.40    0.60
   2   3  -4   54.69    2.00
  -2  -3   4   48.70    2.20
  -2  -3   4   55.79    2.50
   1   3  -4   -0.30    0.30
  -1  -3   4   -0.50    0.40
  -1  -3   4    0.30    0.30
   0   3  -4 1491.45   47.50
   0  -3   4 1419.86   52.99
   0  -3   4 1522.15   54.79
  -1   3  -4  221.48    7.60
   1  -3   4  235.18    8.70
   1  -3   4  229.68    8.70
  -2   3  -4   -0.40    0.40
   2  -3   4    0.60    0.40
   2  -3   4    0.60    0.70
  -3   3  -4  165.68    5.60
   3  -3   4  156.48    6.10
  -4   3  -4   89.69    3.40
   4  -3   4   90.69    4.10
   4  -3   4   85.29    3.50
   5  -3   4    5.10    1.20
   5  -3   4    4.40    0.50
   6  -3   4   15.60    1.80
   7  -3   4    2.00    1.30
   8  -3   4   25.10    2.30
   9  -3   4    1.00    1.30
  10  -3   4   -2.00    1.40
  11  -3   4    5.30    1.90
 -12  -2   4   12.40    1.90
 -11  -2   4    8.60    1.70
 -10  -2   4    7.60    1.50
  -9  -2   4   12.30    1.70
   8   2  -4    2.50    0.80
  -8  -2   4    2.00    1.00
   7   2  -4   30.00    1.60
  -7  -2   4   33.20    2.30
   6   2  -4   35.30    1.70
  -6  -2   4   34.00    1.80
  -6  -2   4   34.60    2.20
   5   2  -4   54.59    2.10
  -5  -2   4   53.89    2.80
  -4  -2   4  225.88    8.40
   3   2  -4   98.09    3.40
  -3  -2   4  100.49    3.80
  -3  -2   4   98.29    4.20
   2   2  -4  179.88    6.00
  -2  -2   4  184.68    6.80
  -2  -2   4  178.18    7.10
   1   2  -4  154.08    5.10
  -1  -2   4  153.38    5.80
  -1  -2   4  149.69    6.00
   0   2  -4    9.50    0.60
   0  -2   4    8.70    0.70
  -1   2  -4  169.98    5.70
   1  -2   4  168.68    6.40
  -2   2  -4   10.90    0.80
   2  -2   4   11.30    0.60
  -3   2  -4    2.60    0.50
   3  -2   4    4.00    0.80
   4  -2   4   37.50    2.20
   5  -2   4   83.19    3.80
   5  -2   4   79.89    3.10
   6  -2   4    1.00    1.10
   7  -2   4    1.70    1.30
   8  -2   4   58.19    3.50
   9  -2   4   -0.30    1.20
  10  -2   4   -1.10    1.30
  12  -2   4    1.20    1.20
 -12  -1   4    0.70    1.20
 -11  -1   4   -0.30    1.20
 -10  -1   4    2.50    1.10
  -9  -1   4    0.20    0.90
   8   1  -4   20.20    1.50
  -8  -1   4   21.40    1.90
   7   1  -4    3.40    0.70
  -7  -1   4    2.50    1.00
  -7  -1   4    4.40    0.90
   6   1  -4   19.70    1.20
  -6  -1   4   16.70    1.50
  -6  -1   4   16.80    1.30
   5   1  -4   20.30    1.10
  -5  -1   4   19.40    1.30
  -5  -1   4   19.70    1.60
  -4  -1   4    3.10    0.70
   3   1  -4   49.30    1.70
  -3  -1   4   42.70    2.10
  -3  -1   4   55.39    2.40
   2   1  -4  407.36   13.00
  -2  -1   4  401.16   14.60
  -2  -1   4  400.16   15.20
   1   1  -4  687.53   22.10
  -1  -1   4  695.03   25.60
  -1  -1   4  681.43   24.80
   0   1  -4    3.80    0.30
   0  -1   4    3.50    0.40
   0  -1   4    2.90    0.60
  -1   1  -4   30.30    1.20
   1  -1   4   31.10    1.30
   2  -1   4  481.35   17.60
   3  -1   4   29.80    1.80
   4  -1   4    2.30    0.80
   5  -1   4    2.10    0.30
   5  -1   4    1.90    0.90
   6  -1   4   53.69    2.90
   7  -1   4  278.87   10.90
   8  -1   4    9.70    1.60
   9  -1   4   11.90    1.80
  10  -1   4    7.80    1.60
  11  -1   4    0.40    1.10
  12  -1   4    2.50    1.30
 -12   0   4    4.20    1.50
 -11   0   4   22.40    2.30
 -10   0   4   -0.30    0.90
  -9   0   4    0.70    0.90
   8   0  -4   -0.50    0.70
  -8   0   4    0.00    0.80
  -8   0   4   -0.50    0.80
   7   0  -4   24.20    1.50
  -7   0   4   25.00    1.70
  -7   0   4   23.00    1.90
   6   0  -4    0.60    0.50
  -6   0   4   -0.20    0.60
  -6   0   4   -0.40    0.70
   5   0  -4   19.90    1.10
  -5   0   4   17.50    1.40
  -5   0   4   19.50    1.20
   4   0  -4   30.00    1.30
  -4   0   4   29.10    1.80
  -4   0   4   30.20    1.60
   3   0  -4  107.39    3.60
  -2   0   4    9.00    0.80
  -2   0   4   13.80    1.00
  -1   0   4    1.50    0.40
  -1   0   4    1.10    0.40
   0   0   4    8.90    0.70
   0   0   4    6.80    0.70
   1   0   4  115.29    4.30
   1   0   4  113.59    4.40
   2   0   4   96.59    3.90
   3   0   4   29.90    1.70
   4   0   4    1.60    0.70
  -5   0  -4   27.90    1.20
   5   0   4   29.00    1.90
   6   0   4   -0.10    0.90
   7   0   4   28.10    2.30
   8   0   4   18.80    1.90
   9   0   4    6.90    1.40
  10   0   4    4.00    1.30
  11   0   4    1.60    1.20
  12   0   4    2.60    1.40
 -12   1   4   -0.70    1.20
 -11   1   4   -0.30    1.20
 -10   1   4   14.40    1.80
  -9   1   4    5.70    1.20
   8  -1  -4    0.00    0.70
  -8   1   4    0.30    0.80
   7  -1  -4   59.39    2.60
  -7   1   4   61.29    2.90
  -7   1   4   60.39    3.20
   6  -1  -4    4.10    0.70
  -6   1   4    4.30    0.80
  -6   1   4    4.30    0.90
   5  -1  -4    2.30    0.50
  -5   1   4    4.00    0.70
  -5   1   4    3.60    0.70
  -4   1   4   91.89    3.70
  -4   1   4   90.59    3.90
  -3   1   4    0.70    0.30
  -2   1   4   86.59    3.40
  -1   1   4  163.68    6.30
  -1   1   4  162.78    6.10
   0   1   4   97.79    3.80
   0   1   4   97.49    3.30
  -1  -1  -4  786.52   28.90
   1   1   4  773.42   28.00
  -2  -1  -4   50.99    2.00
   2   1   4   49.20    2.20
  -3  -1  -4  241.48    8.90
   3   1   4  238.08    8.90
  -4  -1  -4  117.19    4.50
   4   1   4  116.59    4.70
  -5  -1  -4  171.28    6.50
   5   1   4  169.68    6.70
  -6  -1  -4   81.89    3.30
   6   1   4   76.39    3.50
   7   1   4   22.20    1.80
   7   1   4   20.40    1.70
   8   1   4   38.40    2.50
   8   1   4   40.30    2.50
   9   1   4    1.30    0.90
  10   1   4    5.20    1.30
  11   1   4    7.20    1.50
  12   1   4    1.10    1.30
  13   1   4   -1.20    1.20
 -11   2   4   -0.70    1.00
 -10   2   4    5.00    1.30
  -9   2   4    1.50    1.00
  -8   2   4   80.29    4.00
  -7   2   4    3.50    0.90
  -7   2   4    3.60    1.00
  -6   2   4   10.20    1.20
  -6   2   4   10.20    1.10
  -5   2   4   18.30    1.40
  -5   2   4   19.80    1.30
  -4   2   4  138.09    5.50
  -4   2   4  141.39    5.70
  -2   2   4  212.68    6.80
  -2   2   4  203.68    8.00
   0  -2  -4  228.48    8.80
   0   2   4  231.38    8.50
   0   2   4  234.78    7.60
  -1  -2  -4   14.40    0.80
   1   2   4   12.90    0.80
   1   2   4   11.80    0.90
  -2  -2  -4  170.38    6.60
   2   2   4  177.48    6.50
  -3  -2  -4    0.10    0.40
   3   2   4   -0.70    0.40
   3   2   4    0.20    0.40
  -4  -2  -4  140.79    5.40
   4   2   4  138.39    5.10
   4   2   4  138.79    5.40
  -5  -2  -4   12.50    0.90
   5   2   4   12.50    1.10
  -6  -2  -4   27.20    1.40
   6   2   4   25.60    1.80
   7   2   4    4.30    1.00
   7   2   4    5.80    1.10
   8   2   4    5.70    1.20
   8   2   4    7.90    1.20
   9   2   4    6.50    1.30
  10   2   4    5.10    1.30
  11   2   4    0.90    1.10
  12   2   4   -1.40    1.20
  13   2   4   -0.60    1.30
 -10   3   4    1.00    1.00
  -9   3   4    3.30    1.00
  -8   3   4   57.69    3.20
  -7   3   4   16.90    1.60
  -7   3   4   17.30    1.60
  -6   3   4   58.39    2.80
  -6   3   4   54.89    2.90
  -5   3   4   72.69    3.20
  -5   3   4   76.79    3.40
  -4   3   4  103.09    4.20
  -4   3   4  100.59    3.50
  -4   3   4   99.99    4.30
  -3   3   4   14.70    0.70
  -3   3   4   12.80    1.10
  -3   3   4   13.20    1.00
  -1   3   4   10.50    0.50
  -1   3   4    9.80    0.80
   0  -3  -4  856.71   31.50
   0   3   4  832.92   30.40
   0   3   4  854.31   27.30
  -1  -3  -4    1.10    0.30
   1   3   4    0.90    0.30
   1   3   4    1.30    0.40
  -2  -3  -4    0.50    0.40
   2   3   4   -0.30    0.20
   2   3   4    0.40    0.40
  -3  -3  -4    2.70    0.50
   3   3   4    1.70    0.50
   3   3   4    2.00    0.50
  -4  -3  -4    0.20    0.40
   4   3   4   -0.50    0.40
   4   3   4   -0.10    0.50
  -5  -3  -4   31.90    1.70
   5   3   4   44.70    1.90
  -6  -3  -4   13.70    1.10
   6   3   4   13.20    1.10
  -7  -3  -4    8.20    1.00
   7   3   4    7.90    1.30
   7   3   4   10.10    1.10
   8   3   4    0.70    0.90
   9   3   4    0.60    1.00
  10   3   4    1.20    1.20
  11   3   4    0.00    1.10
  12   3   4    0.50    1.30
  11  -4  -4   12.70    1.80
  10  -4  -4    0.80    1.10
   9  -4  -4   -0.30    0.90
   8  -4  -4    9.20    1.50
   7  -4  -4    0.90    0.90
  -7   4   4    1.30    0.90
   6  -4  -4   63.09    3.20
  -6   4   4   62.79    3.00
   5  -4  -4    2.80    0.80
  -5   4   4    2.50    0.50
  -5   4   4    2.00    0.80
   4  -4  -4  104.19    4.60
  -4   4   4  105.89    4.30
   3  -4  -4  230.18    9.30
  -3   4   4  233.28    8.90
  -3   4   4  245.08    7.80
  -2   4   4  135.59    4.50
  -2   4   4  131.99    5.20
   1  -4  -4   74.19    3.20
  -1   4   4   76.69    3.10
  -1   4   4   77.39    2.70
   0   4   4  523.85   19.10
   0   4   4  533.45   17.10
  -1  -4  -4   85.99    3.90
   1   4   4  110.49    3.80
  -2  -4  -4   16.30    1.10
   2   4   4   15.90    1.00
   2   4   4   16.70    0.90
   3   4   4  287.47   10.50
   3   4   4  285.27    9.70
   4   4   4   26.50    1.30
   4   4   4   25.90    1.50
  -5  -4  -4    7.80    0.90
   5   4   4    6.20    0.70
  -6  -4  -4   22.40    1.50
   6   4   4   24.40    1.40
  -7  -4  -4   25.60    1.70
   7   4   4   27.90    2.00
   8   4   4    2.30    0.90
   9   4   4    7.30    1.40
  10   4   4    9.70    1.60
  11   4   4    4.40    1.30
  12   4   4    3.80    1.40
  11  -5  -4    1.50    1.20
  10  -5  -4    4.70    1.30
   9  -5  -4   11.40    1.60
   8  -5  -4   20.70    2.00
   7  -5  -4   19.60    1.80
   6  -5  -4    0.50    0.80
  -6   5   4    0.30    0.80
  -6   5   4    2.30    0.60
   5  -5  -4    5.50    1.00
  -5   5   4    6.20    0.70
  -5   5   4    7.40    1.10
   4  -5  -4    9.80    1.10
  -4   5   4   10.70    1.10
  -4   5   4    9.80    0.80
   3  -5  -4   15.30    1.10
  -3   5   4    9.40    0.70
  -2   5   4  401.96   14.80
   1  -5  -4 1521.95   56.59
  -1   5   4 1531.85   54.69
   0  -5  -4 1244.08   46.10
   0   5   4 1241.98   44.60
  -1  -5  -4   21.00    1.20
   1   5   4   18.80    1.00
   1   5   4   19.40    1.10
  -2  -5  -4  273.47   10.50
   2   5   4  274.27   10.00
   2   5   4  272.17    9.20
  -3  -5  -4   38.60    2.10
   3   5   4   39.80    1.80
   3   5   4   38.40    1.70
  -4  -5  -4   57.59    2.70
   4   5   4   56.99    2.30
   4   5   4   57.69    2.50
  -5  -5  -4   20.40    1.50
   5   5   4   20.20    1.10
  -6  -5  -4   26.10    1.70
   6   5   4   23.00    1.70
  -7  -5  -4   37.50    2.20
   7   5   4   37.20    2.20
  -8  -5  -4    3.50    0.90
   8   5   4    4.00    1.10
   9   5   4    2.80    1.10
  10   5   4    2.00    1.00
  11   5   4    0.90    1.20
  12   5   4    1.70    1.30
  12  -6  -4   11.30    2.00
  10  -6  -4    0.60    1.10
   9  -6  -4    1.20    1.00
   8  -6  -4   36.10    2.50
   7  -6  -4    2.40    1.00
   6  -6  -4   66.19    3.40
  -6   6   4   61.19    3.20
  -6   6   4   64.79    2.70
   5  -6  -4    6.20    1.00
  -5   6   4    6.00    1.00
  -5   6   4    4.90    0.70
   4  -6  -4    6.60    0.90
  -4   6   4    6.00    0.70
   3  -6  -4    1.10    0.60
  -3   6   4    0.10    0.50
  -3   6   4    0.20    0.40
   2  -6  -4    0.40    0.40
  -2   6   4   -0.40    0.50
  -2   6   4   -0.60    0.30
   1  -6  -4  665.33   24.80
  -1   6   4  655.73   21.40
  -1   6   4  657.43   23.90
   0  -6  -4   17.50    1.20
   0   6   4   19.30    1.00
   0   6   4   19.10    1.20
  -1  -6  -4  331.17   12.60
   1   6   4  324.07   12.00
   1   6   4  329.87   10.90
  -2  -6  -4  172.88    7.00
   2   6   4  168.98    6.50
   2   6   4  181.28    6.10
  -3  -6  -4  132.29    5.40
   3   6   4  127.09    4.90
   3   6   4  131.09    4.70
  -4  -6  -4    0.10    0.70
   4   6   4    0.20    0.30
   4   6   4    0.50    0.40
  -5  -6  -4    9.40    1.10
  -6  -6  -4    8.20    1.20
   6   6   4    8.50    1.10
  -7  -6  -4    0.80    0.80
   7   6   4    0.80    0.90
  -8  -6  -4   -0.10    0.80
   8   6   4    0.10    0.80
   9   6   4   21.80    2.00
  10   6   4   14.00    1.80
  11   6   4    2.70    1.20
  12   6   4    1.50    1.30
  12  -7  -4    2.80    1.70
  10  -7  -4    2.90    1.20
   9  -7  -4    5.00    1.30
   8  -7  -4   17.70    1.80
   7  -7  -4    0.70    0.90
  -7   7   4    0.40    0.70
   6  -7  -4    8.20    1.20
  -6   7   4    7.50    1.00
   5  -7  -4   45.00    2.40
  -5   7   4   38.80    1.90
  -5   7   4   38.20    2.30
   4  -7  -4    2.70    0.80
  -4   7   4    3.10    0.60
   3  -7  -4   25.10    1.60
  -3   7   4   27.70    1.70
  -3   7   4   24.40    1.30
   2  -7  -4   16.20    1.20
  -2   7   4   14.60    1.20
  -2   7   4   13.60    1.00
  -1   7   4   94.99    3.50
  -1   7   4   94.29    3.90
   0  -7  -4  821.92   30.80
   0   7   4  827.12   26.70
   0   7   4  820.42   29.70
  -1  -7  -4   92.59    4.10
   1   7   4   93.69    3.50
   1   7   4   94.09    3.70
  -2  -7  -4    5.60    1.00
   2   7   4    6.90    0.80
   2   7   4    7.50    0.70
  -3  -7  -4   65.89    3.30
   3   7   4   66.99    2.80
   3   7   4   66.39    2.70
  -5  -7  -4   62.39    3.00
   5   7   4   50.79    2.60
  -6  -7  -4    4.60    1.10
   6   7   4    2.20    0.90
  -7  -7  -4   37.20    2.40
   7   7   4   37.20    2.20
  -8  -7  -4    3.30    1.10
   8   7   4    3.50    1.10
   9   7   4   -0.50    0.90
  10   7   4    0.30    1.00
  11   7   4   -0.40    1.10
  12   7   4    1.60    1.30
  10  -8  -4   -0.30    0.90
   9  -8  -4    1.10    1.00
   8  -8  -4   12.50    1.60
  -8   8   4   12.30    1.30
   7  -8  -4   24.90    2.00
  -7   8   4   27.20    1.70
   6  -8  -4   19.90    1.80
  -6   8   4   23.60    1.50
   5  -8  -4    2.40    0.90
  -5   8   4    2.10    0.70
   4  -8  -4   64.29    3.10
  -4   8   4   64.09    2.70
  -4   8   4   61.39    3.10
   3  -8  -4   16.30    1.40
  -3   8   4   15.10    1.10
  -3   8   4   15.90    1.50
   2  -8  -4  140.59    5.80
  -2   8   4  136.19    4.90
  -2   8   4  136.79    5.60
  -1   8   4   45.40    2.00
  -1   8   4   46.60    2.40
   0  -8  -4  107.19    4.70
   0   8   4  111.69    4.10
   0   8   4  109.19    4.40
  -1  -8  -4   32.00    2.10
   1   8   4   32.00    1.60
   1   8   4   30.30    1.60
  -2  -8  -4   26.40    2.10
   2   8   4   28.40    1.50
   2   8   4   26.40    1.40
  -3  -8  -4   21.00    1.90
   3   8   4   19.40    1.10
   3   8   4   20.00    1.30
   4   8   4   10.60    1.00
  -5  -8  -4   -1.10    0.90
   5   8   4    0.30    0.70
  -6  -8  -4   67.39    3.40
   6   8   4   64.79    3.10
  -7  -8  -4    7.60    1.30
   7   8   4    7.90    1.20
  -8  -8  -4    7.80    1.30
   8   8   4    5.60    1.20
   9   8   4   12.30    1.60
  10   8   4    3.00    1.10
  11   8   4    1.10    1.20
   9  -9  -4    1.10    1.00
   8  -9  -4    3.20    1.10
  -8   9   4    4.30    1.00
   7  -9  -4    7.00    1.20
  -7   9   4    6.80    1.10
   6  -9  -4    1.50    0.90
  -6   9   4    1.60    0.70
   5  -9  -4    3.60    1.00
  -5   9   4    3.10    0.80
   4  -9  -4  116.79    5.20
  -4   9   4  119.89    4.50
   3  -9  -4    1.80    0.80
  -3   9   4    0.90    0.60
  -3   9   4    2.80    0.90
   2  -9  -4   66.69    3.30
  -2   9   4   64.99    2.70
  -2   9   4   64.79    3.10
  -1   9   4    3.70    0.90
  -1   9   4    2.70    0.60
   0   9   4    9.60    1.00
   0   9   4   10.60    1.10
  -1  -9  -4    5.90    1.20
   1   9   4    4.50    0.70
   1   9   4    6.50    0.90
  -2  -9  -4   86.09    4.10
   2   9   4   86.89    3.50
   2   9   4   86.59    3.50
  -3  -9  -4   35.80    2.50
   3   9   4   32.40    1.80
  -4  -9  -4   53.99    3.10
   4   9   4   54.89    2.60
  -5  -9  -4    6.30    1.30
   5   9   4    8.10    1.00
  -6  -9  -4    2.50    1.10
   6   9   4    1.90    0.90
  -7  -9  -4    5.80    1.20
   7   9   4    3.80    1.10
  -8  -9  -4   21.10    2.00
   8   9   4   21.30    1.90
  -9  -9  -4    4.90    1.30
   9   9   4    6.50    1.30
  10   9   4    3.50    1.20
  11   9   4    0.80    1.20
   9 -10  -4    0.40    1.00
   8 -10  -4    7.50    1.40
  -8  10   4    7.00    1.10
   7 -10  -4    4.30    1.20
  -7  10   4    3.10    0.90
   6 -10  -4    0.60    0.90
  -6  10   4    0.30    0.70
   5 -10  -4    9.90    1.40
  -5  10   4   10.50    1.20
   4 -10  -4   29.30    2.10
  -4  10   4   27.40    1.70
   3 -10  -4   23.30    1.90
  -3  10   4   23.00    1.50
   2 -10  -4    3.30    0.90
  -2  10   4    3.30    0.70
   1 -10  -4    9.60    1.30
  -1  10   4   10.50    1.00
   0 -10  -4   29.10    2.10
   0  10   4   29.30    1.60
  -1 -10  -4    1.60    1.10
   1  10   4    1.90    0.60
  -2 -10  -4   41.60    2.80
   2  10   4   39.90    2.10
  -3 -10  -4    2.60    1.30
   3  10   4    2.90    0.80
  -4 -10  -4   18.20    1.90
   4  10   4   20.50    1.50
  -5 -10  -4   21.40    2.00
   5  10   4   20.40    1.60
  -6 -10  -4    4.60    1.30
   6  10   4    3.70    1.00
  -7 -10  -4    0.80    1.10
   7  10   4    0.20    0.90
  -8 -10  -4    2.60    1.10
   8  10   4   -0.50    0.90
  -9 -10  -4    2.10    1.20
   9  10   4    0.70    1.00
  10  10   4    1.60    1.10
  11  10   4    1.10    1.20
   9 -11  -4    0.50    1.20
   8 -11  -4    1.10    1.10
  -8  11   4    2.80    0.90
   7 -11  -4    0.40    1.00
  -7  11   4    0.50    0.70
   6 -11  -4    7.10    1.30
  -6  11   4    6.80    1.10
   5 -11  -4    1.00    1.00
  -5  11   4    0.50    0.70
   4 -11  -4   25.10    2.10
  -4  11   4   24.40    1.60
   3 -11  -4   36.60    2.40
  -3  11   4   33.80    1.90
   2 -11  -4   14.40    1.60
  -2  11   4   15.50    1.30
   1 -11  -4   16.90    1.70
  -1  11   4   16.90    1.30
   0 -11  -4   23.00    2.00
   0  11   4   21.50    1.50
  -1 -11  -4   28.00    2.40
   1  11   4   30.30    1.80
  -2 -11  -4   10.80    1.60
   2  11   4   10.00    1.20
  -3 -11  -4  198.78    8.40
   3  11   4  197.08    7.20
  -4 -11  -4   -0.70    1.10
   4  11   4   -0.70    0.70
  -5 -11  -4    2.90    1.20
   5  11   4    3.10    0.90
  -6 -11  -4    3.50    1.20
   6  11   4    0.70    0.90
  -7 -11  -4    1.20    1.10
   7  11   4    0.30    0.90
  -8 -11  -4    1.80    1.20
   8  11   4    1.60    1.00
  -9 -11  -4    0.30    1.10
   9  11   4    1.60    1.10
  10  11   4   -0.20    1.10
   8 -12  -4    0.50    1.30
  -8  12   4    0.30    0.90
   7 -12  -4   -0.70    1.10
  -7  12   4    0.00    0.80
   6 -12  -4    6.60    1.40
  -6  12   4    5.70    1.10
   5 -12  -4   14.30    1.70
  -5  12   4   13.00    1.40
   4 -12  -4    0.70    1.10
  -4  12   4    0.50    0.80
   3 -12  -4    1.80    1.20
  -3  12   4    1.20    0.70
   2 -12  -4    1.20    1.20
  -2  12   4    0.30    0.60
   1 -12  -4    8.60    1.50
  -1  12   4    9.00    1.10
   0 -12  -4   -0.40    1.20
   0  12   4    0.20    0.60
  -1 -12  -4    1.20    1.30
   1  12   4   -0.30    0.60
  -2 -12  -4    2.30    1.30
   2  12   4    1.10    0.80
  -3 -12  -4    2.10    1.20
   3  12   4    0.90    0.80
  -4 -12  -4    0.40    1.20
   4  12   4    0.90    0.80
  -5 -12  -4    7.80    1.50
   5  12   4    8.20    1.20
  -6 -12  -4    5.50    1.40
   6  12   4    8.10    1.20
  -7 -12  -4    0.50    1.20
   7  12   4    0.50    0.90
  -8 -12  -4    2.70    1.30
   8  12   4    0.00    1.00
  -9 -12  -4    1.50    1.20
   9  12   4    1.40    1.10
   8 -13  -4   -1.80    1.20
  -8  13   4    0.80    0.90
   7 -13  -4   -2.20    1.10
  -7  13   4   -0.10    0.90
   6 -13  -4    0.70    1.30
  -6  13   4    2.20    0.90
   5 -13  -4   24.80    2.30
  -5  13   4   21.20    1.70
   4 -13  -4    6.30    1.50
  -4  13   4   10.20    1.30
   3 -13  -4    3.20    1.40
  -3  13   4    3.60    0.90
   2 -13  -4    0.90    1.30
  -2  13   4    2.20    0.90
   1 -13  -4    1.00    1.40
  -1  13   4    0.90    0.80
   0 -13  -4    5.40    1.60
   0  13   4    8.30    1.20
  -1 -13  -4   15.20    2.00
   1  13   4   12.50    1.30
  -2 -13  -4   -0.60    1.30
   2  13   4   -0.10    0.70
  -3 -13  -4    7.00    1.60
   3  13   4    6.40    1.10
  -4 -13  -4    0.90    1.40
   4  13   4    0.70    0.80
  -5 -13  -4    3.30    1.40
   5  13   4    1.10    0.90
  -6 -13  -4   -0.10    1.30
   6  13   4    0.90    0.90
  -7 -13  -4    1.20    1.30
   7  13   4   -0.40    0.90
  -8 -13  -4    4.40    1.50
   8  13   4    1.40    1.10
  -9 -13  -4    0.30    1.20
   9  13   4    0.40    1.00
  -8  14   4    1.20    1.10
   7 -14  -4    0.10    1.40
  -7  14   4    1.40    1.00
   6 -14  -4    1.40    1.40
  -6  14   4   -0.10    0.90
   5 -14  -4   -0.30    1.30
  -5  14   4    1.20    0.90
   4 -14  -4    3.90    1.60
  -4  14   4    4.20    1.10
   3 -14  -4    2.50    1.50
  -3  14   4    3.40    1.00
  -2  14   4   10.50    1.30
   1 -14  -4    6.20    1.70
  -1  14   4    8.30    1.20
   0 -14  -4    1.80    1.50
   0  14   4    1.50    0.90
  -1 -14  -4    4.00    1.60
   1  14   4    4.20    1.00
  -2 -14  -4    8.30    1.80
   2  14   4    7.90    1.20
  -3 -14  -4    5.30    1.50
   3  14   4    3.20    1.00
  -4 -14  -4    0.10    1.40
   4  14   4    1.00    0.80
  -5 -14  -4   -0.20    1.30
   5  14   4   -0.80    0.80
  -6 -14  -4    1.70    1.40
   6  14   4    1.20    1.00
  -7 -14  -4    2.20    1.40
   7  14   4   -0.80    0.90
  -8 -14  -4    2.30    1.40
   8  14   4    1.30    1.10
   7 -15  -4   -1.20    1.50
  -7  15   4    1.80    1.10
   6 -15  -4   -4.90    1.40
   6 -15  -4    3.40    1.70
  -6  15   4    1.20    0.90
   5 -15  -4    1.40    1.60
  -5  15   4   -0.20    0.90
   4 -15  -4    7.00    1.90
  -4  15   4    4.00    1.10
   3 -15  -4   -2.60    1.50
  -3  15   4    1.80    0.90
   2 -15  -4    6.20    1.90
  -2  15   4    5.70    1.20
   1 -15  -4    5.60    1.90
  -1  15   4    5.80    1.10
   0 -15  -4   -0.20    1.60
   0  15   4    3.20    1.00
  -1 -15  -4   16.20    2.30
   1  15   4   13.60    1.60
  -2 -15  -4   18.00    2.40
   2  15   4   17.70    1.70
  -3 -15  -4    1.60    1.50
   3  15   4    0.10    0.90
  -4 -15  -4    3.10    1.60
   4  15   4    3.10    1.10
  -5 -15  -4    1.60    1.40
   5  15   4    1.00    1.00
  -6 -15  -4   -0.50    1.40
   6  15   4   -0.20    0.90
  -7 -15  -4    0.00    1.30
   7  15   4    2.80    1.10
   6 -16  -4    0.00    1.80
  -6  16   4    0.30    0.90
   5 -16  -4    1.60    1.80
   5 -16  -4    5.10    1.80
  -5  16   4    1.80    1.10
   4 -16  -4   -0.50    1.80
   4 -16  -4    3.60    1.70
  -4  16   4    0.80    1.00
   3 -16  -4    4.30    1.60
   3 -16  -4   -0.20    1.70
  -3  16   4    0.30    1.00
   2 -16  -4   -0.50    1.70
  -2  16   4    3.50    1.10
   1 -16  -4   -3.70    1.60
  -1  16   4    0.00    0.90
   0 -16  -4    1.50    1.80
   0  16   4    3.50    1.10
  -1 -16  -4    2.40    1.80
   1  16   4   -0.40    0.90
  -2 -16  -4    1.00    1.60
   2  16   4   -0.90    0.90
  -3 -16  -4    7.70    2.00
   3  16   4    7.30    1.40
  -4 -16  -4    0.70    1.40
   4  16   4    1.40    1.00
  -5 -16  -4    0.90    1.50
   5  16   4    0.30    1.00
  -6 -16  -4    1.30    1.50
   3 -17  -4    2.60    2.00
  -3  17   4    3.30    1.20
   2 -17  -4   -0.90    1.80
  -2  17   4    1.20    1.00
   1 -17  -4    1.40    1.90
  -1  17   4    0.50    0.90
   0 -17  -4   -1.30    1.70
   0  17   4    1.30    1.10
  -1 -17  -4   -0.90    1.70
   1  17   4    0.40    1.00
  -2 -17  -4    1.80    1.80
   2  17   4    1.80    1.10
  -3 -17  -4    6.80    1.90
   3  17   4    6.80    1.40
   3  15  -5    1.60    1.10
  -3 -15   5    2.60    1.50
   2  15  -5    0.00    1.00
  -2 -15   5    1.30    1.40
   1  15  -5    0.40    1.00
  -1 -15   5    3.20    1.40
   0  15  -5    0.00    1.10
   0 -15   5    2.10    1.50
  -1  15  -5    0.30    1.00
  -2  15  -5    1.90    1.10
  -5 -14   5   -1.10    1.30
   4  14  -5   -0.40    1.00
  -4 -14   5    5.00    1.60
   3  14  -5    0.50    1.00
  -3 -14   5    1.40    1.40
   2  14  -5   -0.80    0.90
  -2 -14   5   -0.30    1.30
   1  14  -5    2.60    1.10
  -1 -14   5    4.10    1.50
   0  14  -5    0.70    1.00
   0 -14   5   -0.30    1.20
  -1  14  -5    1.70    1.10
  -2  14  -5    1.90    1.10
  -3  14  -5    0.30    1.00
   3 -14   5   -0.30    1.60
  -4  14  -5    1.80    1.10
   4 -14   5   -2.20    1.60
   5 -14   5   -0.60    1.90
  -6 -13   5    3.80    1.60
  -5 -13   5    2.50    1.50
   4  13  -5    1.20    0.90
  -4 -13   5   -0.30    1.30
   3  13  -5   -0.30    0.90
  -3 -13   5   -0.10    1.20
   2  13  -5    1.10    0.90
  -2 -13   5    2.40    1.40
   1  13  -5   -1.30    0.80
  -1 -13   5    2.00    1.30
   0  13  -5    9.60    1.40
   0 -13   5   10.80    1.70
  -1  13  -5   -0.40    0.80
   1 -13   5    1.80    1.30
  -2  13  -5   -0.80    0.90
   2 -13   5    0.20    1.50
  -3  13  -5   -0.20    0.90
   3 -13   5    0.60    1.60
  -4  13  -5    0.00    0.90
   4 -13   5   -1.20    1.60
  -5  13  -5   -0.20    0.90
   5 -13   5   -0.60    1.80
  -6  13  -5    0.50    1.00
   6 -13   5    0.30    1.90
  -7 -12   5    6.10    1.80
  -6 -12   5    2.90    1.50
  -5 -12   5    1.20    1.40
   4  12  -5   -0.70    0.90
  -4 -12   5    0.20    1.20
   3  12  -5   -0.30    0.80
  -3 -12   5    3.50    1.40
   2  12  -5    2.40    0.90
  -2 -12   5    3.10    1.30
   1  12  -5    0.70    0.90
  -1 -12   5    3.10    1.30
   0  12  -5   16.50    1.60
   0 -12   5   18.40    2.00
  -1  12  -5    0.50    0.90
   1 -12   5   -0.20    1.10
   1 -12   5    2.50    1.40
  -2  12  -5    0.00    0.80
   2 -12   5    0.10    1.40
  -3  12  -5   -0.60    0.90
   3 -12   5   -0.80    1.50
  -4  12  -5    4.30    1.20
   4 -12   5    2.80    1.70
  -5  12  -5    0.00    0.90
   5 -12   5    0.80    1.70
  -6  12  -5   -0.10    1.00
   6 -12   5   -1.60    1.70
  -7  12  -5    0.40    1.00
   7 -12   5   -1.40    1.90
  -8 -11   5    3.00    1.50
  -7 -11   5    5.60    1.60
  -6 -11   5    2.30    1.40
   5  11  -5   -0.20    0.70
  -5 -11   5    2.40    1.40
   4  11  -5    0.70    0.80
  -4 -11   5    2.00    1.30
   3  11  -5    0.30    0.80
  -3 -11   5    3.60    1.30
   2  11  -5   -0.10    0.80
  -2 -11   5    1.30    1.10
   1  11  -5    2.70    0.90
  -1 -11   5    4.20    1.30
   0  11  -5    1.40    0.90
   0 -11   5    0.70    1.20
   0 -11   5    1.00    1.20
  -1  11  -5    2.20    0.90
   1 -11   5    4.00    1.30
   1 -11   5    4.60    1.50
  -2  11  -5    0.10    0.70
   2 -11   5   -1.60    1.20
   2 -11   5    1.10    1.10
  -3  11  -5   -0.50    0.80
   3 -11   5   -0.50    1.40
  -4  11  -5    2.60    1.00
   4 -11   5    0.00    1.50
  -5  11  -5    1.40    0.90
   5 -11   5    2.70    1.70
  -6  11  -5    1.50    1.00
   6 -11   5   -0.10    1.70
  -7  11  -5    0.00    1.00
   7 -11   5   -0.10    1.80
  -8  11  -5   -0.30    1.00
   8 -11   5   -0.80    1.90
  -9 -10   5   -0.50    1.30
  -8 -10   5    2.60    1.50
  -7 -10   5    2.70    1.40
  -6 -10   5   -0.50    1.10
   5  10  -5    2.10    0.80
  -5 -10   5    1.60    1.30
   4  10  -5    5.70    1.00
  -4 -10   5    6.20    1.50
   3  10  -5    7.80    1.10
  -3 -10   5    7.60    1.50
   2  10  -5    2.30    0.80
  -2 -10   5    0.60    1.10
   1  10  -5    9.20    1.20
  -1 -10   5   10.30    1.50
   0  10  -5    0.80    0.80
   0 -10   5    0.90    1.00
   0 -10   5    1.70    1.20
  -1  10  -5   11.60    1.30
   1 -10   5   12.50    1.60
   1 -10   5   11.30    1.70
  -2  10  -5    0.70    0.80
   2 -10   5    0.20    1.00
   2 -10   5    1.40    1.30
  -3  10  -5    2.90    0.90
   3 -10   5    5.10    1.60
  -4  10  -5   -0.40    0.80
   4 -10   5    1.80    1.50
  -5  10  -5   -0.20    0.80
   5 -10   5    0.60    1.50
  -6  10  -5    1.30    0.90
   6 -10   5   -0.70    1.60
  -7  10  -5    2.40    1.00
   7 -10   5   -0.50    1.70
  -8  10  -5    0.20    0.90
   8 -10   5    0.80    1.70
   9 -10   5   -0.90    1.90
 -10  -9   5    1.80    1.50
  -9  -9   5    2.50    1.50
  -8  -9   5    6.70    1.60
  -7  -9   5    2.50    1.40
  -6  -9   5   11.60    1.80
   5   9  -5    6.10    1.00
  -5  -9   5    6.20    1.50
   4   9  -5    0.50    0.60
  -4  -9   5    1.60    1.10
   3   9  -5    0.90    0.70
  -3  -9   5   -0.30    1.00
   2   9  -5    3.40    0.80
  -2  -9   5    2.40    1.10
   1   9  -5   26.00    1.70
  -1  -9   5   26.40    2.10
  -1  -9   5   29.10    2.10
   0   9  -5   57.09    2.70
   0  -9   5   60.29    3.20
   0  -9   5   59.79    3.20
  -1   9  -5    6.20    1.00
   1  -9   5    4.30    1.20
   1  -9   5    5.30    1.30
  -2   9  -5    1.10    0.80
   2  -9   5    1.30    1.00
   2  -9   5    1.80    1.30
  -3   9  -5    9.30    1.20
   3  -9   5    7.60    1.60
  -4   9  -5   12.60    1.40
   4  -9   5    9.10    1.80
  -5   9  -5    4.60    1.10
   5  -9   5    2.80    1.50
  -6   9  -5    0.20    0.80
   6  -9   5    0.00    1.30
  -7   9  -5    0.80    0.90
   7  -9   5   -0.20    1.50
   8  -9   5   -0.90    1.70
   9  -9   5    2.00    1.90
 -10  -8   5    3.40    1.50
  -9  -8   5    0.00    1.40
  -8  -8   5    0.30    1.20
  -7  -8   5    2.50    1.30
  -6  -8   5    1.30    1.00
   5   8  -5    0.80    0.60
  -5  -8   5    1.30    1.10
   4   8  -5    3.60    0.80
  -4  -8   5    2.30    1.10
   3   8  -5   98.09    3.90
  -3  -8   5  103.19    4.80
   2   8  -5    2.60    0.70
  -2  -8   5    2.50    1.10
  -2  -8   5    3.10    0.90
   1   8  -5    3.70    0.80
  -1  -8   5    3.80    1.10
  -1  -8   5    4.70    1.10
   0   8  -5   45.20    2.20
   0  -8   5   43.80    2.70
   0  -8   5   41.30    2.60
  -1   8  -5   94.99    3.80
   1  -8   5   94.79    4.40
   1  -8   5   96.49    4.40
  -2   8  -5   65.59    2.90
   2  -8   5   65.59    3.30
   2  -8   5   64.69    3.60
  -3   8  -5   11.20    1.30
   3  -8   5   13.90    1.40
   3  -8   5   10.10    1.70
  -4   8  -5   26.70    1.80
   4  -8   5   24.80    2.40
  -5   8  -5    0.00    0.70
   5  -8   5    0.90    1.20
  -6   8  -5    0.10    0.70
   6  -8   5   -0.50    1.30
  -7   8  -5    0.20    0.80
   7  -8   5   -1.10    1.40
   8  -8   5    1.50    1.70
   9  -8   5   -1.70    1.70
  10  -8   5    0.90    2.00
 -11  -7   5    2.20    1.60
 -10  -7   5    0.20    1.40
  -9  -7   5    7.60    1.70
  -8  -7   5    5.60    1.60
  -7  -7   5   15.10    1.90
   6   7  -5    6.50    0.90
  -6  -7   5    6.10    1.30
   5   7  -5    7.10    0.90
  -5  -7   5    5.80    1.30
   4   7  -5   77.49    3.10
  -4  -7   5   75.99    4.00
   3   7  -5  111.89    4.20
  -3  -7   5  114.09    5.10
  -3  -7   5  108.69    4.50
   2   7  -5   45.20    2.10
  -2  -7   5   46.40    2.70
  -2  -7   5   45.80    2.40
   1   7  -5    0.40    0.50
  -1  -7   5   -1.30    0.80
  -1  -7   5    0.30    0.80
   0   7  -5    0.30    0.50
   0  -7   5   -1.50    0.70
   0  -7   5   -1.10    0.90
  -1   7  -5   72.19    3.10
   1  -7   5   73.99    3.70
   1  -7   5   76.79    3.60
  -2   7  -5    5.50    0.90
   2  -7   5    6.20    1.10
   2  -7   5    4.70    1.30
  -3   7  -5    5.70    0.90
   3  -7   5    6.70    1.00
   3  -7   5    4.50    1.30
  -4   7  -5    3.70    0.90
   4  -7   5    3.00    1.30
  -5   7  -5    2.50    0.90
   5  -7   5    2.60    1.40
  -6   7  -5    8.40    1.20
   6  -7   5    7.50    1.70
  -7   7  -5    6.80    1.20
   7  -7   5    5.00    1.70
   8  -7   5    2.00    1.50
   9  -7   5   -0.90    1.60
  10  -7   5   -0.70    1.80
  11  -7   5   -0.90    2.10
 -11  -6   5    5.70    1.70
 -10  -6   5    1.60    1.30
  -9  -6   5    6.00    1.60
  -8  -6   5   -0.80    1.10
  -7  -6   5    3.40    1.30
   6   6  -5    0.30    0.60
  -6  -6   5    0.40    1.00
   5   6  -5    7.30    0.80
  -5  -6   5    4.10    1.20
   4   6  -5   58.99    2.50
  -4  -6   5   61.19    3.30
   3   6  -5    3.20    0.60
  -3  -6   5    3.70    0.70
  -3  -6   5    2.70    1.00
   2   6  -5    7.10    0.80
  -2  -6   5    6.80    0.90
  -2  -6   5    6.90    1.10
   1   6  -5   49.90    2.10
  -1  -6   5   46.50    2.50
  -1  -6   5   46.80    2.60
   0   6  -5    5.90    0.70
   0  -6   5    5.00    1.10
   0  -6   5    5.80    1.00
  -1   6  -5   17.80    1.20
   1  -6   5   20.10    1.70
   1  -6   5   21.00    1.60
  -2   6  -5    3.40    0.70
   2  -6   5    5.20    1.20
   2  -6   5    4.00    0.80
  -3   6  -5   31.50    1.70
   3  -6   5   27.80    2.40
   3  -6   5   26.60    1.80
  -4   6  -5   77.69    3.30
   4  -6   5   80.79    4.10
  -5   6  -5   47.00    2.40
   5  -6   5   49.50    3.10
  -6   6  -5    5.60    1.00
   6  -6   5    4.70    1.50
   7  -6   5    0.90    1.40
   8  -6   5    0.70    1.50
   9  -6   5    2.10    1.70
  10  -6   5   -0.40    1.70
  11  -6   5    0.10    1.90
 -11  -5   5   -0.30    1.30
 -10  -5   5    5.90    1.70
  -9  -5   5    2.50    1.30
  -8  -5   5    3.10    1.30
  -7  -5   5   37.50    2.70
   6   5  -5    2.00    0.60
  -6  -5   5    0.60    0.90
   5   5  -5   -0.10    0.50
  -5  -5   5   -0.30    0.90
   4   5  -5  226.38    7.60
  -4  -5   5  218.98    8.40
  -4  -5   5  225.08    9.10
   3   5  -5   28.70    1.50
  -3  -5   5   34.40    2.10
  -3  -5   5   31.20    1.70
   2   5  -5   15.10    1.00
  -2  -5   5   16.50    1.30
  -2  -5   5   16.70    1.50
   1   5  -5    7.90    0.70
  -1  -5   5    8.80    1.00
  -1  -5   5    8.20    1.00
   0   5  -5   90.89    3.40
   0  -5   5   89.89    3.90
   0  -5   5   89.39    4.00
  -1   5  -5    0.40    0.50
   1  -5   5    0.90    0.60
   1  -5   5   -0.20    0.80
  -2   5  -5   68.49    2.80
   2  -5   5   67.39    3.00
   2  -5   5   70.59    3.30
  -3   5  -5   57.89    2.50
   3  -5   5   56.59    2.60
   3  -5   5   54.19    3.00
  -4   5  -5   37.00    2.00
  -5   5  -5   29.90    1.70
   5  -5   5   31.60    2.60
   6  -5   5    4.90    1.40
   7  -5   5    0.70    1.30
   8  -5   5    3.60    1.60
   9  -5   5   -0.20    1.50
  10  -5   5   -0.40    1.60
  11  -5   5    0.50    1.90
  12  -5   5   -2.90    1.80
 -12  -4   5    1.20    1.40
 -11  -4   5    1.40    1.40
 -10  -4   5   13.30    1.90
  -9  -4   5    4.70    1.40
  -8  -4   5    1.00    1.10
  -7  -4   5    4.00    1.20
   6   4  -5    5.70    0.70
  -6  -4   5    4.90    1.20
   5   4  -5    0.20    0.50
  -5  -4   5    0.30    0.50
  -5  -4   5   -0.80    0.60
   4   4  -5  267.87    8.80
  -4  -4   5  258.47    9.70
  -4  -4   5  260.97   10.50
   3   4  -5    7.00    0.60
  -3  -4   5    8.80    0.80
  -3  -4   5    7.60    1.00
   2   4  -5    0.10    0.30
  -2  -4   5    0.10    0.60
  -2  -4   5   -0.60    0.50
   1   4  -5  176.28    6.00
  -1  -4   5  176.68    7.00
  -1  -4   5  176.28    6.80
   0   4  -5  191.38    6.40
   0  -4   5  190.48    7.40
   0  -4   5  184.48    7.30
  -1   4  -5   10.10    0.80
   1  -4   5   11.70    1.00
   1  -4   5   11.80    1.20
  -2   4  -5  106.99    3.90
   2  -4   5  105.99    4.30
   2  -4   5  108.49    4.60
  -3   4  -5    0.50    0.50
   3  -4   5    1.10    0.90
   3  -4   5    0.90    0.50
  -5   4  -5   -0.60    0.60
   5  -4   5    1.60    1.20
   6  -4   5    2.20    1.30
   7  -4   5   -0.20    1.20
   8  -4   5    5.60    1.60
   9  -4   5    2.60    1.60
  10  -4   5    1.20    1.70
  11  -4   5    2.50    1.80
 -12  -3   5    4.90    1.60
 -11  -3   5   18.70    2.30
 -10  -3   5    9.20    1.70
  -9  -3   5   22.10    2.20
  -8  -3   5   66.39    3.70
  -7  -3   5    1.50    1.00
   6   3  -5   11.20    0.90
  -6  -3   5   10.10    1.40
   5   3  -5   42.90    1.80
  -5  -3   5   41.10    2.10
   4   3  -5    8.20    0.60
  -4  -3   5    8.00    1.10
  -4  -3   5    7.70    0.80
   3   3  -5  105.19    3.80
  -3  -3   5  112.79    4.70
  -3  -3   5  112.89    4.30
   2   3  -5   30.00    1.30
  -2  -3   5   28.70    1.50
  -2  -3   5   31.20    1.70
   1   3  -5    0.40    0.30
  -1  -3   5   -0.60    0.40
  -1  -3   5    0.70    0.50
   0   3  -5  100.39    3.60
   0  -3   5  103.59    4.20
   0  -3   5  102.99    4.20
  -1   3  -5   71.19    2.60
   1  -3   5   69.09    2.90
   1  -3   5   71.79    3.20
  -2   3  -5    4.20    0.60
   2  -3   5    3.40    0.90
   2  -3   5    5.10    0.50
  -3   3  -5  122.69    4.40
   3  -3   5  118.79    4.60
  -4   3  -5    0.20    0.60
   4  -3   5    0.40    1.00
   5  -3   5    4.80    1.30
   6  -3   5   23.30    2.10
   7  -3   5    1.00    1.30
   8  -3   5    0.60    1.30
   9  -3   5    3.00    1.50
  10  -3   5   -0.40    1.40
  11  -3   5   -2.20    1.50
 -12  -2   5    4.80    1.60
 -11  -2   5    2.00    1.30
 -10  -2   5   -0.10    1.10
  -9  -2   5    6.70    1.40
  -8  -2   5   -0.70    0.90
  -7  -2   5  147.99    6.50
   6   2  -5  107.59    3.90
  -6  -2   5  104.09    4.40
  -6  -2   5  111.49    5.00
   5   2  -5  199.88    6.90
  -5  -2   5  213.58    7.80
   4   2  -5    0.70    0.30
  -4  -2   5   -0.30    0.70
  -4  -2   5    0.70    0.50
   3   2  -5  208.48    6.90
  -3  -2   5  202.08    7.80
  -3  -2   5  219.88    8.30
   2   2  -5   81.29    2.80
  -2  -2   5   82.89    3.60
  -2  -2   5   82.69    3.30
   1   2  -5   29.90    1.20
  -1  -2   5   30.20    1.60
  -1  -2   5   27.90    1.60
   0   2  -5  385.86   12.60
   0  -2   5  388.26   14.30
   0  -2   5  389.76   14.60
  -1   2  -5   66.39    2.50
   1  -2   5   66.79    2.80
   1  -2   5   70.69    3.00
  -2   2  -5   10.70    0.80
   2  -2   5   10.80    0.70
  -3   2  -5  400.46   13.10
   3  -2   5  389.16   14.70
   4  -2   5   92.59    4.20
   5  -2   5    6.40    1.30
   6  -2   5   13.20    1.60
   7  -2   5   25.30    2.40
   8  -2   5   10.60    1.70
   9  -2   5    1.60    1.40
  10  -2   5   -1.00    1.40
  12  -2   5    1.80    1.30
 -13  -1   5    2.00    1.40
 -12  -1   5    5.10    1.60
 -11  -1   5    9.70    1.80
 -10  -1   5    7.00    1.40
  -9  -1   5   16.20    1.90
  -8  -1   5   39.90    2.60
  -7  -1   5    7.00    1.00
  -7  -1   5    6.50    1.20
   6   1  -5   73.99    2.80
  -6  -1   5   74.39    3.30
  -6  -1   5   75.39    3.60
   5   1  -5  117.19    4.10
  -5  -1   5  122.39    4.80
   4   1  -5   93.79    3.10
  -4  -1   5   83.39    4.00
  -4  -1   5   94.39    3.70
   3   1  -5   -0.10    0.20
  -3  -1   5   -0.10    0.50
  -3  -1   5    1.00    0.50
   2   1  -5    0.40    0.20
  -2  -1   5   -0.10    0.40
  -2  -1   5    0.90    0.50
   1   1  -5  155.28    4.90
  -1  -1   5  156.08    5.90
  -1  -1   5  135.39    5.70
   0   1  -5  104.89    3.50
   0  -1   5  103.69    4.10
   0  -1   5   99.49    4.10
  -1   1  -5    3.40    0.40
   1  -1   5    1.60    0.40
   1  -1   5    4.10    0.40
   2  -1   5  125.89    4.90
   2  -1   5  121.09    4.60
   3  -1   5  391.76   14.50
   4  -1   5  120.09    5.00
   5  -1   5   51.99    2.80
   6  -1   5   10.00    1.40
   7  -1   5    4.40    1.40
   8  -1   5   23.90    2.20
   9  -1   5    4.30    1.40
  10  -1   5    1.90    1.50
  11  -1   5   -1.30    1.00
  12  -1   5    1.30    1.30
 -12   0   5    1.10    1.40
 -11   0   5    1.10    1.20
 -10   0   5    3.10    1.20
  -9   0   5    1.10    1.00
  -8   0   5   38.50    2.70
  -8   0   5   46.50    2.40
  -7   0   5    0.80    0.70
  -7   0   5   -0.90    0.70
   6   0  -5   38.30    1.70
  -6   0   5   38.90    2.30
  -6   0   5   39.50    2.00
   5   0  -5   40.10    1.60
  -5   0   5   38.00    2.20
  -5   0   5   38.40    2.00
   4   0  -5   59.59    2.10
  -4   0   5   56.49    2.50
   3   0  -5  240.28    7.90
  -3   0   5  249.38    9.10
  -3   0   5  242.58    9.50
  -2   0   5   79.59    3.40
  -2   0   5   88.19    3.60
  -1   0   5    4.80    0.60
  -1   0   5    1.90    0.40
   0   0   5 1332.77   49.30
   1   0   5  117.29    4.00
   1   0   5   89.29    4.10
  -2   0  -5  101.09    3.70
   2   0   5   95.89    4.00
   3   0   5  124.99    5.00
   4   0   5   52.29    2.60
   5   0   5   -0.60    0.80
   6   0   5   28.80    2.10
   7   0   5   97.19    4.50
   8   0   5   10.20    1.60
   9   0   5    7.30    1.50
  10   0   5    0.60    1.10
  11   0   5    1.10    1.10
  12   0   5    3.20    1.40
 -12   1   5   13.40    2.10
 -11   1   5    4.60    1.50
 -10   1   5    1.50    1.10
  -9   1   5    0.70    1.00
  -8   1   5   -0.20    0.90
  -8   1   5    0.90    0.90
  -7   1   5   67.49    3.10
  -7   1   5   60.79    3.20
   6  -1  -5    1.60    0.50
  -6   1   5    1.00    0.70
  -6   1   5    0.90    0.70
   5  -1  -5    1.20    0.40
  -5   1   5    0.20    0.60
  -5   1   5    0.60    0.60
   4  -1  -5   37.50    1.50
  -4   1   5   40.40    1.90
  -3   1   5   35.10    1.70
  -3   1   5   35.00    1.90
  -2   1   5   36.00    1.70
  -2   1   5   34.70    1.80
  -1   1   5  540.35   20.20
   0   1   5   19.80    1.10
   0   1   5   18.80    0.90
  -1  -1  -5  376.96   14.10
   1   1   5  379.36   13.80
  -2  -1  -5  135.19    5.10
   2   1   5  132.49    5.20
   3   1   5  124.39    4.90
   4   1   5   79.49    3.40
  -5  -1  -5   50.79    2.10
   5   1   5   54.99    2.70
   6   1   5    3.10    1.00
   7   1   5    8.90    1.30
   8   1   5    3.10    1.10
   8   1   5   -0.20    1.10
   9   1   5    1.50    1.00
  10   1   5   -0.60    1.00
  11   1   5   -0.40    1.10
  12   1   5    1.10    1.20
 -12   2   5    6.60    1.70
 -11   2   5    0.40    1.20
 -10   2   5    5.60    1.40
  -9   2   5   -1.00    0.90
  -8   2   5   15.80    1.50
  -8   2   5   13.40    1.60
   7  -2  -5   60.99    2.70
  -7   2   5   62.49    3.30
  -7   2   5   63.19    3.10
  -6   2   5    1.50    0.80
  -6   2   5    1.90    0.70
  -5   2   5   13.40    1.20
  -5   2   5   13.30    1.20
  -4   2   5  121.89    4.80
  -4   2   5  118.09    5.00
  -3   2   5    7.40    0.80
  -3   2   5    9.50    0.90
  -2   2   5  301.17   11.40
  -2   2   5  295.47   11.00
  -1   2   5  208.48    6.70
  -1   2   5  203.98    7.90
   0  -2  -5  320.97   12.30
   0   2   5  333.77   10.60
   0   2   5  322.07   11.90
  -1  -2  -5   49.60    2.10
   1   2   5   49.20    1.90
   1   2   5   47.10    2.10
  -2  -2  -5   13.10    0.80
   2   2   5   12.90    1.00
  -3  -2  -5    2.40    0.40
   3   2   5    3.20    0.60
   3   2   5    3.10    0.60
  -4  -2  -5  252.17    9.50
   4   2   5  254.37    9.50
   4   2   5  255.57    8.80
  -5  -2  -5   46.30    2.00
   5   2   5   42.40    2.30
   5   2   5   51.29    2.40
   7   2   5   69.39    3.40
   7   2   5   74.09    3.40
   8   2   5    1.50    0.90
   8   2   5    1.10    1.00
   9   2   5    0.00    0.90
  10   2   5   -0.90    1.00
  11   2   5   -0.90    1.10
  12   2   5    1.30    1.50
  12  -3  -5    3.00    1.40
 -10   3   5    4.80    1.30
  -9   3   5   -0.50    0.90
  -8   3   5    8.70    1.30
  -8   3   5    8.10    1.30
  -7   3   5   15.00    1.50
  -7   3   5   14.00    1.50
  -6   3   5    1.70    0.80
  -6   3   5    1.40    0.70
  -5   3   5   61.69    3.00
  -5   3   5   58.79    2.80
  -4   3   5   11.40    1.00
  -4   3   5   11.20    1.10
  -3   3   5    2.10    0.30
  -3   3   5    2.20    0.60
   2  -3  -5  348.77   13.20
  -2   3   5  367.26   11.10
  -2   3   5  314.57   12.60
   1  -3  -5   33.50    1.80
  -1   3   5   36.40    1.70
  -1   3   5   36.20    1.30
   0  -3  -5  352.36   15.60
   0   3   5  440.36   15.10
   0   3   5  451.15   13.50
  -1  -3  -5   46.40    2.00
   1   3   5   47.00    2.00
   1   3   5   45.00    1.80
  -2  -3  -5   88.19    3.50
   2   3   5   87.19    3.30
   2   3   5   89.59    3.50
  -3  -3  -5    0.10    0.40
   3   3   5   -0.30    0.40
   3   3   5   -0.50    0.40
  -4  -3  -5   69.49    2.90
   4   3   5   73.69    3.00
   4   3   5   68.59    3.00
  -5  -3  -5    3.90    0.60
   5   3   5    4.40    0.70
   5   3   5    2.70    0.80
  -6  -3  -5    2.60    0.30
   6   3   5    6.40    0.90
   7   3   5   98.89    4.10
   7   3   5   91.09    4.20
   8   3   5    0.20    0.80
   9   3   5    0.50    1.00
  10   3   5    4.20    1.30
  11   3   5   -1.80    1.10
  12   3   5    3.20    1.50
  12  -4  -5    2.50    1.30
  11  -4  -5    0.70    1.10
  10  -4  -5    2.10    1.10
   9  -4  -5    7.60    1.40
  -8   4   5   35.50    2.30
  -7   4   5    4.10    1.10
  -6   4   5   -0.30    0.80
   5  -4  -5   48.20    2.40
  -5   4   5   34.10    1.60
  -5   4   5   41.10    2.20
   4  -4  -5   26.60    1.80
  -4   4   5   27.90    1.70
  -4   4   5   27.50    1.20
  -3   4   5    5.80    0.80
  -3   4   5    4.90    0.50
   2  -4  -5   36.90    2.00
  -2   4   5   37.50    1.40
   1  -4  -5  591.04   22.00
  -1   4   5  587.14   18.80
  -1   4   5  570.84   21.20
   0  -4  -5  176.88    6.90
   0   4   5  174.48    6.60
   0   4   5  174.28    5.90
  -2  -4  -5    0.00    0.30
   2   4   5    0.40    0.40
   2   4   5    0.00    0.40
  -3  -4  -5    1.40    0.40
   3   4   5    2.10    0.50
   3   4   5    1.60    0.50
   4   4   5    5.40    0.70
   4   4   5    4.90    0.80
  -5  -4  -5   26.70    1.60
   5   4   5   29.70    1.60
   5   4   5   29.20    1.70
  -6  -4  -5   47.90    2.30
   6   4   5   45.10    2.20
   7   4   5    8.50    1.40
   8   4   5    3.90    1.10
   9   4   5    2.60    1.10
  10   4   5   -0.20    1.00
  11   4   5    2.50    1.30
  12   4   5    0.90    1.30
  11  -5  -5    5.00    1.50
  10  -5  -5    5.60    1.40
   9  -5  -5    0.60    1.00
   8  -5  -5    8.20    1.50
   7  -5  -5    0.40    0.90
  -7   5   5    1.40    0.90
   6  -5  -5   33.00    2.30
  -6   5   5   34.70    2.20
   5  -5  -5    0.10    0.60
  -5   5   5   -0.30    0.60
  -5   5   5   -0.20    0.40
   4  -5  -5   18.90    1.50
  -4   5   5   19.30    1.40
  -4   5   5   18.60    1.00
   2  -5  -5    3.70    0.70
  -2   5   5    3.80    0.70
  -2   5   5    3.50    0.40
   1  -5  -5  125.89    5.10
  -1   5   5  120.29    4.90
   0  -5  -5   62.39    2.80
   0   5   5   58.49    2.60
  -1  -5  -5  210.98    8.20
   1   5   5  205.98    7.80
   1   5   5  214.38    7.10
  -2  -5  -5  181.28    7.30
   2   5   5  185.78    7.00
   2   5   5  192.78    6.50
  -3  -5  -5    5.00    0.80
   3   5   5    5.40    0.70
   3   5   5    5.60    0.60
  -4  -5  -5   -0.10    0.60
   4   5   5    0.10    0.40
   4   5   5    0.20    0.50
  -5  -5  -5   54.19    2.70
   5   5   5   56.49    2.40
  -6  -5  -5   48.20    2.50
   6   5   5   48.80    2.50
  -7  -5  -5    6.50    1.00
   7   5   5    6.70    1.20
   8   5   5    1.20    0.90
   9   5   5    6.60    1.30
  10   5   5    5.00    1.30
  11   5   5    8.50    1.50
  12   5   5    0.70    1.20
  11  -6  -5    2.20    1.30
  10  -6  -5    9.70    1.60
   9  -6  -5   22.70    2.20
   8  -6  -5   65.79    3.70
   7  -6  -5   30.80    2.30
  -7   6   5   32.20    2.20
   6  -6  -5   12.50    1.50
  -6   6   5   11.90    1.00
  -6   6   5   10.60    1.30
   5  -6  -5    2.90    0.80
  -5   6   5    1.60    0.50
  -5   6   5    3.00    1.00
   4  -6  -5   -0.10    0.60
  -4   6   5   -0.10    0.20
  -4   6   5    0.00    0.40
   3  -6  -5    4.40    0.80
  -3   6   5    3.30    0.50
  -3   6   5    3.20    0.70
   2  -6  -5    5.50    0.80
  -2   6   5    7.50    0.60
  -2   6   5    8.70    0.90
   1  -6  -5    4.10    0.70
  -1   6   5    2.80    0.50
  -1   6   5    4.60    0.70
   0  -6  -5  232.78    9.10
   0   6   5  233.78    8.70
   0   6   5  229.68    7.80
  -1  -6  -5   22.00    1.40
   1   6   5   22.80    1.20
   1   6   5   21.10    1.30
  -2  -6  -5    0.40    0.60
   2   6   5    0.70    0.40
   2   6   5    0.10    0.40
  -3  -6  -5    1.40    0.80
   3   6   5    1.40    0.40
   3   6   5    1.30    0.50
  -4  -6  -5    9.00    1.10
   4   6   5    8.60    1.00
   4   6   5    8.70    0.80
  -5  -6  -5   62.29    2.70
   5   6   5   40.70    2.30
  -6  -6  -5   -0.10    0.80
   6   6   5    0.50    0.80
  -7  -6  -5   11.00    1.30
   7   6   5   11.00    1.40
   8   6   5   -0.20    0.90
   9   6   5    1.70    1.10
  10   6   5    1.10    1.10
  11   6   5    0.20    1.20
  12   6   5    3.50    1.40
  11  -7  -5    0.90    1.20
  10  -7  -5   -1.10    1.00
   9  -7  -5   -0.40    1.00
   8  -7  -5   19.20    2.00
   7  -7  -5    5.10    1.30
  -7   7   5    4.50    0.90
   6  -7  -5  145.59    6.30
  -6   7   5  148.89    5.30
  -6   7   5  135.19    6.10
   5  -7  -5   57.89    3.10
  -5   7   5   56.59    3.00
  -5   7   5   60.69    2.50
   4  -7  -5   11.70    1.30
  -4   7   5   12.10    1.00
   3  -7  -5    0.40    0.60
  -3   7   5    0.90    0.40
  -3   7   5   -0.40    0.60
  -2   7   5    5.20    0.90
  -2   7   5    4.40    0.60
   1  -7  -5  248.18    9.50
  -1   7   5  239.58    9.10
  -1   7   5  231.38    8.10
   0  -7  -5  459.25   17.60
   0   7   5  473.15   17.00
   0   7   5  458.85   15.30
  -1  -7  -5   22.30    1.50
   1   7   5   22.50    1.30
   1   7   5   23.20    1.30
  -2  -7  -5   53.79    2.70
   2   7   5   53.99    2.40
   2   7   5   54.99    2.30
  -3  -7  -5   83.49    3.90
   3   7   5   82.29    3.30
   3   7   5   88.09    3.40
  -4  -7  -5    9.20    1.30
   4   7   5   11.30    0.90
   4   7   5   11.20    1.10
  -5  -7  -5   62.19    3.20
   5   7   5   66.39    3.00
  -6  -7  -5   -2.20    0.80
   6   7   5    0.10    0.60
  -7  -7  -5    8.50    1.20
   7   7   5    7.90    1.20
   8   7   5   17.60    1.80
   9   7   5   10.30    1.50
  10   7   5   13.10    1.70
  11   7   5   -0.10    1.10
  12   7   5    3.80    1.40
  10  -8  -5    0.30    1.10
   9  -8  -5   -0.50    0.90
   8  -8  -5    6.40    1.30
   7  -8  -5    2.90    1.10
  -7   8   5    3.70    0.80
   6  -8  -5    3.50    1.10
  -6   8   5    3.50    1.10
  -6   8   5    4.50    0.80
   5  -8  -5    2.10    0.90
  -5   8   5    3.00    0.70
  -5   8   5    1.10    1.00
   4  -8  -5   43.90    2.50
  -4   8   5   44.40    2.00
  -4   8   5   38.70    2.40
   3  -8  -5   13.20    1.30
  -3   8   5   13.20    1.00
  -3   8   5   15.20    1.40
  -2   8   5    6.70    0.80
  -2   8   5    6.00    1.00
  -1   8   5  352.36   11.90
  -1   8   5  358.76   13.20
   0  -8  -5   36.50    2.20
   0   8   5   36.50    1.90
   0   8   5   35.40    1.70
  -1  -8  -5   27.30    1.90
   1   8   5   25.80    1.50
   1   8   5   27.60    1.60
  -2  -8  -5    2.40    1.00
   2   8   5    2.40    0.70
   2   8   5    3.10    0.70
  -3  -8  -5   31.00    2.20
   3   8   5   29.90    1.60
   3   8   5   30.10    1.70
  -4  -8  -5  169.68    7.20
   4   8   5  178.38    6.40
  -5  -8  -5   12.90    1.50
   5   8   5   12.20    1.30
  -6  -8  -5   40.80    2.60
   6   8   5   42.80    2.40
  -7  -8  -5   27.90    2.10
   7   8   5   29.40    2.00
  -8  -8  -5    4.90    1.10
   8   8   5    3.70    1.10
   9   8   5    1.00    1.00
  10   8   5    0.60    1.10
  11   8   5    4.00    1.40
  10  -9  -5   -0.70    1.00
   9  -9  -5    0.20    1.00
   8  -9  -5   -0.10    0.90
   7  -9  -5    2.30    1.00
  -7   9   5    4.80    0.90
   6  -9  -5    0.30    0.90
  -6   9   5    0.40    0.70
   5  -9  -5    6.60    1.20
  -5   9   5    4.60    1.20
  -5   9   5    6.70    0.90
   4  -9  -5   39.30    2.40
  -4   9   5   36.50    1.90
  -4   9   5   39.10    2.40
   3  -9  -5    1.00    0.70
  -3   9   5    0.10    0.80
  -3   9   5    1.00    0.50
   2  -9  -5    9.10    1.10
  -2   9   5    8.70    0.90
  -2   9   5    9.80    1.20
  -1   9   5    9.90    0.90
  -1   9   5    8.00    1.10
   0  -9  -5    1.80    0.90
   0   9   5    2.20    0.60
   0   9   5    1.50    0.70
  -1  -9  -5   42.70    2.50
   1   9   5   40.90    2.10
   1   9   5   38.50    1.90
  -2  -9  -5   12.80    1.50
   2   9   5   12.00    1.10
   2   9   5   12.70    1.20
  -3  -9  -5   44.70    2.70
   3   9   5   37.00    2.00
  -4  -9  -5    0.50    1.10
   4   9   5    0.90    0.80
  -5  -9  -5   17.40    1.70
   5   9   5   18.90    1.50
  -6  -9  -5   57.89    3.10
   6   9   5   53.09    2.80
  -7  -9  -5    3.20    1.10
   7   9   5    1.40    0.80
  -8  -9  -5    8.40    1.30
   8   9   5    7.20    1.30
   9   9   5    9.80    1.50
  10   9   5   -0.90    1.00
  11   9   5   -0.40    1.00
  10 -10  -5    0.70    1.20
   9 -10  -5    1.50    1.10
   8 -10  -5    1.40    1.00
   7 -10  -5    4.20    1.20
  -7  10   5    5.00    1.00
   6 -10  -5    0.20    0.90
  -6  10   5    0.80    0.70
   5 -10  -5   13.40    1.60
  -5  10   5   13.30    1.30
   4 -10  -5    0.80    0.90
  -4  10   5    1.90    0.70
   3 -10  -5   -0.40    0.80
  -3  10   5    1.00    0.60
  -3  10   5    0.90    0.90
   2 -10  -5   53.09    2.80
  -2  10   5   48.00    2.30
  -2  10   5   47.60    2.60
   1 -10  -5   28.20    2.00
  -1  10   5   25.10    1.50
  -1  10   5   26.00    1.80
   0 -10  -5   10.70    1.40
   0  10   5    9.30    1.10
   0  10   5   10.40    1.00
  -1 -10  -5   -0.60    1.00
   1  10   5    0.50    0.60
   1  10   5    0.20    0.70
  -2 -10  -5    7.30    1.40
   2  10   5    4.70    0.90
   2  10   5    4.80    0.90
  -3 -10  -5  124.59    5.70
   3  10   5  126.59    4.80
  -4 -10  -5    1.40    1.20
   4  10   5    0.30    0.70
  -5 -10  -5    9.20    1.50
   5  10   5    8.80    1.20
  -6 -10  -5    2.50    1.10
   6  10   5    1.40    0.80
  -7 -10  -5   -0.20    0.90
   7  10   5   -0.50    0.80
  -8 -10  -5   14.90    1.70
   8  10   5   10.50    1.50
   9  10   5    2.10    1.10
  10  10   5    3.50    1.30
   9 -11  -5   -0.10    1.10
   8 -11  -5    7.10    1.50
   7 -11  -5    0.90    1.00
  -7  11   5    2.70    0.90
   6 -11  -5   16.80    1.80
  -6  11   5   18.60    1.50
   5 -11  -5    3.30    1.10
  -5  11   5    4.70    0.90
   4 -11  -5   10.10    1.50
  -4  11   5    9.70    1.10
   3 -11  -5   -0.40    0.90
  -3  11   5    1.00    0.70
   2 -11  -5    4.60    1.10
  -2  11   5    2.80    0.80
   1 -11  -5    2.90    1.10
  -1  11   5    1.20    0.80
  -1  11   5    2.60    0.70
   0 -11  -5   31.00    2.40
   0  11   5   35.80    1.90
   0  11   5   32.10    2.00
  -1 -11  -5    5.20    1.40
   1  11   5    3.70    0.90
   1  11   5    4.90    0.90
  -2 -11  -5    2.80    1.30
   2  11   5    1.50    0.70
  -3 -11  -5   27.10    2.40
   3  11   5   26.80    1.70
  -4 -11  -5   -0.50    1.10
   4  11   5   -0.50    0.70
  -5 -11  -5    2.20    1.20
   5  11   5    3.90    1.00
  -6 -11  -5   10.60    1.60
   6  11   5    9.40    1.30
  -7 -11  -5    1.00    1.20
   7  11   5   -1.00    0.80
  -8 -11  -5    2.20    1.20
   8  11   5    1.40    1.00
   9  11   5   -0.40    1.00
  10  11   5   -0.30    1.10
   9 -12  -5   -0.80    1.20
   8 -12  -5    7.00    1.50
   7 -12  -5   -0.70    1.10
  -7  12   5    0.40    0.80
   6 -12  -5   -0.20    1.10
  -6  12   5    0.50    0.80
   5 -12  -5    9.90    1.60
  -5  12   5    9.20    1.20
   4 -12  -5   57.69    3.30
  -4  12   5   49.00    2.60
   3 -12  -5   11.90    1.60
  -3  12   5   11.10    1.20
   2 -12  -5   16.00    1.80
  -2  12   5   11.80    1.30
   1 -12  -5    0.10    1.00
  -1  12   5    1.10    0.70
   0 -12  -5   -0.10    1.10
   0  12   5   -1.80    0.60
  -1 -12  -5    4.70    1.50
   1  12   5    4.40    0.90
  -2 -12  -5    9.60    1.70
   2  12   5    9.80    1.20
  -3 -12  -5    3.90    1.40
   3  12   5    5.10    1.00
  -4 -12  -5    7.20    1.50
   4  12   5    7.10    1.10
  -5 -12  -5   -1.50    1.00
   5  12   5   -0.80    0.60
  -6 -12  -5    5.40    1.40
   6  12   5    5.10    1.10
  -7 -12  -5    1.30    1.20
   7  12   5    0.00    0.90
  -8 -12  -5    3.30    1.30
   8  12   5    1.40    1.10
   9  12   5    1.50    1.10
   8 -13  -5   -1.20    1.30
   7 -13  -5   -0.70    1.20
  -7  13   5   -0.10    0.90
   6 -13  -5    1.40    1.30
  -6  13   5    2.40    0.90
   5 -13  -5    5.90    1.50
  -5  13   5    4.90    1.10
   4 -13  -5    2.60    1.30
  -4  13   5    4.80    1.00
   3 -13  -5   -0.90    1.00
  -3  13   5    2.70    0.80
   2 -13  -5    2.90    1.40
  -2  13   5    4.50    0.90
   1 -13  -5    4.90    1.40
  -1  13   5    3.30    0.90
   0 -13  -5    4.40    1.50
   0  13   5    6.10    1.00
  -1 -13  -5    7.50    1.70
   1  13   5    6.80    1.10
  -2 -13  -5    6.00    1.60
   2  13   5    6.40    1.10
  -3 -13  -5    0.40    1.30
   3  13   5    0.30    0.70
  -4 -13  -5   12.30    1.90
   4  13   5   15.50    1.60
  -5 -13  -5   11.40    1.80
   5  13   5   11.90    1.50
  -6 -13  -5    0.50    1.30
   6  13   5    1.00    0.90
  -7 -13  -5    2.80    1.30
   7  13   5   -0.20    0.90
  -8 -13  -5    1.60    1.30
   8  13   5    2.40    1.10
   9  13   5    0.40    1.10
   8 -14  -5   -2.90    1.30
   7 -14  -5   -0.80    1.30
  -7  14   5   -0.30    0.90
   6 -14  -5    2.70    1.50
  -6  14   5    1.70    1.00
   5 -14  -5   -1.40    1.30
  -5  14   5   -0.10    0.80
   4 -14  -5   14.90    2.10
  -4  14   5   13.50    1.50
   3 -14  -5    4.90    1.60
  -3  14   5    5.50    1.10
   2 -14  -5    2.10    1.50
  -2  14   5    3.90    1.00
   1 -14  -5    1.40    1.50
  -1  14   5   -0.30    0.80
   0 -14  -5   -0.30    1.40
   0  14   5    4.00    1.00
  -1 -14  -5    1.90    1.50
   1  14   5    3.20    1.00
  -2 -14  -5    6.50    1.80
   2  14   5    5.90    1.10
  -3 -14  -5   20.40    2.40
   3  14   5   26.40    1.90
  -4 -14  -5    4.60    1.60
   4  14   5    4.10    1.10
  -5 -14  -5   14.00    2.00
   5  14   5   12.20    1.50
  -6 -14  -5    0.40    1.40
   6  14   5    0.30    0.90
  -7 -14  -5    2.20    1.40
   7  14   5   -0.40    0.90
  -8 -14  -5    2.60    1.40
   8  14   5    2.70    1.10
   7 -15  -5   -2.10    1.50
  -7  15   5   -1.00    0.80
   6 -15  -5   -3.80    1.40
  -6  15   5    0.60    0.90
   5 -15  -5    1.10    1.70
  -5  15   5    1.80    1.00
   4 -15  -5    1.60    1.60
  -4  15   5    2.20    1.00
   3 -15  -5    2.60    1.60
  -3  15   5    4.20    1.10
   2 -15  -5    0.10    1.60
  -2  15   5    1.20    0.90
   1 -15  -5    6.20    1.90
  -1  15   5    6.10    1.20
   0 -15  -5   -1.10    1.50
   0  15   5   -0.30    0.80
  -1 -15  -5    2.70    1.70
   1  15   5    0.10    0.90
  -2 -15  -5    0.60    1.50
   2  15   5    0.10    0.80
  -3 -15  -5    1.00    1.50
   3  15   5    0.60    0.90
  -4 -15  -5   10.20    2.00
   4  15   5   10.90    1.50
  -5 -15  -5    0.40    1.40
   5  15   5    1.40    1.00
  -6 -15  -5    5.30    1.70
   6  15   5    3.20    1.20
  -7 -15  -5    1.40    1.50
  -6  16   5   -0.40    0.90
   5 -16  -5    1.40    1.70
  -5  16   5    4.30    1.20
   4 -16  -5   -0.80    1.70
  -4  16   5    2.30    1.00
   3 -16  -5   -1.10    1.70
  -3  16   5    0.60    0.90
   2 -16  -5    5.40    2.00
  -2  16   5    6.10    1.20
   1 -16  -5    0.50    1.70
  -1  16   5    1.80    1.00
   0 -16  -5    8.10    2.10
   0  16   5    5.00    1.20
  -1 -16  -5   -1.40    1.40
   1  16   5    1.10    0.90
  -2 -16  -5    1.10    1.70
   2  16   5   -1.00    0.80
  -3 -16  -5    1.00    1.60
   3  16   5   -0.30    0.90
  -4 -16  -5    0.50    1.50
   4  16   5    0.70    1.00
  -5 -16  -5    3.50    1.60
   5  16   5    1.90    1.10
  -6 -16  -5    0.50    1.50
   4 -17  -5    5.70    1.80
  -4  17   5    1.30    1.10
   3 -17  -5   -3.70    1.70
  -3  17   5    2.40    1.10
   2 -17  -5    8.90    2.30
  -2  17   5   13.10    1.60
   1 -17  -5   -2.60    1.70
  -1  17   5   -0.10    0.90
   0 -17  -5   -0.10    1.80
   0  17   5    2.00    1.10
  -1 -17  -5    3.00    1.80
   1  17   5    0.30    1.00
  -2 -17  -5   -0.10    1.60
   2  17   5    1.60    1.10
  -3 -17  -5    1.00    1.70
   3  17   5    0.90    1.00
   2  15  -6    1.80    1.10
  -2 -15   6    0.70    1.40
   1  15  -6   -0.30    1.00
  -1 -15   6    1.80    1.30
   0  15  -6    1.30    1.10
  -4 -14   6    2.80    1.50
  -3 -14   6    2.00    1.30
   2  14  -6    0.10    0.90
  -2 -14   6    0.30    1.30
   1  14  -6    0.10    1.00
  -1 -14   6    2.40    1.40
   0  14  -6    0.10    1.00
  -1  14  -6    4.40    1.20
  -2  14  -6   -0.60    1.00
  -3  14  -6    0.60    1.00
   3 -14   6    1.20    1.70
   4 -14   6   -0.90    1.60
  -5 -13   6    1.60    1.40
  -4 -13   6    2.80    1.50
   3  13  -6    0.60    0.90
  -3 -13   6   -0.30    1.20
   2  13  -6    0.80    0.90
  -2 -13   6    1.00    1.30
   1  13  -6    0.30    0.90
  -1 -13   6   -0.60    1.20
   0  13  -6   -0.70    0.90
   0 -13   6    4.10    1.40
  -1  13  -6    7.30    1.30
  -2  13  -6   -0.40    0.90
   2 -13   6   -1.70    1.30
  -3  13  -6    0.80    1.00
   3 -13   6    2.10    1.60
  -4  13  -6    0.50    1.00
   4 -13   6    0.40    1.70
  -5  13  -6    1.30    1.10
   5 -13   6   -0.90    1.70
  -6 -12   6    2.50    1.50
  -5 -12   6    8.80    1.80
  -4 -12   6    2.00    1.40
   3  12  -6    0.00    0.80
  -3 -12   6    1.30    1.30
   2  12  -6    0.20    0.80
  -2 -12   6    0.00    1.10
   1  12  -6    5.90    1.10
  -1 -12   6    4.10    1.40
   0  12  -6   -1.20    0.80
   0 -12   6    0.70    1.10
   1 -12   6    6.80    1.70
  -2  12  -6    3.90    1.10
   2 -12   6    1.20    1.50
  -3  12  -6    1.50    1.00
   3 -12   6    0.10    1.50
  -4  12  -6    2.70    1.10
   4 -12   6    0.50    1.60
  -5  12  -6    4.90    1.30
   5 -12   6    5.60    2.00
  -6  12  -6    0.20    1.00
   6 -12   6    1.30    1.90
  -7 -11   6   13.20    2.10
  -6 -11   6    2.00    1.50
  -5 -11   6    2.20    1.40
  -4 -11   6    2.40    1.40
   3  11  -6    0.80    0.80
  -3 -11   6    1.50    1.20
   2  11  -6    2.00    0.80
  -2 -11   6    2.40    1.20
   1  11  -6    4.80    1.00
  -1 -11   6    3.60    1.30
   0  11  -6   -0.50    0.80
   0 -11   6    0.50    1.10
  -1  11  -6   -0.30    0.90
   1 -11   6    0.20    1.30
   1 -11   6    2.40    1.10
  -2  11  -6    1.50    1.00
   2 -11   6    1.20    1.40
  -3  11  -6    0.90    0.90
   3 -11   6    1.50    1.40
  -4  11  -6    1.30    1.00
   4 -11   6    0.70    1.50
  -5  11  -6    0.50    0.90
   5 -11   6   -0.60    1.60
  -6  11  -6    2.50    1.10
   6 -11   6    3.30    1.90
  -7  11  -6    3.60    1.20
   7 -11   6    4.30    2.20
  -8 -10   6    0.80    1.40
  -7 -10   6   -0.60    1.30
  -6 -10   6    0.90    1.30
  -5 -10   6    2.10    1.30
   4  10  -6    7.00    1.10
  -4 -10   6    8.70    1.60
   3  10  -6    4.60    0.90
  -3 -10   6    6.50    1.40
   2  10  -6    0.90    0.80
  -2 -10   6    0.00    1.10
   1  10  -6   -0.50    0.70
  -1 -10   6    0.80    1.10
   0  10  -6    7.00    1.10
   0 -10   6    7.10    1.50
   0 -10   6    8.80    1.40
  -1  10  -6    1.20    0.80
   1 -10   6    3.20    1.40
   1 -10   6    1.80    1.00
  -2  10  -6   -1.30    0.70
   2 -10   6    0.10    1.30
  -3  10  -6   -0.80    0.70
   3 -10   6   -1.40    1.40
  -4  10  -6    1.50    0.90
   4 -10   6    1.90    1.50
  -5  10  -6    0.50    0.80
   5 -10   6   -1.80    1.40
  -6  10  -6   -0.40    0.90
   6 -10   6    1.80    1.70
  -7  10  -6    1.20    1.00
   7 -10   6    0.40    1.80
   8 -10   6    5.90    2.20
  -9  -9   6    1.50    1.50
  -8  -9   6   -0.20    1.30
  -7  -9   6    0.80    1.30
  -6  -9   6    0.00    1.00
  -5  -9   6    2.10    1.20
   4   9  -6    0.00    0.70
  -4  -9   6    0.90    1.10
   3   9  -6    1.10    0.70
  -3  -9   6   -0.40    1.00
   2   9  -6   15.70    1.30
  -2  -9   6   13.90    1.70
   1   9  -6   12.40    1.30
  -1  -9   6   12.90    1.50
  -1  -9   6   12.30    1.60
   0   9  -6   52.19    2.60
   0  -9   6   55.69    3.10
   0  -9   6   50.69    3.10
  -1   9  -6   -0.60    0.70
   1  -9   6    0.00    1.10
   1  -9   6    0.50    0.90
  -2   9  -6   14.30    1.40
   2  -9   6   18.60    2.00
   2  -9   6   15.10    1.60
  -3   9  -6   14.80    1.50
   3  -9   6   16.50    2.00
  -4   9  -6    3.10    1.00
   4  -9   6    3.60    1.50
  -5   9  -6    4.60    1.00
   5  -9   6    1.00    1.50
  -6   9  -6    1.10    0.80
   6  -9   6    0.20    1.60
  -7   9  -6   -0.10    0.90
   7  -9   6    1.20    1.70
   8  -9   6    0.10    1.80
   9  -9   6   -0.20    1.90
 -10  -8   6    4.50    1.70
  -9  -8   6    0.40    1.40
  -8  -8   6    2.80    1.50
  -7  -8   6    1.20    1.20
  -6  -8   6   -1.90    1.00
  -5  -8   6   -1.10    0.90
   4   8  -6   -0.30    0.60
  -4  -8   6   -1.00    1.00
   3   8  -6    0.20    0.60
  -3  -8   6   -0.70    1.00
   2   8  -6   -1.20    0.60
  -2  -8   6   -0.60    0.80
  -2  -8   6    0.60    1.00
   1   8  -6    1.30    0.70
  -1  -8   6   -0.60    0.80
  -1  -8   6   -0.70    0.90
   0   8  -6    1.80    0.70
   0  -8   6    0.00    1.00
   0  -8   6   -0.70    0.80
  -1   8  -6    4.50    0.90
   1  -8   6    2.40    1.00
   1  -8   6    2.00    1.20
  -2   8  -6    4.80    1.00
   2  -8   6    6.40    1.50
   2  -8   6    6.70    1.10
  -3   8  -6    9.50    1.20
   3  -8   6    8.90    1.70
  -4   8  -6    4.10    1.00
   4  -8   6    6.40    1.60
  -5   8  -6    0.40    0.80
   5  -8   6    1.30    1.40
  -6   8  -6    1.10    0.80
   6  -8   6   -1.20    1.30
  -7   8  -6    4.10    1.10
   7  -8   6    3.40    1.70
   8  -8   6   -2.90    1.60
   9  -8   6    1.80    1.90
  10  -8   6   -3.60    1.80
 -10  -7   6    2.20    1.50
  -9  -7   6    0.70    1.30
  -8  -7   6    7.30    1.70
  -7  -7   6    7.30    1.60
  -6  -7   6   -0.30    1.00
  -5  -7   6    7.70    1.40
   4   7  -6   43.50    2.00
  -4  -7   6   37.20    2.70
   3   7  -6    3.00    0.70
  -3  -7   6    2.60    1.00
   2   7  -6   15.70    1.30
  -2  -7   6   16.60    1.50
  -2  -7   6   15.00    1.60
   1   7  -6    8.50    0.90
  -1  -7   6    8.90    1.30
  -1  -7   6    9.60    1.30
   0   7  -6    1.30    0.70
   0  -7   6   -0.10    1.00
   0  -7   6    0.20    0.80
  -1   7  -6    3.70    0.80
   1  -7   6    4.40    1.30
   1  -7   6    4.00    1.00
  -2   7  -6    8.60    1.10
   2  -7   6    9.50    1.20
   2  -7   6    9.20    1.60
  -3   7  -6   19.80    1.60
   3  -7   6   22.40    2.20
  -4   7  -6   -0.20    0.70
   4  -7   6   -0.70    1.10
  -5   7  -6    0.60    0.80
   5  -7   6    0.40    1.20
  -6   7  -6    0.00    0.80
   6  -7   6    0.10    1.40
   7  -7   6   -0.60    1.40
   8  -7   6   -0.30    1.60
   9  -7   6   -1.50    1.70
  10  -7   6   -3.80    1.70
 -11  -6   6   -0.10    1.40
 -10  -6   6    0.10    1.40
  -9  -6   6    3.60    1.50
  -8  -6   6    5.10    1.50
  -7  -6   6   12.60    1.80
  -6  -6   6   42.10    2.70
  -5  -6   6   -0.20    1.00
   4   6  -6   18.10    1.30
  -4  -6   6   16.80    1.80
   3   6  -6   63.19    2.60
  -3  -6   6   64.19    2.90
  -3  -6   6   64.49    3.40
   2   6  -6   13.20    1.10
  -2  -6   6   12.00    1.40
  -2  -6   6   12.30    1.20
   1   6  -6    9.40    0.90
  -1  -6   6   10.30    1.20
  -1  -6   6   11.30    1.30
   0   6  -6   14.20    1.10
   0  -6   6   12.60    1.40
   0  -6   6   12.20    1.30
  -1   6  -6    4.50    0.70
   1  -6   6    3.50    1.20
   1  -6   6    3.60    0.90
  -2   6  -6   14.80    1.20
   2  -6   6   11.80    1.60
   2  -6   6   12.50    1.10
  -3   6  -6   -0.30    0.60
   3  -6   6    1.20    1.20
  -4   6  -6   24.20    1.70
   4  -6   6   24.50    2.30
  -5   6  -6   -0.60    0.60
   5  -6   6   -0.20    1.20
  -6   6  -6   -0.50    0.70
   6  -6   6    1.00    1.30
   7  -6   6   -0.80    1.20
   8  -6   6   -0.80    1.50
   9  -6   6    0.40    1.70
  10  -6   6    1.00    1.80
  11  -6   6   -3.20    1.70
 -11  -5   6    4.90    1.70
 -10  -5   6    3.00    1.40
  -9  -5   6   12.00    1.90
  -8  -5   6    2.70    1.30
  -7  -5   6    0.80    1.00
  -6  -5   6    7.80    1.40
  -5  -5   6   44.10    2.80
   4   5  -6   70.69    2.80
  -4  -5   6   69.09    3.10
  -4  -5   6   76.59    3.70
   3   5  -6  221.98    7.70
  -3  -5   6  229.98    8.70
  -3  -5   6  232.88    9.30
   2   5  -6   15.60    1.10
  -2  -5   6   15.70    1.40
  -2  -5   6   18.40    1.60
   1   5  -6   52.09    2.20
  -1  -5   6   50.39    2.60
  -1  -5   6   52.99    2.70
   0   5  -6    0.50    0.40
   0  -5   6   -0.40    0.80
   0  -5   6   -0.30    0.60
  -1   5  -6   20.50    1.20
   1  -5   6   18.60    1.70
   1  -5   6   19.10    1.40
  -2   5  -6    9.50    1.00
   2  -5   6   10.00    1.00
   2  -5   6   10.30    1.40
  -3   5  -6   38.90    2.00
   3  -5   6   37.80    2.50
   3  -5   6   35.30    1.90
  -4   5  -6    1.90    0.70
   4  -5   6    2.20    1.30
  -5   5  -6   47.20    2.40
   5  -5   6   50.39    3.20
   6  -5   6    3.60    1.40
   7  -5   6   -0.20    1.30
   8  -5   6    6.20    1.70
   9  -5   6   -0.40    1.50
  10  -5   6   -0.90    1.70
  11  -5   6   -1.20    1.70
 -11  -4   6    4.00    1.60
 -10  -4   6    0.70    1.30
  -9  -4   6    5.20    1.50
  -8  -4   6   17.70    2.10
  -7  -4   6   72.99    3.90
  -6  -4   6    0.70    1.00
  -5  -4   6    1.60    1.00
  -5  -4   6    1.20    0.70
   4   4  -6  109.59    3.80
  -4  -4   6  110.29    4.90
  -4  -4   6  103.99    4.30
   3   4  -6   91.49    3.30
  -3  -4   6   92.19    4.20
  -3  -4   6   92.69    3.80
   2   4  -6  158.98    5.50
  -2  -4   6  160.68    6.30
  -2  -4   6  161.28    6.60
   1   4  -6    1.20    0.40
  -1  -4   6    0.50    0.60
  -1  -4   6    0.20    0.70
   0   4  -6  137.09    4.80
   0  -4   6  136.19    5.50
   0  -4   6  132.19    5.50
  -1   4  -6    9.50    0.80
   1  -4   6    8.70    1.20
   1  -4   6    9.20    0.90
  -2   4  -6   27.90    1.50
   2  -4   6   31.10    2.10
   2  -4   6   27.60    1.50
  -3   4  -6    1.40    0.60
   3  -4   6    1.00    0.50
   3  -4   6    0.10    0.50
  -4   4  -6   17.50    1.30
   5  -4   6   14.50    1.80
   6  -4   6    4.40    1.40
   7  -4   6    3.70    1.50
   8  -4   6   -0.60    1.30
   9  -4   6    3.10    1.70
  10  -4   6   -1.00    1.60
  11  -4   6    3.60    2.00
 -12  -3   6   -0.40    1.40
 -11  -3   6   14.40    2.20
 -10  -3   6    4.30    1.40
  -9  -3   6    5.90    1.50
  -8  -3   6    4.10    1.20
  -7  -3   6   -0.60    0.90
  -6  -3   6   65.49    3.40
  -5  -3   6   76.79    3.30
  -5  -3   6   80.39    3.90
   4   3  -6  261.67    8.60
  -4  -3   6  257.67    9.70
  -4  -3   6  256.17   10.30
   3   3  -6    0.00    0.30
  -3  -3   6    1.10    0.70
  -3  -3   6    0.30    0.50
   2   3  -6   13.80    0.80
  -2  -3   6   13.60    1.30
  -2  -3   6   13.30    1.10
   1   3  -6   29.70    1.30
  -1  -3   6   31.10    1.70
  -1  -3   6   29.40    1.70
   0   3  -6    3.30    0.50
   0  -3   6    2.40    0.60
   0  -3   6    3.30    0.80
  -1   3  -6   37.10    1.60
   1  -3   6   38.10    2.10
   1  -3   6   35.40    1.70
  -2   3  -6    3.20    0.60
   2  -3   6    4.10    0.90
   2  -3   6    3.70    0.50
  -3   3  -6   40.90    2.00
   3  -3   6   42.80    1.80
   4  -3   6  167.38    6.90
   5  -3   6   -0.60    1.10
   6  -3   6   19.00    2.00
   7  -3   6    4.70    1.50
   8  -3   6    1.00    1.40
   9  -3   6    0.70    1.40
  10  -3   6    1.10    1.50
  11  -3   6   -0.40    1.70
 -12  -2   6    6.20    1.80
 -11  -2   6    0.60    1.30
 -10  -2   6   13.50    2.00
  -9  -2   6    5.80    1.40
  -8  -2   6   18.90    2.00
  -7  -2   6    0.50    0.90
  -6  -2   6    0.70    0.90
  -6  -2   6    1.20    0.70
  -5  -2   6   26.10    1.70
   4   2  -6   73.89    2.70
  -4  -2   6   75.89    3.60
  -4  -2   6   77.29    3.20
   3   2  -6   78.39    2.70
  -3  -2   6   76.69    3.30
  -3  -2   6   76.59    3.50
   2   2  -6   13.80    0.70
  -2  -2   6   15.60    1.10
  -2  -2   6   15.00    1.20
   1   2  -6   43.80    1.70
  -1  -2   6   44.50    2.20
  -1  -2   6   44.40    2.10
   0   2  -6  192.18    6.50
   0  -2   6  199.28    7.60
   0  -2   6  195.98    7.50
  -1   2  -6    2.80    0.40
   1  -2   6    2.50    0.50
   1  -2   6    2.30    0.70
  -2   2  -6   23.90    1.20
   2  -2   6   22.70    1.10
   3  -2   6   54.49    2.80
   4  -2   6   47.30    2.60
   5  -2   6  175.98    7.20
   6  -2   6   55.39    3.20
   7  -2   6    8.00    1.60
   8  -2   6   14.60    1.90
   9  -2   6    0.10    1.30
  10  -2   6   -1.10    1.30
  12  -2   6    0.50    1.20
 -12  -1   6   10.10    1.90
 -11  -1   6    1.10    1.30
 -10  -1   6    2.70    1.20
  -9  -1   6    0.00    1.10
  -8  -1   6    0.50    1.00
  -7  -1   6   47.60    2.90
  -7  -1   6   52.29    2.60
  -6  -1   6   13.00    1.20
  -6  -1   6   12.00    1.40
   4   1  -6  157.38    5.30
  -4  -1   6  161.98    6.20
  -4  -1   6  162.08    6.60
   3   1  -6    1.10    0.20
  -3  -1   6    0.50    0.60
  -3  -1   6    1.50    0.50
   2   1  -6   12.80    0.60
  -2  -1   6   12.60    1.10
  -2  -1   6   12.70    1.00
   1   1  -6  143.09    4.80
  -1  -1   6  145.89    5.80
  -1  -1   6  149.39    5.70
   0   1  -6   35.40    1.40
   0  -1   6   38.30    1.90
   0  -1   6   37.20    1.80
   1  -1   6  233.48    8.90
   1  -1   6  234.98    8.90
   2  -1   6  229.48    8.50
   2  -1   6  216.08    8.30
   3  -1   6   36.50    2.10
   4  -1   6    6.20    1.10
   5  -1   6    2.30    1.10
   6  -1   6    4.10    1.30
   7  -1   6   80.39    4.00
   8  -1   6    6.20    1.50
   9  -1   6    6.70    1.50
  10  -1   6    2.70    1.40
  11  -1   6    1.00    1.20
  12  -1   6    2.00    1.40
 -12   0   6    0.40    1.30
 -11   0   6   13.50    2.00
 -10   0   6    3.70    1.30
  -9   0   6    9.80    1.60
  -8   0   6    1.00    0.90
  -8   0   6    0.70    0.90
  -7   0   6    1.50    0.80
  -7   0   6    1.10    0.90
  -6   0   6   14.70    1.30
  -6   0   6   10.60    1.40
  -4   0   6    4.90    0.90
  -4   0   6    5.80    0.80
  -3   0   6  125.39    5.00
  -3   0   6  127.89    5.30
  -2   0   6   21.50    1.40
  -2   0   6   20.30    1.30
  -1   0   6   37.30    1.80
  -1   0   6   36.90    1.90
   0   0   6    0.90    0.40
   0   0   6    0.80    0.50
   1   0   6   20.10    1.00
  -2   0  -6    0.10    0.20
   2   0   6   -0.50    0.60
   3   0   6   10.70    1.10
   4   0   6   22.80    1.70
   5   0   6    0.40    0.90
   6   0   6    7.80    1.30
   7   0   6    7.00    1.40
   8   0   6    5.60    1.40
   9   0   6    2.50    1.30
  10   0   6   -0.60    0.90
  11   0   6    0.50    1.20
  12   0   6    1.90    1.40
 -12   1   6   -2.40    1.20
 -11   1   6    9.40    1.80
 -10   1   6   -0.40    1.10
  -9   1   6    2.40    1.10
  -8   1   6    0.10    0.80
  -8   1   6    0.70    0.90
  -7   1   6   33.60    2.10
  -7   1   6   29.90    2.10
  -6   1   6   79.69    3.60
  -6   1   6   77.19    3.80
   5  -1  -6   52.19    1.90
  -5   1   6   50.99    2.60
  -4   1   6    4.00    0.70
  -4   1   6    3.30    0.80
  -3   1   6    3.80    0.70
  -3   1   6    3.60    0.70
  -2   1   6  450.65   16.80
  -2   1   6  435.46   16.20
  -1   1   6  478.85   15.00
  -1   1   6  468.05   17.10
  -1   1   6  456.25   17.60
   0   1   6  536.45   19.80
   0   1   6  523.65   17.20
  -1  -1  -6    1.60    0.40
   1   1   6    1.80    0.60
  -2  -1  -6   47.40    1.90
   2   1   6   47.00    2.20
   3   1   6   16.70    1.30
   4   1   6    0.40    0.70
   5   1   6   -0.90    0.80
   6   1   6   29.90    2.20
   7   1   6   10.30    1.40
   8   1   6    1.00    1.10
   8   1   6    1.50    0.90
   9   1   6    4.20    1.20
   9   1   6    3.50    1.20
  10   1   6   -1.20    0.80
  11   1   6    0.90    1.20
  12   1   6    0.80    1.20
 -12   2   6    9.60    1.80
 -11   2   6    1.10    1.20
 -10   2   6    3.10    1.30
  -9   2   6   12.40    1.60
  -9   2   6   10.60    1.50
  -8   2   6   16.60    1.80
  -8   2   6   19.80    1.70
  -7   2   6    1.80    0.90
  -7   2   6    2.50    1.00
  -6   2   6    5.10    1.00
  -6   2   6    4.00    0.90
   5  -2  -6   -0.10    0.30
  -5   2   6    0.00    0.60
  -5   2   6    0.30    0.40
   4  -2  -6   15.90    0.70
  -4   2   6   16.20    1.30
  -3   2   6    9.00    0.90
  -3   2   6    9.20    1.00
  -2   2   6   75.49    3.30
  -2   2   6   75.09    3.20
  -1   2   6   76.79    2.50
  -1   2   6   73.59    3.20
   0   2   6   84.69    2.90
   0   2   6   82.19    3.40
  -1  -2  -6   30.60    1.50
   1   2   6   28.70    1.60
   1   2   6   30.40    1.40
  -2  -2  -6   31.70    1.40
   2   2   6   32.10    1.50
   2   2   6   31.20    1.70
  -3  -2  -6  145.49    5.60
   3   2   6  144.59    5.30
   3   2   6  152.88    5.80
  -4  -2  -6    2.70    0.40
   4   2   6    2.50    0.70
   4   2   6    2.10    0.70
   5   2   6    5.80    0.90
   5   2   6    3.90    0.80
   6   2   6   24.70    1.80
   6   2   6   25.50    1.90
   7   2   6    0.50    0.80
   7   2   6   -0.10    0.90
   8   2   6   28.00    2.20
   8   2   6   24.50    2.00
   9   2   6   -0.30    0.90
  10   2   6   -0.90    0.90
  11   2   6    3.20    1.30
  12   2   6    0.50    1.10
  12  -3  -6    8.60    1.80
 -10   3   6    3.40    1.20
  -9   3   6   -1.00    1.00
  -9   3   6   -0.90    0.80
  -8   3   6   73.39    3.90
  -8   3   6   77.29    3.70
  -7   3   6   24.00    1.80
  -7   3   6   27.60    2.10
  -6   3   6    3.20    0.90
  -6   3   6    2.20    0.90
  -5   3   6    1.30    0.70
  -5   3   6    4.20    0.90
  -4   3   6  236.98    9.00
  -3   3   6   47.90    1.70
  -3   3   6   49.40    2.40
  -3   3   6   46.10    2.30
  -2   3   6   15.70    0.70
  -2   3   6   15.00    1.10
   1  -3  -6   43.80    2.20
  -1   3   6   42.40    1.50
  -1   3   6   43.40    2.00
   0   3   6  440.36   16.20
   0   3   6  447.86   14.40
  -1  -3  -6   51.89    2.20
   1   3   6   44.00    1.90
   1   3   6   49.90    2.20
  -2  -3  -6    5.40    0.50
   2   3   6    4.30    0.60
   2   3   6    4.10    0.60
  -3  -3  -6    0.40    0.50
   3   3   6    0.00    0.50
   3   3   6   -0.20    0.50
  -4  -3  -6   -0.30    0.40
   4   3   6    0.00    0.50
   4   3   6   -0.50    0.60
  -5  -3  -6   11.60    0.90
   5   3   6   10.10    1.10
   5   3   6    9.30    1.00
   6   3   6    2.10    0.80
   6   3   6    1.20    0.80
   7   3   6   32.80    2.20
   7   3   6   29.90    2.10
   8   3   6    0.30    0.90
   9   3   6    1.00    1.00
  10   3   6   -0.20    1.00
  11   3   6    0.50    1.20
  12   3   6    1.80    1.40
  12  -4  -6    2.70    1.50
  11  -4  -6   13.40    2.00
  10  -4  -6   10.40    1.70
  -8   4   6   -1.50    0.90
  -7   4   6    0.90    1.00
  -6   4   6   70.29    3.40
  -5   4   6   94.89    4.20
  -4   4   6   15.30    1.40
  -4   4   6   16.50    0.90
   3  -4  -6   97.09    4.40
  -3   4   6   95.09    4.10
  -3   4   6  102.19    3.40
   2  -4  -6  313.37   12.20
  -2   4   6  313.47   10.20
   1  -4  -6   63.39    2.90
  -1   4   6   63.89    2.80
  -1   4   6   62.99    2.30
   0  -4  -6  784.52   29.20
   0   4   6  777.32   25.20
   0   4   6  781.02   28.20
  -1  -4  -6   56.99    2.70
   1   4   6   67.69    2.70
   2   4   6   28.20    1.50
   2   4   6   27.30    1.40
  -3  -4  -6    0.50    0.40
   3   4   6    1.40    0.50
   3   4   6    1.80    0.60
   4   4   6   33.70    1.90
   4   4   6   37.50    1.80
   5   4   6   98.89    4.10
   5   4   6   96.39    4.00
   6   4   6    3.60    0.80
   6   4   6    4.40    1.00
   7   4   6   78.99    3.70
   8   4   6    0.20    0.90
   9   4   6    1.40    1.00
  10   4   6    1.30    1.10
  11   4   6    0.00    1.10
  12   4   6    3.60    1.50
  12  -5  -6    1.70    1.40
  11  -5  -6    0.30    1.20
  10  -5  -6    2.20    1.20
   9  -5  -6   10.50    1.70
   8  -5  -6   67.69    3.80
  -8   5   6   66.89    3.50
   7  -5  -6    3.20    1.10
  -7   5   6    5.60    1.20
   6  -5  -6   20.40    1.90
  -6   5   6   19.50    1.70
   5  -5  -6    0.40    0.70
  -5   5   6   -0.70    0.70
  -5   5   6    0.30    0.40
   3  -5  -6  119.79    5.40
  -3   5   6  128.59    4.30
   2  -5  -6   25.60    1.70
  -2   5   6   26.40    1.60
  -2   5   6   25.30    1.10
   1  -5  -6  643.64   24.10
  -1   5   6  651.43   23.30
  -1   5   6  623.94   20.70
   0  -5  -6   61.99    2.80
   0   5   6   62.89    2.70
  -1  -5  -6  182.68    7.10
   1   5   6  181.08    6.90
   1   5   6  180.28    6.20
  -2  -5  -6   57.79    2.60
   2   5   6   55.29    2.50
   2   5   6   58.79    2.40
  -3  -5  -6  150.28    6.00
   3   5   6  143.49    5.40
   3   5   6  149.99    5.70
  -4  -5  -6  182.78    7.20
   4   5   6  177.08    6.60
   4   5   6  186.08    6.90
  -5  -5  -6    3.40    0.80
   5   5   6    2.50    0.70
   5   5   6    2.80    0.80
  -6  -5  -6    6.50    0.90
   6   5   6    6.90    0.90
   6   5   6    4.40    1.00
   7   5   6    0.20    0.80
   8   5   6    5.90    1.20
   9   5   6   -0.30    0.80
  10   5   6    1.10    1.10
  11   5   6    0.50    1.20
  12   5   6    1.10    1.30
  11  -6  -6    0.20    1.20
  10  -6  -6    4.00    1.40
   9  -6  -6    0.90    1.10
   8  -6  -6    0.00    1.00
  -8   6   6    0.30    1.10
   7  -6  -6    1.10    1.00
  -7   6   6    2.10    1.10
   6  -6  -6    2.00    1.00
  -6   6   6    1.40    1.00
   5  -6  -6   70.09    3.50
  -5   6   6   65.09    2.60
  -5   6   6   67.09    3.30
   4  -6  -6   14.80    1.30
  -3   6   6    8.90    1.10
  -3   6   6   11.40    0.80
   2  -6  -6    0.40    0.50
  -2   6   6    0.90    0.40
  -2   6   6    1.00    0.60
   1  -6  -6   18.60    1.40
  -1   6   6   19.00    1.00
  -1   6   6   18.60    1.30
   0  -6  -6   72.19    3.30
   0   6   6   72.39    3.10
   0   6   6   74.79    2.70
  -1  -6  -6   12.50    1.10
   1   6   6   10.90    1.00
   1   6   6   11.70    0.90
  -2  -6  -6   27.00    1.60
   2   6   6   26.00    1.40
   2   6   6   24.60    1.40
  -3  -6  -6    3.50    0.90
   3   6   6    3.60    0.60
   3   6   6    3.30    0.70
  -4  -6  -6   13.30    1.30
   4   6   6   13.40    1.10
   4   6   6   14.70    1.30
  -5  -6  -6   24.70    1.80
   5   6   6   25.60    1.50
   5   6   6   27.70    1.80
  -6  -6  -6   55.79    2.90
   6   6   6   61.19    2.90
   7   6   6   15.00    1.60
   8   6   6    3.30    1.00
   9   6   6    3.90    1.20
  10   6   6   12.80    1.80
  11   6   6    2.30    1.30
  12   6   6    1.60    1.30
  11  -7  -6    0.80    1.30
  10  -7  -6    1.60    1.30
   9  -7  -6    7.50    1.50
   8  -7  -6   16.10    1.90
   7  -7  -6    2.20    1.10
  -7   7   6    1.60    1.10
   6  -7  -6   44.90    2.80
  -6   7   6   39.60    2.60
  -6   7   6   43.30    2.00
   5  -7  -6   39.50    2.50
  -5   7   6   36.60    2.40
  -5   7   6   37.80    1.80
   4  -7  -6    9.20    1.20
  -4   7   6    8.60    0.80
  -4   7   6    4.20    0.80
  -3   7   6   21.80    1.10
  -3   7   6   18.80    1.50
   2  -7  -6    0.20    0.40
  -2   7   6    0.40    0.40
  -2   7   6   -0.70    0.60
   1  -7  -6  101.79    4.40
  -1   7   6  100.39    3.70
  -1   7   6  101.29    4.20
   0  -7  -6  138.59    5.50
   0   7   6  129.99    5.30
   0   7   6  130.19    4.70
  -1  -7  -6    0.40    0.60
   1   7   6    1.10    0.50
   1   7   6    1.10    0.60
  -2  -7  -6   43.80    2.40
   2   7   6   42.40    2.00
   2   7   6   40.00    2.00
  -3  -7  -6   39.50    2.40
   3   7   6   43.70    2.00
   3   7   6   42.60    2.00
  -4  -7  -6    2.10    1.00
   4   7   6    4.10    0.80
   4   7   6    4.10    0.70
  -5  -7  -6   47.70    2.70
   5   7   6   51.79    2.60
  -6  -7  -6   16.50    1.50
   6   7   6   14.60    1.50
  -7  -7  -6    1.30    0.80
   7   7   6    1.00    0.90
   8   7   6    1.40    1.00
   9   7   6    2.30    1.10
  10   7   6    1.00    1.20
  11   7   6    0.90    1.20
  11  -8  -6    1.10    1.30
  10  -8  -6    0.20    1.10
   9  -8  -6    1.50    1.20
   8  -8  -6    4.80    1.30
   7  -8  -6    0.40    1.00
  -7   8   6   -0.60    1.00
   6  -8  -6   66.19    3.60
  -6   8   6   69.79    2.90
  -6   8   6   67.19    3.50
   5  -8  -6   46.40    2.80
  -5   8   6   47.80    2.70
  -5   8   6   48.20    2.20
   4  -8  -6    2.90    0.90
  -4   8   6    3.50    0.70
  -4   8   6    3.20    1.00
   3  -8  -6   10.10    1.20
  -3   8   6   11.40    0.90
  -3   8   6    9.90    1.30
   2  -8  -6   -0.40    0.20
  -2   8   6    0.30    0.50
  -2   8   6    0.20    0.70
   1  -8  -6    8.40    1.10
  -1   8   6    8.50    1.10
  -1   8   6    9.00    0.80
   0  -8  -6  131.89    5.50
   0   8   6  128.99    5.20
   0   8   6  129.89    4.70
  -1  -8  -6   18.40    1.60
   1   8   6   17.80    1.40
   1   8   6   20.80    1.20
  -2  -8  -6   97.99    4.40
   2   8   6   98.29    3.80
   2   8   6  100.29    4.10
  -3  -8  -6   88.49    4.20
   3   8   6   87.59    3.60
   3   8   6   87.39    3.50
  -4  -8  -6   13.20    1.50
   4   8   6   12.30    1.30
  -5  -8  -6   32.00    2.30
   5   8   6   33.70    2.10
  -6  -8  -6   16.40    1.60
   6   8   6   13.70    1.50
  -7  -8  -6    4.00    1.00
   7   8   6    2.10    1.00
   8   8   6   14.70    1.70
   9   8   6    9.20    1.50
  10   8   6    3.90    1.20
  11   8   6    0.80    1.20
  11  -9  -6    0.40    1.20
  10  -9  -6    1.50    1.30
   9  -9  -6    4.70    1.30
   8  -9  -6   14.10    1.80
   7  -9  -6    0.40    0.90
   6  -9  -6    2.10    1.00
  -6   9   6    4.70    1.30
  -6   9   6    5.50    0.90
   5  -9  -6   68.99    3.70
  -5   9   6   72.19    3.00
  -5   9   6   73.99    3.60
   4  -9  -6    3.70    1.00
  -4   9   6    3.00    1.10
  -4   9   6    2.50    0.70
   3  -9  -6    2.70    0.90
  -3   9   6    4.60    0.70
  -3   9   6    3.20    1.00
   2  -9  -6   20.30    1.70
  -2   9   6   16.00    1.20
  -2   9   6   18.20    1.60
   1  -9  -6  173.78    7.20
  -1   9   6  175.28    6.90
  -1   9   6  170.68    6.10
   0  -9  -6   -0.20    0.70
   0   9   6    0.00    0.50
   0   9   6    0.00    0.70
  -1  -9  -6    5.00    1.10
   1   9   6    5.90    0.90
   1   9   6    4.40    0.80
  -2  -9  -6   46.00    2.80
   2   9   6   45.00    2.10
   2   9   6   47.20    2.20
  -3  -9  -6    1.80    1.20
   3   9   6    0.80    0.60
   3   9   6    2.60    0.80
  -4  -9  -6   26.20    2.20
   4   9   6   28.20    1.80
  -5  -9  -6    0.60    1.00
   5   9   6    1.20    0.80
  -6  -9  -6    0.80    1.00
   6   9   6    0.40    0.80
  -7  -9  -6    4.60    1.20
   7   9   6    3.20    1.00
   8   9   6    8.10    1.30
   9   9   6    0.70    1.00
  10   9   6    1.20    1.20
  11   9   6   -0.50    1.20
  10 -10  -6   -1.20    1.10
   9 -10  -6   -0.50    1.00
   8 -10  -6   -1.10    0.90
   7 -10  -6    4.30    1.20
   6 -10  -6   14.00    1.70
  -6  10   6   17.40    1.40
   5 -10  -6   27.50    2.20
  -5  10   6   29.70    2.30
  -5  10   6   30.00    1.70
   4 -10  -6   -0.50    0.80
  -4  10   6    0.50    0.60
  -4  10   6    0.10    1.00
   3 -10  -6   10.80    1.40
  -3  10   6   12.80    1.50
  -3  10   6   12.90    1.10
   2 -10  -6   36.40    2.40
  -2  10   6   39.70    2.00
  -2  10   6   35.40    2.20
   1 -10  -6    0.10    0.80
  -1  10   6   -0.20    0.50
  -1  10   6    0.50    0.80
   0 -10  -6    4.80    1.10
   0  10   6    5.70    1.00
   0  10   6    3.90    0.80
  -1 -10  -6   94.59    4.50
   1  10   6   99.79    3.80
   1  10   6   95.49    4.10
  -2 -10  -6    2.40    1.20
   2  10   6    2.60    0.80
   2  10   6    1.70    0.70
  -3 -10  -6   32.70    2.50
   3  10   6   28.30    1.70
  -4 -10  -6   52.99    3.20
   4  10   6   55.49    2.70
  -5 -10  -6    1.90    1.10
   5  10   6    0.90    0.80
  -6 -10  -6    0.00    1.00
   6  10   6   -1.00    0.60
  -7 -10  -6    5.10    1.20
   7  10   6    4.50    1.10
   8  10   6    5.40    1.30
   9  10   6    2.20    1.20
  10  10   6   -1.50    0.90
  10 -11  -6   -2.20    1.20
   9 -11  -6   -0.60    1.10
   8 -11  -6    2.60    1.20
   7 -11  -6    2.50    1.20
   6 -11  -6    2.60    1.10
  -6  11   6    1.30    0.80
   5 -11  -6    0.50    0.90
  -5  11   6   -0.30    0.60
   4 -11  -6   16.40    1.80
  -4  11   6   16.90    1.30
  -4  11   6   16.70    1.80
   3 -11  -6   21.20    1.90
  -3  11   6   23.30    1.50
  -3  11   6   22.50    1.90
   2 -11  -6    7.40    1.30
  -2  11   6    8.60    1.00
  -2  11   6    8.70    1.30
   1 -11  -6   11.30    1.40
  -1  11   6   11.20    1.10
  -1  11   6   11.90    1.30
   0 -11  -6    2.90    1.10
   0  11   6    3.00    0.90
   0  11   6    2.60    0.80
  -1 -11  -6   25.50    2.20
   1  11   6   24.90    1.60
   1  11   6   24.20    1.70
  -2 -11  -6   17.60    1.90
   2  11   6   17.70    1.50
  -3 -11  -6    1.20    1.20
   3  11   6    0.90    0.70
  -4 -11  -6   -0.70    1.20
   4  11   6    1.80    0.80
  -5 -11  -6    4.80    1.40
   5  11   6    4.50    1.00
  -6 -11  -6    5.00    1.30
   6  11   6    4.50    1.00
  -7 -11  -6    5.80    1.40
   7  11   6    4.20    1.10
   8  11   6   -0.20    0.90
   9  11   6    2.40    1.20
  10  11   6   -2.20    1.10
   9 -12  -6    1.50    1.30
   8 -12  -6    1.30    1.20
   7 -12  -6    0.20    1.20
   6 -12  -6    0.40    1.10
  -6  12   6    1.70    0.80
   5 -12  -6    0.90    1.20
  -5  12   6    1.60    0.90
   4 -12  -6   15.60    1.80
  -4  12   6   17.10    1.50
   3 -12  -6   -1.10    1.00
  -3  12   6    0.50    0.70
   2 -12  -6    0.20    1.00
  -2  12   6    0.20    0.60
   1 -12  -6    0.60    1.10
  -1  12   6   -0.40    0.90
  -1  12   6   -0.10    0.60
   0 -12  -6    2.70    1.30
   0  12   6    2.60    0.80
   0  12   6    3.80    1.00
  -1 -12  -6   18.20    2.00
   1  12   6   16.80    1.50
   1  12   6   14.20    1.40
  -2 -12  -6   19.80    2.10
   2  12   6   17.50    1.60
  -3 -12  -6    9.10    1.70
   3  12   6   10.20    1.30
  -4 -12  -6   -1.20    1.20
   4  12   6    0.00    0.80
  -5 -12  -6   -0.50    1.20
   5  12   6    1.40    0.90
  -6 -12  -6    7.40    1.50
   6  12   6    6.90    1.20
  -7 -12  -6    0.40    1.10
   7  12   6    0.70    0.90
  -8 -12  -6    3.30    1.30
   8  12   6    3.90    1.20
   9  12   6   -0.90    1.10
   9 -13  -6   -1.60    1.40
   8 -13  -6    0.70    1.40
   7 -13  -6   -1.10    1.20
   6 -13  -6   -0.70    1.20
  -6  13   6    0.30    0.80
   5 -13  -6    5.60    1.50
  -5  13   6    5.70    1.10
   4 -13  -6    1.00    1.20
  -4  13   6    1.60    0.90
   3 -13  -6   10.60    1.60
  -3  13   6   12.60    1.30
   2 -13  -6    8.20    1.60
  -2  13   6    9.20    1.20
   1 -13  -6    5.30    1.30
  -1  13   6    9.20    1.20
   0 -13  -6    3.70    1.40
   0  13   6    2.50    0.80
  -1 -13  -6    3.50    1.50
   1  13   6    4.60    1.00
  -2 -13  -6    0.50    1.40
   2  13   6    1.90    0.90
  -3 -13  -6   17.30    2.10
   3  13   6   16.40    1.60
  -4 -13  -6   -0.90    1.30
   4  13   6   -0.10    0.80
  -5 -13  -6    2.90    1.40
   5  13   6    2.50    1.00
  -6 -13  -6    9.30    1.70
   6  13   6    9.70    1.40
  -7 -13  -6    0.50    1.30
   7  13   6   -0.30    0.90
  -8 -13  -6    4.00    1.40
   8  13   6    1.50    1.10
   8 -14  -6   -3.40    1.40
   7 -14  -6   -0.90    1.30
   6 -14  -6   -1.70    1.30
  -6  14   6    0.40    0.80
   5 -14  -6   -0.30    1.30
  -5  14   6    0.20    0.90
   4 -14  -6    1.10    1.30
  -4  14   6    2.90    1.00
   3 -14  -6    0.00    1.30
  -3  14   6    0.10    0.80
   2 -14  -6    4.10    1.60
  -2  14   6    7.20    1.20
   1 -14  -6   -2.00    1.30
  -1  14   6    0.60    0.80
   0 -14  -6    5.60    1.70
   0  14   6    7.00    1.10
  -1 -14  -6    1.30    1.50
   1  14   6   -0.60    0.80
  -2 -14  -6    1.50    1.40
   2  14   6    4.70    1.10
  -3 -14  -6   26.40    2.60
   3  14   6   26.90    2.00
  -4 -14  -6   -0.40    1.40
   4  14   6    0.00    0.90
  -5 -14  -6    5.40    1.60
   5  14   6    5.30    1.20
  -6 -14  -6    0.70    1.30
   6  14   6   -0.50    0.90
  -7 -14  -6    1.30    1.40
   7  14   6    1.10    1.00
  -8 -14  -6    4.90    1.60
   7 -15  -6   -0.30    1.50
   6 -15  -6   -2.60    1.50
   5 -15  -6    0.70    1.50
  -5  15   6    2.20    1.00
   4 -15  -6    1.00    1.60
  -4  15   6    4.00    1.10
   3 -15  -6   -1.60    1.40
  -3  15   6   -0.10    0.80
   2 -15  -6    1.70    1.50
  -2  15   6    2.30    0.90
   1 -15  -6    8.40    1.90
  -1  15   6    8.10    1.30
   0 -15  -6   -0.30    1.50
   0  15   6    2.30    1.00
  -1 -15  -6    3.80    1.70
   1  15   6    3.70    1.00
  -2 -15  -6    5.80    1.80
   2  15   6    5.20    1.10
  -3 -15  -6    1.80    1.60
   3  15   6    0.70    0.90
  -4 -15  -6    2.00    1.40
   4  15   6    0.90    1.00
  -5 -15  -6    3.90    1.60
   5  15   6    1.30    1.10
  -6 -15  -6    2.30    1.50
   6  15   6    1.40    1.00
  -7 -15  -6    3.10    1.60
   5 -16  -6   -2.10    1.60
  -5  16   6    1.20    1.00
   4 -16  -6   -0.30    1.70
  -4  16   6    1.30    1.00
   3 -16  -6   -2.30    1.40
  -3  16   6    0.10    0.90
   2 -16  -6   -0.50    1.70
  -2  16   6    1.50    1.00
   1 -16  -6    3.10    1.90
  -1  16   6    5.20    1.20
   0 -16  -6   -2.80    1.50
   0  16   6   -0.40    0.90
  -1 -16  -6    6.70    2.00
   1  16   6    5.60    1.20
  -2 -16  -6   -1.80    1.60
   2  16   6    1.20    1.00
  -3 -16  -6    0.10    1.60
   3  16   6    0.40    1.00
  -4 -16  -6    0.10    1.60
   4  16   6   -1.00    0.90
  -5 -16  -6    3.90    1.70
   5  16   6    0.60    1.00
  -6 -16  -6    1.40    1.60
  -4  17   6    1.10    1.00
   3 -17  -6    1.30    2.00
  -3  17   6    0.40    0.90
   2 -17  -6   -1.30    1.90
  -2  17   6    0.10    1.00
   1 -17  -6    1.30    1.90
  -1  17   6    3.50    1.20
   0 -17  -6    4.60    2.00
   0  17   6    4.50    1.20
  -1 -17  -6    0.70    1.80
   1  17   6    2.10    1.10
  -2 -17  -6    0.00    1.70
   2  17   6    1.20    1.00
  -3 -17  -6    1.70    1.80
   3  17   6    3.20    1.20
  -3 -14   7    3.70    1.50
  -2 -14   7    1.20    1.30
   1  14  -7   -0.90    0.90
   0  14  -7    2.20    1.20
  -1  14  -7    1.90    1.10
  -2  14  -7    2.40    1.10
  -4 -13   7    1.70    1.40
  -3 -13   7    1.30    1.30
  -2 -13   7    0.30    1.20
   1  13  -7    0.70    1.00
  -1 -13   7    2.40    1.40
   0  13  -7   -0.20    0.90
  -1  13  -7    1.00    1.00
  -2  13  -7    0.50    1.00
  -3  13  -7   -0.90    1.00
   3 -13   7    2.40    1.60
  -4  13  -7   -0.50    1.00
   4 -13   7   -0.90    1.60
  -6 -12   7    7.20    1.80
  -5 -12   7   -0.60    1.30
  -4 -12   7    1.10    1.30
  -3 -12   7    1.10    1.30
   2  12  -7    1.10    0.90
  -2 -12   7    1.30    1.30
   1  12  -7   -0.90    0.80
  -1 -12   7    1.10    1.20
   0  12  -7    3.90    1.10
  -1  12  -7    2.60    1.00
  -2  12  -7   -0.70    0.90
   2 -12   7    0.90    1.40
  -3  12  -7    3.10    1.10
   3 -12   7    1.30    1.70
  -4  12  -7    2.00    1.10
   4 -12   7   -1.70    1.70
  -5  12  -7    0.00    1.00
   5 -12   7    0.70    1.70
  -6  12  -7    1.80    1.20
   6 -12   7    1.00    1.80
  -7 -11   7    2.70    1.60
  -6 -11   7    3.20    1.60
  -5 -11   7    4.80    1.60
  -4 -11   7    0.80    1.30
  -3 -11   7    4.70    1.60
   2  11  -7   -0.50    0.70
  -2 -11   7    0.90    1.20
   1  11  -7    2.50    0.90
  -1 -11   7    1.50    1.20
   0  11  -7    7.90    1.20
   0 -11   7   10.70    1.60
  -1  11  -7    6.30    1.20
   1 -11   7    7.30    1.60
  -2  11  -7    2.10    0.90
   2 -11   7   -2.50    1.20
  -3  11  -7    2.00    1.00
   3 -11   7   -1.30    1.40
  -4  11  -7    1.70    1.10
   4 -11   7    3.50    1.70
  -5  11  -7    1.00    1.00
   5 -11   7   -2.40    1.50
  -6  11  -7    1.30    1.10
   6 -11   7    1.70    1.90
  -7  11  -7    1.50    1.20
   7 -11   7   -1.70    1.80
  -8 -10   7    5.60    1.80
  -7 -10   7   -0.10    1.20
  -6 -10   7    1.20    1.40
  -5 -10   7    1.50    1.30
  -4 -10   7    0.80    1.20
  -3 -10   7   -0.80    1.00
   2  10  -7    6.50    1.00
  -2 -10   7    6.60    1.40
   1  10  -7    5.30    1.10
  -1 -10   7    6.20    1.30
   0  10  -7   12.00    1.40
   0 -10   7   13.90    1.70
   0 -10   7   13.00    1.60
  -1  10  -7   28.00    1.90
   1 -10   7   31.40    2.50
  -2  10  -7    0.20    0.80
   2 -10   7    1.30    1.30
  -3  10  -7   -0.90    0.80
   3 -10   7    1.30    1.40
  -4  10  -7    0.10    0.80
   4 -10   7    3.10    1.60
  -5  10  -7   -0.10    0.90
   5 -10   7    0.00    1.60
  -6  10  -7    2.10    1.00
   6 -10   7    2.20    1.80
  -7  10  -7    0.90    1.10
   7 -10   7   -0.50    1.70
  -8  -9   7   -0.40    1.40
  -7  -9   7   -2.00    1.20
  -6  -9   7    0.40    1.20
  -5  -9   7    3.60    1.40
  -4  -9   7    1.20    1.20
   3   9  -7   -0.40    0.60
  -3  -9   7    0.60    1.10
   2   9  -7    0.90    0.70
  -2  -9   7   -0.70    1.00
   1   9  -7    5.40    1.00
  -1  -9   7    8.50    1.40
  -1  -9   7    7.60    1.30
   0   9  -7    0.70    0.80
   0  -9   7    0.90    1.20
   0  -9   7    1.60    1.10
  -1   9  -7    9.30    1.20
   1  -9   7    6.50    1.50
   1  -9   7    9.30    1.30
  -2   9  -7    4.00    0.90
   2  -9   7    2.70    1.30
  -3   9  -7    2.20    0.90
   3  -9   7    2.20    1.50
  -4   9  -7    2.70    1.00
   4  -9   7    2.00    1.40
  -5   9  -7    1.30    0.90
   5  -9   7   -0.30    1.40
  -6   9  -7    1.20    1.00
   6  -9   7    0.10    1.60
  -7   9  -7    1.50    1.10
   7  -9   7    0.80    1.70
   8  -9   7   -0.10    1.80
  -9  -8   7   -0.70    1.30
  -8  -8   7    0.50    1.40
  -7  -8   7    5.10    1.50
  -6  -8   7    0.70    1.20
  -5  -8   7    1.50    1.20
  -4  -8   7    6.90    1.50
   3   8  -7    0.00    0.60
  -3  -8   7   -0.20    1.00
   2   8  -7   13.40    1.20
  -2  -8   7   12.20    1.40
  -2  -8   7   12.80    1.60
   1   8  -7   11.10    1.10
  -1  -8   7    8.80    1.40
  -1  -8   7    8.90    1.40
   0   8  -7    0.80    0.70
   0  -8   7    1.80    0.90
   0  -8   7    1.60    1.10
  -1   8  -7    1.20    0.70
   1  -8   7    2.40    1.00
   1  -8   7    1.60    1.20
  -2   8  -7    8.30    1.10
   2  -8   7    8.40    1.60
  -3   8  -7    4.10    1.00
   3  -8   7    4.50    1.40
  -4   8  -7    0.10    0.80
   4  -8   7    1.20    1.40
  -5   8  -7    1.60    0.90
   5  -8   7    4.10    1.60
  -6   8  -7    1.60    0.90
   6  -8   7    0.80    1.50
   7  -8   7   -0.50    1.60
   8  -8   7    0.40    1.70
   9  -8   7    1.20    1.90
 -10  -7   7    3.00    1.60
  -9  -7   7    0.10    1.30
  -8  -7   7    0.60    1.30
  -7  -7   7    2.60    1.40
  -6  -7   7    0.90    1.20
  -5  -7   7    1.80    1.20
  -4  -7   7    8.00    1.40
   3   7  -7   13.10    1.10
  -3  -7   7   13.50    1.60
   2   7  -7    0.50    0.60
  -2  -7   7    0.40    0.80
  -2  -7   7    0.40    0.90
   1   7  -7    1.00    0.70
  -1  -7   7    0.10    0.90
  -1  -7   7    0.60    0.90
   0   7  -7   -0.20    0.60
   0  -7   7   -0.40    1.00
   0  -7   7   -0.10    0.80
  -1   7  -7    5.40    0.90
   1  -7   7    4.90    1.00
   1  -7   7    4.80    1.30
  -2   7  -7   15.80    1.40
   2  -7   7   20.50    2.00
  -3   7  -7   -0.10    0.70
   3  -7   7   -0.40    1.10
  -4   7  -7    4.20    1.00
   4  -7   7    4.40    1.50
  -5   7  -7    2.70    0.90
   5  -7   7    1.60    1.30
  -6   7  -7   -1.20    0.70
   6  -7   7   -0.20    1.30
   7  -7   7   -0.90    1.40
   8  -7   7   -0.30    1.70
   9  -7   7    3.50    1.90
  10  -7   7    0.50    1.90
 -10  -6   7   -0.90    1.30
  -9  -6   7    2.70    1.50
  -8  -6   7   10.50    1.80
  -7  -6   7    0.30    1.10
  -6  -6   7    0.70    1.10
  -5  -6   7    3.00    1.20
  -4  -6   7   48.70    3.00
   3   6  -7    0.20    0.50
  -3  -6   7   -1.10    0.70
  -3  -6   7    1.10    1.00
   2   6  -7   13.40    1.10
  -2  -6   7   13.00    1.50
  -2  -6   7   13.40    1.30
   1   6  -7   47.40    2.20
  -1  -6   7   49.90    2.80
  -1  -6   7   51.79    2.70
   0   6  -7   34.30    1.70
   0  -6   7   34.60    2.20
   0  -6   7   31.40    2.10
  -1   6  -7   68.59    2.80
   1  -6   7   67.29    3.10
   1  -6   7   60.09    3.40
  -2   6  -7    0.10    0.70
   2  -6   7   -0.50    1.10
   2  -6   7    1.30    0.70
  -3   6  -7   52.59    2.60
   3  -6   7   57.29    3.10
  -4   6  -7    1.10    0.80
   4  -6   7    2.90    1.30
  -5   6  -7    0.10    0.70
   5  -6   7   -0.10    1.20
   6  -6   7    0.70    1.40
   7  -6   7    0.40    1.50
   8  -6   7    1.90    1.60
   9  -6   7    2.30    1.80
  10  -6   7    0.50    1.80
 -11  -5   7    7.50    1.80
 -10  -5   7    1.40    1.30
  -9  -5   7   -0.30    1.20
  -8  -5   7    0.00    1.20
  -7  -5   7   18.70    2.10
  -6  -5   7   13.40    1.80
  -5  -5   7   17.50    1.80
  -4  -5   7   43.20    2.20
  -4  -5   7   40.10    2.70
   3   5  -7    3.90    0.60
  -3  -5   7    4.00    0.90
  -3  -5   7    5.00    1.10
   2   5  -7   10.60    0.90
  -2  -5   7   10.80    1.30
  -2  -5   7   12.20    1.20
   1   5  -7   -0.60    0.40
  -1  -5   7    1.80    0.80
  -1  -5   7    0.10    0.70
   0   5  -7    0.10    0.50
   0  -5   7   -1.70    0.90
   0  -5   7   -0.70    0.70
  -1   5  -7   13.70    1.10
   1  -5   7   10.80    1.10
   1  -5   7   11.80    1.50
  -2   5  -7    5.50    0.90
   2  -5   7    6.50    0.90
   2  -5   7    5.40    1.20
  -3   5  -7   37.10    2.00
   3  -5   7   37.20    2.50
  -4   5  -7   15.50    1.40
   4  -5   7   18.00    1.90
  -5   5  -7    7.00    1.10
   5  -5   7    6.70    1.40
   6  -5   7    0.30    1.30
   7  -5   7    1.90    1.50
   8  -5   7    1.50    1.50
   9  -5   7    1.90    1.70
  10  -5   7   -0.20    1.70
  11  -5   7   -0.70    1.70
 -11  -4   7    1.90    1.50
 -10  -4   7   13.30    2.00
  -9  -4   7    6.30    1.50
  -8  -4   7    8.10    1.60
  -7  -4   7   22.00    2.20
  -6  -4   7    4.90    1.30
  -5  -4   7   43.70    2.30
  -5  -4   7   44.30    2.80
  -4  -4   7   50.29    2.40
  -4  -4   7   48.10    2.80
   3   4  -7   10.80    0.90
  -3  -4   7   13.10    1.20
  -3  -4   7   14.60    1.50
   2   4  -7   -0.30    0.40
  -2  -4   7    0.90    0.70
  -2  -4   7    0.10    0.70
   1   4  -7   57.79    2.30
  -1  -4   7   58.89    2.80
  -1  -4   7   57.29    2.90
   0   4  -7    4.40    0.60
   0  -4   7    6.20    0.80
   0  -4   7    2.30    0.90
  -1   4  -7    2.60    0.60
   1  -4   7    4.20    0.70
   1  -4   7    3.40    1.00
  -2   4  -7    1.50    0.60
   2  -4   7    1.60    1.10
   2  -4   7    0.60    0.50
  -3   4  -7   -0.20    0.60
   3  -4   7    0.50    1.10
  -4   4  -7   10.60    1.20
   4  -4   7   11.90    1.60
   5  -4   7    3.90    1.30
   6  -4   7    3.90    1.40
   7  -4   7    2.30    1.40
   8  -4   7    0.70    1.40
   9  -4   7    0.10    1.50
  10  -4   7   -0.10    1.60
  11  -4   7   -2.00    1.60
 -11  -3   7    5.50    1.70
 -10  -3   7    2.10    1.40
  -9  -3   7   16.30    2.10
  -8  -3   7   24.50    2.30
  -7  -3   7   32.00    2.40
  -6  -3   7    7.50    1.30
  -5  -3   7    8.00    1.30
  -5  -3   7   10.10    1.10
  -4  -3   7    2.50    1.00
  -4  -3   7    1.10    0.70
   3   3  -7   21.10    1.00
  -3  -3   7   21.40    1.40
  -3  -3   7   19.20    1.70
   2   3  -7   28.90    1.30
  -2  -3   7   30.50    1.70
  -2  -3   7   28.80    1.90
   1   3  -7    3.10    0.50
  -1  -3   7    3.40    0.80
  -1  -3   7    3.60    0.80
   0   3  -7  127.39    4.50
   0  -3   7  125.09    5.30
   0  -3   7  133.09    5.20
  -1   3  -7   60.69    2.40
   1  -3   7   57.69    3.00
   1  -3   7   59.79    2.60
  -2   3  -7  143.39    5.20
   2  -3   7  144.09    5.70
   2  -3   7  149.29    6.00
   4  -3   7  101.69    4.70
   5  -3   7   16.70    1.80
   6  -3   7    2.30    1.30
   7  -3   7    6.90    1.60
   8  -3   7   -0.10    1.30
  10  -3   7   -0.10    1.60
  11  -3   7    3.20    1.80
 -11  -2   7   14.30    2.10
 -10  -2   7    2.60    1.40
  -9  -2   7    9.40    1.70
  -8  -2   7    1.40    1.10
  -7  -2   7    2.10    1.10
  -6  -2   7   17.10    1.70
  -6  -2   7   17.20    1.40
  -5  -2   7   76.29    3.90
  -5  -2   7   78.19    3.40
  -4  -2   7  185.98    7.80
  -4  -2   7  189.58    7.30
   3   2  -7   37.10    1.40
  -3  -2   7   37.70    2.00
  -3  -2   7   36.70    2.20
   2   2  -7    0.20    0.30
  -2  -2   7    0.50    0.60
  -2  -2   7    0.60    0.60
   1   2  -7   10.50    0.70
  -1  -2   7   10.70    1.10
  -1  -2   7    9.00    0.90
   0   2  -7    2.00    0.40
   0  -2   7    0.90    0.70
   0  -2   7    2.20    0.50
  -1   2  -7   27.60    1.30
   1  -2   7   29.80    1.80
   1  -2   7   27.70    1.50
   2  -2   7   19.20    1.60
   2  -2   7   20.10    1.10
   4  -2   7   32.70    2.20
   5  -2   7    2.70    1.30
   6  -2   7   37.30    2.50
   7  -2   7   -0.70    1.20
   8  -2   7    2.20    1.30
   9  -2   7    0.30    1.30
  10  -2   7   -0.30    1.30
 -12  -1   7   -0.10    1.30
 -11  -1   7    0.90    1.40
 -10  -1   7    3.00    1.40
  -9  -1   7    2.40    1.30
  -8  -1   7   14.00    1.80
  -7  -1   7   17.70    1.80
  -7  -1   7   18.30    1.60
  -6  -1   7    0.30    0.80
  -6  -1   7    0.60    0.90
  -5  -1   7   11.40    1.40
  -5  -1   7    9.40    1.10
  -4  -1   7   14.90    1.30
  -4  -1   7   13.50    1.40
  -3  -1   7   -0.30    0.50
  -3  -1   7   -0.10    0.50
   2   1  -7  266.97    8.90
  -2  -1   7  274.47   10.30
  -2  -1   7  282.47   10.70
   1   1  -7   12.10    0.70
  -1  -1   7   14.20    1.20
  -1  -1   7   13.10    1.10
   0  -1   7  114.09    4.60
   0  -1   7  109.59    4.50
   1  -1   7  102.79    4.20
   1  -1   7  107.29    4.40
   2  -1   7   10.40    1.10
   2  -1   7   11.20    0.70
   3  -1   7    6.30    1.10
   4  -1   7    0.00    0.90
   5  -1   7  111.79    5.00
   6  -1   7   36.90    2.60
   7  -1   7    2.20    1.30
   8  -1   7   -0.30    1.20
   9  -1   7   -0.70    1.20
  10  -1   7    1.50    1.40
  11  -1   7    0.20    1.10
 -12   0   7    1.10    1.40
 -11   0   7    1.80    1.40
 -10   0   7    0.90    1.20
  -9   0   7    2.00    1.10
  -8   0   7   -0.20    0.90
  -8   0   7   -0.30    0.80
  -7   0   7    1.50    0.80
  -7   0   7   -0.10    0.80
  -6   0   7   31.60    2.20
  -6   0   7   32.20    2.00
  -5   0   7   76.19    4.00
  -5   0   7   92.79    3.70
  -4   0   7  185.68    7.40
  -4   0   7  195.48    7.80
  -3   0   7    0.40    0.60
  -3   0   7    0.90    0.60
  -2   0   7    2.30    0.60
  -2   0   7    0.30    0.60
  -1   0   7  577.34   21.80
  -1   0   7  580.54   21.10
   0   0   7  231.18    9.20
   0   0   7  248.88    9.10
  -2   0  -7  110.09    4.20
   2   0   7  107.79    4.50
   3   0   7   53.99    2.70
   4   0   7   10.60    1.30
   5   0   7    0.60    1.00
   6   0   7    1.00    1.10
   7   0   7    6.90    1.40
   8   0   7    0.50    1.10
   9   0   7    3.30    1.40
  10   0   7    0.30    1.00
  11   0   7   -0.30    1.10
  12   0   7   -0.10    1.20
 -12   1   7    2.80    1.60
 -11   1   7    4.30    1.60
 -10   1   7    4.40    1.40
  -9   1   7    1.80    1.10
  -8   1   7    8.30    1.20
  -8   1   7   10.30    1.50
  -7   1   7    0.60    0.80
  -7   1   7   -0.10    0.90
  -6   1   7   -0.60    0.70
  -6   1   7   -1.20    0.70
  -5   1   7    3.80    0.90
  -4   1   7    1.10    0.70
  -4   1   7    0.80    0.70
  -3   1   7   30.40    1.80
  -3   1   7   28.20    1.70
  -2   1   7    5.30    0.80
  -2   1   7    7.40    0.90
  -1   1   7   27.90    1.00
  -1   1   7   27.60    1.60
  -1   1   7   26.40    1.50
   0   1   7  133.59    4.60
   0   1   7  136.09    5.40
  -1  -1  -7  425.26   16.20
   1   1   7  435.26   15.90
  -2  -1  -7   13.90    0.80
   2   1   7   15.90    1.20
   3   1   7   46.60    2.40
   4   1   7    2.60    0.90
   5   1   7   25.90    1.90
   6   1   7    2.50    1.10
   7   1   7    6.90    1.30
   8   1   7    0.00    0.90
   8   1   7    1.00    1.00
   9   1   7    0.30    0.90
   9   1   7   -0.90    1.10
  10   1   7    0.30    0.90
  11   1   7   -0.40    1.10
  12   1   7    0.10    1.30
 -12   2   7    7.20    1.80
 -11   2   7   12.30    2.00
 -10   2   7   -1.90    1.00
  -9   2   7    1.10    1.10
  -9   2   7   -0.60    1.00
  -8   2   7   -0.60    0.90
  -8   2   7    0.90    0.90
  -7   2   7   55.39    3.20
  -7   2   7   56.79    3.00
  -6   2   7   52.39    2.70
  -6   2   7   53.49    2.90
  -5   2   7   15.00    1.40
  -4   2   7    8.80    1.10
  -4   2   7    9.70    1.10
  -3   2   7    2.20    0.70
  -3   2   7    2.60    0.70
  -2   2   7   22.40    1.50
  -2   2   7   23.90    1.50
  -1   2   7  115.09    4.70
  -1   2   7  120.09    3.90
  -1   2   7  115.49    4.80
   0  -2  -7    6.00    0.70
   0   2   7    5.60    0.70
   0   2   7    6.00    0.50
  -1  -2  -7    9.90    0.80
   1   2   7    8.90    0.80
   1   2   7    9.70    1.00
  -2  -2  -7    2.10    0.40
   2   2   7    1.40    0.60
   2   2   7    1.30    0.50
  -3  -2  -7    9.10    0.80
   3   2   7    9.40    1.00
   3   2   7    9.50    1.00
   4   2   7    0.40    0.70
   4   2   7    0.60    0.60
   5   2   7   16.10    1.50
   5   2   7   17.90    1.60
   6   2   7   15.00    1.50
   6   2   7   12.40    1.40
   7   2   7    4.40    1.10
   7   2   7    2.70    1.00
   8   2   7    1.00    1.00
   8   2   7   -1.00    0.80
   9   2   7    3.20    1.10
  10   2   7    0.10    1.00
  11   2   7    0.30    1.00
  12   2   7   -2.20    1.10
  12  -3  -7    4.00    1.60
 -10   3   7   13.80    1.80
  -9   3   7   21.40    2.00
  -9   3   7   18.20    2.00
  -8   3   7   -0.20    0.90
  -8   3   7    1.70    1.00
  -7   3   7   13.90    1.60
  -7   3   7   13.80    1.50
  -6   3   7    5.60    1.10
  -6   3   7    5.40    1.10
  -4   3   7    2.00    0.70
  -4   3   7    2.80    0.80
  -3   3   7    6.80    0.90
  -3   3   7    8.20    0.90
  -2   3   7    9.30    0.40
  -2   3   7    9.70    1.00
   1  -3  -7   20.90    1.40
  -1   3   7   23.30    0.90
  -1   3   7   16.30    1.20
   0  -3  -7    1.00    0.50
   0   3   7    1.20    0.60
   0   3   7    1.50    0.40
  -1  -3  -7   -0.10    0.20
   1   3   7    0.20    0.50
   1   3   7   -0.30    0.20
  -2  -3  -7    4.40    0.50
   2   3   7    4.00    0.70
   2   3   7    4.10    0.60
  -3  -3  -7  126.09    4.90
   3   3   7  124.49    5.00
   3   3   7  124.79    4.70
  -4  -3  -7   27.90    1.40
   4   3   7   24.40    1.60
   4   3   7   25.80    1.70
   5   3   7    2.00    0.80
   5   3   7    2.80    0.90
   6   3   7    1.10    0.90
   6   3   7    1.00    0.90
   7   3   7   38.00    2.60
   7   3   7   43.30    2.40
   8   3   7    2.40    1.10
   9   3   7   -1.10    0.80
  10   3   7    0.40    0.90
  11   3   7    1.10    1.30
  12   3   7    3.30    1.50
  12  -4  -7    5.80    1.70
  11  -4  -7    3.30    1.50
  10  -4  -7    0.10    1.10
  -9   4   7   -0.50    1.00
  -8   4   7   51.79    3.00
  -7   4   7   39.40    2.40
  -6   4   7   16.60    1.60
  -6   4   7   13.90    1.50
  -5   4   7  221.08    8.70
  -4   4   7    7.90    1.10
   3  -4  -7  116.49    5.10
  -3   4   7  114.59    4.80
  -3   4   7  113.69    3.80
   2  -4  -7   88.49    4.10
  -2   4   7   93.29    3.10
   1  -4  -7   53.69    2.70
  -1   4   7   54.49    2.60
  -1   4   7   54.79    2.00
   0  -4  -7  379.36   14.40
   0   4   7  376.06   13.90
   0   4   7  373.46   12.30
  -1  -4  -7   12.30    1.00
   1   4   7   14.50    0.90
   1   4   7   15.40    1.10
   2   4   7   95.39    3.90
   2   4   7   91.69    3.50
   3   4   7    7.90    0.90
   3   4   7    8.60    0.90
  -4  -4  -7    0.80    0.50
   4   4   7    0.70    0.60
   4   4   7    0.20    0.60
   5   4   7    0.60    0.80
   5   4   7    0.50    0.70
   6   4   7    8.10    1.10
   6   4   7    6.80    1.10
   7   4   7   11.30    1.20
   7   4   7   11.40    1.50
   8   4   7   -0.30    0.80
   9   4   7    5.10    1.30
  10   4   7    0.90    1.10
  11   4   7    2.50    1.30
  12   4   7   -0.20    1.20
  12  -5  -7    4.90    1.80
  11  -5  -7    4.70    1.60
  10  -5  -7    5.90    1.50
   9  -5  -7    2.80    1.20
  -9   5   7    0.20    1.10
   8  -5  -7    1.00    1.00
  -8   5   7    2.00    1.10
   7  -5  -7    5.80    1.30
  -7   5   7    5.50    1.20
   6  -5  -7   21.20    2.00
  -6   5   7   17.70    1.70
   5  -5  -7   18.50    1.80
  -5   5   7   18.80    1.70
  -4   5   7   25.40    1.80
  -4   5   7   23.40    1.10
   3  -5  -7   82.39    3.80
  -3   5   7   77.49    2.80
   2  -5  -7  130.29    5.60
  -2   5   7  132.89    5.40
  -2   5   7  135.59    4.50
   1  -5  -7    1.30    0.60
  -1   5   7    2.80    0.40
  -1   5   7    1.40    0.70
   0  -5  -7    1.80    0.60
   0   5   7    0.90    0.30
   0   5   7    1.90    0.60
  -1  -5  -7    1.60    0.50
   1   5   7    1.40    0.60
   1   5   7    2.10    0.50
  -2  -5  -7    8.70    0.90
   2   5   7    7.70    0.90
   2   5   7    8.20    0.80
  -3  -5  -7    2.60    0.70
   3   5   7    1.50    0.60
   3   5   7    0.50    0.60
  -4  -5  -7   22.50    1.70
   4   5   7   24.70    1.60
   4   5   7   22.10    1.50
  -5  -5  -7   17.10    1.40
   5   5   7   15.30    1.30
   5   5   7   15.60    1.50
   6   5   7   56.19    2.90
   6   5   7   55.29    2.70
   7   5   7   11.60    1.50
   8   5   7    4.00    1.20
   9   5   7    0.10    0.90
  10   5   7    1.70    1.10
  11   5   7    4.80    1.40
  11  -6  -7    2.40    1.50
  10  -6  -7    4.90    1.50
   9  -6  -7   18.20    2.20
   8  -6  -7   52.59    3.30
  -8   6   7   49.30    3.00
   7  -6  -7    3.30    1.10
  -7   6   7    3.70    1.20
   6  -6  -7    4.20    1.20
  -6   6   7    2.90    1.00
   5  -6  -7   44.80    2.70
  -5   6   7   46.90    2.60
  -4   6   7   31.40    1.90
   3  -6  -7    7.70    1.10
  -3   6   7    7.70    0.60
   2  -6  -7    1.30    0.60
  -2   6   7    1.20    0.40
  -2   6   7    1.90    0.80
   1  -6  -7   58.09    2.80
  -1   6   7   57.19    2.20
  -1   6   7   59.99    2.70
   0  -6  -7   25.50    1.60
   0   6   7   27.50    1.60
   0   6   7   22.70    1.20
  -1  -6  -7  151.28    6.10
   1   6   7  147.99    5.30
   1   6   7  153.68    5.90
  -2  -6  -7   61.99    2.80
   2   6   7   58.39    2.50
   2   6   7   59.49    2.70
  -3  -6  -7    7.00    1.00
   3   6   7    5.60    0.90
   3   6   7    5.90    0.80
  -4  -6  -7   29.50    2.00
   4   6   7   28.70    1.60
   4   6   7   28.70    1.70
  -5  -6  -7    6.20    1.00
   5   6   7    7.00    1.10
   5   6   7    6.20    0.90
   6   6   7    0.50    0.80
   7   6   7    0.10    0.80
   8   6   7    1.50    1.00
   9   6   7    1.10    1.00
  10   6   7   -0.70    0.90
  11   6   7    1.70    1.30
  11  -7  -7    2.30    1.50
  10  -7  -7    3.50    1.50
   9  -7  -7    0.70    1.20
   8  -7  -7    0.30    1.10
  -8   7   7    2.10    1.20
   7  -7  -7    7.40    1.40
  -7   7   7    6.10    1.30
   6  -7  -7   33.80    2.40
  -6   7   7   34.00    2.30
   5  -7  -7   86.79    4.30
  -5   7   7   82.99    4.00
   4  -7  -7   91.89    4.30
  -4   7   7   90.19    3.40
  -4   7   7   87.09    4.10
   3  -7  -7    4.60    0.90
  -3   7   7    6.30    1.00
  -3   7   7    5.70    0.60
   2  -7  -7   20.80    1.50
  -2   7   7   22.30    1.60
  -2   7   7   22.00    1.20
   1  -7  -7    0.60    0.60
  -1   7   7    0.10    0.70
  -1   7   7    0.20    0.40
   0  -7  -7    2.20    0.70
   0   7   7    0.40    0.60
   0   7   7    2.00    0.50
  -1  -7  -7   28.50    1.80
   1   7   7   29.20    1.50
   1   7   7   30.20    1.80
  -2  -7  -7   31.40    2.00
   2   7   7   31.30    1.70
   2   7   7   29.10    1.60
  -3  -7  -7  107.99    4.70
   3   7   7  107.79    4.30
   3   7   7  104.79    4.10
  -4  -7  -7   66.79    3.40
   4   7   7   72.39    3.20
   4   7   7   72.89    3.10
  -5  -7  -7  104.29    4.60
   5   7   7   98.59    4.20
  -6  -7  -7   15.10    1.40
   6   7   7   13.40    1.50
   7   7   7    5.80    1.20
   8   7   7    1.80    1.00
   9   7   7   -0.20    1.00
  10   7   7    6.00    1.50
  11   7   7    0.20    1.20
  11  -8  -7   -0.50    1.30
  10  -8  -7    0.10    1.10
   9  -8  -7    9.60    1.70
   8  -8  -7   28.60    2.40
   7  -8  -7   -0.40    0.90
  -7   8   7   -0.80    1.10
   6  -8  -7    7.50    1.30
  -6   8   7    5.50    1.30
   5  -8  -7    3.10    1.00
  -5   8   7    2.70    1.00
   4  -8  -7  123.19    5.60
  -4   8   7  125.09    5.40
  -4   8   7  124.89    4.50
   3  -8  -7    0.00    0.70
  -3   8   7   -0.60    0.70
  -3   8   7    0.00    0.40
   2  -8  -7    0.50    0.70
  -2   8   7    0.80    0.80
  -2   8   7    1.70    0.50
   1  -8  -7   58.39    2.90
  -1   8   7   56.39    2.30
  -1   8   7   57.29    2.80
   0  -8  -7    9.10    1.20
   0   8   7    8.10    1.00
   0   8   7    9.20    0.90
  -1  -8  -7    3.50    0.90
   1   8   7    0.60    0.70
   1   8   7    1.20    0.60
  -2  -8  -7  129.09    5.50
   2   8   7  124.69    5.10
   2   8   7  127.89    4.70
  -3  -8  -7   14.20    1.60
   3   8   7   13.20    1.20
   3   8   7   15.20    1.30
  -4  -8  -7  207.48    8.40
   4   8   7  200.68    7.40
  -5  -8  -7   26.10    2.10
   5   8   7   25.30    1.80
  -6  -8  -7    4.80    1.10
   6   8   7    2.10    1.00
   7   8   7   -0.10    0.80
   8   8   7    2.40    1.00
   9   8   7    3.70    1.20
  10   8   7    2.20    1.20
  11   8   7    0.50    1.20
  11  -9  -7    0.40    1.30
  10  -9  -7   -0.20    1.10
   9  -9  -7   -0.20    1.10
   8  -9  -7    4.70    1.30
   7  -9  -7    1.30    1.00
  -7   9   7    2.40    1.20
   6  -9  -7    4.00    1.20
  -6   9   7    4.80    1.30
   5  -9  -7    7.00    1.20
  -5   9   7    7.90    1.40
  -5   9   7    6.80    0.90
   4  -9  -7   53.69    3.00
  -4   9   7   61.19    2.50
  -4   9   7   55.29    3.10
   3  -9  -7    0.30    0.80
  -3   9   7    1.20    0.60
  -3   9   7    1.00    0.90
   2  -9  -7   38.70    2.40
  -2   9   7   42.20    2.40
  -2   9   7   39.00    1.90
   1  -9  -7   21.40    1.80
  -1   9   7   22.70    1.70
  -1   9   7   19.70    1.30
   0  -9  -7   21.30    1.70
   0   9   7   20.10    1.60
   0   9   7   20.10    1.30
  -1  -9  -7   96.69    4.40
   1   9   7   94.49    3.70
   1   9   7   95.89    4.10
  -2  -9  -7    9.20    1.30
   2   9   7    8.50    1.00
   2   9   7    6.40    0.90
  -3  -9  -7   60.39    3.40
   3   9   7   61.79    2.80
   3   9   7   59.99    2.80
  -4  -9  -7   27.40    2.30
   4   9   7   27.00    1.70
  -5  -9  -7    0.20    1.10
   5   9   7    1.20    0.80
  -6  -9  -7   -0.10    0.90
   6   9   7   -0.50    0.80
   7   9   7    1.40    0.90
   8   9   7   10.30    1.50
   9   9   7    1.40    1.20
  10   9   7   -0.20    1.00
  10 -10  -7    0.80    1.30
   9 -10  -7   -0.10    1.10
   8 -10  -7    2.90    1.20
   7 -10  -7    2.40    1.10
   6 -10  -7    0.00    0.90
  -6  10   7    0.20    1.10
   5 -10  -7    2.90    1.10
  -5  10   7    4.50    0.80
  -5  10   7    5.00    1.30
   4 -10  -7   -0.40    0.80
  -4  10   7   -0.10    1.00
  -4  10   7   -0.30    0.60
   3 -10  -7    3.90    1.00
  -3  10   7    2.50    0.90
  -3  10   7    2.80    0.70
   2 -10  -7   13.60    1.50
  -2  10   7   13.80    1.50
  -2  10   7   12.50    1.10
   1 -10  -7   46.00    2.60
  -1  10   7   41.80    2.40
  -1  10   7   40.60    2.00
   0 -10  -7   24.30    2.00
   0  10   7   25.30    1.60
   0  10   7   24.50    1.80
  -1 -10  -7    1.40    1.00
   1  10   7    1.60    0.80
   1  10   7    1.60    0.70
  -2 -10  -7    9.00    1.50
   2  10   7   10.90    1.10
   2  10   7    9.70    1.10
  -3 -10  -7   73.39    3.90
   3  10   7   77.69    3.30
  -4 -10  -7    6.60    1.40
   4  10   7    9.50    1.20
  -5 -10  -7    0.60    1.10
   5  10   7    1.40    0.80
  -6 -10  -7    0.00    1.00
   6  10   7    0.60    0.90
   7  10   7    2.80    1.10
   8  10   7    1.30    1.00
   9  10   7    2.20    1.20
  10  10   7    1.00    1.10
  10 -11  -7   -1.60    1.10
   9 -11  -7   -1.30    1.10
   8 -11  -7   -0.40    1.10
   7 -11  -7    0.40    1.10
   6 -11  -7    6.90    1.30
   5 -11  -7    0.70    1.00
  -5  11   7    0.60    1.00
  -5  11   7    0.00    0.70
   4 -11  -7    7.20    1.30
  -4  11   7   10.10    1.10
  -4  11   7    6.90    1.30
   3 -11  -7    1.90    1.00
  -3  11   7    1.20    1.00
  -3  11   7    2.10    0.70
   2 -11  -7   11.80    1.40
  -2  11   7   11.30    1.50
  -2  11   7   14.10    1.20
   1 -11  -7    7.20    1.30
  -1  11   7    6.40    0.90
  -1  11   7    7.50    1.20
   0 -11  -7    5.70    1.30
   0  11   7    3.90    1.00
   0  11   7    4.50    0.80
  -1 -11  -7    0.90    1.10
   1  11   7    3.20    0.80
   1  11   7    2.20    0.80
  -2 -11  -7   12.20    1.70
   2  11   7   14.40    1.40
  -3 -11  -7   57.79    3.40
   3  11   7   56.59    2.70
  -4 -11  -7    3.50    1.40
   4  11   7    4.30    1.00
  -5 -11  -7    9.30    1.60
   5  11   7    8.90    1.30
  -6 -11  -7    0.30    1.10
   6  11   7    0.80    0.90
  -7 -11  -7    0.20    1.10
   7  11   7    0.40    0.90
   8  11   7   11.00    1.60
   9  11   7    0.70    1.10
   9 -12  -7   -1.60    1.10
   8 -12  -7    3.00    1.40
   7 -12  -7    1.20    1.20
   6 -12  -7    0.40    1.10
   5 -12  -7    9.30    1.60
  -5  12   7   10.50    1.30
   4 -12  -7   -0.60    0.90
  -4  12   7   -0.10    1.00
  -4  12   7    0.10    0.70
   3 -12  -7    7.10    1.40
  -3  12   7    8.40    1.10
  -3  12   7    9.20    1.40
   2 -12  -7    1.80    1.10
  -2  12   7    2.50    0.80
  -2  12   7    1.70    1.00
   1 -12  -7   14.20    1.70
  -1  12   7   14.80    1.40
  -1  12   7   17.30    1.60
   0 -12  -7   -1.20    1.00
   0  12   7    0.20    0.60
   0  12   7    0.30    0.90
  -1 -12  -7   -0.50    1.10
   1  12   7    0.00    0.80
   1  12   7   -0.10    0.70
  -2 -12  -7    6.70    1.60
   2  12   7    8.10    1.20
  -3 -12  -7    1.70    1.30
   3  12   7    3.20    0.90
  -4 -12  -7    7.80    1.60
   4  12   7    7.80    1.20
  -5 -12  -7   -1.10    1.20
   5  12   7    1.20    0.80
  -6 -12  -7    7.50    1.50
   6  12   7    6.50    1.20
  -7 -12  -7    0.60    1.10
   7  12   7    0.10    0.90
   8  12   7    0.30    1.10
   9  12   7    2.20    1.20
   8 -13  -7    0.20    1.30
   7 -13  -7    1.10    1.40
   6 -13  -7    5.50    1.60
   5 -13  -7    5.90    1.60
  -5  13   7    5.70    1.10
   4 -13  -7    2.40    1.20
  -4  13   7    2.10    0.90
   3 -13  -7    0.30    1.10
  -3  13   7   -0.30    0.70
   2 -13  -7    4.40    1.30
  -2  13   7    4.30    0.90
   1 -13  -7    5.80    1.50
  -1  13   7    3.40    1.20
  -1  13   7    4.20    0.90
   0 -13  -7   -1.40    1.00
   0  13   7   -0.60    0.90
   0  13   7   -0.30    0.70
  -1 -13  -7   16.60    2.10
   1  13   7   18.50    1.50
  -2 -13  -7   -0.40    1.30
   2  13   7    0.40    0.80
  -3 -13  -7    7.50    1.70
   3  13   7   12.90    1.40
  -4 -13  -7   10.40    1.80
   4  13   7    9.70    1.40
  -5 -13  -7    2.70    1.40
   5  13   7    1.40    1.00
  -6 -13  -7    0.90    1.30
   6  13   7    0.00    0.90
  -7 -13  -7    2.00    1.30
   7  13   7    1.10    1.00
   8  13   7    1.40    1.10
   7 -14  -7   -3.50    1.30
   6 -14  -7    0.60    1.30
   5 -14  -7   -0.50    1.30
   4 -14  -7    1.70    1.40
  -4  14   7    2.60    1.00
   3 -14  -7    7.30    1.60
  -3  14   7    6.90    1.10
   2 -14  -7   14.90    1.90
  -2  14   7   15.60    1.50
   1 -14  -7    0.00    1.20
  -1  14   7    0.50    0.80
   0 -14  -7    0.00    1.20
   0  14   7    1.80    0.80
  -1 -14  -7   -1.00    1.40
   1  14   7   -0.40    0.70
  -2 -14  -7    8.80    1.90
   2  14   7    9.70    1.30
  -3 -14  -7   -0.90    1.50
   3  14   7    3.50    1.10
  -4 -14  -7   -0.90    1.40
   4  14   7    1.30    0.90
  -5 -14  -7    4.90    1.60
   5  14   7    7.50    1.40
  -6 -14  -7    5.30    1.60
   6  14   7    7.60    1.40
  -7 -14  -7    1.80    1.40
   7  14   7    0.30    1.00
   6 -15  -7   -0.60    1.40
   5 -15  -7   -2.00    1.40
   4 -15  -7   -0.10    1.50
  -4  15   7    1.70    1.00
   3 -15  -7   -1.10    1.20
  -3  15   7    1.90    0.90
   2 -15  -7    0.50    1.40
  -2  15   7    0.30    0.80
   1 -15  -7    1.40    1.50
  -1  15   7   -0.10    0.80
   0 -15  -7    2.40    1.60
   0  15   7    3.40    1.00
  -1 -15  -7    0.50    1.60
   1  15   7    2.60    1.00
  -2 -15  -7    1.00    1.60
   2  15   7    1.50    0.90
  -3 -15  -7    5.90    1.80
   3  15   7    6.50    1.30
  -4 -15  -7    3.70    1.70
   4  15   7    2.10    1.10
  -5 -15  -7    0.20    1.50
   5  15   7   -1.10    0.90
  -6 -15  -7    1.30    1.50
   6  15   7    0.10    0.90
  -7 -15  -7    2.30    1.50
   5 -16  -7   -0.40    1.70
   4 -16  -7   -2.50    1.50
  -4  16   7   -0.80    0.90
   3 -16  -7   -1.30    1.60
  -3  16   7    1.60    1.00
   2 -16  -7   -2.40    1.50
  -2  16   7    0.50    0.90
   1 -16  -7    1.70    1.80
  -1  16   7    1.70    1.00
   0 -16  -7    0.40    1.70
   0  16   7    1.40    1.00
  -1 -16  -7    0.60    1.70
   1  16   7    2.00    1.00
  -2 -16  -7    2.10    1.80
   2  16   7    2.40    1.00
  -3 -16  -7   -1.30    1.60
   3  16   7   -0.20    0.90
  -4 -16  -7   -0.10    1.60
   4  16   7    3.60    1.20
  -5 -16  -7   -1.30    1.40
   5  16   7    2.70    1.10
  -6 -16  -7    1.90    1.60
  -4  17   7    1.40    1.10
  -3  17   7    1.30    1.00
   2 -17  -7   -2.40    1.80
  -2  17   7   -0.30    0.90
   1 -17  -7   -4.40    1.60
  -1  17   7   -0.60    0.90
   0 -17  -7   -0.30    1.70
   0  17   7    1.10    1.00
  -1 -17  -7    0.10    1.80
   1  17   7   -0.90    1.00
  -2 -17  -7   -2.60    1.60
   2  17   7   -0.10    1.00
  -3 -17  -7    4.30    1.90
   3  17   7    2.00    1.10
  -1  14  -8    1.20    1.10
  -4 -13   8    3.50    1.50
  -3 -13   8    2.50    1.40
  -2 -13   8   -0.20    1.20
   0  13  -8    1.00    0.90
  -1  13  -8   -0.10    0.90
  -2  13  -8   -0.10    0.90
  -3  13  -8    0.60    1.00
   3 -13   8    1.40    1.60
  -5 -12   8    2.80    1.60
  -4 -12   8    1.50    1.40
  -3 -12   8    2.30    1.40
  -2 -12   8    0.90    1.20
   0  12  -8   -0.70    0.80
  -1  12  -8   -0.80    0.80
  -2  12  -8    3.70    1.20
   2 -12   8    5.30    1.60
  -3  12  -8   -0.30    1.00
   3 -12   8    0.30    1.60
  -4  12  -8    2.50    1.20
   4 -12   8    1.80    1.80
  -5  12  -8    2.00    1.10
   5 -12   8    0.70    1.80
  -6 -11   8    2.90    1.60
  -5 -11   8   -0.60    1.30
  -4 -11   8    1.70    1.40
  -3 -11   8    3.60    1.40
  -2 -11   8    2.50    1.30
   1  11  -8   -0.40    0.80
  -1 -11   8    0.20    1.10
   0  11  -8   -1.00    0.80
  -1  11  -8   -0.70    0.90
   1 -11   8    1.00    1.30
  -2  11  -8    5.40    1.20
   2 -11   8    4.70    1.70
  -3  11  -8   -1.80    0.80
   3 -11   8   -0.70    1.40
  -4  11  -8    0.50    1.00
   4 -11   8    1.70    1.60
  -5  11  -8    1.40    1.00
   5 -11   8   -1.60    1.60
  -6  11  -8    3.10    1.20
   6 -11   8    0.80    1.80
  -7 -10   8    4.90    1.80
  -6 -10   8    2.90    1.50
  -5 -10   8   -0.40    1.30
  -4 -10   8    3.30    1.40
  -3 -10   8    1.00    1.20
  -2 -10   8    0.70    1.10
   1  10  -8    1.20    0.80
  -1 -10   8    0.80    1.10
   0  10  -8    0.20    0.80
   0 -10   8    0.40    1.10
  -1  10  -8    0.50    0.90
   1 -10   8    1.10    1.20
  -2  10  -8    2.30    1.00
   2 -10   8    1.80    1.50
  -3  10  -8    0.00    0.80
   3 -10   8    3.10    1.50
  -4  10  -8    2.00    1.00
   4 -10   8    2.40    1.60
  -5  10  -8    0.30    1.00
   5 -10   8   -0.80    1.60
  -6  10  -8    1.10    1.10
   6 -10   8   -0.30    1.70
   7 -10   8    3.20    2.00
  -8  -9   8    1.30    1.50
  -7  -9   8    1.50    1.50
  -6  -9   8    0.60    1.30
  -5  -9   8    2.00    1.30
  -4  -9   8   -0.10    1.10
  -3  -9   8    4.90    1.40
  -2  -9   8    1.50    1.20
   1   9  -8    2.40    0.80
  -1  -9   8    2.80    1.20
  -1  -9   8    2.10    1.10
   0   9  -8    6.40    1.10
   0  -9   8    6.40    1.40
   0  -9   8    7.10    1.30
  -1   9  -8   -0.70    0.70
   1  -9   8   -0.40    1.20
  -2   9  -8   -1.40    0.70
   2  -9   8   -0.10    1.30
  -3   9  -8    3.90    1.00
   3  -9   8    3.90    1.50
   4  -9   8    0.50    1.40
  -5   9  -8   -1.20    0.80
   5  -9   8   -0.50    1.40
  -6   9  -8    2.80    1.10
   6  -9   8    2.10    1.70
   7  -9   8    0.20    1.70
   8  -9   8    1.60    1.90
  -8  -8   8   -0.20    1.30
  -7  -8   8   -0.70    1.30
  -6  -8   8    3.10    1.50
  -5  -8   8    0.40    1.20
  -4  -8   8    0.30    1.10
  -3  -8   8    6.40    1.40
  -2  -8   8   -0.50    1.00
   1   8  -8    0.80    0.70
  -1  -8   8    1.10    1.00
  -1  -8   8   -0.40    1.00
   0   8  -8   10.00    1.20
   0  -8   8   11.80    1.40
   0  -8   8   10.30    1.60
  -1   8  -8    0.30    0.70
   1  -8   8    1.20    1.10
  -2   8  -8    0.90    0.80
   2  -8   8    0.50    1.20
  -3   8  -8    0.10    0.70
   3  -8   8    0.80    1.30
  -4   8  -8    0.10    0.80
   4  -8   8    2.00    1.40
  -5   8  -8    0.90    0.90
   5  -8   8    1.50    1.50
  -6   8  -8    0.20    0.90
   6  -8   8   -0.80    1.50
   7  -8   8   -2.00    1.60
   8  -8   8   -0.10    1.70
  -9  -7   8    1.20    1.40
  -8  -7   8    7.90    1.80
  -7  -7   8    8.90    1.80
  -6  -7   8   -0.60    1.00
  -5  -7   8    3.00    1.30
  -4  -7   8    6.90    1.40
  -3  -7   8   -0.40    1.00
   2   7  -8    8.70    1.00
  -2  -7   8    9.90    1.30
  -2  -7   8    7.90    1.40
   1   7  -8    8.20    1.00
  -1  -7   8    8.00    1.20
  -1  -7   8    7.20    1.30
   0   7  -8    3.30    0.80
   0  -7   8    4.20    1.20
   0  -7   8    3.30    1.00
  -1   7  -8   -0.30    0.60
   1  -7   8   -0.10    1.00
   1  -7   8    0.10    0.80
  -2   7  -8    3.20    0.90
   2  -7   8    4.70    1.40
  -3   7  -8    0.30    0.80
   3  -7   8    1.70    1.30
  -4   7  -8    7.20    1.10
   4  -7   8    8.20    1.70
  -5   7  -8   -0.30    0.80
   5  -7   8    0.60    1.40
   6  -7   8    0.90    1.50
   7  -7   8    1.00    1.60
   8  -7   8   -0.40    1.60
   9  -7   8   -1.60    1.70
 -10  -6   8    2.20    1.50
  -9  -6   8    2.30    1.50
  -8  -6   8    1.20    1.30
  -7  -6   8    2.30    1.30
  -6  -6   8    7.50    1.50
  -5  -6   8   21.10    2.10
  -4  -6   8    1.70    1.00
  -3  -6   8   16.20    1.70
  -3  -6   8   16.90    1.60
   2   6  -8   17.60    1.30
  -2  -6   8   19.50    1.80
  -2  -6   8   18.40    1.70
   1   6  -8    0.40    0.60
  -1  -6   8    0.10    0.90
  -1  -6   8    1.20    0.80
   0   6  -8    6.90    0.90
   0  -6   8    6.00    1.00
   0  -6   8    6.40    1.30
  -1   6  -8   11.60    1.10
   1  -6   8   10.20    1.50
   1  -6   8   11.90    1.20
  -2   6  -8   10.90    1.20
   2  -6   8    9.60    1.60
  -3   6  -8    5.70    1.00
   3  -6   8    3.70    1.40
  -4   6  -8   10.80    1.30
   4  -6   8   11.20    1.70
  -5   6  -8    0.70    0.80
   5  -6   8    0.70    1.30
   6  -6   8    2.20    1.40
   7  -6   8    2.30    1.60
   8  -6   8    1.40    1.70
   9  -6   8    0.80    1.80
  10  -6   8    1.50    1.90
 -10  -5   8   -1.70    1.30
  -9  -5   8    6.80    1.70
  -8  -5   8    2.10    1.30
  -7  -5   8   -1.60    1.10
  -6  -5   8    4.10    1.30
  -5  -5   8    3.10    1.10
  -4  -5   8   90.69    4.50
  -4  -5   8   87.99    3.90
  -3  -5   8   16.10    1.70
  -3  -5   8   18.20    1.60
   2   5  -8   18.30    1.10
  -2  -5   8   18.00    1.60
  -2  -5   8   16.80    1.60
   1   5  -8   28.80    1.50
  -1  -5   8   25.20    2.00
  -1  -5   8   23.70    2.00
   0   5  -8   12.60    1.10
   0  -5   8   16.60    1.60
   0  -5   8   12.50    1.30
  -1   5  -8   25.90    1.50
   1  -5   8   25.10    2.10
   1  -5   8   24.30    1.70
  -2   5  -8    5.50    0.90
   2  -5   8    6.90    1.30
  -3   5  -8    1.20    0.70
   3  -5   8    0.40    1.10
  -4   5  -8   16.90    1.50
   4  -5   8   14.70    1.90
   5  -5   8    2.70    1.40
   6  -5   8    0.00    1.30
   7  -5   8    1.60    1.30
   8  -5   8   -0.50    1.50
   9  -5   8    2.10    1.80
  10  -5   8   -1.30    1.60
 -10  -4   8    2.10    1.40
  -9  -4   8    0.80    1.30
  -8  -4   8    5.10    1.40
  -7  -4   8    5.90    1.50
  -6  -4   8    0.40    1.10
  -5  -4   8   -0.20    0.90
  -4  -4   8  106.99    4.50
  -4  -4   8  103.49    4.90
  -3  -4   8   -0.10    0.90
  -3  -4   8   -0.10    0.70
   2   4  -8    1.30    0.50
  -2  -4   8    1.70    0.80
  -2  -4   8    2.20    0.80
   1   4  -8   20.10    1.20
  -1  -4   8   18.20    1.60
  -1  -4   8   20.80    1.70
   0   4  -8   18.40    1.20
   0  -4   8   18.20    1.50
   0  -4   8   19.20    1.70
  -1   4  -8   58.99    2.50
   1  -4   8   58.19    2.80
   1  -4   8   58.49    3.10
  -2   4  -8   65.99    2.90
   2  -4   8   75.29    3.70
  -3   4  -8   59.79    2.70
   3  -4   8   59.89    3.40
   4  -4   8   18.80    2.00
   5  -4   8    2.90    1.20
   6  -4   8    0.10    1.20
   7  -4   8    1.50    1.40
   8  -4   8    1.20    1.50
   9  -4   8    2.70    1.70
  10  -4   8    2.10    1.70
  11  -4   8   -0.60    1.60
 -11  -3   8    0.70    1.40
 -10  -3   8    6.50    1.70
  -9  -3   8    2.80    1.30
  -8  -3   8   16.90    2.00
  -7  -3   8    8.10    1.40
  -6  -3   8    0.70    1.00
  -5  -3   8   18.70    1.50
  -5  -3   8   17.30    1.80
  -4  -3   8   25.40    2.10
  -4  -3   8   24.90    1.70
  -3  -3   8   -0.10    0.70
  -3  -3   8   -0.20    0.60
   2   3  -8   23.90    1.10
  -2  -3   8   22.60    1.70
  -2  -3   8   24.60    1.70
   1   3  -8    0.90    0.40
  -1  -3   8    0.20    0.60
  -1  -3   8   -0.10    0.70
   0   3  -8    2.50    0.50
   0  -3   8    2.30    0.70
   0  -3   8    3.00    1.00
  -1   3  -8    2.30    0.60
   1  -3   8    2.10    0.60
   1  -3   8    1.30    1.00
  -2   3  -8    3.70    0.70
   2  -3   8    4.10    1.20
   3  -3   8  141.39    6.10
   4  -3   8   10.30    1.60
   5  -3   8   20.40    2.00
   6  -3   8    5.80    1.50
   7  -3   8    6.00    1.50
   8  -3   8    2.70    1.40
   9  -3   8    0.10    1.40
  10  -3   8   -1.50    1.50
  11  -3   8   -0.30    1.60
 -11  -2   8    0.30    1.40
 -10  -2   8    0.40    1.20
  -9  -2   8    4.30    1.40
  -8  -2   8    1.00    1.10
  -7  -2   8   23.30    2.20
  -6  -2   8   18.20    1.90
  -6  -2   8   20.60    1.60
  -5  -2   8    4.10    0.90
  -5  -2   8    3.50    1.10
  -4  -2   8  109.09    4.60
  -4  -2   8  109.49    4.90
  -3  -2   8   24.50    1.60
  -3  -2   8   23.00    1.80
   2   2  -8    4.70    0.50
  -2  -2   8    4.30    0.90
  -2  -2   8    4.80    0.90
   1   2  -8   27.20    1.20
  -1  -2   8   29.90    1.80
  -1  -2   8   25.60    1.80
   0   2  -8    3.30    0.50
   0  -2   8    2.80    0.90
   0  -2   8    2.90    0.70
   1  -2   8   14.70    1.50
   1  -2   8   13.50    1.10
   3  -2   8    3.10    0.70
   4  -2   8    0.30    1.00
   5  -2   8  114.39    5.20
   6  -2   8   28.60    2.40
   7  -2   8    1.80    1.30
   8  -2   8    5.70    1.50
   9  -2   8    4.10    1.50
  10  -2   8   -0.80    1.40
 -11  -1   8    2.40    1.40
 -10  -1   8    4.00    1.50
  -9  -1   8    2.50    1.30
  -8  -1   8    0.50    1.10
  -7  -1   8    8.60    1.50
  -7  -1   8    7.40    1.20
  -6  -1   8    1.00    0.80
  -6  -1   8    0.40    0.80
  -5  -1   8   77.49    3.50
  -5  -1   8   79.99    3.90
  -4  -1   8  152.28    6.20
  -4  -1   8  160.08    6.70
  -3  -1   8   54.89    2.90
  -3  -1   8   59.39    2.80
  -2  -1   8   34.30    1.90
  -2  -1   8   33.90    2.00
  -1  -1   8  175.18    7.10
  -1  -1   8  178.08    7.00
   0  -1   8   52.19    2.40
   0  -1   8   51.59    2.60
   1  -1   8   -0.10    0.80
   1  -1   8    0.60    0.40
   2  -1   8    2.50    0.40
   3  -1   8   19.10    1.80
   4  -1   8   23.00    2.00
   5  -1   8    9.30    1.50
   6  -1   8    0.50    1.20
   7  -1   8    0.90    1.20
   8  -1   8    0.50    1.20
   9  -1   8    0.50    1.30
  10  -1   8   -0.40    1.50
  11  -1   8    0.00    1.10
 -11   0   8   -1.80    1.20
 -10   0   8   -1.00    1.10
  -9   0   8    5.00    1.30
  -8   0   8    4.90    1.30
  -7   0   8    5.70    1.20
  -7   0   8    7.70    1.20
  -6   0   8    0.20    0.80
  -6   0   8    0.00    0.90
  -5   0   8    1.00    0.90
  -5   0   8   -0.50    0.80
  -4   0   8    1.40    0.90
  -4   0   8    2.10    0.80
  -3   0   8   -0.20    0.60
  -3   0   8   -0.50    0.70
  -2   0   8   63.39    2.90
  -2   0   8   62.09    3.00
  -1   0   8    8.70    1.10
  -1   0   8    9.60    1.00
   0   0   8  575.24   20.60
   0   0   8  543.95   21.00
   1   0   8    0.20    0.40
   1   0   8    0.40    0.20
  -2   0  -8    2.40    0.40
   2   0   8    1.00    0.80
   3   0   8   14.60    1.40
   4   0   8    7.30    1.30
   5   0   8   78.39    3.80
   6   0   8    2.90    1.20
   7   0   8    1.70    1.30
   8   0   8    0.10    1.10
   9   0   8    3.70    1.30
   9   0   8    1.00    1.10
  10   0   8    0.40    1.10
  11   0   8    2.40    1.30
 -11   1   8   12.60    2.10
 -10   1   8    1.30    1.30
  -9   1   8   12.00    1.80
  -8   1   8   -0.50    1.00
  -8   1   8    0.50    0.90
  -7   1   8    0.20    0.90
  -7   1   8   -1.20    0.80
  -6   1   8   61.99    3.30
  -6   1   8   61.99    3.10
  -5   1   8   86.19    3.80
  -5   1   8   86.49    4.10
  -4   1   8    6.60    1.10
  -4   1   8    6.60    1.00
  -3   1   8   12.30    1.10
  -3   1   8   10.10    1.10
  -2   1   8   24.40    1.60
  -2   1   8   21.10    1.40
  -1   1   8  189.88    7.40
  -1   1   8  190.68    6.20
  -1   1   8  190.48    7.50
   0   1   8  168.48    6.30
   0   1   8  132.79    6.20
   0   1   8  176.28    5.50
  -1  -1  -8   20.10    1.20
   1   1   8   23.20    1.50
  -2  -1  -8   10.40    0.80
   2   1   8   10.80    1.20
   3   1   8    4.80    0.90
   4   1   8    4.40    1.10
   5   1   8    7.40    1.30
   6   1   8   11.20    1.40
   7   1   8   -0.30    0.90
   7   1   8   -0.60    0.90
   8   1   8    0.70    1.00
   8   1   8    0.80    1.10
   9   1   8    0.20    1.00
   9   1   8   -0.10    1.10
  10   1   8    0.70    1.10
  11   1   8    0.00    1.20
 -11   2   8   -0.30    1.30
 -10   2   8    2.80    1.30
  -9   2   8    7.40    1.50
  -9   2   8    8.90    1.40
  -8   2   8   35.40    2.40
  -8   2   8   36.50    2.50
  -7   2   8    9.90    1.50
  -7   2   8    9.40    1.30
  -6   2   8   66.69    3.50
  -6   2   8   65.09    3.20
  -5   2   8   17.00    1.60
  -5   2   8   18.40    1.70
  -4   2   8   35.90    2.10
  -4   2   8   34.00    2.20
  -3   2   8   -0.20    0.60
  -3   2   8    0.10    0.60
  -2   2   8   54.09    2.60
  -2   2   8   52.39    2.50
  -1   2   8   81.59    3.60
  -1   2   8   82.89    3.60
  -1   2   8   80.69    2.70
   0  -2  -8    1.20    0.50
   0   2   8    0.50    0.40
   0   2   8    0.20    0.60
  -1  -2  -8    0.10    0.20
   1   2   8   -0.10    0.20
   1   2   8    1.00    0.70
  -2  -2  -8    0.30    0.30
   2   2   8   -0.40    0.60
   2   2   8    0.20    0.50
  -3  -2  -8    1.00    0.40
   3   2   8    0.30    0.50
   3   2   8    0.20    0.70
   4   2   8    2.90    0.80
   4   2   8    2.20    0.90
   5   2   8   -0.70    0.80
   5   2   8   -0.30    0.70
   6   2   8   10.20    1.30
   6   2   8    9.60    1.30
   7   2   8   14.00    1.50
   7   2   8   10.60    1.50
   8   2   8    1.60    0.90
   8   2   8    1.30    1.10
   9   2   8   -0.40    1.00
  10   2   8    0.70    1.00
  11   2   8    1.50    1.20
 -10   3   8    0.50    1.10
  -9   3   8    0.90    1.10
  -9   3   8    2.00    1.10
  -8   3   8    0.90    1.00
  -8   3   8    0.80    1.00
  -7   3   8   43.00    2.60
  -7   3   8   42.10    2.70
  -6   3   8   20.00    1.90
  -6   3   8   19.70    1.70
  -5   3   8  115.79    5.00
  -5   3   8  119.09    5.20
  -4   3   8  341.57   13.30
  -4   3   8  339.07   12.80
  -3   3   8    0.70    0.70
  -3   3   8    0.00    0.70
  -2   3   8    1.40    0.70
   1  -3  -8  158.98    6.60
  -1   3   8  161.98    5.30
   0  -3  -8   22.80    1.50
   0   3   8   23.80    1.10
   0   3   8   22.90    1.50
  -1  -3  -8    0.20    0.40
   1   3   8    0.60    0.60
   1   3   8    0.40    0.40
   2   3   8  101.59    3.80
   2   3   8   97.99    4.20
  -3  -3  -8    1.50    0.50
   3   3   8    0.00    0.70
   3   3   8   -0.10    0.60
   4   3   8    8.50    1.10
   4   3   8   11.60    1.20
   5   3   8    5.00    1.00
   5   3   8    4.20    1.00
   6   3   8    0.80    0.90
   6   3   8    0.80    0.90
   7   3   8    1.00    1.00
   7   3   8    1.60    0.90
   8   3   8    0.40    1.00
   9   3   8    4.10    1.30
  10   3   8   -0.20    1.10
  11   3   8   -0.90    1.10
  11  -4  -8    4.20    1.50
  10  -4  -8   10.20    1.80
 -10   4   8   11.50    1.80
  -9   4   8    1.30    1.10
  -8   4   8    0.10    1.00
  -7   4   8    8.10    1.30
  -7   4   8    7.70    1.30
  -6   4   8    4.30    1.00
  -6   4   8    3.70    1.10
  -5   4   8    0.20    0.90
   4  -4  -8   33.00    2.10
  -4   4   8   30.40    2.00
   3  -4  -8  142.99    6.20
  -3   4   8  147.19    5.90
   2  -4  -8  141.09    6.10
  -2   4   8  146.39    4.80
   1  -4  -8  123.19    5.20
  -1   4   8  120.29    4.10
  -1   4   8  122.69    5.00
   0  -4  -8   35.10    1.80
   0   4   8   30.90    1.40
   0   4   8   33.80    1.80
  -1  -4  -8    4.50    0.70
   1   4   8    4.20    0.80
   1   4   8    4.90    0.60
  -2  -4  -8    1.20    0.50
   2   4   8    2.90    0.70
   2   4   8    0.60    0.50
   3   4   8   22.10    1.50
   3   4   8   24.40    1.60
  -4  -4  -8    7.70    0.80
   4   4   8    8.10    1.00
   4   4   8    8.20    1.10
   5   4   8   25.60    1.80
   5   4   8   26.00    1.80
   6   4   8    0.30    0.90
   6   4   8    0.60    0.80
   7   4   8   22.30    2.10
   7   4   8   23.60    1.90
   8   4   8    5.20    1.40
   9   4   8    0.80    1.10
  10   4   8    0.40    1.10
  11   4   8    0.70    1.20
  11  -5  -8    4.90    1.60
  10  -5  -8   -0.30    1.20
   9  -5  -8    6.30    1.60
  -9   5   8    6.30    1.40
   8  -5  -8   38.40    2.80
  -8   5   8   34.20    2.50
   7  -5  -8   19.60    2.10
  -7   5   8   19.20    1.90
   6  -5  -8   14.00    1.70
  -6   5   8   11.60    1.50
   5  -5  -8    1.70    1.00
  -5   5   8    2.30    1.00
   4  -5  -8   11.40    1.50
  -4   5   8   13.40    1.40
   3  -5  -8    0.40    0.70
  -3   5   8   -0.10    0.20
   2  -5  -8    1.60    0.80
  -2   5   8    0.60    0.50
  -2   5   8    1.50    0.30
   1  -5  -8   17.10    1.40
  -1   5   8   16.60    0.90
  -1   5   8   14.90    1.30
   0  -5  -8   16.90    1.30
   0   5   8   20.10    1.40
   0   5   8   15.30    0.90
  -1  -5  -8   30.90    1.80
   1   5   8   32.20    1.50
   1   5   8   31.80    1.80
  -2  -5  -8   13.60    1.20
   2   5   8   11.70    1.00
   2   5   8   13.90    1.20
  -3  -5  -8   38.90    2.10
   3   5   8   41.80    2.10
   3   5   8   39.80    2.10
  -4  -5  -8   13.40    1.20
   4   5   8   15.00    1.30
   4   5   8   14.90    1.40
   5   5   8    4.30    0.90
   5   5   8    5.40    0.90
   6   5   8   51.99    2.90
   6   5   8   52.79    2.70
   7   5   8    1.50    1.00
   8   5   8    2.90    1.10
   9   5   8    8.20    1.40
  10   5   8    1.70    1.20
  11   5   8    2.50    1.30
  11  -6  -8    3.00    1.50
  10  -6  -8    6.10    1.70
   9  -6  -8    7.20    1.70
  -9   6   8    8.40    1.60
   8  -6  -8    8.40    1.60
  -8   6   8    7.40    1.50
   7  -6  -8    1.50    1.10
  -7   6   8    0.20    1.00
   6  -6  -8    5.10    1.20
  -6   6   8    3.90    1.10
   5  -6  -8   33.40    2.40
  -5   6   8   37.90    2.30
   4  -6  -8    8.70    1.30
  -4   6   8    6.30    1.20
   2  -6  -8   10.90    1.20
  -2   6   8   10.00    1.20
   1  -6  -8   80.59    3.80
  -1   6   8   85.79    3.70
  -1   6   8   84.79    3.10
   0  -6  -8   24.40    1.60
   0   6   8   28.20    1.70
   0   6   8   21.60    1.20
  -1  -6  -8    1.70    0.70
   1   6   8    1.90    0.70
   1   6   8    3.00    0.60
  -2  -6  -8    0.30    0.70
   2   6   8    1.10    0.70
   2   6   8    0.70    0.50
  -3  -6  -8   41.90    2.40
   3   6   8   43.50    2.20
   3   6   8   44.00    2.20
  -4  -6  -8  138.39    5.80
   4   6   8  137.09    5.60
   4   6   8  144.49    5.40
   5   6   8    0.10    0.70
   5   6   8    0.20    0.70
   6   6   8   30.20    2.20
   7   6   8    7.10    1.30
   8   6   8    0.80    1.00
   9   6   8   -0.20    1.00
  10   6   8   -0.40    1.00
  11   6   8    1.90    1.20
  11  -7  -8    0.50    1.40
  10  -7  -8    0.60    1.30
   9  -7  -8    1.10    1.30
  -9   7   8    2.00    1.30
   8  -7  -8   19.80    2.20
  -8   7   8   23.60    2.20
   7  -7  -8   18.40    2.10
  -7   7   8   16.20    1.80
   6  -7  -8   13.20    1.80
  -6   7   8   16.10    1.70
   5  -7  -8   32.80    2.30
  -5   7   8   31.10    2.20
   4  -7  -8    1.60    0.90
  -4   7   8    0.80    0.90
   3  -7  -8   27.10    2.00
  -3   7   8   28.60    2.00
  -3   7   8   26.40    1.30
   2  -7  -8   60.49    3.10
  -2   7   8   57.19    3.00
  -2   7   8   60.19    2.40
   1  -7  -8    0.10    0.70
  -1   7   8    0.20    0.80
  -1   7   8   -0.10    0.40
   0  -7  -8  126.69    5.20
   0   7   8  117.09    5.00
   0   7   8  117.59    4.30
  -1  -7  -8   18.80    1.60
   1   7   8   21.60    1.30
   1   7   8   21.50    1.50
  -2  -7  -8   -0.80    0.80
   2   7   8    1.10    0.70
   2   7   8    0.10    0.60
  -3  -7  -8   36.40    2.40
   3   7   8   39.40    2.10
   3   7   8   39.00    2.10
  -4  -7  -8    5.90    1.20
   4   7   8    8.70    1.20
   4   7   8    7.80    1.00
  -5  -7  -8   46.40    2.70
   5   7   8   46.50    2.50
   6   7   8   -0.70    0.80
   7   7   8    1.70    1.00
   8   7   8   -1.40    0.90
   9   7   8   -0.30    1.00
  10   7   8    0.10    1.10
  11   7   8    1.40    1.30
  10  -8  -8    1.80    1.40
   9  -8  -8   -1.30    1.10
   8  -8  -8    3.30    1.40
  -8   8   8    3.30    1.40
   7  -8  -8    3.80    1.30
  -7   8   8    4.80    1.30
   6  -8  -8   23.20    2.00
  -6   8   8   24.40    2.10
   5  -8  -8    1.00    0.90
  -5   8   8   -0.30    0.90
   4  -8  -8   30.30    2.20
  -4   8   8   30.20    2.20
   3  -8  -8   53.79    2.90
  -3   8   8   53.69    2.90
  -3   8   8   53.29    2.20
   2  -8  -8   53.49    2.90
  -2   8   8   54.39    2.90
  -2   8   8   57.39    2.30
   1  -8  -8   -0.70    0.70
  -1   8   8   -0.50    0.80
  -1   8   8   -0.30    0.40
   0  -8  -8    9.50    1.20
   0   8   8    9.60    1.20
   0   8   8    9.50    0.90
  -1  -8  -8    9.20    1.20
   1   8   8    8.10    1.10
   1   8   8   10.30    1.00
  -2  -8  -8    9.10    1.30
   2   8   8    7.80    1.10
   2   8   8    8.30    1.00
  -3  -8  -8    8.50    1.30
   3   8   8    8.20    1.00
   3   8   8    7.10    1.10
  -4  -8  -8   25.70    2.10
   4   8   8   24.90    1.80
   4   8   8   26.00    1.70
  -5  -8  -8   16.90    1.60
   5   8   8   13.50    1.50
   6   8   8    0.10    0.90
   7   8   8   -0.10    0.90
   8   8   8    1.40    1.00
   9   8   8    0.50    1.00
  10   8   8    0.10    1.10
  10  -9  -8    1.20    1.20
   9  -9  -8    9.20    1.80
   8  -9  -8    8.50    1.60
  -8   9   8   11.50    1.80
   7  -9  -8    5.30    1.40
  -7   9   8    4.90    1.40
   6  -9  -8    9.40    1.50
  -6   9   8    6.50    1.40
   5  -9  -8    2.40    1.00
  -5   9   8    5.00    1.20
   4  -9  -8    1.50    0.90
  -4   9   8    1.40    0.90
   3  -9  -8   23.30    1.90
  -3   9   8   20.60    1.30
  -3   9   8   18.30    1.70
   2  -9  -8    5.40    1.10
  -2   9   8    7.00    0.80
  -2   9   8    5.70    1.10
   1  -9  -8  171.08    7.40
  -1   9   8  181.08    7.20
  -1   9   8  181.68    6.30
   0  -9  -8    4.90    1.00
   0   9   8    4.30    1.00
   0   9   8    4.70    0.70
  -1  -9  -8   11.90    1.40
   1   9   8   12.70    1.10
   1   9   8   11.90    1.30
  -2  -9  -8   30.70    2.10
   2   9   8   27.70    1.60
   2   9   8   25.10    1.80
  -3  -9  -8    3.40    1.20
   3   9   8    1.90    0.80
   3   9   8    1.10    0.80
  -4  -9  -8   44.10    2.80
   4   9   8   42.50    2.30
  -5  -9  -8   16.80    1.80
   5   9   8   15.70    1.60
   6   9   8    0.70    0.90
   7   9   8    9.90    1.50
   8   9   8    1.50    1.00
   9   9   8   -1.90    0.90
  10   9   8    0.60    1.20
  10 -10  -8    1.50    1.30
   9 -10  -8   -0.10    1.20
   8 -10  -8    3.20    1.30
   7 -10  -8    6.80    1.50
  -7  10   8    7.80    1.60
   6 -10  -8    1.00    1.00
  -6  10   8    0.10    1.10
   5 -10  -8    9.80    1.50
  -5  10   8   10.30    1.50
   4 -10  -8    4.50    1.10
  -4  10   8    3.00    1.10
   3 -10  -8    7.50    1.20
  -3  10   8    7.60    1.30
  -3  10   8    8.60    0.90
   2 -10  -8   30.00    2.20
  -2  10   8   27.20    1.60
  -2  10   8   26.90    2.00
   1 -10  -8   34.10    2.40
  -1  10   8   38.20    1.90
  -1  10   8   37.10    2.30
   0 -10  -8    0.40    0.90
   0  10   8    0.60    0.80
   0  10   8    0.00    0.60
  -1 -10  -8    1.60    1.00
   1  10   8    2.70    0.90
   1  10   8    2.20    0.70
  -2 -10  -8    1.90    1.10
   2  10   8    2.50    0.80
   2  10   8    1.70    0.80
  -3 -10  -8    0.90    1.20
   3  10   8    1.10    0.80
  -4 -10  -8   48.70    3.10
   4  10   8   47.80    2.50
  -5 -10  -8   10.70    1.60
   5  10   8    9.70    1.30
  -6 -10  -8    5.20    1.20
   6  10   8    3.60    1.10
   7  10   8    0.40    0.90
   8  10   8    1.00    1.00
   9  10   8    0.80    1.10
  10  10   8    1.60    1.20
   9 -11  -8    4.30    1.50
   8 -11  -8    3.30    1.30
   7 -11  -8    3.90    1.30
   6 -11  -8    0.50    1.10
  -6  11   8    1.00    1.20
   5 -11  -8    0.00    1.00
  -5  11   8    1.20    1.10
   4 -11  -8    4.80    1.10
  -4  11   8    5.00    1.30
   3 -11  -8   -0.90    0.90
  -3  11   8    0.40    0.60
  -3  11   8    0.40    1.00
   2 -11  -8   46.40    2.80
  -2  11   8   47.60    2.30
  -2  11   8   47.40    2.70
   1 -11  -8    6.40    1.20
  -1  11   8    6.90    0.90
  -1  11   8    6.60    1.20
   0 -11  -8    0.20    0.80
   0  11   8    1.00    0.90
   0  11   8    2.40    0.80
  -1 -11  -8    9.60    1.50
   1  11   8   11.60    1.30
   1  11   8   10.40    1.20
  -2 -11  -8    2.60    1.20
   2  11   8    3.30    0.90
   2  11   8    1.50    0.80
  -3 -11  -8    7.00    1.50
   3  11   8    5.90    1.00
  -4 -11  -8   -1.00    1.20
   4  11   8    1.60    0.90
  -5 -11  -8    1.50    1.20
   5  11   8    0.40    0.80
  -6 -11  -8   -0.20    1.10
   6  11   8    0.50    0.90
   7  11   8    0.90    1.00
   8  11   8    1.70    1.10
   9  11   8    0.90    1.10
   9 -12  -8   -0.50    1.30
   8 -12  -8   -1.70    1.20
   7 -12  -8    2.10    1.30
   6 -12  -8    6.40    1.50
   5 -12  -8    3.50    1.30
  -5  12   8    3.40    1.40
   4 -12  -8   15.20    1.90
  -4  12   8   13.00    1.70
   3 -12  -8    0.00    0.90
  -3  12   8    0.70    1.00
  -3  12   8   -0.10    0.60
   2 -12  -8    3.20    1.10
  -2  12   8    3.30    1.20
  -2  12   8    3.40    0.80
   1 -12  -8   -0.20    1.00
  -1  12   8   -1.10    1.00
  -1  12   8   -0.60    0.60
   0 -12  -8    2.80    1.20
   0  12   8    2.30    0.80
   0  12   8    1.80    1.00
  -1 -12  -8   11.80    1.70
   1  12   8   14.80    1.30
   1  12   8   10.70    1.30
  -2 -12  -8    0.00    1.30
   2  12   8    2.80    0.90
  -3 -12  -8    0.30    1.30
   3  12   8    2.60    0.90
  -4 -12  -8   10.60    1.80
   4  12   8    9.80    1.30
  -5 -12  -8   -0.10    1.30
   5  12   8    0.40    0.70
  -6 -12  -8    0.60    1.20
   6  12   8    0.20    0.90
   7  12   8    0.60    1.00
   8  12   8    3.40    1.30
   9  12   8   -0.70    1.00
   8 -13  -8   -1.30    1.30
   7 -13  -8    0.00    1.30
   6 -13  -8   -0.30    1.30
   5 -13  -8    2.40    1.30
   4 -13  -8   -0.10    1.20
  -4  13   8    0.70    1.20
   3 -13  -8    6.40    1.40
  -3  13   8    3.50    1.30
  -3  13   8    3.50    0.90
   2 -13  -8    8.60    1.50
  -2  13   8    9.30    1.50
  -2  13   8   11.40    1.30
   1 -13  -8   24.90    2.40
  -1  13   8   26.20    1.70
  -1  13   8   23.60    2.00
   0 -13  -8   10.40    1.60
   0  13   8   10.00    1.40
   0  13   8    9.70    1.20
  -1 -13  -8    3.50    1.50
   1  13   8    6.00    1.10
  -2 -13  -8   -0.20    1.30
   2  13   8    0.30    0.80
  -3 -13  -8    2.20    1.50
   3  13   8    1.40    0.90
  -4 -13  -8   -1.80    1.30
   4  13   8    0.80    0.90
  -5 -13  -8   -3.00    1.30
   5  13   8    0.90    0.90
  -6 -13  -8    2.30    1.40
   6  13   8    3.60    1.10
   7  13   8    1.30    1.00
   8  13   8    0.10    1.00
   7 -14  -8    0.10    1.50
   6 -14  -8   -0.60    1.40
   5 -14  -8    2.90    1.50
   4 -14  -8   -0.70    1.10
   3 -14  -8    0.70    1.30
  -3  14   8    1.70    0.90
   2 -14  -8    0.20    1.30
  -2  14   8    1.10    0.80
   1 -14  -8    6.60    1.60
  -1  14   8    5.90    1.10
  -1  14   8    5.60    1.40
   0 -14  -8   13.00    1.90
   0  14   8   13.60    1.40
  -1 -14  -8    0.60    1.40
   1  14   8    2.10    0.90
  -2 -14  -8    0.80    1.50
   2  14   8    0.30    0.90
  -3 -14  -8   13.60    2.10
   3  14   8   11.20    1.50
  -4 -14  -8   -0.70    1.40
   4  14   8   -0.10    0.90
  -5 -14  -8    1.70    1.50
   5  14   8    2.20    1.10
  -6 -14  -8    1.80    1.40
   6  14   8    0.10    1.00
   7  14   8   -1.30    0.90
   6 -15  -8   -2.60    1.40
   5 -15  -8    0.00    1.50
   4 -15  -8    1.40    1.50
   3 -15  -8    1.30    1.50
  -3  15   8    2.80    1.00
   2 -15  -8    1.50    1.40
  -2  15   8    0.90    0.90
   1 -15  -8   -2.40    1.30
  -1  15   8   -0.40    0.80
   0 -15  -8   -0.20    1.50
   0  15   8    0.90    0.90
  -1 -15  -8   -1.60    1.30
   1  15   8    0.50    0.90
  -2 -15  -8   -1.90    1.50
   2  15   8   -0.10    0.90
  -3 -15  -8   -0.50    1.50
   3  15   8    1.50    0.90
  -4 -15  -8    0.60    1.50
   4  15   8    0.00    0.90
  -5 -15  -8    2.20    1.60
   5  15   8    5.40    1.30
  -6 -15  -8    0.70    1.50
   6  15   8   -0.10    1.00
   4 -16  -8   -1.30    1.60
   3 -16  -8   -1.70    1.50
  -3  16   8    0.60    0.90
   2 -16  -8    0.00    1.60
  -2  16   8   -1.00    0.80
   1 -16  -8    1.50    1.70
  -1  16   8    2.90    1.10
   0 -16  -8    2.10    1.80
   0  16   8    0.40    1.00
  -1 -16  -8    1.20    1.80
   1  16   8    6.70    1.30
  -2 -16  -8    2.60    1.90
   2  16   8    3.90    1.20
  -3 -16  -8    0.50    1.70
   3  16   8    1.40    1.10
  -4 -16  -8    0.40    1.60
   4  16   8    1.40    1.10
  -5 -16  -8    2.70    1.60
   5  16   8    0.80    1.10
  -6 -16  -8    0.10    1.40
  -3  17   8    3.50    1.10
  -2  17   8   -0.50    0.80
   1 -17  -8   -1.90    1.70
  -1  17   8    0.40    0.90
   0 -17  -8   -3.20    1.60
   0  17   8    1.80    1.00
  -1 -17  -8   -1.80    1.70
   1  17   8   -0.70    1.00
  -2 -17  -8   -3.50    1.60
   2  17   8    0.20    0.90
  -3 -17  -8    0.40    1.70
   3  17   8   -0.90    0.90
  -3 -13   9    0.40    1.30
  -2  13  -9    1.10    1.10
  -4 -12   9    3.00    1.60
  -3 -12   9   -0.80    1.20
  -1  12  -9   -0.20    0.90
  -2  12  -9   -0.20    0.90
   2 -12   9    1.30    1.40
  -3  12  -9    0.70    1.00
   3 -12   9    1.50    1.60
  -4  12  -9    1.90    1.10
   4 -12   9    1.70    1.70
  -5 -11   9    1.70    1.40
  -4 -11   9    1.10    1.40
  -3 -11   9    7.80    1.70
  -2 -11   9    0.90    1.20
  -1  11  -9   -0.20    0.80
   1 -11   9   -0.40    1.30
  -2  11  -9    3.10    1.10
   2 -11   9    3.30    1.50
  -3  11  -9    0.30    1.00
   3 -11   9    1.20    1.50
  -4  11  -9   -1.50    1.00
   4 -11   9   -0.10    1.70
  -5  11  -9    0.60    1.00
   5 -11   9    0.40    1.70
  -6 -10   9    3.40    1.60
  -5 -10   9    1.30    1.40
  -4 -10   9    1.40    1.30
  -3 -10   9    2.00    1.30
  -2 -10   9    3.90    1.30
   0 -10   9    0.60    1.20
  -1  10  -9    1.30    0.90
   1 -10   9    0.70    1.30
  -2  10  -9    2.60    1.00
   2 -10   9    3.70    1.50
  -3  10  -9    0.60    0.90
   3 -10   9    1.50    1.50
  -4  10  -9    0.80    1.00
   4 -10   9    1.30    1.60
  -5  10  -9    2.10    1.10
   5 -10   9   -0.70    1.60
  -6  10  -9    1.20    1.10
   6 -10   9    0.70    1.70
  -7  -9   9    1.00    1.50
  -6  -9   9    2.30    1.50
  -5  -9   9    1.30    1.40
  -4  -9   9    0.50    1.20
  -3  -9   9   -0.30    1.10
  -2  -9   9   -0.10    1.10
  -1  -9   9    1.20    1.10
   0   9  -9    1.90    0.90
   0  -9   9    1.60    1.20
  -1   9  -9    0.30    0.80
   1  -9   9   -0.40    1.20
  -2   9  -9    1.30    0.80
   2  -9   9    3.60    1.40
  -3   9  -9    2.00    1.00
   3  -9   9    2.60    1.50
  -4   9  -9    1.50    1.00
   4  -9   9    1.50    1.50
  -5   9  -9    3.50    1.10
   5  -9   9    3.20    1.70
   6  -9   9   -1.30    1.60
   7  -9   9    1.80    1.80
  -8  -8   9    1.90    1.50
  -7  -8   9   -2.30    1.20
  -6  -8   9    0.50    1.30
  -5  -8   9   -1.10    1.20
  -4  -8   9    0.50    1.20
  -3  -8   9   -0.60    1.00
  -2  -8   9    1.30    1.10
  -1  -8   9    4.60    1.20
   0   8  -9    2.30    0.80
   0  -8   9    1.80    1.20
  -1   8  -9   -1.40    0.60
   1  -8   9    0.50    1.10
  -2   8  -9   -0.20    0.80
   2  -8   9   -0.90    1.10
  -3   8  -9   -1.40    0.70
   3  -8   9    1.10    1.30
  -4   8  -9    0.80    0.90
   4  -8   9   -0.90    1.30
  -5   8  -9   -0.40    0.80
   5  -8   9   -0.40    1.50
   6  -8   9    0.00    1.50
   7  -8   9    1.10    1.70
   8  -8   9    0.90    1.80
  -8  -7   9   -0.10    1.30
  -7  -7   9    6.00    1.60
  -6  -7   9   -0.20    1.20
  -5  -7   9    0.70    1.20
  -4  -7   9    1.10    1.20
  -3  -7   9    1.10    1.10
  -2  -7   9   -1.20    0.90
  -2  -7   9    0.20    0.90
  -1  -7   9    2.80    1.10
  -1  -7   9    2.30    1.10
   0   7  -9    4.20    0.90
   0  -7   9    3.30    1.20
   0  -7   9    3.60    1.00
  -1   7  -9    0.70    0.70
   1  -7   9    2.70    1.20
  -2   7  -9   -0.20    0.70
   2  -7   9   -1.20    1.10
  -3   7  -9    1.50    0.80
   3  -7   9    0.70    1.30
  -4   7  -9    0.00    0.80
   4  -7   9    0.00    1.30
  -5   7  -9    1.40    1.00
   5  -7   9    2.70    1.50
   6  -7   9    0.30    1.50
   7  -7   9   -2.30    1.50
   8  -7   9   -1.00    1.60
   9  -7   9   -1.50    1.60
  -9  -6   9    0.50    1.30
  -8  -6   9    7.40    1.70
  -7  -6   9    3.40    1.40
  -6  -6   9    1.00    1.20
  -5  -6   9    2.80    1.20
  -4  -6   9    8.90    1.50
  -3  -6   9    8.50    1.40
  -3  -6   9   10.40    1.30
  -2  -6   9    1.20    1.00
  -2  -6   9   -0.40    0.90
  -1  -6   9    1.10    1.00
  -1  -6   9    0.80    0.80
   0   6  -9    6.90    0.90
   0  -6   9    5.70    1.30
   0  -6   9    4.80    1.00
  -1   6  -9    2.40    0.70
   1  -6   9    2.40    1.10
  -2   6  -9    0.10    0.70
   2  -6   9   -0.10    1.00
  -3   6  -9    6.20    1.00
   3  -6   9    3.70    1.40
  -4   6  -9    0.70    0.80
   4  -6   9    1.50    1.30
   5  -6   9    1.80    1.40
   6  -6   9    1.70    1.40
   7  -6   9    0.80    1.60
   8  -6   9    1.40    1.70
   9  -6   9    2.90    1.90
  -9  -5   9    1.10    1.40
  -8  -5   9    9.40    1.80
  -7  -5   9    2.40    1.30
  -6  -5   9    8.20    1.60
  -5  -5   9   -0.40    1.00
  -4  -5   9   -0.10    0.90
  -4  -5   9    0.50    0.80
  -3  -5   9   41.10    2.30
  -3  -5   9   36.20    2.60
  -2  -5   9    0.80    0.90
  -2  -5   9   -0.40    0.80
  -1  -5   9   14.60    1.50
  -1  -5   9   15.10    1.60
   0   5  -9  111.39    4.20
   0  -5   9  109.49    4.90
   0  -5   9  109.79    4.80
  -1   5  -9    6.20    0.90
   1  -5   9    7.20    1.40
  -2   5  -9   -0.80    0.60
   2  -5   9    1.70    1.20
  -3   5  -9    7.60    1.10
   3  -5   9    9.80    1.60
   4  -5   9    1.70    1.30
   5  -5   9    1.30    1.30
   6  -5   9    1.60    1.40
   7  -5   9    1.10    1.50
   8  -5   9    2.10    1.70
   9  -5   9    0.20    1.70
  10  -5   9    0.60    1.70
 -10  -4   9   -0.60    1.30
  -9  -4   9    6.90    1.70
  -8  -4   9    1.80    1.30
  -7  -4   9    8.20    1.60
  -6  -4   9    5.70    1.30
  -5  -4   9    6.50    1.30
  -4  -4   9    5.70    1.10
  -4  -4   9    7.30    1.40
  -3  -4   9    2.60    1.00
  -3  -4   9    3.70    0.90
  -2  -4   9   88.29    4.00
  -2  -4   9   85.69    4.10
  -1  -4   9   84.19    3.80
  -1  -4   9   75.79    3.70
   0   4  -9    1.10    0.60
   0  -4   9    0.40    1.00
   0  -4   9    1.30    0.80
  -1   4  -9   13.70    1.20
   1  -4   9   13.30    1.70
   1  -4   9   16.30    1.40
  -2   4  -9    4.40    0.80
   2  -4   9    5.80    1.40
   3  -4   9   23.50    2.20
   4  -4   9    0.90    1.20
   5  -4   9    2.30    1.30
   6  -4   9   -0.50    1.20
   7  -4   9    2.30    1.40
   8  -4   9    0.80    1.50
   9  -4   9   -1.20    1.50
  10  -4   9   -0.50    1.60
 -10  -3   9    0.30    1.30
  -9  -3   9    1.20    1.30
  -8  -3   9    0.80    1.10
  -7  -3   9   -0.60    1.00
  -6  -3   9    1.20    1.10
  -5  -3   9   32.60    2.40
  -5  -3   9   32.00    2.10
  -4  -3   9   37.10    2.60
  -4  -3   9   37.70    2.20
  -3  -3   9   -0.50    0.80
  -3  -3   9   -0.70    0.70
  -2  -3   9    1.00    0.80
  -2  -3   9    0.60    0.80
  -1  -3   9    7.70    1.10
  -1  -3   9    7.00    1.20
   0   3  -9   77.59    3.00
   0  -3   9   76.09    3.60
   0  -3   9   84.99    3.80
  -1   3  -9   37.00    1.80
   1  -3   9   37.20    2.50
   1  -3   9   35.60    2.00
   2  -3   9  119.89    5.40
   3  -3   9   64.39    3.50
   4  -3   9   35.50    2.60
   5  -3   9    1.80    1.30
   6  -3   9    0.90    1.30
   7  -3   9    1.10    1.30
   8  -3   9    0.40    1.40
   9  -3   9   -0.70    1.40
  10  -3   9    0.60    1.70
  11  -3   9    0.10    1.70
 -10  -2   9    1.20    1.30
  -9  -2   9    1.90    1.30
  -8  -2   9    2.80    1.30
  -7  -2   9   -0.30    1.00
  -6  -2   9    0.40    0.80
  -6  -2   9    2.40    1.00
  -5  -2   9    2.40    0.90
  -5  -2   9    3.40    1.00
  -4  -2   9   20.20    1.80
  -4  -2   9   19.00    1.60
  -3  -2   9    6.70    1.10
  -3  -2   9    6.90    1.10
  -2  -2   9   51.09    2.60
  -2  -2   9   46.80    2.60
  -1  -2   9    0.10    0.60
  -1  -2   9   -0.40    0.80
   0  -2   9   28.20    2.00
   0  -2   9   30.40    1.80
   1  -2   9  114.19    4.80
   1  -2   9  105.49    4.50
   2  -2   9    6.50    1.40
   3  -2   9   13.50    1.70
   4  -2   9   11.00    1.50
   5  -2   9   17.90    1.90
   6  -2   9    1.10    1.30
   7  -2   9    3.40    1.40
   8  -2   9    1.30    1.40
   9  -2   9    1.30    1.60
  10  -2   9    0.10    1.60
 -11  -1   9    3.90    1.60
 -10  -1   9   -0.20    1.20
  -9  -1   9   -0.80    1.10
  -8  -1   9    2.30    1.20
  -7  -1   9    5.30    1.10
  -7  -1   9    4.50    1.30
  -6  -1   9   11.30    1.60
  -6  -1   9   12.70    1.40
  -5  -1   9   10.50    1.40
  -5  -1   9   10.70    1.30
  -4  -1   9   71.29    3.40
  -4  -1   9   73.19    3.70
  -3  -1   9   -0.30    0.70
  -3  -1   9    1.00    0.80
  -2  -1   9    4.80    0.90
  -2  -1   9    3.40    0.80
  -1  -1   9   10.70    1.30
  -1  -1   9   10.20    1.10
   0  -1   9   24.20    1.90
   0  -1   9   22.50    1.50
   1  -1   9  187.78    8.20
   1  -1   9  224.48    8.10
   2  -1   9    0.70    0.30
   3  -1   9   60.89    3.20
   4  -1   9   12.70    1.60
   5  -1   9    1.60    1.20
   6  -1   9    6.20    1.40
   7  -1   9    1.60    1.20
   8  -1   9   -0.10    1.30
   9  -1   9    1.30    1.40
  10  -1   9    2.60    1.60
  10  -1   9    1.10    1.00
  11  -1   9   -1.00    1.10
 -11   0   9   -1.10    1.30
 -10   0   9    8.20    1.70
  -9   0   9    2.30    1.20
  -8   0   9   15.30    1.90
  -7   0   9    3.20    1.20
  -7   0   9    5.40    1.20
  -6   0   9    0.10    0.90
  -6   0   9    0.30    0.80
  -5   0   9  157.48    6.70
  -5   0   9  150.48    6.30
  -4   0   9    6.30    1.10
  -4   0   9    4.50    1.10
  -3   0   9    8.20    1.10
  -3   0   9    6.80    1.10
  -2   0   9    1.80    0.70
  -2   0   9    1.70    0.80
  -1   0   9    5.70    0.90
  -1   0   9    6.30    1.00
   0   0   9   69.29    3.20
   0   0   9   65.69    3.00
   2   0   9   -1.10    0.70
   3   0   9    7.50    1.30
   4   0   9   49.70    2.90
   5   0   9    4.00    1.20
   6   0   9   14.60    1.70
   7   0   9    0.60    1.10
   8   0   9    1.70    1.20
   9   0   9    0.50    1.30
   9   0   9    0.40    1.10
  10   0   9   -0.10    1.10
  11   0   9    0.50    1.20
 -11   1   9   -0.70    1.30
 -10   1   9    3.30    1.40
  -9   1   9    0.30    1.20
  -8   1   9    0.80    1.00
  -8   1   9    0.40    1.00
  -7   1   9   15.70    1.80
  -7   1   9   17.80    1.70
  -6   1   9    1.10    0.90
  -6   1   9    0.10    0.90
  -5   1   9  152.58    6.60
  -5   1   9  154.58    6.30
  -4   1   9   26.90    2.00
  -4   1   9   28.50    1.90
  -3   1   9   15.80    1.40
  -3   1   9   14.40    1.40
  -2   1   9    0.50    0.60
  -2   1   9    0.00    0.60
  -1   1   9   37.40    2.10
  -1   1   9   40.00    2.20
   0   1   9  110.39    3.90
   0   1   9  110.59    4.60
  -1  -1  -9   13.40    1.10
   1   1   9   18.10    1.10
  -2  -1  -9   17.90    1.10
   2   1   9   19.90    1.60
   3   1   9   15.30    1.50
   4   1   9    5.00    1.20
   5   1   9   61.79    3.30
   6   1   9    1.10    1.10
   7   1   9    1.40    0.90
   7   1   9    0.20    1.00
   8   1   9    3.40    1.20
   8   1   9    2.30    1.20
   9   1   9   -0.80    1.00
   9   1   9    2.60    1.30
  10   1   9    2.10    1.20
  11   1   9    0.50    1.20
 -11   2   9    6.90    1.70
 -10   2   9    1.20    1.30
  -9   2   9    4.80    1.30
  -8   2   9    1.30    1.00
  -8   2   9    2.80    1.20
  -7   2   9   14.90    1.60
  -7   2   9   16.50    1.80
  -6   2   9   16.00    1.60
  -6   2   9   14.70    1.70
  -5   2   9   -0.20    0.80
  -5   2   9   -0.20    0.80
  -4   2   9  114.99    5.10
  -4   2   9  108.49    4.80
  -3   2   9   62.89    3.10
  -3   2   9   64.09    3.20
  -2   2   9    4.50    0.80
  -2   2   9    3.90    0.80
  -1   2   9    0.90    0.50
  -1   2   9    0.70    0.60
   0  -2  -9   35.90    1.90
   0   2   9   33.30    1.50
  -1  -2  -9    5.20    0.70
   1   2   9    4.70    0.70
   1   2   9    4.80    1.00
  -2  -2  -9   13.30    0.90
   2   2   9   14.20    1.20
   2   2   9   14.30    1.40
   3   2   9    7.80    1.00
   3   2   9    7.10    1.10
   4   2   9   21.10    1.70
   4   2   9   23.80    1.90
   5   2   9   64.39    3.20
   5   2   9   64.69    3.30
   6   2   9    0.30    1.00
   6   2   9    0.40    0.90
   7   2   9    0.90    1.00
   7   2   9    4.30    1.20
   8   2   9    1.90    1.10
   8   2   9   -0.90    0.90
   9   2   9    0.90    1.00
  10   2   9   -0.10    1.10
  11   2   9    2.00    1.30
 -10   3   9    3.30    1.40
  -9   3   9    8.40    1.50
  -9   3   9    8.20    1.50
  -8   3   9   15.40    1.80
  -8   3   9   14.20    1.70
  -7   3   9    1.00    1.00
  -7   3   9    3.10    1.10
  -6   3   9   24.70    2.10
  -6   3   9   25.20    1.90
  -5   3   9   -0.60    0.80
  -5   3   9    0.50    0.90
  -4   3   9   85.69    3.80
  -4   3   9   81.59    3.90
  -3   3   9    2.10    0.90
  -3   3   9    3.30    0.90
  -2   3   9   54.99    2.70
   0  -3  -9  109.59    4.80
   0   3   9  112.29    3.90
   0   3   9  113.39    4.70
  -1  -3  -9    6.00    0.80
   1   3   9    6.80    0.70
   1   3   9    5.30    0.90
   2   3   9   16.90    1.30
   2   3   9   16.20    1.50
   3   3   9    2.30    0.90
   3   3   9    0.90    0.60
   4   3   9    7.60    1.10
   4   3   9    5.50    1.00
   5   3   9    8.40    1.30
   5   3   9    9.00    1.30
   6   3   9    1.20    1.00
   6   3   9    1.80    1.00
   7   3   9    7.40    1.30
   7   3   9    6.30    1.30
   8   3   9   -0.40    1.00
   9   3   9   -0.30    1.10
  10   3   9   -0.20    1.10
  11   3   9    0.70    1.30
  11  -4  -9    7.30    1.80
  10  -4  -9   -0.30    1.20
 -10   4   9   -0.10    1.30
  -9   4   9    4.50    1.40
  -8   4   9    4.00    1.20
  -7   4   9   24.80    2.00
  -6   4   9   36.80    2.40
  -5   4   9   72.99    3.60
   4  -4  -9   -0.30    0.80
  -4   4   9    0.70    0.80
   3  -4  -9   14.50    1.60
  -3   4   9   13.10    1.40
   2  -4  -9    2.10    0.90
   1  -4  -9    0.20    0.70
  -1   4   9    0.10    0.30
  -1   4   9    0.10    0.60
   0  -4  -9   16.50    1.40
   0   4   9   19.00    1.40
  -1  -4  -9   18.60    1.30
   1   4   9   20.00    1.50
   1   4   9   21.30    1.20
  -2  -4  -9    0.40    0.50
   2   4   9    1.20    0.60
   2   4   9    0.70    0.60
  -3  -4  -9   28.30    1.70
   3   4   9   41.20    2.00
   3   4   9   41.40    2.20
   4   4   9   55.79    2.90
   4   4   9   59.79    2.80
   5   4   9   -0.70    0.80
   5   4   9   -1.00    0.70
   6   4   9    9.80    1.40
   6   4   9    8.80    1.20
   7   4   9   -0.50    0.90
   7   4   9    0.60    0.90
   8   4   9    2.90    1.20
   9   4   9    1.80    1.30
  10   4   9    1.10    1.20
  11   4   9   -1.10    1.20
  11  -5  -9    3.10    1.50
  10  -5  -9    6.30    1.70
 -10   5   9    9.00    1.80
   9  -5  -9    1.70    1.30
  -9   5   9    2.10    1.30
   8  -5  -9   18.80    2.20
  -8   5   9   15.50    1.80
   7  -5  -9   26.50    2.30
  -7   5   9   25.10    2.10
   6  -5  -9   13.80    1.70
  -6   5   9   10.10    1.50
   5  -5  -9    0.90    0.90
  -5   5   9   -0.20    0.90
   4  -5  -9   44.00    2.80
  -4   5   9   41.40    2.50
   3  -5  -9   12.00    1.50
  -3   5   9   11.40    1.30
   2  -5  -9  156.38    6.70
   1  -5  -9   91.79    4.10
  -1   5   9   91.29    4.00
  -1   5   9   86.89    3.10
   0  -5  -9   72.79    3.30
   0   5   9   70.19    2.70
   0   5   9   72.49    3.30
  -1  -5  -9    4.70    0.80
   1   5   9    4.20    0.90
   1   5   9    4.60    0.70
  -2  -5  -9   11.80    1.10
   2   5   9   12.90    1.10
   2   5   9   12.00    1.30
  -3  -5  -9   11.80    1.10
   3   5   9   11.10    1.20
   3   5   9   11.40    1.20
   4   5   9    8.80    1.20
   4   5   9    8.10    1.10
   5   5   9    0.00    0.80
   5   5   9   -0.20    0.80
   6   5   9    3.20    1.10
   6   5   9    3.10    1.00
   7   5   9   22.80    2.10
   8   5   9    2.10    1.10
   9   5   9    1.90    1.20
  10   5   9   -0.70    1.10
  11   5   9   -0.40    1.10
  11  -6  -9    1.00    1.50
  10  -6  -9    0.20    1.20
 -10   6   9    0.80    1.40
   9  -6  -9    0.60    1.10
  -9   6   9    0.00    1.10
   8  -6  -9    4.90    1.40
  -8   6   9    5.80    1.40
   7  -6  -9    3.20    1.30
  -7   6   9    5.10    1.30
   6  -6  -9   13.50    1.80
  -6   6   9   12.80    1.60
   5  -6  -9   48.70    3.00
  -5   6   9   48.60    2.80
   4  -6  -9   30.50    2.30
  -4   6   9   31.90    2.10
   3  -6  -9   28.80    2.20
  -3   6   9   30.00    2.00
   2  -6  -9    2.30    0.90
  -2   6   9    0.90    0.80
   1  -6  -9  181.58    7.30
  -1   6   9  175.18    6.00
  -1   6   9  174.48    7.10
   0  -6  -9   44.80    2.50
   0   6   9   44.90    1.90
   0   6   9   45.30    2.50
  -1  -6  -9  222.28    8.90
   1   6   9  228.88    7.70
   1   6   9  223.78    8.70
  -2  -6  -9  128.39    5.40
   2   6   9  129.39    5.40
   2   6   9  136.19    4.90
  -3  -6  -9   -0.60    0.70
   3   6   9    0.10    0.80
   3   6   9   -0.10    0.60
  -4  -6  -9   15.90    1.50
   4   6   9   17.40    1.50
   4   6   9   17.50    1.60
   5   6   9    0.90    0.90
   5   6   9    0.30    0.80
   6   6   9   17.00    1.70
   7   6   9    0.20    1.00
   8   6   9    0.30    1.00
   9   6   9    2.70    1.30
  10   6   9    0.00    1.20
  11   6   9    1.80    1.40
  10  -7  -9    3.00    1.50
   9  -7  -9    0.40    1.20
  -9   7   9   -0.10    1.30
   8  -7  -9    5.20    1.40
  -8   7   9    5.60    1.50
   7  -7  -9   -1.60    1.00
  -7   7   9    0.50    1.10
   6  -7  -9    1.80    1.00
  -6   7   9    0.90    1.00
   5  -7  -9    3.00    1.10
  -5   7   9    1.60    1.00
   4  -7  -9    0.80    0.90
  -4   7   9   -1.60    0.80
   3  -7  -9   69.69    3.70
  -3   7   9   76.99    3.60
   2  -7  -9    1.10    0.70
  -2   7   9    0.70    0.90
   1  -7  -9   57.59    3.00
  -1   7   9   55.99    2.90
  -1   7   9   55.39    2.20
   0  -7  -9   62.69    3.10
   0   7   9   60.39    2.50
   0   7   9   59.39    3.00
  -1  -7  -9    2.60    0.90
   1   7   9    0.90    0.90
   1   7   9    0.50    0.60
  -2  -7  -9  105.39    4.80
   2   7   9  113.29    4.70
   2   7   9  117.29    4.30
  -3  -7  -9   87.09    4.00
   3   7   9   90.29    3.60
   3   7   9   85.29    3.90
  -4  -7  -9    2.90    1.00
   4   7   9    1.80    0.80
   4   7   9    2.70    0.90
   5   7   9    8.30    1.10
   5   7   9   12.00    1.40
   6   7   9    8.40    1.30
   7   7   9    0.30    1.00
   8   7   9    1.10    1.00
   9   7   9    1.10    1.20
  10   7   9    1.70    1.20
  10  -8  -9   -1.10    1.30
   9  -8  -9    5.40    1.60
  -9   8   9    8.80    1.80
   8  -8  -9   12.40    1.90
  -8   8   9   12.30    1.80
   7  -8  -9    7.80    1.60
  -7   8   9    9.70    1.60
   6  -8  -9   -0.10    0.90
  -6   8   9    0.00    1.00
   5  -8  -9   11.20    1.60
  -5   8   9   11.20    1.50
   4  -8  -9    2.60    1.00
  -4   8   9    3.50    1.10
   3  -8  -9    0.10    0.80
  -3   8   9   -0.40    0.90
   2  -8  -9    0.10    0.70
  -2   8   9   -1.20    0.80
  -2   8   9    0.20    0.50
   1  -8  -9    0.70    0.80
  -1   8   9    0.90    0.50
  -1   8   9   -0.50    0.80
   0  -8  -9   12.60    1.40
   0   8   9   13.00    1.00
   0   8   9   12.10    1.30
  -1  -8  -9    5.30    1.00
   1   8   9    6.10    1.00
   1   8   9    4.80    0.80
  -2  -8  -9    6.30    1.10
   2   8   9    5.20    0.90
   2   8   9    4.40    1.00
  -3  -8  -9   10.20    1.40
   3   8   9   10.00    1.20
   3   8   9    9.80    1.20
  -4  -8  -9   48.70    2.90
   4   8   9   51.59    2.60
   4   8   9   50.49    2.60
   5   8   9    0.00    0.80
   6   8   9    2.10    1.00
   7   8   9   -1.30    0.80
   8   8   9    0.80    1.00
   9   8   9    0.00    1.10
  10   8   9    0.10    1.20
  10  -9  -9    2.20    1.40
   9  -9  -9    3.40    1.50
   8  -9  -9    6.00    1.60
  -8   9   9    7.70    1.70
   7  -9  -9    0.70    1.10
  -7   9   9    1.90    1.20
   6  -9  -9   29.10    2.40
  -6   9   9   30.00    2.40
   5  -9  -9    0.00    0.90
  -5   9   9   -0.10    1.00
   4  -9  -9    2.40    1.00
  -4   9   9    3.10    1.20
   3  -9  -9   32.50    2.20
  -3   9   9   31.00    2.20
   2  -9  -9    1.40    0.90
  -2   9   9    2.50    0.60
  -2   9   9    1.30    0.90
   1  -9  -9    2.40    0.90
  -1   9   9    2.90    1.00
  -1   9   9    4.20    0.70
   0  -9  -9   28.50    2.00
   0   9   9   31.10    1.60
   0   9   9   26.90    1.90
  -1  -9  -9    1.90    0.90
   1   9   9    3.40    0.70
   1   9   9    3.90    0.90
  -2  -9  -9    3.20    1.00
   2   9   9    2.10    0.70
   2   9   9    2.10    0.80
  -3  -9  -9   17.30    1.70
   3   9   9   16.80    1.40
   3   9   9   18.20    1.60
  -4  -9  -9   29.90    2.40
   4   9   9   33.90    2.10
  -5  -9  -9    1.30    1.10
   5   9   9    0.60    0.80
   6   9   9    5.30    1.20
   7   9   9   -0.80    0.90
   8   9   9   -1.30    0.90
   9   9   9    1.50    1.20
  10   9   9   -0.10    1.20
   9 -10  -9    2.00    1.30
   8 -10  -9    5.50    1.50
  -8  10   9    4.60    1.60
   7 -10  -9   -0.40    1.10
  -7  10   9    1.20    1.30
   6 -10  -9   23.00    2.20
  -6  10   9   23.50    2.30
   5 -10  -9    0.20    0.90
  -5  10   9    1.70    1.10
   4 -10  -9   -0.60    0.80
  -4  10   9   -0.30    1.00
   3 -10  -9   -0.40    0.80
  -3  10   9   -0.20    0.90
   2 -10  -9    5.70    1.20
  -2  10   9    6.50    1.20
  -2  10   9    5.50    0.80
   1 -10  -9    7.10    1.20
  -1  10   9    9.70    1.30
  -1  10   9    8.10    1.00
   0 -10  -9   -0.50    0.80
   0  10   9   -0.30    0.90
   0  10   9    0.90    0.60
  -1 -10  -9    5.80    1.20
   1  10   9    3.70    0.80
   1  10   9    6.10    1.10
  -2 -10  -9    1.10    1.00
   2  10   9    1.50    0.90
   2  10   9    0.60    0.60
  -3 -10  -9   -1.10    1.10
   3  10   9   -0.10    0.70
  -4 -10  -9    1.70    1.20
   4  10   9    0.70    0.80
  -5 -10  -9    1.60    1.10
   5  10   9    0.60    0.80
   6  10   9    1.00    1.00
   7  10   9   -0.80    0.90
   8  10   9   -0.80    0.80
   9  10   9    2.30    1.20
   9 -11  -9    1.30    1.40
   8 -11  -9    6.30    1.60
   7 -11  -9    3.30    1.30
  -7  11   9    1.30    1.40
   6 -11  -9   -0.10    1.00
  -6  11   9    1.90    1.30
   5 -11  -9    7.60    1.50
  -5  11   9    6.00    1.40
   4 -11  -9    6.60    1.30
  -4  11   9    8.00    1.50
   3 -11  -9    4.80    1.20
  -3  11   9    1.40    1.00
   2 -11  -9    2.60    1.10
  -2  11   9    3.30    1.10
  -2  11   9    3.60    0.80
   1 -11  -9   28.00    2.20
  -1  11   9   28.90    2.10
  -1  11   9   32.00    1.70
   0 -11  -9    6.30    1.30
   0  11   9    9.10    1.30
   0  11   9    9.60    1.10
  -1 -11  -9    4.20    1.20
   1  11   9    4.50    1.10
   1  11   9    3.30    0.80
  -2 -11  -9   -0.10    1.10
   2  11   9   -0.60    0.80
   2  11   9    0.50    0.70
  -3 -11  -9   13.40    1.80
   3  11   9   12.90    1.30
  -4 -11  -9    8.30    1.70
   4  11   9   10.10    1.30
  -5 -11  -9    3.50    1.30
   5  11   9    4.90    1.10
   6  11   9    2.00    1.00
   7  11   9   -0.50    0.80
   8  11   9    2.30    1.20
   9  11   9   -1.30    1.00
   8 -12  -9   -1.50    1.20
   7 -12  -9    3.80    1.50
   6 -12  -9    2.50    1.40
  -6  12   9    4.40    1.50
   5 -12  -9    0.40    1.00
  -5  12   9   -0.70    1.20
   4 -12  -9   -0.80    1.00
  -4  12   9   -1.10    1.10
   3 -12  -9    1.10    1.00
  -3  12   9   -0.30    1.00
   2 -12  -9   -0.60    1.00
  -2  12   9    1.70    1.10
  -2  12   9    2.30    0.80
   1 -12  -9    5.00    1.30
  -1  12   9    4.50    1.20
  -1  12   9    6.10    1.00
   0 -12  -9    0.40    1.10
   0  12   9    0.30    0.90
   0  12   9   -0.20    0.60
  -1 -12  -9    8.50    1.50
   1  12   9   11.80    1.30
   1  12   9    9.80    1.30
  -2 -12  -9    0.60    1.20
   2  12   9   -0.70    0.70
  -3 -12  -9   -1.00    1.20
   3  12   9   -0.50    0.70
  -4 -12  -9   -0.50    1.30
   4  12   9    0.70    0.80
  -5 -12  -9    0.40    1.20
   5  12   9    0.30    0.90
   6  12   9    0.50    0.90
   7  12   9    0.80    1.00
   8  12   9    3.50    1.30
   7 -13  -9   -2.00    1.20
   6 -13  -9   -1.20    1.20
   5 -13  -9    9.30    1.70
  -5  13   9    7.70    1.70
   4 -13  -9    1.20    1.30
  -4  13   9    0.10    1.20
   3 -13  -9    0.10    1.20
  -3  13   9    0.20    1.20
   2 -13  -9   -0.10    1.10
  -2  13   9    0.30    0.80
  -2  13   9    0.10    1.10
   1 -13  -9    9.10    1.60
  -1  13   9   12.10    1.30
  -1  13   9   10.90    1.60
   0 -13  -9    0.30    1.20
   0  13   9    0.80    0.70
   0  13   9    1.70    1.10
  -1 -13  -9    6.00    1.50
   1  13   9    6.30    1.10
  -2 -13  -9    5.80    1.60
   2  13   9    7.00    1.20
  -3 -13  -9    2.60    1.50
   3  13   9    2.90    1.00
  -4 -13  -9    9.00    1.80
   4  13   9   13.50    1.50
  -5 -13  -9    0.00    1.50
   5  13   9    1.30    0.90
   6  13   9    0.60    0.90
   7  13   9    1.40    1.10
   8  13   9    1.10    1.10
   6 -14  -9    0.20    1.40
   5 -14  -9    0.30    1.40
   4 -14  -9   -2.10    1.20
   3 -14  -9   -0.60    1.20
  -3  14   9   -0.20    1.20
   2 -14  -9   10.10    1.70
  -2  14   9   13.80    1.40
  -2  14   9   10.80    1.70
   1 -14  -9    0.50    1.30
  -1  14   9    1.20    0.90
  -1  14   9    0.20    1.10
   0 -14  -9    1.90    1.40
   0  14   9    1.20    0.90
  -1 -14  -9    3.80    1.60
   1  14   9    4.60    1.10
  -2 -14  -9   -3.20    1.30
   2  14   9    0.60    0.90
  -3 -14  -9    1.30    1.60
   3  14   9    2.90    1.10
  -4 -14  -9    2.20    1.70
   4  14   9    0.40    0.90
  -5 -14  -9    1.00    1.50
   5  14   9   -0.30    0.90
  -6 -14  -9    3.30    1.50
   6  14   9    1.60    1.00
   7  14   9   -0.40    1.00
   5 -15  -9   -0.90    1.50
   4 -15  -9   -1.60    1.30
   3 -15  -9   -0.90    1.20
   2 -15  -9   -1.70    1.30
  -2  15   9    1.30    0.90
   1 -15  -9    1.00    1.50
  -1  15   9    2.20    0.90
   0 -15  -9   -0.20    1.50
   0  15   9    2.80    1.00
  -1 -15  -9    2.20    1.70
   1  15   9    1.30    0.90
  -2 -15  -9    0.90    1.60
   2  15   9    2.10    1.00
  -3 -15  -9    2.70    1.70
   3  15   9    4.40    1.10
  -4 -15  -9   -0.50    1.50
   4  15   9    1.20    1.00
  -5 -15  -9    0.40    1.60
   5  15   9    1.30    1.10
  -6 -15  -9    2.70    1.60
   6  15   9    0.10    1.00
   3 -16  -9   -0.60    1.60
   2 -16  -9   -2.30    1.40
  -2  16   9    0.40    0.90
   1 -16  -9   -0.40    1.60
  -1  16   9   -0.70    0.90
   0 -16  -9   -1.30    1.60
   0  16   9    2.90    1.10
  -1 -16  -9   -1.60    1.60
   1  16   9    0.60    1.00
  -2 -16  -9    0.00    1.70
   2  16   9    1.40    1.00
  -3 -16  -9    1.10    1.70
   3  16   9    0.20    1.00
  -4 -16  -9    0.90    1.60
   4  16   9    1.30    1.00
  -5 -16  -9    4.20    1.80
  -6 -16  -9    3.00    1.70
  -1  17   9    0.60    1.00
   0 -17  -9    0.10    1.70
   0  17   9    1.40    1.00
  -1 -17  -9   -3.20    1.60
   1  17   9   -0.60    0.90
  -2 -17  -9   -0.20    1.70
   2  17   9    1.30    1.00
  -3  12 -10    1.50    1.10
  -4 -11  10    2.90    1.50
  -3 -11  10    0.50    1.30
   2 -11  10    1.70    1.40
  -3  11 -10    1.20    1.00
   3 -11  10    0.40    1.50
  -4  11 -10    0.90    1.10
   4 -11  10    0.70    1.60
  -5 -10  10    2.40    1.50
  -4 -10  10    0.20    1.40
  -3 -10  10   -0.10    1.20
   1 -10  10    0.60    1.30
  -2  10 -10    2.50    1.00
   2 -10  10    1.30    1.40
  -3  10 -10    0.70    0.90
   3 -10  10    2.70    1.60
  -4  10 -10    0.50    0.90
   4 -10  10   -0.10    1.50
  -5  10 -10   -1.10    0.90
   5 -10  10   -1.20    1.50
  -6  -9  10    1.70    1.40
  -5  -9  10    0.80    1.40
  -4  -9  10    3.10    1.50
  -3  -9  10    5.20    1.50
  -2  -9  10    0.90    1.10
   0  -9  10    1.00    1.20
   1  -9  10    0.40    1.20
  -2   9 -10    1.00    0.90
   2  -9  10    2.30    1.40
  -3   9 -10    1.10    0.90
   3  -9  10    2.00    1.50
  -4   9 -10    1.60    1.00
   4  -9  10    2.00    1.50
  -5   9 -10   -1.10    0.90
   5  -9  10    0.50    1.60
   6  -9  10   -1.00    1.60
  -7  -8  10    0.40    1.40
  -6  -8  10    2.90    1.50
  -5  -8  10    2.20    1.40
  -4  -8  10    1.70    1.30
  -3  -8  10   -0.80    1.10
  -2  -8  10    0.50    1.10
  -1  -8  10    2.20    1.20
   0  -8  10    0.30    1.10
  -1   8 -10    0.80    0.70
   1  -8  10   -1.50    1.00
  -2   8 -10    0.70    0.80
   2  -8  10    1.00    1.20
  -3   8 -10   -0.50    0.80
   3  -8  10    0.20    1.30
  -4   8 -10    2.50    1.00
   4  -8  10    2.50    1.50
   5  -8  10    2.00    1.60
   6  -8  10    0.30    1.60
   7  -8  10    0.70    1.60
  -8  -7  10    0.70    1.40
  -7  -7  10    2.40    1.50
  -6  -7  10    1.40    1.30
  -5  -7  10    1.50    1.20
  -4  -7  10    0.00    1.10
  -3  -7  10    1.80    1.20
  -2  -7  10    0.70    1.00
  -2  -7  10    0.80    1.00
  -1  -7  10    0.40    0.90
  -1  -7  10    0.70    1.00
   0  -7  10    1.70    1.20
  -1   7 -10    5.80    1.00
   1  -7  10    4.10    1.30
  -2   7 -10    0.60    0.70
   2  -7  10    1.60    1.20
  -3   7 -10   -0.20    0.70
   3  -7  10    0.30    1.20
  -4   7 -10    3.40    1.00
   4  -7  10    3.60    1.50
   5  -7  10   -0.20    1.50
   6  -7  10    0.40    1.50
   7  -7  10    0.20    1.70
   8  -7  10   -2.20    1.60
  -8  -6  10   -0.80    1.20
  -7  -6  10    6.40    1.70
  -6  -6  10    4.00    1.50
  -5  -6  10    1.20    1.20
  -4  -6  10    0.60    1.10
  -3  -6  10    1.10    1.10
  -3  -6  10    1.10    0.90
  -2  -6  10    1.30    1.00
  -2  -6  10    0.60    1.00
  -1  -6  10    1.60    1.00
  -1  -6  10    0.60    1.00
   0  -6  10    0.10    1.00
  -1   6 -10    5.00    0.90
   1  -6  10    5.90    1.40
  -2   6 -10    0.00    0.70
   2  -6  10    1.00    1.20
  -3   6 -10   -0.30    0.70
   3  -6  10    2.40    1.30
   4  -6  10    4.40    1.50
   5  -6  10    0.80    1.40
   6  -6  10    1.90    1.60
   7  -6  10    1.40    1.70
   8  -6  10   -1.10    1.60
   9  -6  10   -2.70    1.60
  -9  -5  10    1.10    1.40
  -8  -5  10    1.20    1.40
  -7  -5  10    1.00    1.30
  -6  -5  10    2.10    1.30
  -5  -5  10   15.30    1.90
  -4  -5  10   -0.10    1.00
  -3  -5  10    1.90    1.00
  -3  -5  10    1.00    1.10
  -2  -5  10    3.40    1.10
  -2  -5  10    2.40    1.00
  -1  -5  10   10.60    1.40
  -1  -5  10   12.90    1.50
   0  -5  10    3.00    0.90
   0  -5  10    5.10    1.30
  -1   5 -10    3.10    0.80
   1  -5  10    3.60    1.20
  -2   5 -10    4.10    0.90
   2  -5  10    4.40    1.30
   3  -5  10   -0.20    1.10
   4  -5  10    1.00    1.10
   5  -5  10   -1.50    1.00
   6  -5  10    1.30    1.40
   7  -5  10    1.50    1.60
   8  -5  10    1.80    1.70
   9  -5  10    1.80    1.70
  -9  -4  10    1.10    1.40
  -8  -4  10    4.50    1.60
  -7  -4  10    0.60    1.10
  -6  -4  10    1.80    1.20
  -5  -4  10    9.30    1.60
  -4  -4  10   17.70    1.60
  -4  -4  10   16.70    1.90
  -3  -4  10    6.80    1.20
  -3  -4  10    6.40    1.30
  -2  -4  10    3.70    1.00
  -2  -4  10    1.20    0.90
  -1  -4  10   14.40    1.50
  -1  -4  10   16.60    1.70
   0  -4  10   17.30    1.70
   0  -4  10   18.30    1.60
  -1   4 -10   34.20    1.80
   1  -4  10   36.50    2.50
   2  -4  10    2.90    1.30
   3  -4  10   20.40    2.10
   4  -4  10    0.30    1.10
   5  -4  10    4.40    1.40
   6  -4  10    2.60    1.40
   7  -4  10   -1.10    1.40
   8  -4  10    1.60    1.60
   9  -4  10   -1.10    1.60
  10  -4  10    2.80    1.80
 -10  -3  10    0.60    1.30
  -9  -3  10    0.80    1.20
  -8  -3  10    0.10    1.20
  -7  -3  10    0.80    1.20
  -6  -3  10    5.80    1.30
  -5  -3  10   17.60    1.60
  -5  -3  10   16.50    1.90
  -4  -3  10   42.40    2.40
  -4  -3  10   40.70    2.70
  -3  -3  10    0.00    0.80
  -3  -3  10   -0.40    0.90
  -2  -3  10    3.50    1.00
  -2  -3  10    3.90    1.00
  -1  -3  10    0.40    0.90
  -1  -3  10    0.80    0.80
   0  -3  10    3.00    0.80
   0  -3  10    3.30    1.10
   1  -3  10    6.90    1.40
   2  -3  10    0.90    1.20
   3  -3  10    1.70    1.20
   4  -3  10   15.60    1.90
   5  -3  10    0.60    1.20
   6  -3  10    0.30    1.10
   7  -3  10   -1.00    1.20
   8  -3  10    0.50    1.40
   9  -3  10    1.60    1.70
  10  -3  10    0.30    1.70
 -10  -2  10   -1.10    1.20
  -9  -2  10    0.30    1.20
  -8  -2  10    0.80    1.20
  -7  -2  10    1.20    1.20
  -6  -2  10    4.70    1.10
  -6  -2  10    5.50    1.30
  -5  -2  10   58.19    3.30
  -5  -2  10   55.59    2.90
  -4  -2  10    2.70    1.00
  -4  -2  10    4.00    1.00
  -3  -2  10   13.80    1.50
  -3  -2  10   14.10    1.50
  -2  -2  10    3.20    1.00
  -2  -2  10    2.20    0.90
  -1  -2  10   34.80    2.10
  -1  -2  10   32.10    2.20
   0  -2  10    5.80    0.90
   0  -2  10    7.10    1.30
   1  -2  10   -1.10    0.90
   2  -2  10    8.10    1.40
   3  -2  10    6.00    1.40
   4  -2  10   -0.40    1.10
   5  -2  10    1.20    1.20
   6  -2  10    0.80    1.20
   7  -2  10    0.50    1.20
   8  -2  10   -0.40    1.30
   9  -2  10    0.50    1.50
  10  -2  10    0.20    1.50
 -10  -1  10    1.40    1.40
  -9  -1  10    4.80    1.50
  -8  -1  10   -0.70    1.00
  -7  -1  10    1.30    1.10
  -6  -1  10    0.00    1.00
  -6  -1  10   -0.60    0.90
  -5  -1  10   -0.30    1.00
  -5  -1  10   -0.10    0.80
  -4  -1  10   88.99    4.20
  -4  -1  10   76.39    3.80
  -3  -1  10    4.80    1.10
  -3  -1  10    5.80    1.10
  -2  -1  10   45.30    2.50
  -2  -1  10   42.10    2.50
  -1  -1  10   -0.80    0.60
  -1  -1  10   -0.90    0.80
   0  -1  10    5.60    1.20
   0  -1  10    5.70    0.90
   1  -1  10    2.30    0.60
   1  -1  10   -0.20    1.00
   2  -1  10   -0.70    1.00
   3  -1  10   30.00    2.40
   4  -1  10   17.50    1.90
   5  -1  10    8.20    1.50
   6  -1  10    1.00    1.10
   7  -1  10    3.00    1.30
   8  -1  10    0.30    1.20
   9  -1  10    1.80    1.40
  10  -1  10    0.70    1.40
  10  -1  10    1.10    1.20
 -10   0  10    0.20    1.30
  -9   0  10    8.90    1.70
  -8   0  10    0.30    1.10
  -7   0  10    1.70    1.10
  -7   0  10    0.80    1.00
  -6   0  10    1.90    1.10
  -6   0  10    1.60    0.90
  -5   0  10   11.00    1.50
  -5   0  10   10.10    1.40
  -4   0  10  196.38    8.30
  -4   0  10  200.38    7.90
  -3   0  10   29.80    2.10
  -3   0  10   29.90    2.00
  -2   0  10    0.30    0.70
  -2   0  10    0.80    0.80
  -1   0  10    0.70    0.80
  -1   0  10    2.20    0.70
   0   0  10   15.70    1.40
   0   0  10   15.50    1.60
   1   0  10   64.59    2.80
   1   0  10   59.89    3.20
   2   0  10   29.30    2.10
   3   0  10    8.70    1.30
   4   0  10   -1.10    1.00
   5   0  10    6.60    1.40
   6   0  10    0.00    1.00
   7   0  10    0.60    1.10
   8   0  10    2.40    1.40
   9   0  10    0.70    1.10
   9   0  10    2.00    1.30
  10   0  10   -0.50    1.10
 -10   1  10    3.60    1.40
  -9   1  10    0.10    1.20
  -8   1  10    7.80    1.60
  -8   1  10    9.60    1.50
  -7   1  10    5.00    1.30
  -7   1  10    4.20    1.10
  -6   1  10   -0.50    0.90
  -6   1  10    1.20    0.90
  -5   1  10   -1.80    0.80
  -5   1  10    0.20    0.80
  -4   1  10   55.79    2.90
  -4   1  10   53.59    3.10
  -3   1  10    8.20    1.20
  -3   1  10    5.90    1.10
  -2   1  10   62.29    3.00
  -2   1  10   61.69    3.10
  -1   1  10    6.30    1.10
  -1   1  10    7.20    1.00
   0   1  10    3.10    0.70
  -1  -1 -10   19.10    1.40
   1   1  10   19.40    1.30
   2   1  10   -0.10    0.60
   2   1  10    1.10    1.00
   3   1  10    1.60    1.10
   4   1  10   47.40    2.90
   5   1  10   29.10    2.30
   6   1  10   -0.10    1.00
   6   1  10    0.80    0.90
   7   1  10    0.70    1.00
   7   1  10    0.50    1.10
   8   1  10   -0.20    1.00
   8   1  10    1.20    1.20
   9   1  10    0.30    1.10
   9   1  10   -0.30    1.10
  10   1  10   -1.00    1.10
  11   1  10    1.80    1.30
 -10   2  10   -0.50    1.20
  -9   2  10    2.10    1.30
  -8   2  10    4.30    1.20
  -8   2  10    2.60    1.30
  -7   2  10    4.80    1.20
  -7   2  10    5.40    1.40
  -6   2  10   14.00    1.70
  -6   2  10   12.10    1.50
  -5   2  10   11.00    1.50
  -5   2  10   12.00    1.50
  -4   2  10   12.90    1.50
  -4   2  10   12.90    1.50
  -3   2  10   26.50    1.90
  -3   2  10   26.70    2.00
  -2   2  10    8.30    1.20
  -2   2  10    7.10    1.00
  -1   2  10   40.80    2.20
  -1   2  10   41.00    2.30
   0  -2 -10    9.20    1.10
  -1  -2 -10   13.40    1.20
   1   2  10   14.20    1.40
   1   2  10   13.90    1.10
   2   2  10   17.60    1.40
   2   2  10   17.40    1.60
   3   2  10  157.68    6.50
   3   2  10  158.18    5.90
   4   2  10   64.49    3.20
   4   2  10   75.79    3.60
   5   2  10    3.50    1.20
   5   2  10    2.00    1.00
   6   2  10    0.60    0.90
   6   2  10    1.90    1.10
   7   2  10    2.60    1.10
   7   2  10    1.50    1.10
   8   2  10    1.00    1.10
   8   2  10    0.90    1.10
   9   2  10   -0.70    1.10
  10   2  10    0.10    1.20
  11   2  10    1.00    1.20
 -10   3  10    1.60    1.30
  -9   3  10    3.80    1.30
  -9   3  10    5.60    1.40
  -8   3  10    4.10    1.20
  -8   3  10    5.40    1.30
  -7   3  10    1.00    1.00
  -7   3  10   -0.20    0.90
  -6   3  10    6.80    1.30
  -6   3  10    8.50    1.40
  -5   3  10   50.89    3.00
  -5   3  10   54.29    2.90
  -4   3  10   14.30    1.60
  -4   3  10   16.10    1.60
  -3   3  10    0.50    0.80
  -3   3  10    2.50    1.00
  -2   3  10    1.40    0.80
   1  -3 -10   33.70    2.20
   0  -3 -10    1.10    0.70
   0   3  10    0.90    0.70
  -1  -3 -10    3.80    0.70
   1   3  10    3.20    0.60
   1   3  10    3.10    1.00
  -2  -3 -10   15.10    1.10
   2   3  10   15.40    1.30
   2   3  10   14.50    1.50
   3   3  10   -1.20    0.80
   3   3  10    1.10    0.80
   4   3  10   14.80    1.50
   4   3  10   14.20    1.60
   5   3  10   21.90    1.90
   5   3  10   22.40    1.90
   6   3  10   19.20    1.80
   6   3  10   18.70    1.90
   7   3  10    3.30    1.10
   7   3  10    2.60    1.20
   8   3  10    1.00    1.00
   8   3  10   -0.10    1.00
   9   3  10    0.00    1.00
  10   3  10    0.70    1.20
  11   3  10    1.60    1.40
  10  -4 -10   -0.10    1.30
   9  -4 -10    2.40    1.20
  -9   4  10    1.10    1.20
  -8   4  10    0.50    1.10
  -7   4  10   17.40    1.90
  -6   4  10   27.30    2.10
  -5   4  10   80.09    3.90
   4  -4 -10    6.50    1.30
  -4   4  10    9.80    1.30
   3  -4 -10    6.30    1.30
  -3   4  10    9.10    1.30
   2  -4 -10   14.90    1.60
  -2   4  10   14.40    1.50
   1  -4 -10   54.09    2.80
  -1   4  10   48.00    2.60
   0  -4 -10   23.20    1.60
   0   4  10   19.90    1.70
  -1  -4 -10    3.50    0.70
   1   4  10    1.70    0.90
   1   4  10    3.20    0.60
  -2  -4 -10   -0.30    0.50
   2   4  10    0.40    0.60
   2   4  10    0.10    0.80
   3   4  10    8.20    1.20
   3   4  10    5.80    1.00
   4   4  10    2.00    1.00
   4   4  10    1.10    0.90
   5   4  10   30.30    2.20
   5   4  10   29.40    2.10
   6   4  10    6.90    1.30
   6   4  10    9.00    1.40
   7   4  10    3.30    1.10
   7   4  10    3.20    1.20
   8   4  10    2.60    1.30
   9   4  10    1.20    1.10
  10   4  10    0.40    1.20
  11   4  10    0.70    1.30
  10  -5 -10    0.30    1.30
 -10   5  10    0.70    1.40
   9  -5 -10    2.40    1.40
  -9   5  10    3.20    1.30
   8  -5 -10    0.60    1.10
  -8   5  10   -0.90    1.00
   7  -5 -10    1.60    1.20
  -7   5  10    0.30    1.00
   6  -5 -10    6.20    1.40
  -6   5  10    5.40    1.30
   5  -5 -10    5.20    1.30
  -5   5  10    5.90    1.30
   4  -5 -10   78.79    4.10
  -4   5  10   71.49    3.60
   3  -5 -10   37.10    2.60
  -3   5  10   42.80    2.50
   2  -5 -10   24.30    2.00
  -2   5  10   22.30    1.90
   1  -5 -10    9.60    1.30
  -1   5  10    9.60    1.30
   0  -5 -10   33.10    2.10
   0   5  10   34.60    1.60
   0   5  10   36.50    2.10
  -1  -5 -10    5.80    0.90
   1   5  10    7.20    0.80
   1   5  10    7.10    1.10
  -2  -5 -10   87.49    3.90
   2   5  10   89.89    4.00
   2   5  10   88.99    3.50
   3   5  10    3.20    1.00
   3   5  10    1.80    0.80
   4   5  10    7.60    1.20
   4   5  10    8.00    1.20
   5   5  10   39.50    2.40
   5   5  10   34.40    2.30
   6   5  10    1.80    1.00
   6   5  10    2.40    1.00
   7   5  10    1.00    1.00
   8   5  10   -0.50    1.00
   9   5  10    2.10    1.20
  10   5  10    1.60    1.20
  10  -6 -10    2.40    1.50
 -10   6  10    4.00    1.60
   9  -6 -10    3.20    1.50
  -9   6  10    2.90    1.40
   8  -6 -10    5.60    1.50
  -8   6  10    7.50    1.50
   7  -6 -10    5.90    1.40
  -7   6  10    3.70    1.30
   6  -6 -10    4.00    1.20
  -6   6  10    3.70    1.20
   5  -6 -10    1.80    1.10
  -5   6  10    1.30    0.90
   4  -6 -10   10.30    1.60
  -4   6  10   12.40    1.50
   3  -6 -10   33.40    2.30
  -3   6  10   29.70    2.10
   2  -6 -10   75.19    3.80
  -2   6  10   80.79    3.80
   1  -6 -10   97.89    4.60
  -1   6  10  101.29    4.40
   0  -6 -10   22.30    1.70
   0   6  10   22.00    1.30
   0   6  10   25.10    1.90
  -1  -6 -10    1.10    0.80
   1   6  10    0.50    0.90
   1   6  10    1.30    0.60
  -2  -6 -10   12.00    1.20
   2   6  10   11.40    1.30
   2   6  10   13.10    1.20
  -3  -6 -10   17.80    1.60
   3   6  10   18.70    1.60
   3   6  10   19.80    1.70
   4   6  10   29.40    2.00
   4   6  10   29.10    2.00
   5   6  10    0.70    0.90
   5   6  10    1.20    0.90
   6   6  10   -0.50    0.90
   7   6  10    0.80    1.10
   8   6  10   -0.60    1.00
   9   6  10    1.00    1.20
  10   6  10    0.90    1.20
  10  -7 -10    1.10    1.40
 -10   7  10   -1.00    1.40
   9  -7 -10   -0.40    1.20
  -9   7  10    1.20    1.30
   8  -7 -10    5.70    1.60
  -8   7  10    6.60    1.60
   7  -7 -10    3.60    1.20
  -7   7  10    2.80    1.30
   6  -7 -10   20.00    2.20
  -6   7  10   20.20    2.00
   5  -7 -10   12.20    1.70
  -5   7  10   11.70    1.60
   4  -7 -10    0.60    0.90
  -4   7  10    1.60    1.00
   3  -7 -10   10.40    1.40
  -3   7  10   11.60    1.50
   2  -7 -10    1.30    0.90
  -2   7  10    1.80    1.00
   1  -7 -10    0.10    0.80
  -1   7  10   -1.10    0.70
   0  -7 -10    0.20    0.70
   0   7  10   -0.50    0.80
   0   7  10    0.20    0.50
  -1  -7 -10   31.60    2.10
   1   7  10   31.00    2.20
   1   7  10   31.20    1.70
  -2  -7 -10    4.20    1.00
   2   7  10    2.20    0.80
   2   7  10    3.00    0.90
  -3  -7 -10    7.10    1.10
   3   7  10    6.70    1.10
   3   7  10    4.40    1.00
   4   7  10    8.40    1.20
   4   7  10    7.70    1.20
   5   7  10    9.80    1.20
   5   7  10    9.70    1.40
   6   7  10    0.50    0.90
   7   7  10    2.30    1.10
   8   7  10    1.30    1.10
   9   7  10    2.60    1.30
  10   7  10    0.80    1.20
   9  -8 -10    2.10    1.40
  -9   8  10    3.50    1.50
   8  -8 -10    9.40    1.70
  -8   8  10   10.60    1.80
   7  -8 -10    1.20    1.20
  -7   8  10    2.80    1.20
   6  -8 -10    2.30    1.20
  -6   8  10    0.10    1.10
   5  -8 -10    4.40    1.20
  -5   8  10    5.30    1.30
   4  -8 -10    5.60    1.30
  -4   8  10    5.80    1.20
   3  -8 -10   27.20    2.20
  -3   8  10   27.50    2.00
   2  -8 -10   51.29    2.90
  -2   8  10   51.39    2.90
   1  -8 -10    0.40    0.80
  -1   8  10    2.10    0.90
   0  -8 -10    6.00    1.10
   0   8  10    6.60    0.80
   0   8  10    5.40    1.10
  -1  -8 -10   -0.30    0.70
   1   8  10    0.20    0.80
   1   8  10    0.70    0.60
  -2  -8 -10    0.90    0.80
   2   8  10   -0.30    0.60
   2   8  10   -0.10    0.80
  -3  -8 -10   10.50    1.40
   3   8  10    8.50    1.10
   3   8  10    9.60    1.20
  -4  -8 -10   -0.90    1.00
   4   8  10    0.00    0.80
   4   8  10    0.20    0.80
   5   8  10   -0.50    0.80
   6   8  10    5.30    1.20
   7   8  10    2.40    1.00
   8   8  10   -0.90    1.00
   9   8  10    2.90    1.30
  10   8  10   -0.30    1.20
   9  -9 -10   -0.70    1.10
  -9   9  10   -0.80    1.40
   8  -9 -10    0.70    1.30
  -8   9  10    0.10    1.30
   7  -9 -10    3.90    1.40
  -7   9  10    3.60    1.40
   6  -9 -10    2.10    1.20
  -6   9  10    1.80    1.20
   5  -9 -10   13.10    1.70
  -5   9  10   11.00    1.50
   4  -9 -10   -0.50    0.90
  -4   9  10   -1.80    0.90
   3  -9 -10    1.70    0.90
  -3   9  10    2.10    1.10
   2  -9 -10   11.60    1.50
  -2   9  10   14.10    1.60
   1  -9 -10   17.30    1.70
  -1   9  10   18.90    1.70
  -1   9  10   19.40    1.20
   0  -9 -10    9.60    1.30
   0   9  10   10.30    1.00
   0   9  10    8.80    1.30
  -1  -9 -10   10.20    1.40
   1   9  10    9.40    1.30
   1   9  10    9.30    1.00
  -2  -9 -10    6.60    1.30
   2   9  10    6.70    1.10
   2   9  10    7.00    1.00
  -3  -9 -10   -1.00    1.00
   3   9  10    0.50    0.80
   3   9  10    0.10    0.60
  -4  -9 -10    0.50    1.10
   4   9  10   -2.00    0.70
   5   9  10   -0.10    0.80
   6   9  10    0.50    0.90
   7   9  10   -0.30    1.00
   8   9  10    3.10    1.20
   9   9  10    0.20    1.10
  10   9  10   -1.10    1.10
   9 -10 -10    1.30    1.30
   8 -10 -10   12.60    1.90
  -8  10  10    9.60    1.90
   7 -10 -10    0.60    1.20
  -7  10  10    1.80    1.30
   6 -10 -10    2.30    1.20
  -6  10  10    1.20    1.20
   5 -10 -10   -0.30    0.90
  -5  10  10    0.40    1.10
   4 -10 -10    4.50    1.20
  -4  10  10    4.20    1.20
   3 -10 -10   15.10    1.80
  -3  10  10   18.20    1.80
   2 -10 -10    2.50    1.10
  -2  10  10   -0.30    0.90
   1 -10 -10   36.50    2.60
  -1  10  10   38.40    2.40
  -1  10  10   38.30    1.90
   0 -10 -10    0.80    0.90
   0  10  10    1.80    1.00
   0  10  10    2.20    0.70
  -1 -10 -10    6.90    1.20
   1  10  10    8.10    1.00
   1  10  10    6.20    1.20
  -2 -10 -10    4.40    1.20
   2  10  10    4.80    0.90
   2  10  10    7.20    1.20
  -3 -10 -10   -1.00    1.10
   3  10  10    0.60    0.80
   3  10  10    0.90    0.80
  -4 -10 -10    7.50    1.40
   4  10  10    8.00    1.20
   5  10  10    4.10    1.10
   6  10  10   -0.10    0.90
   7  10  10    0.50    1.00
   8  10  10   -0.60    1.00
   9  10  10    0.00    1.10
   8 -11 -10    0.40    1.20
  -8  11  10   -0.60    1.40
   7 -11 -10    1.50    1.20
  -7  11  10    0.60    1.20
   6 -11 -10   12.70    1.80
  -6  11  10   13.50    2.00
   5 -11 -10    2.40    1.20
  -5  11  10    0.80    1.20
   4 -11 -10    2.70    1.20
  -4  11  10    1.40    1.10
   3 -11 -10    5.90    1.30
  -3  11  10    4.40    1.20
   2 -11 -10    0.80    0.90
  -2  11  10    1.60    1.10
   1 -11 -10   -0.30    0.80
  -1  11  10   -0.30    0.60
  -1  11  10   -0.60    0.90
   0 -11 -10    1.20    1.00
   0  11  10    1.10    1.00
   0  11  10    2.50    0.80
  -1 -11 -10    5.60    1.30
   1  11  10    6.80    1.30
   1  11  10   10.30    1.20
  -2 -11 -10   12.30    1.70
   2  11  10   13.40    1.40
   2  11  10   14.60    1.50
  -3 -11 -10    6.70    1.60
   3  11  10    6.90    1.10
  -4 -11 -10   -1.70    1.10
   4  11  10    0.40    0.80
   5  11  10    1.10    0.90
   6  11  10   -0.20    0.90
   7  11  10   -0.10    1.00
   8  11  10    0.70    1.10
   9  11  10    0.10    1.10
   7 -12 -10    1.40    1.30
  -7  12  10    2.30    1.50
   6 -12 -10    0.70    1.20
  -6  12  10    1.00    1.30
   5 -12 -10    1.50    1.30
  -5  12  10   -0.40    1.30
   4 -12 -10   26.00    2.30
  -4  12  10   22.90    2.30
   3 -12 -10    1.60    1.10
  -3  12  10    1.90    1.10
   2 -12 -10    2.30    1.10
  -2  12  10    2.00    1.20
   1 -12 -10    2.50    1.20
  -1  12  10    3.00    1.20
  -1  12  10    5.70    1.00
   0 -12 -10    1.10    1.10
   0  12  10    0.60    0.70
   0  12  10    1.80    1.10
  -1 -12 -10    1.50    1.20
   1  12  10    1.50    0.80
   1  12  10    1.50    1.00
  -2 -12 -10    1.10    1.30
   2  12  10    1.20    0.80
  -3 -12 -10    2.00    1.40
   3  12  10    4.30    1.00
  -4 -12 -10    7.10    1.80
   4  12  10   10.80    1.40
  -5 -12 -10    1.60    1.40
   5  12  10    4.20    1.10
   6  12  10    2.30    1.00
   7  12  10    0.50    1.00
   8  12  10   -0.90    1.00
   7 -13 -10    1.20    1.40
   6 -13 -10    1.70    1.40
  -6  13  10   -0.20    1.40
   5 -13 -10   -0.10    1.20
  -5  13  10    0.00    1.30
   4 -13 -10    1.30    1.30
  -4  13  10    2.40    1.40
   3 -13 -10    2.40    1.20
  -3  13  10    4.10    1.40
   2 -13 -10    3.30    1.20
  -2  13  10    4.40    1.40
   1 -13 -10    0.20    1.10
  -1  13  10    0.70    1.10
  -1  13  10    0.60    0.80
   0 -13 -10   -0.30    1.20
   0  13  10   -0.50    0.70
   0  13  10    0.00    1.10
  -1 -13 -10    6.00    1.60
   1  13  10    8.50    1.20
  -2 -13 -10   -1.80    1.30
   2  13  10   -0.40    0.80
  -3 -13 -10   -2.30    1.30
   3  13  10    0.20    0.90
  -4 -13 -10   -1.00    1.40
   4  13  10    1.00    1.00
  -5 -13 -10   -0.30    1.40
   5  13  10    1.70    1.00
   6  13  10   -1.10    0.90
   7  13  10    1.80    1.10
   6 -14 -10    1.80    1.60
   5 -14 -10    0.10    1.40
  -5  14  10    3.50    1.60
   4 -14 -10   -0.50    1.30
  -4  14  10    1.10    1.40
   3 -14 -10    6.20    1.60
  -3  14  10    6.10    1.60
   2 -14 -10    0.50    1.20
  -2  14  10   -0.30    1.10
   1 -14 -10    2.20    1.50
  -1  14  10    5.40    1.00
  -1  14  10    4.70    1.40
   0 -14 -10    1.20    1.40
   0  14  10    3.10    0.90
  -1 -14 -10   -2.40    1.30
   1  14  10    1.10    0.90
  -2 -14 -10   -1.20    1.50
   2  14  10   -0.30    0.90
  -3 -14 -10    0.30    1.60
   3  14  10    2.60    1.10
  -4 -14 -10    2.20    1.70
   4  14  10    1.30    1.00
  -5 -14 -10    0.20    1.50
   5  14  10   -0.50    0.90
   6  14  10    0.20    1.00
   4 -15 -10   -0.60    1.40
   3 -15 -10    2.80    1.50
  -3  15  10    0.50    1.40
   2 -15 -10    7.40    1.80
  -2  15  10    7.30    1.70
   1 -15 -10   -1.60    1.40
   0 -15 -10   -0.30    1.50
   0  15  10    0.90    0.90
  -1 -15 -10    0.90    1.60
   1  15  10    3.50    1.00
  -2 -15 -10   -2.70    1.50
   2  15  10   -0.50    0.90
  -3 -15 -10    0.60    1.70
   3  15  10    0.50    0.90
  -4 -15 -10   -0.60    1.50
   4  15  10    0.10    1.00
  -5 -15 -10    2.00    1.60
   5  15  10   -0.10    1.00
   2 -16 -10   -2.50    1.40
   1 -16 -10   -1.00    1.60
   0 -16 -10    3.90    1.90
   0  16  10    3.70    1.10
  -1 -16 -10   -0.20    1.70
   1  16  10    2.10    1.00
  -2 -16 -10   -3.00    1.60
   2  16  10    1.10    1.00
  -3 -16 -10    0.30    1.70
   3  16  10    3.40    1.10
  -4 -16 -10    0.10    1.60
   4  16  10    1.10    1.00
  -5 -16 -10   -0.70    1.50
   0  17  10   -0.50    1.00
   1  17  10    0.20    1.00
   2  17  10    1.10    1.00
   2 -11  11    1.30    1.50
  -5 -10  11    2.30    1.50
  -4 -10  11    1.70    1.50
   1 -10  11    2.50    1.50
   2 -10  11    3.70    1.60
   3 -10  11   -0.40    1.40
  -4  10 -11    0.50    1.00
   4 -10  11    0.80    1.50
  -6  -9  11   -0.10    1.40
  -5  -9  11   -0.60    1.30
  -4  -9  11    2.20    1.40
  -3  -9  11   -0.60    1.20
   0  -9  11    3.10    1.40
   1  -9  11    4.20    1.50
   2  -9  11   -1.00    1.30
  -3   9 -11    0.80    1.00
   3  -9  11    0.10    1.40
  -4   9 -11   -0.60    0.90
   4  -9  11   -0.40    1.40
   5  -9  11    2.80    1.70
  -6  -8  11    1.80    1.40
  -5  -8  11    2.50    1.50
  -4  -8  11    0.60    1.30
  -3  -8  11    1.80    1.30
  -1  -8  11    1.50    1.10
   0  -8  11    4.60    1.40
   1  -8  11    1.20    1.20
   2  -8  11    1.80    1.30
  -3   8 -11    0.50    0.90
   3  -8  11    1.40    1.40
   4  -8  11   -0.10    1.40
   5  -8  11    1.00    1.50
   6  -8  11    1.20    1.60
  -7  -7  11    0.60    1.30
  -6  -7  11    2.50    1.50
  -5  -7  11    1.90    1.40
  -4  -7  11    1.90    1.20
  -3  -7  11    2.10    1.20
  -2  -7  11   -0.30    1.00
  -2  -7  11    0.20    1.00
  -1  -7  11    0.80    1.00
   0  -7  11    7.10    1.50
   1  -7  11    1.90    1.20
   2  -7  11    2.20    1.30
  -3   7 -11    0.00    0.80
   3  -7  11   -0.30    1.30
   4  -7  11    1.00    1.40
   5  -7  11    0.50    1.40
   6  -7  11    2.00    1.60
   7  -7  11    0.30    1.60
  -8  -6  11    1.00    1.40
  -7  -6  11    1.00    1.30
  -6  -6  11    1.50    1.30
  -5  -6  11    6.20    1.60
  -4  -6  11    4.80    1.40
  -3  -6  11   12.80    1.70
  -2  -6  11    3.10    1.10
  -2  -6  11    2.40    1.10
  -1  -6  11    4.00    1.20
   0  -6  11   -0.80    1.00
   1  -6  11    1.70    1.20
  -2   6 -11    1.60    0.80
   2  -6  11    0.20    1.10
   3  -6  11   -0.80    1.20
   4  -6  11    4.20    1.50
   5  -6  11    1.80    1.30
   6  -6  11    0.10    1.50
   7  -6  11   -1.50    1.40
   8  -6  11    0.80    1.70
  -8  -5  11    2.30    1.50
  -7  -5  11    0.30    1.30
  -6  -5  11    4.30    1.40
  -5  -5  11    0.10    1.10
  -4  -5  11   -0.10    1.10
  -3  -5  11    8.70    1.30
  -3  -5  11   10.20    1.60
  -2  -5  11   12.20    1.60
  -2  -5  11   13.40    1.60
  -1  -5  11   15.90    1.80
  -1  -5  11   16.00    1.60
   0  -5  11   18.10    1.90
   1  -5  11    3.80    1.30
   2  -5  11    4.80    1.40
   3  -5  11    1.00    1.20
   4  -5  11   -0.10    1.20
   5  -5  11   -0.80    1.20
   6  -5  11    0.50    1.40
   7  -5  11    1.90    1.60
   8  -5  11    1.70    1.70
  -9  -4  11    3.40    1.60
  -8  -4  11    1.90    1.30
  -7  -4  11    4.60    1.50
  -6  -4  11    1.20    1.20
  -5  -4  11   -0.80    1.00
  -4  -4  11   19.00    2.00
  -4  -4  11   22.20    1.90
  -3  -4  11    0.50    0.90
  -3  -4  11    0.50    0.90
  -2  -4  11    5.10    1.10
  -2  -4  11    4.90    1.20
  -1  -4  11   20.90    1.90
  -1  -4  11   19.00    1.80
   0  -4  11    4.60    1.30
   1  -4  11   22.60    2.10
   2  -4  11    3.20    1.30
   3  -4  11   -0.70    1.00
   4  -4  11    3.50    1.40
   5  -4  11    2.00    1.30
   6  -4  11    1.10    1.30
   7  -4  11    1.90    1.50
   8  -4  11    1.00    1.60
   9  -4  11    3.10    1.70
  -9  -3  11    2.40    1.50
  -8  -3  11    2.80    1.40
  -7  -3  11    2.00    1.30
  -6  -3  11    0.90    1.00
  -5  -3  11    0.30    1.00
  -5  -3  11   -0.10    0.90
  -4  -3  11   16.10    1.80
  -4  -3  11   17.60    1.70
  -3  -3  11   23.10    2.00
  -3  -3  11   24.10    1.90
  -2  -3  11   -0.50    0.90
  -2  -3  11    0.20    0.80
  -1  -3  11   -0.20    0.80
  -1  -3  11    0.40    1.00
   0  -3  11    2.00    1.10
   1  -3  11    1.00    1.10
   2  -3  11    7.60    1.40
   3  -3  11    0.10    1.10
   4  -3  11    2.70    1.30
   5  -3  11    0.90    1.20
   6  -3  11    1.90    1.30
   7  -3  11    0.70    1.40
   8  -3  11   -0.20    1.40
   9  -3  11    2.40    1.60
  10  -3  11    1.90    1.60
  -9  -2  11   -0.40    1.20
  -8  -2  11   -0.10    1.20
  -7  -2  11    0.10    1.10
  -6  -2  11    1.00    1.10
  -5  -2  11    7.70    1.40
  -5  -2  11    5.80    1.30
  -4  -2  11    6.00    1.20
  -4  -2  11    6.80    1.30
  -3  -2  11   34.60    2.40
  -3  -2  11   36.20    2.30
  -2  -2  11   -0.40    0.80
  -2  -2  11    0.50    0.90
  -1  -2  11   -1.30    0.90
  -1  -2  11   -1.10    0.70
   0  -2  11    6.60    1.00
   0  -2  11    8.30    1.40
   1  -2  11    7.10    1.40
   2  -2  11   -2.10    0.90
   3  -2  11    1.30    1.10
   4  -2  11    0.70    1.20
   5  -2  11    0.80    1.10
   6  -2  11    1.10    1.20
   7  -2  11   -1.80    1.20
   8  -2  11    2.90    1.50
   9  -2  11    0.90    1.60
  10  -2  11    1.80    1.50
  -9  -1  11   -0.10    1.20
  -8  -1  11    4.90    1.40
  -7  -1  11    0.70    1.10
  -6  -1  11    2.30    1.20
  -6  -1  11    1.20    1.00
  -5  -1  11    6.30    1.20
  -5  -1  11    3.90    1.20
  -4  -1  11    6.10    1.30
  -4  -1  11    5.70    1.20
  -3  -1  11   18.00    1.80
  -3  -1  11   18.60    1.70
  -2  -1  11    5.20    1.10
  -2  -1  11    6.40    1.00
  -1  -1  11    5.30    1.10
  -1  -1  11    4.10    0.90
   0  -1  11    3.90    1.10
   0  -1  11    3.40    0.80
   1  -1  11   13.30    1.50
   2  -1  11    5.10    1.30
   3  -1  11   12.40    1.60
   4  -1  11    7.60    1.40
   5  -1  11    9.80    1.60
   6  -1  11    3.00    1.30
   7  -1  11    1.80    1.30
   8  -1  11    1.90    1.50
   9  -1  11    1.30    1.40
  10  -1  11   -0.50    1.10
  10  -1  11    0.40    1.40
 -10   0  11   -0.30    1.30
  -9   0  11    3.50    1.50
  -8   0  11    0.60    1.10
  -7   0  11    0.50    1.00
  -7   0  11   -1.00    0.90
  -6   0  11    3.30    1.20
  -6   0  11    1.70    1.00
  -5   0  11   19.70    1.80
  -5   0  11   20.60    1.80
  -4   0  11   48.10    2.70
  -4   0  11   48.20    2.90
  -3   0  11    7.40    1.20
  -3   0  11    6.60    1.20
  -2   0  11    5.00    1.10
  -2   0  11    2.60    0.90
  -1   0  11    1.60    0.90
  -1   0  11    1.10    0.80
   0   0  11   12.00    1.20
   0   0  11   11.40    1.50
   1   0  11   -0.40    0.80
   2   0  11   29.40    2.30
   3   0  11   15.00    1.80
   4   0  11   12.40    1.70
   5   0  11    6.80    1.40
   6   0  11    1.70    1.20
   7   0  11    0.40    1.10
   8   0  11    0.90    1.30
   8   0  11    0.60    1.10
   9   0  11   -0.40    1.10
   9   0  11    0.60    1.30
  10   0  11   -1.00    1.10
 -10   1  11    1.70    1.40
  -9   1  11    2.40    1.40
  -8   1  11    0.90    1.10
  -7   1  11   -0.50    0.90
  -7   1  11    1.00    1.10
  -6   1  11   -0.20    0.90
  -6   1  11    0.40    1.00
  -5   1  11   46.80    2.90
  -5   1  11   43.70    2.60
  -4   1  11    0.00    1.00
  -4   1  11   -0.10    0.90
  -3   1  11    1.00    0.90
  -3   1  11    0.70    0.90
  -2   1  11    4.80    1.00
  -2   1  11    4.10    1.10
  -1   1  11   85.29    4.00
  -1   1  11   85.09    3.80
   0   1  11   35.00    2.20
   0   1  11   32.60    1.90
   1   1  11   11.40    1.50
   2   1  11    1.20    0.70
   2   1  11   -0.80    0.90
   3   1  11   31.50    2.30
   3   1  11   30.40    2.00
   4   1  11    0.00    1.00
   4   1  11   -0.40    0.90
   5   1  11    3.40    1.20
   5   1  11    1.00    1.00
   6   1  11   -0.10    1.00
   6   1  11   -1.30    0.90
   7   1  11    0.10    1.10
   7   1  11    0.60    1.10
   8   1  11    1.70    1.20
   8   1  11    0.10    1.10
   9   1  11    0.20    1.20
   9   1  11    0.90    1.30
  10   1  11   -0.80    1.20
 -10   2  11    0.40    1.30
  -9   2  11    1.60    1.30
  -8   2  11    5.30    1.40
  -8   2  11    7.60    1.60
  -7   2  11   11.30    1.70
  -7   2  11   15.90    1.80
  -6   2  11    2.00    1.00
  -6   2  11    0.90    1.10
  -5   2  11    1.50    1.00
  -5   2  11    1.90    1.00
  -4   2  11    7.30    1.30
  -4   2  11    5.50    1.20
  -3   2  11    0.00    0.80
  -3   2  11   -0.70    0.80
  -2   2  11   40.20    2.40
  -2   2  11   37.80    2.30
  -1   2  11   33.00    2.20
   0  -2 -11   30.40    1.90
   0   2  11   27.80    2.10
  -1  -2 -11    7.30    1.00
   1   2  11    6.30    1.20
   2   2  11    0.40    1.00
   2   2  11   -0.20    0.70
   3   2  11   52.39    2.70
   3   2  11   50.39    3.00
   4   2  11   27.40    1.90
   4   2  11   20.90    2.00
   5   2  11   51.89    3.00
   5   2  11   48.10    2.90
   6   2  11    0.70    1.10
   6   2  11   -0.10    0.90
   7   2  11    0.50    1.10
   7   2  11   -0.30    1.00
   8   2  11    0.00    1.10
   8   2  11    0.50    1.10
   9   2  11    0.50    1.20
  10   2  11    1.20    1.30
  -9   3  11    0.60    1.20
  -9   3  11    1.50    1.30
  -8   3  11    1.00    1.20
  -8   3  11   -0.50    1.10
  -7   3  11    0.00    1.00
  -7   3  11    1.20    1.10
  -6   3  11   18.00    1.80
  -6   3  11   17.90    1.90
  -5   3  11   39.50    2.50
  -5   3  11   36.80    2.60
  -4   3  11   69.09    3.50
  -4   3  11   73.19    3.70
  -3   3  11    1.20    1.00
   2  -3 -11   14.50    1.60
  -2   3  11   14.30    1.50
   1  -3 -11   79.99    3.90
  -1   3  11   79.99    3.80
   0  -3 -11    1.30    0.80
   0   3  11    0.50    0.90
  -1  -3 -11   58.99    2.90
   1   3  11   60.59    3.10
   2   3  11   56.99    2.60
   2   3  11   56.19    3.10
   3   3  11   -1.50    0.90
   3   3  11   -0.80    0.80
   4   3  11   12.00    1.40
   4   3  11   11.40    1.50
   5   3  11    2.90    1.20
   5   3  11    0.70    1.00
   6   3  11    0.30    1.00
   6   3  11    0.10    0.90
   7   3  11    0.50    1.00
   7   3  11    1.10    1.00
   8   3  11    3.50    1.20
   8   3  11    1.20    1.10
   9   3  11   -0.10    1.10
  10   3  11   -0.90    1.10
  10  -4 -11    1.30    1.50
   9  -4 -11    0.80    1.30
  -9   4  11   -0.60    1.10
  -8   4  11    7.70    1.50
  -7   4  11    2.10    1.10
  -6   4  11    0.80    1.00
   5  -4 -11    2.60    1.10
  -5   4  11    1.30    1.10
   4  -4 -11    1.30    1.10
  -4   4  11    1.10    1.00
   3  -4 -11   33.90    2.50
  -3   4  11   33.90    2.30
   2  -4 -11   17.00    1.80
  -2   4  11   17.70    1.60
   1  -4 -11   56.59    3.10
  -1   4  11   61.39    3.10
   0  -4 -11    9.30    1.20
   0   4  11    9.60    1.40
  -1  -4 -11   15.50    1.30
   1   4  11   13.90    1.50
   2   4  11   -1.60    0.60
   2   4  11   -2.30    0.80
   3   4  11    0.10    0.80
   3   4  11    1.20    1.00
   4   4  11   -0.70    0.90
   4   4  11   -0.40    0.80
   5   4  11   26.70    2.20
   5   4  11   29.90    2.20
   6   4  11    1.20    1.00
   6   4  11    2.20    1.10
   7   4  11    2.80    1.10
   7   4  11    2.20    1.20
   8   4  11    0.70    1.20
   9   4  11    0.50    1.10
  10   4  11    1.20    1.30
  10  -5 -11    1.00    1.30
 -10   5  11   -1.20    1.30
   9  -5 -11    4.90    1.50
  -9   5  11    3.90    1.40
   8  -5 -11   -1.20    1.10
  -8   5  11    0.30    1.10
   7  -5 -11    4.60    1.40
  -7   5  11    4.30    1.30
   6  -5 -11    3.90    1.30
  -6   5  11    1.50    1.10
   5  -5 -11   14.30    1.90
  -5   5  11   15.20    1.70
   4  -5 -11    0.80    1.00
  -4   5  11   -0.50    0.90
   3  -5 -11    1.10    1.00
  -3   5  11    1.10    1.00
   2  -5 -11   33.70    2.40
  -2   5  11   34.50    2.30
   1  -5 -11   60.39    3.20
  -1   5  11   60.49    3.20
   0  -5 -11   72.19    3.60
   0   5  11   75.79    3.60
  -1  -5 -11    8.00    1.00
   1   5  11    7.10    1.20
   1   5  11    8.50    0.90
  -2  -5 -11   14.40    1.40
   2   5  11   15.30    1.50
   2   5  11   14.90    1.30
   3   5  11   28.40    1.80
   3   5  11   32.40    2.10
   4   5  11   41.20    2.50
   4   5  11   37.10    2.30
   5   5  11   -1.50    0.80
   5   5  11    2.00    1.00
   6   5  11    0.30    0.90
   6   5  11    1.80    1.00
   7   5  11   -0.10    1.00
   8   5  11    0.00    1.10
   9   5  11    0.20    1.10
  10   5  11    0.40    1.30
 -10   6  11   -0.30    1.40
   9  -6 -11    7.50    1.80
  -9   6  11    6.30    1.60
   8  -6 -11   -0.90    1.10
  -8   6  11    1.40    1.20
   7  -6 -11   -1.10    1.10
  -7   6  11    0.40    1.10
   6  -6 -11    3.20    1.30
  -6   6  11    3.40    1.20
   5  -6 -11   -0.40    1.00
  -5   6  11   -1.00    0.90
   4  -6 -11    1.70    1.00
  -4   6  11    1.90    1.10
   3  -6 -11    0.40    0.90
  -3   6  11   -0.60    0.80
   2  -6 -11    5.80    1.20
  -2   6  11    4.00    1.20
   1  -6 -11   -0.60    0.80
  -1   6  11   -1.10    0.90
   0  -6 -11   -1.30    0.70
   0   6  11   -0.10    0.90
  -1  -6 -11   54.69    2.80
   1   6  11   54.89    2.90
   1   6  11   54.89    2.40
  -2  -6 -11    0.80    0.70
   2   6  11    0.40    0.90
   2   6  11    2.30    0.70
   3   6  11   -0.50    0.60
   3   6  11   -0.60    0.80
   4   6  11   16.60    1.60
   4   6  11   15.10    1.60
   5   6  11    8.90    1.30
   5   6  11    7.60    1.30
   6   6  11    2.90    1.00
   6   6  11    1.20    1.00
   7   6  11   -1.10    0.90
   8   6  11    1.00    1.10
   9   6  11   -0.90    1.10
  10   6  11    0.10    1.20
 -10   7  11   -0.80    1.40
   9  -7 -11    0.60    1.30
  -9   7  11    0.50    1.30
   8  -7 -11    9.80    1.80
  -8   7  11    8.20    1.60
   7  -7 -11    8.50    1.70
  -7   7  11    9.20    1.60
   6  -7 -11    6.30    1.40
  -6   7  11    4.90    1.30
   5  -7 -11    7.30    1.50
  -5   7  11    7.70    1.40
   4  -7 -11    8.20    1.50
  -4   7  11   11.20    1.50
   3  -7 -11    6.60    1.30
  -3   7  11    6.10    1.30
   2  -7 -11   10.30    1.40
  -2   7  11    8.10    1.30
   1  -7 -11   11.00    1.40
  -1   7  11   12.90    1.50
   0  -7 -11   14.20    1.50
   0   7  11   14.10    1.50
  -1  -7 -11    0.10    0.70
   1   7  11    0.40    0.60
   1   7  11    0.20    0.90
  -2  -7 -11   -0.10    0.70
   2   7  11   -0.60    0.80
   2   7  11    0.20    0.60
   3   7  11   10.10    1.20
   3   7  11   11.80    1.40
   4   7  11   -0.80    0.80
   4   7  11   -0.20    0.80
   5   7  11    0.10    0.90
   5   7  11    0.10    0.90
   6   7  11    3.10    1.10
   7   7  11    0.70    1.00
   8   7  11   -0.50    1.00
   9   7  11    2.30    1.30
  10   7  11    0.60    1.30
   9  -8 -11   -0.30    1.30
  -9   8  11    0.10    1.30
   8  -8 -11    1.20    1.30
  -8   8  11    1.00    1.30
   7  -8 -11   -0.60    1.10
  -7   8  11   -0.20    1.20
   6  -8 -11    5.50    1.40
  -6   8  11    5.50    1.40
   5  -8 -11    2.40    1.20
  -5   8  11    1.20    1.00
   4  -8 -11    0.50    1.00
  -4   8  11    0.60    1.00
   3  -8 -11   12.00    1.60
  -3   8  11   10.10    1.50
   2  -8 -11   21.10    1.90
  -2   8  11   21.70    1.90
   1  -8 -11   13.80    1.50
  -1   8  11   11.90    1.50
   0  -8 -11    0.40    0.80
   0   8  11   -0.60    0.80
  -1  -8 -11    0.10    0.80
   1   8  11    0.00    0.60
   1   8  11   -0.70    0.80
  -2  -8 -11    3.50    0.90
   2   8  11    3.40    0.80
   2   8  11    3.70    1.00
  -3  -8 -11    5.70    1.20
   3   8  11    6.20    1.10
   3   8  11    4.80    1.00
   4   8  11    1.10    0.90
   4   8  11    1.70    1.00
   5   8  11    0.90    0.90
   6   8  11    0.80    1.00
   7   8  11    2.30    1.10
   8   8  11    3.50    1.30
   9   8  11   -0.40    1.10
   9  -9 -11    3.20    1.50
  -9   9  11    2.00    1.50
   8  -9 -11    0.20    1.30
  -8   9  11   -1.40    1.20
   7  -9 -11   10.60    1.80
  -7   9  11    9.50    1.70
   6  -9 -11    4.60    1.40
  -6   9  11    5.60    1.40
   5  -9 -11    0.10    1.00
  -5   9  11   -0.50    1.00
   4  -9 -11    0.30    1.00
  -4   9  11    0.80    1.10
   3  -9 -11    2.10    1.00
  -3   9  11    3.00    1.20
   2  -9 -11   16.60    1.80
  -2   9  11   14.20    1.70
   1  -9 -11    8.50    1.40
  -1   9  11   10.30    1.40
   0  -9 -11   12.20    1.50
   0   9  11   10.60    1.40
  -1  -9 -11    1.50    0.90
   1   9  11    0.70    0.90
   1   9  11    1.10    0.70
  -2  -9 -11    1.50    1.00
   2   9  11    2.50    0.80
   2   9  11    1.90    0.90
  -3  -9 -11   -1.10    1.00
   3   9  11    0.50    0.90
   3   9  11    1.20    0.80
   4   9  11    0.50    0.90
   5   9  11    3.50    1.10
   6   9  11    1.90    1.00
   7   9  11   -0.60    1.00
   8   9  11   -2.20    1.00
   9   9  11    0.30    1.20
   8 -10 -11    2.80    1.40
  -8  10  11    3.60    1.60
   7 -10 -11    1.10    1.20
  -7  10  11    2.70    1.40
   6 -10 -11    3.70    1.40
  -6  10  11    1.80    1.20
   5 -10 -11   11.00    1.70
  -5  10  11   10.70    1.60
   4 -10 -11    1.10    1.00
  -4  10  11    0.20    1.10
   3 -10 -11    2.20    1.10
  -3  10  11    2.00    1.20
   2 -10 -11    2.60    1.00
  -2  10  11    1.60    1.10
   1 -10 -11   -0.50    0.90
  -1  10  11    1.20    1.00
   0 -10 -11   -2.10    0.80
   0  10  11    0.00    0.90
  -1 -10 -11   27.60    2.20
   1  10  11   31.30    2.20
   1  10  11   35.00    1.90
  -2 -10 -11    3.30    1.20
   2  10  11    4.10    1.10
   2  10  11    4.50    0.90
  -3 -10 -11   -0.20    1.10
   3  10  11    1.50    0.80
   3  10  11    0.80    0.90
   4  10  11    2.20    0.90
   5  10  11    0.10    0.90
   6  10  11   -0.10    0.90
   7  10  11   -0.40    0.90
   8  10  11   -1.20    1.00
   9  10  11   -0.40    1.10
   8 -11 -11   11.90    2.00
  -8  11  11   13.00    2.20
   7 -11 -11    1.20    1.30
  -7  11  11    4.10    1.60
   6 -11 -11    0.10    1.10
  -6  11  11   -0.60    1.20
   5 -11 -11    3.30    1.30
  -5  11  11    3.80    1.40
   4 -11 -11    5.50    1.40
  -4  11  11    4.30    1.40
   3 -11 -11   29.00    2.50
  -3  11  11   30.90    2.40
   2 -11 -11   -0.60    0.90
  -2  11  11    0.50    1.10
   1 -11 -11    5.00    1.20
  -1  11  11    6.00    1.30
   0 -11 -11    2.40    1.10
   0  11  11    3.70    1.20
  -1 -11 -11   -0.90    1.00
   1  11  11    0.00    1.00
   1  11  11    0.60    0.70
  -2 -11 -11   -1.30    1.10
   2  11  11    1.00    1.00
   2  11  11    1.00    0.80
  -3 -11 -11   -0.90    1.20
   3  11  11   -0.30    0.80
   4  11  11    3.30    1.00
   5  11  11   -0.80    0.80
   6  11  11    1.70    1.00
   7  11  11    0.20    1.10
   8  11  11   -0.70    1.00
   7 -12 -11    5.90    1.70
  -7  12  11    9.20    1.90
   6 -12 -11    0.70    1.30
  -6  12  11    2.00    1.40
   5 -12 -11    0.30    1.20
  -5  12  11    1.40    1.40
   4 -12 -11    0.10    1.10
  -4  12  11    0.60    1.20
   3 -12 -11    6.00    1.50
  -3  12  11    8.40    1.60
   2 -12 -11    5.00    1.30
  -2  12  11    6.10    1.40
   1 -12 -11    1.00    1.10
  -1  12  11    0.60    1.10
   0 -12 -11    0.50    1.10
   0  12  11    2.30    1.20
  -1 -12 -11    6.70    1.50
   1  12  11    7.40    1.10
   1  12  11    6.60    1.40
  -2 -12 -11    6.70    1.60
   2  12  11    8.10    1.20
  -3 -12 -11   -2.20    1.20
   3  12  11    1.30    0.90
  -4 -12 -11    0.20    1.40
   4  12  11   -1.00    0.90
   5  12  11   -0.20    0.90
   6  12  11    1.10    1.00
   7  12  11    2.40    1.20
   8  12  11    0.80    1.10
   6 -13 -11    0.00    1.30
  -6  13  11    0.10    1.40
   5 -13 -11    3.70    1.50
  -5  13  11    4.40    1.60
   4 -13 -11    2.20    1.40
  -4  13  11    4.60    1.50
   3 -13 -11   -1.80    1.10
  -3  13  11    0.20    1.20
   2 -13 -11    3.90    1.40
  -2  13  11    6.00    1.40
   1 -13 -11   -0.90    1.10
   0 -13 -11    3.60    1.40
   0  13  11    4.20    1.30
  -1 -13 -11   -2.50    1.20
   1  13  11   -0.60    0.80
  -2 -13 -11    0.00    1.40
   2  13  11    0.20    0.90
  -3 -13 -11    4.60    1.80
   3  13  11    6.30    1.20
  -4 -13 -11    8.50    1.90
   4  13  11    7.40    1.30
   5  13  11    3.30    1.10
   6  13  11    0.50    1.00
   7  13  11   -0.50    1.00
   5 -14 -11   -0.20    1.30
  -5  14  11   -0.40    1.40
   4 -14 -11    0.30    1.30
  -4  14  11    1.40    1.40
   3 -14 -11    1.10    1.20
  -3  14  11    2.00    1.40
   2 -14 -11   -0.50    1.20
  -2  14  11    0.90    1.30
   1 -14 -11    1.70    1.40
  -1  14  11    0.70    1.20
   0 -14 -11    0.90    1.40
  -1 -14 -11   -0.30    1.50
   1  14  11   -0.30    0.80
  -2 -14 -11   -2.20    1.40
   2  14  11   -0.60    0.80
  -3 -14 -11    0.80    1.70
   3  14  11   -1.30    0.80
  -4 -14 -11    0.10    1.50
   4  14  11   -1.00    0.90
   5  14  11   -0.40    0.90
   6  14  11   -1.60    0.90
   4 -15 -11   -0.30    1.40
  -4  15  11    1.70    1.50
   3 -15 -11   -1.60    1.20
  -3  15  11   -1.10    1.30
   2 -15 -11   -1.40    1.30
  -2  15  11    0.90    1.30
   1 -15 -11    0.60    1.50
   0 -15 -11    1.90    1.60
  -1 -15 -11   -1.20    1.50
   1  15  11    0.70    0.90
  -2 -15 -11    1.10    1.70
   2  15  11   -0.10    1.00
  -3 -15 -11   -2.30    1.50
   3  15  11    1.50    1.10
  -4 -15 -11    0.30    1.60
   4  15  11    1.10    1.00
   5  15  11    0.60    1.00
   2 -16 -11   -1.90    1.30
   1 -16 -11    0.10    1.60
   0 -16 -11   -3.00    1.50
  -1 -16 -11   -1.50    1.60
   1  16  11    1.50    1.00
  -2 -16 -11   -0.70    1.70
   2  16  11    1.50    1.00
  -3 -16 -11    0.00    1.70
   3  16  11   -0.20    1.00
  -4 -16 -11    1.00    1.70
   1  17  11    1.00    1.00
   1 -10  12    1.90    1.40
   2 -10  12    2.20    1.50
  -5  -9  12   -0.40    1.40
  -4  -9  12    2.40    1.50
   0  -9  12    2.70    1.30
   1  -9  12    5.50    1.60
   2  -9  12    2.40    1.50
   3  -9  12   -1.10    1.40
   4  -9  12    2.40    1.60
  -5  -8  12    3.30    1.50
  -4  -8  12    6.10    1.70
  -1  -8  12    8.30    1.70
   0  -8  12    2.50    1.30
   1  -8  12    8.30    1.70
   2  -8  12    4.70    1.60
   3  -8  12    3.40    1.60
   4  -8  12    2.00    1.50
   5  -8  12    0.10    1.50
  -6  -7  12    1.10    1.40
  -5  -7  12    8.20    1.80
  -4  -7  12    9.20    1.90
  -3  -7  12    0.70    1.20
  -1  -7  12    5.00    1.40
   0  -7  12    0.80    1.20
   1  -7  12    3.70    1.40
   2  -7  12    1.30    1.30
   3  -7  12    1.30    1.40
   4  -7  12    1.80    1.50
   5  -7  12    0.90    1.50
   6  -7  12    0.90    1.50
  -7  -6  12    0.50    1.30
  -6  -6  12    1.30    1.30
  -5  -6  12    5.00    1.50
  -4  -6  12    5.50    1.50
  -3  -6  12    0.00    1.20
  -2  -6  12    1.90    1.20
  -1  -6  12    1.50    1.20
   0  -6  12   -0.70    1.00
   1  -6  12   -0.10    1.10
   2  -6  12    2.60    1.30
   3  -6  12    2.70    1.40
   4  -6  12    1.30    1.40
   5  -6  12    0.30    1.40
   6  -6  12    0.70    1.50
   7  -6  12    1.20    1.60
  -7  -5  12   -0.90    1.30
  -6  -5  12    0.30    1.30
  -5  -5  12    4.10    1.40
  -4  -5  12   -0.80    1.10
  -3  -5  12    1.80    1.10
  -3  -5  12    2.40    1.20
  -2  -5  12    0.80    0.90
  -2  -5  12    0.80    1.00
  -1  -5  12    1.90    1.10
   0  -5  12   -0.60    1.00
   1  -5  12    0.20    1.10
   2  -5  12    0.40    1.20
   3  -5  12    0.90    1.30
   4  -5  12   -0.10    1.30
   5  -5  12    1.10    1.40
   6  -5  12    1.30    1.50
   7  -5  12   -0.50    1.50
   8  -5  12    3.10    1.70
  -8  -4  12    5.90    1.70
  -7  -4  12    0.20    1.20
  -6  -4  12    2.10    1.30
  -5  -4  12    0.20    1.10
  -4  -4  12   13.00    1.80
  -4  -4  12   11.30    1.50
  -3  -4  12    0.20    1.00
  -3  -4  12   -0.20    0.90
  -2  -4  12    0.30    0.90
  -2  -4  12   -0.50    0.90
  -1  -4  12    2.80    1.10
   0  -4  12    2.90    1.20
   1  -4  12    0.80    1.10
   2  -4  12    2.20    1.20
   3  -4  12    1.80    1.20
   4  -4  12    2.60    1.40
   5  -4  12    1.00    1.30
   6  -4  12    2.40    1.50
   7  -4  12    1.10    1.50
   8  -4  12   -0.90    1.50
  -8  -3  12    2.70    1.40
  -7  -3  12    2.90    1.40
  -6  -3  12    1.70    1.30
  -5  -3  12    1.70    1.20
  -4  -3  12    3.70    1.20
  -4  -3  12    6.20    1.20
  -3  -3  12    0.80    0.90
  -3  -3  12    1.60    1.00
  -2  -3  12    0.00    0.80
  -2  -3  12    0.10    1.00
  -1  -3  12    0.80    1.00
   0  -3  12   -0.10    1.00
   1  -3  12    2.60    1.20
   2  -3  12    1.30    1.20
   3  -3  12    1.30    1.20
   4  -3  12    2.60    1.30
   5  -3  12    1.90    1.30
   6  -3  12    2.90    1.50
   7  -3  12   -0.30    1.40
   8  -3  12    6.80    1.80
   9  -3  12    0.30    1.50
  -9  -2  12    0.20    1.30
  -8  -2  12   -0.50    1.20
  -7  -2  12    1.90    1.20
  -6  -2  12    0.90    1.10
  -5  -2  12   -1.10    0.90
  -5  -2  12    0.10    1.00
  -4  -2  12    2.50    1.10
  -4  -2  12    0.60    0.90
  -3  -2  12    2.90    1.10
  -3  -2  12    2.30    1.00
  -2  -2  12    1.60    1.00
  -2  -2  12    1.10    0.90
  -1  -2  12    7.90    1.40
  -1  -2  12    8.60    1.20
   0  -2  12   -1.10    0.90
   1  -2  12    0.90    1.00
   2  -2  12   -0.10    1.10
   3  -2  12    3.50    1.30
   4  -2  12    0.30    1.00
   5  -2  12    1.00    1.20
   6  -2  12    1.80    1.30
   7  -2  12    2.70    1.40
   8  -2  12    0.70    1.50
   9  -2  12    1.80    1.50
  -9  -1  12   -0.80    1.20
  -8  -1  12   -0.30    1.10
  -7  -1  12   -0.30    1.10
  -6  -1  12    1.10    1.10
  -6  -1  12    0.90    0.90
  -5  -1  12    0.20    1.00
  -4  -1  12    5.30    1.20
  -4  -1  12    4.90    1.20
  -3  -1  12    2.60    1.10
  -3  -1  12    2.60    1.00
  -2  -1  12    0.30    0.80
  -2  -1  12   -0.60    0.90
  -1  -1  12    0.60    0.70
  -1  -1  12    1.80    0.90
   0  -1  12    0.60    1.00
   1  -1  12    1.30    1.00
   2  -1  12    4.20    1.20
   3  -1  12    1.10    1.00
   4  -1  12    0.20    1.10
   5  -1  12    0.80    1.20
   6  -1  12    1.30    1.20
   7  -1  12    2.60    1.50
   8  -1  12    3.50    1.60
   9  -1  12   -0.90    1.10
   9  -1  12    1.10    1.50
  10  -1  12    1.00    1.50
  -9   0  12    2.80    1.50
  -8   0  12    2.80    1.40
  -7   0  12    1.90    1.20
  -7   0  12   -0.10    1.00
  -6   0  12    2.30    1.10
  -6   0  12    2.80    1.20
  -5   0  12    0.30    0.80
  -5   0  12   -0.60    0.90
  -4   0  12    9.10    1.40
  -4   0  12    9.70    1.40
  -3   0  12   18.60    1.80
  -3   0  12   18.20    1.80
  -2   0  12    8.80    1.40
  -2   0  12    9.00    1.30
  -1   0  12   -0.30    0.70
  -1   0  12    0.40    0.90
   0   0  12    3.50    1.10
   1   0  12   12.10    1.50
   2   0  12   -0.60    1.00
   3   0  12    3.10    1.20
   4   0  12    3.70    1.30
   5   0  12   -2.80    1.00
   6   0  12    0.30    1.10
   7   0  12    0.30    1.20
   7   0  12   -0.40    1.00
   8   0  12    1.10    1.30
   8   0  12    0.20    1.10
   9   0  12   -1.00    1.10
   9   0  12    1.60    1.40
  -9   1  12    0.80    1.30
  -8   1  12    0.90    1.20
  -7   1  12    2.10    1.20
  -7   1  12    1.20    1.20
  -6   1  12    9.80    1.40
  -6   1  12    8.50    1.60
  -5   1  12   -0.40    1.00
  -5   1  12    1.60    1.00
  -4   1  12   16.80    1.70
  -4   1  12   15.10    1.80
  -3   1  12   13.80    1.60
  -3   1  12   11.50    1.50
  -2   1  12    0.80    0.80
  -2   1  12    0.00    0.90
  -1   1  12    1.00    0.80
  -1   1  12    3.10    1.00
   0   1  12   33.60    2.30
   1   1  12   21.20    2.00
   2   1  12    0.30    1.00
   3   1  12    1.20    1.10
   3   1  12    0.60    0.80
   4   1  12    5.80    1.40
   4   1  12    4.40    1.10
   5   1  12    1.10    1.10
   5   1  12    0.40    1.00
   6   1  12   -1.60    1.00
   6   1  12   -0.40    0.90
   7   1  12    1.30    1.30
   7   1  12    0.40    1.10
   8   1  12    0.90    1.20
   8   1  12    1.00    1.20
   9   1  12    2.40    1.40
   9   1  12    1.20    1.30
  10   1  12    0.50    1.30
  -9   2  12   -1.60    1.10
  -8   2  12    3.40    1.30
  -8   2  12    1.00    1.20
  -7   2  12    0.10    1.10
  -7   2  12    1.70    1.20
  -6   2  12    2.70    1.10
  -6   2  12    0.40    1.10
  -5   2  12   16.50    1.80
  -5   2  12   17.60    1.80
  -4   2  12    0.30    0.90
  -4   2  12    0.50    1.00
  -3   2  12    2.50    1.00
  -3   2  12    1.40    0.90
  -2   2  12   13.50    1.50
  -2   2  12   12.10    1.40
   1  -2 -12   10.60    1.40
  -1   2  12    8.40    1.30
   0  -2 -12   40.00    2.40
   0   2  12   35.90    2.40
   1   2  12    4.40    1.20
   2   2  12   24.30    2.20
   3   2  12    7.60    1.30
   3   2  12    8.60    1.20
   4   2  12    8.20    1.50
   4   2  12    5.40    1.20
   5   2  12    9.00    1.50
   5   2  12    8.40    1.40
   6   2  12    2.10    1.10
   6   2  12    0.00    1.10
   7   2  12    1.60    1.20
   7   2  12    2.50    1.20
   8   2  12   -0.40    1.10
   8   2  12   -0.90    1.10
   9   2  12   -1.20    1.10
  10   2  12    0.90    1.30
  -9   3  12    4.10    1.40
  -8   3  12   -0.10    1.10
  -8   3  12    1.30    1.20
  -7   3  12    3.90    1.30
  -6   3  12    1.50    1.10
  -6   3  12    2.00    1.10
  -5   3  12   10.30    1.50
  -5   3  12   11.10    1.50
  -4   3  12   22.30    2.00
  -4   3  12   20.60    1.90
  -3   3  12    3.10    1.10
   2  -3 -12    0.70    1.00
  -2   3  12    2.70    1.10
   1  -3 -12    5.80    1.20
  -1   3  12    6.70    1.20
   0  -3 -12   20.70    1.70
   0   3  12   21.10    1.80
   1   3  12    1.80    1.00
   2   3  12    7.20    1.30
   3   3  12   12.00    1.40
   3   3  12   13.10    1.70
   4   3  12   25.90    2.20
   4   3  12   29.20    2.00
   5   3  12    4.20    1.10
   5   3  12    4.00    1.20
   6   3  12    1.50    1.10
   6   3  12    0.30    1.00
   7   3  12    0.90    1.00
   7   3  12   -0.40    1.00
   8   3  12    0.50    1.20
   8   3  12    1.90    1.20
   9   3  12   -0.50    1.30
  10   3  12    0.10    1.30
   9  -4 -12    2.10    1.40
  -9   4  12    0.20    1.30
  -8   4  12    8.40    1.60
   7  -4 -12   -0.50    1.10
  -7   4  12    0.50    1.10
   6  -4 -12   18.90    2.20
  -6   4  12   17.80    1.90
   5  -4 -12   12.80    1.80
  -5   4  12   11.80    1.60
   4  -4 -12    9.40    1.60
  -4   4  12   10.70    1.50
   3  -4 -12    6.00    1.30
  -3   4  12    7.20    1.30
   2  -4 -12   -0.10    0.90
  -2   4  12    0.70    0.90
   1  -4 -12    3.10    1.00
  -1   4  12    2.70    1.00
   0  -4 -12   -0.10    0.80
   0   4  12    0.00    1.00
  -1  -4 -12    8.20    1.10
   1   4  12    5.90    1.30
   2   4  12   -0.30    1.00
   3   4  12   -0.50    0.70
   3   4  12   -0.30    0.90
   4   4  12   21.00    2.00
   4   4  12   20.00    1.80
   5   4  12    1.70    1.10
   5   4  12    0.90    0.90
   6   4  12    1.10    1.00
   6   4  12    1.20    1.10
   7   4  12    1.70    1.20
   7   4  12    0.90    1.10
   8   4  12    0.20    1.20
   9   4  12    0.20    1.20
  10   4  12    1.80    1.40
 -10   5  12   -1.00    1.30
   9  -5 -12   -1.10    1.10
  -9   5  12   -0.50    1.20
   8  -5 -12    8.10    1.80
  -8   5  12    7.10    1.60
   7  -5 -12    2.50    1.30
  -7   5  12    3.40    1.30
   6  -5 -12    0.60    1.10
  -6   5  12   -0.70    1.00
   5  -5 -12    1.10    1.10
  -5   5  12    1.60    1.20
   4  -5 -12   -0.10    1.00
  -4   5  12    0.80    0.90
   3  -5 -12    7.80    1.40
  -3   5  12    8.20    1.40
   2  -5 -12   37.70    2.50
  -2   5  12   34.50    2.40
   1  -5 -12    1.90    1.00
  -1   5  12    1.10    1.00
   0  -5 -12    5.80    1.00
   0   5  12    3.50    1.20
  -1  -5 -12    8.30    1.10
   1   5  12    6.70    1.30
   2   5  12    0.30    0.90
   3   5  12    7.50    1.30
   3   5  12    9.70    1.20
   4   5  12    1.10    0.90
   4   5  12   -1.10    0.90
   5   5  12   11.80    1.50
   5   5  12   10.30    1.50
   6   5  12    1.40    1.10
   6   5  12    1.50    1.10
   7   5  12    2.70    1.20
   8   5  12    1.60    1.20
   9   5  12    0.40    1.20
  10   5  12   -1.60    1.10
 -10   6  12    1.50    1.50
   9  -6 -12   -0.80    1.20
  -9   6  12   -1.20    1.30
   8  -6 -12   -0.60    1.20
  -8   6  12    1.50    1.30
   7  -6 -12    5.00    1.50
  -7   6  12    4.30    1.40
   6  -6 -12    1.60    1.20
  -6   6  12    3.70    1.30
   5  -6 -12    7.70    1.60
  -5   6  12    6.70    1.30
   4  -6 -12   -1.40    0.90
  -4   6  12   -1.50    0.90
   3  -6 -12   -0.40    0.90
  -3   6  12   -1.10    0.90
   2  -6 -12    0.20    1.00
  -2   6  12   -1.40    0.90
   1  -6 -12   62.79    3.30
  -1   6  12   61.89    3.30
   0  -6 -12    0.30    0.80
   0   6  12    1.20    1.00
  -1  -6 -12    0.20    0.70
   1   6  12    0.30    0.90
   2   6  12    1.30    1.00
   3   6  12   -0.30    0.70
   3   6  12   -0.70    0.80
   4   6  12    8.70    1.30
   4   6  12    7.40    1.30
   5   6  12    1.10    0.90
   5   6  12    0.20    0.90
   6   6  12    1.40    1.00
   6   6  12    3.00    1.10
   7   6  12    0.10    1.10
   8   6  12    1.90    1.30
   9   6  12   -1.40    1.10
  10   6  12    0.40    1.30
   9  -7 -12    1.10    1.40
  -9   7  12    0.00    1.30
   8  -7 -12   -0.30    1.00
  -8   7  12   -1.20    1.20
   7  -7 -12    1.20    1.30
  -7   7  12    1.00    1.30
   6  -7 -12    1.30    1.20
  -6   7  12    0.60    1.10
   5  -7 -12    2.10    1.10
  -5   7  12    1.20    1.10
   4  -7 -12   -0.40    1.00
  -4   7  12    0.90    1.10
   3  -7 -12   -0.50    0.90
  -3   7  12   -0.80    0.90
   2  -7 -12    3.50    1.10
  -2   7  12    2.80    1.10
   1  -7 -12   39.80    2.50
  -1   7  12   40.00    2.60
   0  -7 -12    2.80    0.90
   0   7  12    3.10    1.10
  -1  -7 -12    0.60    0.80
   1   7  12   -0.10    0.90
  -2  -7 -12   -0.20    0.80
   2   7  12   -1.00    0.80
   2   7  12   -0.80    0.60
   3   7  12   -0.30    0.90
   3   7  12   -0.30    0.70
   4   7  12   15.40    1.70
   4   7  12   15.90    1.60
   5   7  12   15.40    1.70
   5   7  12   17.70    1.70
   6   7  12    1.10    1.10
   7   7  12    1.80    1.20
   8   7  12   -0.50    1.10
   9   7  12    0.10    1.20
  -9   8  12   -0.20    1.40
   8  -8 -12    1.70    1.40
  -8   8  12    1.80    1.30
   7  -8 -12   -1.20    1.20
  -7   8  12   -0.60    1.10
   6  -8 -12    8.60    1.70
  -6   8  12    8.20    1.60
   5  -8 -12   14.40    2.00
  -5   8  12   13.50    1.80
   4  -8 -12   -0.70    0.90
  -4   8  12   -1.90    0.90
   3  -8 -12    2.20    1.10
  -3   8  12    2.50    1.10
   2  -8 -12    2.30    1.00
  -2   8  12    3.80    1.20
   1  -8 -12   -0.10    0.80
  -1   8  12    1.20    1.00
   0  -8 -12    0.80    0.90
   0   8  12    1.20    1.00
  -1  -8 -12   11.10    1.40
   1   8  12   10.90    1.40
  -2  -8 -12   -0.60    0.80
   2   8  12    0.50    0.60
   2   8  12   -0.80    0.90
   3   8  12    2.20    0.90
   3   8  12    1.90    1.00
   4   8  12   -0.70    0.80
   4   8  12   -1.20    0.90
   5   8  12    0.00    0.90
   6   8  12    9.20    1.50
   7   8  12    1.20    1.10
   8   8  12   -0.20    1.10
   9   8  12   -0.90    1.10
   8  -9 -12   -0.10    1.30
  -8   9  12    0.40    1.30
   7  -9 -12    0.90    1.30
  -7   9  12   -0.60    1.20
   6  -9 -12    2.10    1.20
  -6   9  12   -0.90    1.20
   5  -9 -12    1.40    1.10
  -5   9  12    1.60    1.20
   4  -9 -12   10.40    1.70
  -4   9  12   11.60    1.70
   3  -9 -12    5.40    1.20
  -3   9  12    5.10    1.30
   2  -9 -12    1.90    1.00
  -2   9  12    1.50    1.20
   1  -9 -12   15.20    1.70
  -1   9  12   16.70    1.80
   0  -9 -12    1.30    1.00
   0   9  12    0.40    0.90
  -1  -9 -12    1.80    1.00
   1   9  12    3.50    1.20
  -2  -9 -12    2.10    1.00
   2   9  12    2.30    0.80
   2   9  12    1.80    1.00
   3   9  12    2.60    1.10
   3   9  12    2.80    0.90
   4   9  12   -0.30    0.80
   5   9  12   -0.50    0.90
   6   9  12    2.20    1.10
   7   9  12   -0.50    1.10
   8   9  12   -0.60    1.20
   9   9  12    0.70    1.30
  -8  10  12    2.50    1.60
   7 -10 -12    7.40    1.70
  -7  10  12    8.40    1.80
   6 -10 -12    1.00    1.10
  -6  10  12    1.10    1.30
   5 -10 -12    4.00    1.30
  -5  10  12    2.40    1.30
   4 -10 -12    2.70    1.10
  -4  10  12    5.20    1.40
   3 -10 -12    8.70    1.50
  -3  10  12    9.60    1.60
   2 -10 -12    6.50    1.40
  -2  10  12    6.80    1.40
   1 -10 -12    0.20    1.00
  -1  10  12    3.80    1.20
   0 -10 -12   -0.70    0.90
   0  10  12    0.00    1.00
  -1 -10 -12    1.30    1.00
   1  10  12    0.30    1.00
  -2 -10 -12    3.80    1.30
   2  10  12    5.00    0.90
   2  10  12    4.10    1.20
   3  10  12   -0.30    0.80
   3  10  12    1.40    1.10
   4  10  12   -0.60    0.80
   5  10  12   -1.60    0.80
   6  10  12   -1.10    0.90
   7  10  12   -1.10    0.90
   8  10  12   -1.90    1.00
   7 -11 -12   -0.10    1.20
  -7  11  12   -0.30    1.40
   6 -11 -12   12.40    1.90
  -6  11  12   13.40    2.00
   5 -11 -12    0.30    1.20
  -5  11  12   -0.50    1.20
   4 -11 -12    0.60    1.10
  -4  11  12    1.20    1.30
   3 -11 -12   15.60    2.00
  -3  11  12   12.60    1.80
   2 -11 -12    8.80    1.60
  -2  11  12   10.20    1.60
   1 -11 -12    0.60    1.00
  -1  11  12    1.20    1.10
   0 -11 -12    1.60    1.10
   0  11  12    1.10    1.10
  -1 -11 -12    0.80    1.10
   1  11  12    1.20    1.00
  -2 -11 -12   -0.50    1.10
   2  11  12    2.10    0.80
   2  11  12    1.80    1.10
  -3 -11 -12    5.10    1.60
   3  11  12    4.80    1.10
   4  11  12    1.00    0.90
   5  11  12   -0.90    0.90
   6  11  12   -0.80    0.90
   7  11  12   -0.60    1.00
   8  11  12    0.30    1.10
   6 -12 -12    7.40    1.70
  -6  12  12    5.20    1.70
   5 -12 -12    1.30    1.30
  -5  12  12    0.50    1.30
   4 -12 -12    9.10    1.70
  -4  12  12    8.60    1.70
   3 -12 -12    1.60    1.30
  -3  12  12   -0.60    1.20
   2 -12 -12   -0.40    1.10
  -2  12  12    0.10    1.20
   1 -12 -12    6.40    1.40
  -1  12  12    6.50    1.40
   0 -12 -12   -0.50    1.10
   0  12  12    2.40    1.20
  -1 -12 -12    0.60    1.20
   1  12  12    1.40    1.20
  -2 -12 -12   -0.80    1.20
   2  12  12   -0.60    0.80
  -3 -12 -12   -1.20    1.40
   3  12  12    0.30    1.00
   4  12  12    3.50    1.10
   5  12  12    0.80    1.00
   6  12  12    1.90    1.10
   7  12  12   -1.00    1.00
   5 -13 -12    4.00    1.50
  -5  13  12    2.30    1.50
   4 -13 -12    2.50    1.50
  -4  13  12    1.40    1.40
   3 -13 -12    0.50    1.20
  -3  13  12    1.70    1.30
   2 -13 -12    0.50    1.20
  -2  13  12    0.30    1.20
   1 -13 -12   -1.40    1.10
  -1  13  12   -1.60    1.00
   0 -13 -12   -1.50    1.20
   0  13  12    2.20    1.30
  -1 -13 -12    5.20    1.60
  -2 -13 -12    0.40    1.40
   2  13  12   -1.20    0.80
  -3 -13 -12    0.00    1.60
   3  13  12    1.70    1.00
   4  13  12   -0.10    0.90
   5  13  12   -0.40    1.00
   6  13  12   -0.80    1.00
  -5  14  12    1.00    1.50
   4 -14 -12    1.20    1.40
  -4  14  12    1.50    1.50
   3 -14 -12   -0.10    1.30
  -3  14  12    1.20    1.50
   2 -14 -12    3.60    1.40
  -2  14  12    5.10    1.60
   1 -14 -12   -2.10    1.20
  -1  14  12   -0.20    1.10
   0 -14 -12   -0.60    1.30
  -1 -14 -12    2.40    1.50
  -2 -14 -12   -0.70    1.50
   2  14  12    0.40    0.90
  -3 -14 -12   -1.10    1.50
   3  14  12   -0.10    0.90
   4  14  12   -0.30    1.00
   5  14  12    0.80    1.00
   6  14  12    0.70    1.00
  -4  15  12    1.50    1.50
   3 -15 -12   -2.00    1.20
  -3  15  12   -0.10    1.30
   2 -15 -12   -1.00    1.40
  -2  15  12    1.20    1.40
   1 -15 -12    0.80    1.50
   0 -15 -12   -1.60    1.40
  -1 -15 -12   -2.90    1.50
  -2 -15 -12    0.20    1.70
  -3 -15 -12   -3.00    1.50
   3  15  12    0.80    1.00
   4  15  12    1.10    1.10
   5  15  12    1.40    1.10
  -3  16  12   -1.30    1.40
   0 -16 -12   -4.90    1.50
  -1 -16 -12   -2.70    1.60
  -2 -16 -12   -1.60    1.60
  -3 -16 -12   -0.60    1.80
   3  16  12    1.20    1.10
   1  -9  13    1.90    1.50
   2  -9  13    2.40    1.50
  -5  -8  13    0.30    1.40
   0  -8  13    8.40    1.80
   1  -8  13    4.10    1.60
   2  -8  13    4.70    1.60
   3  -8  13    1.50    1.50
  -5  -7  13    2.40    1.40
  -4  -7  13    3.30    1.50
  -1  -7  13    2.20    1.30
   0  -7  13    1.40    1.30
   1  -7  13    2.20    1.40
   2  -7  13    2.20    1.50
   3  -7  13    0.20    1.40
   4  -7  13    3.80    1.60
   5  -7  13   -0.60    1.40
  -6  -6  13    0.10    1.30
  -5  -6  13    4.90    1.60
  -4  -6  13   11.60    1.90
  -2  -6  13    5.40    1.40
  -1  -6  13    6.00    1.50
   0  -6  13   -0.20    1.30
   1  -6  13    1.30    1.30
   2  -6  13   -1.10    1.20
   3  -6  13    1.10    1.40
   4  -6  13    0.10    1.40
   5  -6  13    1.20    1.50
   6  -6  13    0.90    1.50
  -7  -5  13    1.70    1.40
  -6  -5  13    1.60    1.40
  -5  -5  13    1.80    1.30
  -4  -5  13    2.40    1.40
  -3  -5  13   12.30    1.70
  -3  -5  13   10.20    1.70
  -2  -5  13    4.40    1.30
  -1  -5  13    1.50    1.20
   0  -5  13    1.60    1.30
   1  -5  13    0.50    1.20
   2  -5  13    0.70    1.30
   3  -5  13    0.70    1.30
   4  -5  13    1.10    1.40
   5  -5  13    1.40    1.50
   6  -5  13    1.20    1.50
  -7  -4  13    0.30    1.40
  -6  -4  13    1.30    1.30
  -5  -4  13    3.00    1.40
  -4  -4  13    7.60    1.60
  -4  -4  13    3.70    1.30
  -3  -4  13    0.60    1.10
  -3  -4  13    1.10    1.10
  -2  -4  13    1.60    1.10
  -1  -4  13   -1.70    1.00
   0  -4  13    1.50    1.20
   1  -4  13    0.50    1.20
   2  -4  13    2.20    1.30
   3  -4  13    4.10    1.50
   4  -4  13    3.30    1.50
   5  -4  13   -0.10    1.30
   6  -4  13    2.60    1.60
   7  -4  13    0.80    1.50
  -8  -3  13    3.40    1.50
  -7  -3  13   -0.40    1.20
  -6  -3  13    2.30    1.40
  -5  -3  13    1.60    1.30
  -4  -3  13    3.10    1.30
  -4  -3  13    2.80    1.20
  -3  -3  13    0.30    1.00
  -3  -3  13    0.80    1.10
  -2  -3  13   -1.00    0.90
  -2  -3  13    1.00    1.00
  -1  -3  13    0.80    1.00
   0  -3  13    1.00    1.10
   1  -3  13   -0.20    1.10
   2  -3  13    2.90    1.30
   3  -3  13    2.50    1.30
   4  -3  13    0.20    1.20
   5  -3  13    2.70    1.40
   6  -3  13   -0.50    1.40
   7  -3  13    1.90    1.60
   8  -3  13   -1.00    1.50
  -8  -2  13   -0.10    1.30
  -7  -2  13    1.40    1.30
  -6  -2  13    2.60    1.30
  -5  -2  13   -1.00    1.00
  -5  -2  13    0.40    1.10
  -4  -2  13    1.00    1.10
  -4  -2  13    1.00    1.00
  -3  -2  13   -0.10    0.90
  -3  -2  13    0.30    0.90
  -2  -2  13   -0.70    0.80
  -2  -2  13    0.40    1.00
  -1  -2  13   -1.00    0.90
   0  -2  13   -0.70    1.00
   1  -2  13    0.50    1.00
   2  -2  13    3.90    1.30
   3  -2  13   11.70    1.80
   4  -2  13    1.80    1.30
   5  -2  13    3.00    1.40
   6  -2  13    0.80    1.40
   7  -2  13    0.30    1.40
  -8  -1  13   -0.20    1.20
  -7  -1  13    0.00    1.10
  -6  -1  13    0.10    1.10
  -6  -1  13   -1.00    0.90
  -5  -1  13    1.00    1.10
  -5  -1  13    0.90    1.10
  -4  -1  13    2.40    1.10
  -4  -1  13    2.90    1.10
  -3  -1  13    0.10    0.90
  -3  -1  13    0.30    0.90
  -2  -1  13   -0.50    0.80
  -2  -1  13    0.20    0.90
  -1  -1  13    0.10    0.90
   0  -1  13   -1.50    0.90
   1  -1  13    1.60    1.10
   2  -1  13    0.80    1.00
   3  -1  13    3.70    1.30
   4  -1  13    2.00    1.20
   5  -1  13    0.10    1.20
   6  -1  13    0.30    1.30
   7  -1  13    3.50    1.50
   8  -1  13    1.20    1.20
   8  -1  13    2.30    1.50
   9  -1  13    0.40    1.20
   9  -1  13    1.70    1.40
  -8   0  13    1.50    1.30
  -7   0  13    0.00    1.20
  -6   0  13   -0.90    1.10
  -6   0  13    0.40    1.00
  -5   0  13    5.90    1.30
  -5   0  13   10.10    1.60
  -4   0  13    0.10    1.00
  -4   0  13    0.00    0.90
  -3   0  13   -0.10    0.90
  -3   0  13   -0.60    0.90
  -2   0  13   -0.40    0.90
  -2   0  13    1.00    0.90
  -1   0  13    0.50    1.00
  -1   0  13   -0.30    0.70
   0   0  13    0.90    1.00
   1   0  13    1.40    1.10
   2   0  13    0.50    1.10
   3   0  13    5.10    1.30
   4   0  13    0.40    1.10
   5   0  13    0.20    1.10
   5   0  13    1.30    1.00
   6   0  13   -0.20    1.00
   6   0  13   -0.20    1.10
   7   0  13    0.30    1.10
   7   0  13   -0.20    1.30
   8   0  13    0.80    1.30
   8   0  13   -0.50    1.40
   9   0  13   -0.50    1.20
   9   0  13    1.20    1.40
  -8   1  13   -0.30    1.20
  -7   1  13    1.10    1.30
  -7   1  13    0.50    1.20
  -6   1  13    0.40    1.00
  -6   1  13    0.00    1.10
  -5   1  13    2.20    1.10
  -5   1  13    2.00    1.10
  -4   1  13    2.40    1.10
  -4   1  13    3.30    1.10
  -3   1  13    0.90    1.00
  -3   1  13    0.20    0.90
  -2   1  13    2.10    1.00
  -2   1  13    2.40    1.00
  -1   1  13   19.20    1.90
  -1   1  13   16.70    1.50
   0   1  13    1.50    1.00
   1   1  13   -0.40    0.90
   2   1  13    1.30    1.10
   3   1  13    1.40    1.20
   4   1  13    0.10    1.10
   5   1  13    0.10    1.00
   5   1  13    0.40    1.10
   6   1  13   -0.20    1.10
   6   1  13    0.00    1.00
   7   1  13   -0.60    1.00
   7   1  13    0.80    1.20
   8   1  13   -1.60    1.00
   8   1  13    0.10    1.30
   9   1  13    2.40    1.40
   9   1  13    2.30    1.40
  -9   2  13    0.30    1.30
  -8   2  13    0.00    1.20
  -8   2  13    0.10    1.20
  -7   2  13    0.30    1.20
  -7   2  13    1.40    1.30
  -6   2  13    1.30    1.10
  -6   2  13   -0.90    0.90
  -5   2  13    1.00    1.10
  -5   2  13    0.10    1.00
  -4   2  13    7.90    1.40
  -4   2  13    6.30    1.30
  -3   2  13    1.20    1.00
  -3   2  13    1.30    0.90
  -2   2  13    4.20    1.20
   1  -2 -13    6.90    1.30
  -1   2  13    7.10    1.20
   0   2  13   -0.50    0.90
   1   2  13   10.90    1.50
   2   2  13    8.70    1.50
   3   2  13    2.10    1.20
   4   2  13   -0.90    0.90
   4   2  13    2.40    1.20
   5   2  13    1.00    1.10
   5   2  13   -1.10    0.80
   6   2  13    0.00    1.00
   6   2  13    0.60    1.10
   7   2  13    0.70    1.20
   7   2  13   -0.90    1.00
   8   2  13    1.10    1.30
   8   2  13    1.30    1.30
   9   2  13   -0.60    1.10
  -8   3  13    0.60    1.20
  -7   3  13    2.20    1.20
  -7   3  13    0.90    1.20
  -6   3  13    0.60    1.10
  -6   3  13    0.10    1.10
  -5   3  13    9.60    1.50
  -4   3  13   -0.60    1.00
   3  -3 -13    0.60    1.00
  -3   3  13    0.80    0.90
   2  -3 -13   34.20    2.50
  -2   3  13   30.80    2.20
   1  -3 -13   10.20    1.40
  -1   3  13    5.20    1.30
   0   3  13    6.10    1.30
   1   3  13   -0.10    1.00
   2   3  13    2.70    1.20
   3   3  13    0.00    1.00
   4   3  13   -0.80    1.00
   4   3  13    0.00    0.90
   5   3  13    0.80    1.10
   5   3  13    2.30    1.00
   6   3  13    0.70    1.10
   6   3  13    0.00    1.00
   7   3  13   -0.70    1.00
   7   3  13   -1.60    1.00
   8   3  13   -2.10    1.10
   8   3  13    1.60    1.20
   9   3  13    0.90    1.30
  -9   4  13   -1.10    1.20
   8  -4 -13    1.40    1.40
  -8   4  13    1.00    1.30
   7  -4 -13    0.50    1.20
  -7   4  13   -0.30    1.20
   6  -4 -13    2.30    1.20
  -6   4  13    1.70    1.20
   5  -4 -13    1.60    1.20
  -5   4  13    0.40    1.00
   4  -4 -13    0.30    1.10
  -4   4  13    0.90    1.00
   3  -4 -13   16.40    2.00
  -3   4  13   22.20    2.00
   2  -4 -13   -0.60    0.90
  -2   4  13   -0.50    0.90
   1  -4 -13    4.80    1.10
  -1   4  13    4.00    1.20
   0  -4 -13    0.00    0.70
   0   4  13    0.90    1.00
   1   4  13    4.50    1.20
   2   4  13   -0.40    1.00
   3   4  13    6.30    1.30
   4   4  13    2.40    1.00
   4   4  13    4.20    1.20
   5   4  13   -0.20    0.90
   5   4  13    0.10    1.00
   6   4  13    0.20    1.10
   6   4  13   -0.60    1.00
   7   4  13   -0.50    1.00
   7   4  13    1.00    1.20
   8   4  13   -0.60    1.10
   9   4  13   -0.60    1.20
  -9   5  13    1.30    1.30
   8  -5 -13    1.40    1.40
  -8   5  13   -0.70    1.20
   7  -5 -13   -0.20    1.20
  -7   5  13   -0.90    1.20
   6  -5 -13    3.00    1.40
  -6   5  13    3.40    1.30
   5  -5 -13    2.40    1.30
  -5   5  13    0.90    1.10
   4  -5 -13    8.20    1.60
  -4   5  13    5.30    1.30
   3  -5 -13   -0.80    0.90
  -3   5  13    0.50    1.00
   2  -5 -13    1.80    1.00
  -2   5  13    0.20    1.00
   1  -5 -13    1.50    1.00
  -1   5  13    1.50    1.00
   0  -5 -13   24.90    1.90
   0   5  13   19.90    2.00
   1   5  13    3.00    1.10
   2   5  13   -0.10    1.00
   3   5  13    1.60    1.00
   4   5  13    2.50    1.10
   4   5  13    1.70    1.00
   5   5  13    1.90    1.10
   5   5  13    5.20    1.30
   6   5  13    1.30    1.10
   6   5  13    1.40    1.10
   7   5  13    0.70    1.10
   8   5  13    1.50    1.30
   9   5  13    1.40    1.30
  -9   6  13    3.40    1.50
   8  -6 -13   -0.80    1.20
  -8   6  13   -0.10    1.30
   7  -6 -13    1.00    1.30
  -7   6  13   -0.10    1.10
   6  -6 -13    1.90    1.30
  -6   6  13    0.10    1.10
   5  -6 -13    1.50    1.20
  -5   6  13    4.40    1.30
   4  -6 -13    1.50    1.10
  -4   6  13    0.30    1.00
   3  -6 -13    0.20    1.00
  -3   6  13   -1.50    0.90
   2  -6 -13    0.40    0.90
  -2   6  13    1.80    1.10
   1  -6 -13    0.90    0.90
  -1   6  13    2.40    1.10
   0  -6 -13   10.60    1.30
   0   6  13   13.60    1.70
   1   6  13   -0.50    0.90
   2   6  13    3.20    1.10
   3   6  13    7.20    1.30
   4   6  13    8.00    1.40
   4   6  13    7.30    1.20
   5   6  13    2.30    1.20
   5   6  13    3.40    1.10
   6   6  13    1.10    1.10
   6   6  13    1.40    1.00
   7   6  13   -0.60    1.00
   8   6  13    0.70    1.20
   9   6  13   -1.70    1.10
   8  -7 -13   -0.20    1.20
  -8   7  13    2.30    1.40
   7  -7 -13   -0.40    1.20
  -7   7  13    0.00    1.20
   6  -7 -13    2.80    1.40
  -6   7  13    3.40    1.30
   5  -7 -13    4.10    1.40
  -5   7  13    4.60    1.40
   4  -7 -13    5.70    1.40
   3  -7 -13   -0.90    0.90
  -3   7  13    0.30    1.00
   2  -7 -13   -1.20    0.80
  -2   7  13   -0.70    0.90
   1  -7 -13    0.10    0.90
  -1   7  13    0.10    1.00
   0  -7 -13    0.30    0.70
   0   7  13    1.10    0.90
  -1  -7 -13    2.60    0.90
   1   7  13    4.40    1.20
   2   7  13    5.80    1.30
   3   7  13    0.60    1.00
   4   7  13    2.30    1.00
   4   7  13    2.00    1.10
   5   7  13    8.60    1.50
   5   7  13    5.60    1.20
   6   7  13    0.20    1.00
   7   7  13    0.00    1.10
   8   7  13    0.90    1.20
   9   7  13   -0.80    1.20
   8  -8 -13    1.20    1.40
  -8   8  13    2.30    1.40
   7  -8 -13   -0.30    1.20
  -7   8  13    2.70    1.40
   6  -8 -13   -0.50    1.20
  -6   8  13    1.00    1.30
   5  -8 -13    4.60    1.40
  -5   8  13    4.30    1.40
   4  -8 -13    0.20    1.10
  -4   8  13   -0.20    1.10
   3  -8 -13    5.80    1.30
  -3   8  13    4.70    1.30
   2  -8 -13    0.80    0.90
  -2   8  13    2.30    1.10
   1  -8 -13    9.40    1.40
  -1   8  13    9.80    1.50
   0  -8 -13    1.90    1.00
   0   8  13    1.80    1.10
  -1  -8 -13   -0.10    0.90
   1   8  13    0.00    0.90
   2   8  13    2.00    1.20
   3   8  13    3.50    1.20
   4   8  13    8.10    1.50
   5   8  13   -0.20    1.00
   6   8  13   -0.90    0.90
   7   8  13    0.20    1.10
   8   8  13   -2.20    1.00
   9   8  13   -1.80    1.00
   7  -9 -13    2.00    1.40
  -7   9  13    3.10    1.40
   6  -9 -13    1.30    1.30
  -6   9  13    0.80    1.30
   5  -9 -13    0.30    1.10
  -5   9  13   -1.30    1.10
   4  -9 -13   -2.10    0.90
  -4   9  13   -0.90    1.10
   3  -9 -13    0.40    1.00
  -3   9  13    1.20    1.10
   2  -9 -13    3.50    1.10
  -2   9  13    4.20    1.30
   1  -9 -13    4.20    1.20
  -1   9  13    4.20    1.20
   0  -9 -13    1.80    1.00
   0   9  13    1.80    1.10
  -1  -9 -13    3.30    1.20
   1   9  13    5.30    1.30
   2   9  13   -2.30    1.00
   3   9  13   -1.60    1.00
   4   9  13   -0.50    0.90
   5   9  13   -0.30    1.00
   6   9  13   -0.90    1.00
   7   9  13    0.20    1.10
   8   9  13    1.50    1.20
   7 -10 -13   -0.70    1.10
  -7  10  13   -1.50    1.20
   6 -10 -13   -1.60    1.10
  -6  10  13   -0.90    1.20
   5 -10 -13    4.20    1.40
  -5  10  13    2.00    1.40
   4 -10 -13   -0.80    1.10
  -4  10  13    0.50    1.20
   3 -10 -13    0.20    1.10
  -3  10  13    2.80    1.30
   2 -10 -13   11.30    1.70
  -2  10  13    8.00    1.50
   1 -10 -13    5.70    1.30
  -1  10  13    7.20    1.50
   0 -10 -13   -0.90    0.90
   0  10  13    1.60    1.10
  -1 -10 -13   -0.40    1.00
   1  10  13   -0.10    1.00
   2  10  13   -0.40    1.00
   3  10  13   -0.50    1.10
   4  10  13    1.80    1.00
   5  10  13   -0.90    0.90
   6  10  13   -0.10    1.00
   7  10  13   -0.50    1.10
   8  10  13   -1.20    1.10
   6 -11 -13    2.30    1.40
  -6  11  13    0.30    1.30
   5 -11 -13    6.20    1.60
  -5  11  13    5.20    1.60
   4 -11 -13    0.90    1.20
  -4  11  13    1.10    1.30
   3 -11 -13    7.70    1.60
  -3  11  13    3.00    1.40
   2 -11 -13    2.60    1.30
  -2  11  13    3.40    1.30
   1 -11 -13   -1.40    1.00
  -1  11  13    1.60    1.20
   0 -11 -13    3.30    1.20
   0  11  13    3.20    1.20
  -1 -11 -13    2.90    1.20
   1  11  13    1.50    1.30
  -2 -11 -13    0.50    1.30
   2  11  13    0.50    1.10
   4  11  13    0.00    0.90
   5  11  13    0.50    0.90
   6  11  13   -0.10    1.00
   7  11  13    0.40    1.00
  -6  12  13    0.00    1.40
   5 -12 -13    0.40    1.30
  -5  12  13    1.40    1.40
   4 -12 -13    0.30    1.30
  -4  12  13    0.90    1.40
   3 -12 -13    3.60    1.50
  -3  12  13    4.60    1.60
   2 -12 -13    0.70    1.10
  -2  12  13    1.80    1.30
   1 -12 -13    1.10    1.10
  -1  12  13   -1.80    1.00
   0 -12 -13    1.10    1.20
   0  12  13    1.90    1.30
  -1 -12 -13    2.30    1.30
   1  12  13    2.90    1.30
  -2 -12 -13    2.70    1.40
   4  12  13    0.90    1.00
   5  12  13    0.00    0.90
   6  12  13    0.20    1.00
   7  12  13    0.20    1.10
  -5  13  13    1.40    1.60
   4 -13 -13    0.40    1.40
  -4  13  13    1.10    1.40
   3 -13 -13   -1.20    1.10
  -3  13  13   -0.80    1.30
   2 -13 -13   -0.20    1.10
  -2  13  13    0.60    1.20
   1 -13 -13    0.90    1.30
  -1  13  13    1.20    1.30
   0 -13 -13   -1.10    1.20
   0  13  13    0.90    1.20
  -1 -13 -13    0.30    1.40
  -2 -13 -13   -2.00    1.30
   4  13  13   -1.10    0.90
   5  13  13   -0.40    0.90
   6  13  13   -1.80    0.90
  -4  14  13    0.80    1.50
   3 -14 -13   -3.00    1.00
  -3  14  13    0.40    1.50
   2 -14 -13   -0.60    1.30
  -2  14  13   -0.40    1.40
   1 -14 -13   -0.40    1.30
  -1  14  13    0.50    1.40
   0 -14 -13    2.60    1.60
  -1 -14 -13   -1.10    1.40
  -2 -14 -13   -2.40    1.40
   4  14  13   -1.40    0.90
   5  14  13   -0.40    1.00
  -3  15  13    1.50    1.50
   2 -15 -13   -0.50    1.40
  -2  15  13   -2.30    1.30
   1 -15 -13   -1.70    1.50
   0 -15 -13   -4.60    1.20
  -1 -15 -13   -3.40    1.50
  -2 -15 -13   -3.40    1.50
   4  15  13    1.90    1.10
   0  -8  14    1.40    1.40
   1  -8  14    2.00    1.40
  -1  -7  14    1.30    1.40
   0  -7  14    3.10    1.50
   1  -7  14    4.80    1.70
   2  -7  14    3.60    1.60
   3  -7  14    3.60    1.60
  -5  -6  14   -0.70    1.20
  -2  -6  14    4.90    1.50
  -1  -6  14    1.00    1.30
   0  -6  14    4.70    1.50
   1  -6  14    0.90    1.40
   2  -6  14    2.00    1.40
   3  -6  14    3.70    1.60
   4  -6  14    0.10    1.40
  -6  -5  14    1.60    1.50
  -5  -5  14    3.90    1.60
  -2  -5  14    4.30    1.50
  -1  -5  14    6.90    1.60
   0  -5  14   -0.20    1.20
   1  -5  14    0.00    1.30
   2  -5  14    1.00    1.30
   3  -5  14    2.30    1.50
   4  -5  14    1.10    1.40
   5  -5  14    2.50    1.60
  -6  -4  14    1.90    1.40
  -5  -4  14   -0.10    1.30
  -4  -4  14    3.60    1.40
  -3  -4  14    2.90    1.40
  -2  -4  14    0.20    1.10
  -1  -4  14    1.20    1.20
   0  -4  14    0.80    1.20
   1  -4  14    0.80    1.20
   2  -4  14    0.80    1.30
   3  -4  14    3.40    1.50
   4  -4  14    1.50    1.40
   5  -4  14    1.10    1.40
   6  -4  14    4.00    1.60
  -7  -3  14   -1.50    1.20
  -6  -3  14    0.10    1.20
  -5  -3  14    1.20    1.30
  -4  -3  14    3.50    1.40
  -4  -3  14    6.60    1.50
  -3  -3  14    3.20    1.30
  -2  -3  14    1.50    1.20
  -1  -3  14    0.40    1.10
   0  -3  14   -0.30    1.10
   1  -3  14    4.10    1.40
   2  -3  14    0.80    1.30
   3  -3  14   -0.10    1.10
   4  -3  14    3.40    1.50
   5  -3  14    0.40    1.40
   6  -3  14    1.80    1.50
   7  -3  14   -0.70    1.40
  -7  -2  14    0.20    1.20
  -6  -2  14   -2.60    1.00
  -5  -2  14   -1.60    1.00
  -5  -2  14    0.50    1.20
  -4  -2  14   -1.90    1.00
  -4  -2  14    0.50    1.10
  -3  -2  14    1.80    1.20
  -3  -2  14    1.60    1.10
  -2  -2  14    2.60    1.20
  -1  -2  14    0.30    1.10
   0  -2  14    2.40    1.20
   1  -2  14   -0.10    1.00
   2  -2  14    4.60    1.40
   3  -2  14    4.20    1.40
   4  -2  14    3.60    1.50
   5  -2  14    2.40    1.40
   6  -2  14   -1.70    1.30
   7  -2  14    2.80    1.60
  -7  -1  14    0.20    1.30
  -6  -1  14    0.20    1.20
  -5  -1  14    1.70    1.20
  -5  -1  14   -0.70    1.00
  -4  -1  14    3.80    1.40
  -4  -1  14    5.30    1.30
  -3  -1  14    1.10    1.10
  -3  -1  14    2.40    1.10
  -2  -1  14    1.90    1.10
  -1  -1  14    0.20    1.00
   0  -1  14    3.00    1.20
   1  -1  14    2.00    1.10
   2  -1  14    1.50    1.10
   3  -1  14    3.70    1.30
   4  -1  14    4.60    1.50
   5  -1  14    1.70    1.30
   6  -1  14    0.60    1.40
   7  -1  14    2.10    1.30
   7  -1  14   -0.20    1.40
   8  -1  14    2.50    1.30
   8  -1  14    1.60    1.60
  -8   0  14   -0.90    1.20
  -7   0  14    0.30    1.30
  -6   0  14    1.40    1.20
  -6   0  14    1.90    1.30
  -5   0  14   -1.70    1.10
  -5   0  14    1.80    1.20
  -4   0  14    2.40    1.10
  -4   0  14    1.40    1.10
  -3   0  14   -0.40    1.00
  -3   0  14    0.30    1.00
  -2   0  14    0.10    1.00
  -2   0  14    0.30    0.80
  -1   0  14    1.70    1.10
   0   0  14    0.40    1.10
   1   0  14    0.90    1.20
   2   0  14    3.00    1.30
   3   0  14    1.20    1.20
   4   0  14   -0.80    1.10
   5   0  14    0.90    1.20
   6   0  14   -0.10    1.30
   7   0  14    1.60    1.30
   7   0  14    2.10    1.50
   8   0  14    2.60    1.50
   8   0  14   -0.40    1.20
  -8   1  14    1.60    1.40
  -7   1  14    1.60    1.30
  -7   1  14    1.30    1.30
  -6   1  14    2.70    1.40
  -6   1  14    3.00    1.30
  -5   1  14    0.60    1.10
  -5   1  14   -0.40    1.00
  -4   1  14   -0.30    1.00
  -4   1  14    1.20    1.10
  -3   1  14    0.80    1.00
  -3   1  14    0.10    0.90
  -2   1  14    1.20    1.00
  -2   1  14    1.40    0.90
  -1   1  14   -0.50    1.00
   0   1  14    0.50    1.00
   1   1  14    3.90    1.30
   2   1  14    0.40    1.10
   3   1  14    4.10    1.40
   4   1  14    2.90    1.30
   5   1  14    0.20    1.10
   6   1  14    1.00    1.30
   6   1  14   -0.90    1.10
   7   1  14    2.00    1.40
   7   1  14   -0.80    1.20
   8   1  14    1.20    1.30
   8   1  14   -0.20    1.30
   9   1  14    1.20    1.50
   9   1  14    3.00    1.40
  -8   2  14   -0.70    1.20
  -7   2  14    5.80    1.50
  -7   2  14    2.80    1.40
  -6   2  14   -1.00    1.10
  -6   2  14    1.30    1.20
  -5   2  14    0.20    1.00
  -5   2  14    0.60    1.10
  -4   2  14   -0.10    1.00
  -4   2  14   -0.80    1.00
  -3   2  14    1.10    1.00
   2  -2 -14    2.10    1.10
  -2   2  14    0.30    0.90
  -1   2  14    0.40    1.00
   0   2  14    2.40    1.10
   1   2  14    1.60    1.10
   2   2  14    1.70    1.20
   3   2  14   -1.20    1.00
   4   2  14    2.10    1.20
   5   2  14    1.20    1.20
   6   2  14   -0.30    1.20
   6   2  14   -1.70    1.00
   7   2  14    0.50    1.30
   7   2  14    0.50    1.20
   8   2  14    2.90    1.50
   8   2  14    1.80    1.40
   9   2  14    2.30    1.50
  -8   3  14    0.30    1.30
  -7   3  14    9.70    1.70
  -6   3  14    0.20    1.20
  -5   3  14    1.80    1.10
   4  -3 -14    1.10    1.20
  -4   3  14    1.90    1.10
   3  -3 -14    0.00    1.10
  -3   3  14   -0.20    1.00
   2  -3 -14    1.20    1.00
  -2   3  14    0.60    1.10
  -1   3  14    4.60    1.20
   0   3  14   -0.80    0.90
   1   3  14    2.50    1.20
   2   3  14    1.60    1.10
   3   3  14   -0.20    1.00
   4   3  14    0.60    1.10
   5   3  14   -0.60    1.00
   6   3  14    1.00    1.20
   6   3  14    1.10    1.10
   7   3  14    2.40    1.30
   7   3  14    1.00    1.20
   8   3  14    0.50    1.30
   8   3  14    1.80    1.30
   9   3  14    0.60    1.30
  -9   4  14   -0.90    1.30
   8  -4 -14    3.80    1.60
  -8   4  14    2.20    1.40
   7  -4 -14    0.50    1.30
  -7   4  14    0.20    1.20
   6  -4 -14    7.40    1.70
  -6   4  14    4.90    1.50
   5  -4 -14    7.30    1.60
  -5   4  14    7.50    1.50
   4  -4 -14   -0.50    1.00
  -4   4  14    0.50    1.10
   3  -4 -14    0.50    1.10
  -3   4  14    1.10    1.00
   2  -4 -14   19.10    2.00
  -2   4  14   17.50    1.90
   1  -4 -14   -0.10    0.90
  -1   4  14    0.10    0.90
   0   4  14    0.30    0.90
   1   4  14   -0.10    1.00
   2   4  14    0.50    1.10
   3   4  14   -0.40    1.00
   4   4  14    0.30    1.00
   5   4  14    0.80    1.10
   6   4  14   -0.20    1.10
   6   4  14    0.30    1.10
   7   4  14    1.30    1.20
   7   4  14    1.80    1.30
   8   4  14   -0.80    1.20
   9   4  14    1.60    1.30
   8  -5 -14    0.10    1.30
  -8   5  14   -0.60    1.20
   7  -5 -14    4.50    1.60
  -7   5  14    2.80    1.40
   6  -5 -14    2.50    1.40
  -6   5  14    1.40    1.20
   5  -5 -14    2.70    1.40
  -5   5  14    0.80    1.20
   4  -5 -14    1.60    1.20
  -4   5  14    2.40    1.20
   3  -5 -14   11.10    1.70
  -3   5  14   10.70    1.60
   2  -5 -14    5.70    1.30
  -2   5  14    4.90    1.30
   1  -5 -14   -0.70    0.80
  -1   5  14   -0.30    0.90
   0   5  14    1.90    1.00
   1   5  14    3.00    1.20
   2   5  14    4.30    1.20
   3   5  14    1.40    1.10
   4   5  14    1.60    1.20
   5   5  14    0.50    1.10
   6   5  14    0.10    1.10
   6   5  14    1.10    1.10
   7   5  14   -0.60    1.00
   8   5  14   -0.10    1.20
   9   5  14   -1.20    1.10
  -8   6  14   -0.40    1.30
   7  -6 -14    0.30    1.30
  -7   6  14    1.50    1.40
   6  -6 -14    2.30    1.40
  -6   6  14    1.30    1.30
   5  -6 -14    1.20    1.30
  -5   6  14    0.70    1.20
   4  -6 -14   -1.90    0.90
  -4   6  14   -0.50    0.90
   3  -6 -14   -0.50    1.00
  -3   6  14    0.30    1.00
   2  -6 -14   -0.50    0.90
  -2   6  14    0.60    0.90
   1  -6 -14   -0.10    0.80
  -1   6  14    1.90    1.10
   0   6  14    1.90    1.10
   1   6  14   -0.60    1.00
   2   6  14    2.80    1.10
   3   6  14    1.50    1.10
   4   6  14    0.10    1.10
   5   6  14    0.60    1.20
   6   6  14    0.20    1.00
   6   6  14   -0.60    1.10
   7   6  14    2.00    1.20
   8   6  14    0.10    1.20
  -8   7  14    0.40    1.30
   7  -7 -14   -0.10    1.30
  -7   7  14    2.80    1.40
   6  -7 -14    2.50    1.40
  -6   7  14    3.20    1.40
   5  -7 -14    5.50    1.50
  -5   7  14    4.00    1.40
   4  -7 -14    4.20    1.40
  -4   7  14    2.90    1.20
   3  -7 -14    2.80    1.20
  -3   7  14    3.50    1.20
   2  -7 -14    0.60    1.00
  -2   7  14    0.50    1.00
   1  -7 -14   -0.50    0.90
  -1   7  14    0.40    1.10
   0  -7 -14    0.40    0.90
   0   7  14    0.40    1.10
   1   7  14    2.30    1.20
   2   7  14    0.50    1.10
   3   7  14   -0.30    1.10
   4   7  14   10.80    1.60
   5   7  14    0.40    0.90
   5   7  14    0.40    1.10
   6   7  14   -0.10    1.00
   7   7  14   -1.00    1.10
   8   7  14   -0.20    1.20
   7  -8 -14   -0.20    1.30
  -7   8  14    1.50    1.40
   6  -8 -14   10.00    1.90
  -6   8  14    9.10    1.80
   5  -8 -14   -0.10    1.10
  -5   8  14    0.50    1.20
   4  -8 -14    2.90    1.30
  -4   8  14    1.70    1.30
   3  -8 -14    5.60    1.40
  -3   8  14    6.40    1.50
   2  -8 -14    0.40    0.90
  -2   8  14    0.80    1.10
   1  -8 -14    2.90    1.00
  -1   8  14    2.10    1.20
   0  -8 -14    1.00    0.90
   0   8  14   -0.20    1.10
   1   8  14    1.20    1.10
   2   8  14   -0.40    1.00
   3   8  14    2.30    1.20
   4   8  14    0.40    1.20
   5   8  14    2.70    1.10
   6   8  14   -0.70    1.10
   7   8  14    0.60    1.20
   8   8  14   -0.30    1.10
  -7   9  14    0.90    1.40
   6  -9 -14    1.00    1.30
  -6   9  14    1.90    1.40
   5  -9 -14    0.00    1.20
  -5   9  14    0.60    1.20
   4  -9 -14    0.20    1.10
  -4   9  14    1.90    1.30
   3  -9 -14   -0.80    1.00
  -3   9  14    0.10    1.20
   2  -9 -14   -0.40    1.00
  -2   9  14    1.40    1.20
   1  -9 -14    3.40    1.20
  -1   9  14    4.10    1.30
   0  -9 -14    0.30    1.00
   0   9  14    2.90    1.20
   1   9  14   -0.10    1.10
   2   9  14    4.30    1.20
   3   9  14    0.40    1.10
   5   9  14   -0.90    1.00
   6   9  14   -0.10    1.10
   7   9  14    0.20    1.20
   8   9  14   -1.20    1.20
   6 -10 -14    1.00    1.30
  -6  10  14   -0.40    1.30
   5 -10 -14    0.20    1.20
  -5  10  14    2.20    1.40
   4 -10 -14    2.20    1.20
  -4  10  14    1.10    1.30
   3 -10 -14   -0.10    1.10
  -3  10  14   -0.50    1.10
   2 -10 -14    0.60    1.20
  -2  10  14    1.50    1.20
   1 -10 -14   -1.10    1.00
  -1  10  14   -0.10    1.10
   0 -10 -14    0.10    1.10
   0  10  14    0.90    1.10
  -1 -10 -14    3.00    1.20
   1  10  14    1.90    1.20
   2  10  14    1.20    1.20
   3  10  14    0.70    1.20
   5  10  14   -0.60    0.90
   6  10  14    0.00    1.00
   7  10  14   -0.40    1.10
   5 -11 -14   -0.10    1.20
  -5  11  14   -1.80    1.20
   4 -11 -14    1.60    1.20
  -4  11  14   -0.80    1.30
   3 -11 -14    0.20    1.20
  -3  11  14   -0.90    1.20
   2 -11 -14    7.10    1.60
  -2  11  14    7.00    1.60
   1 -11 -14    2.70    1.20
  -1  11  14    1.90    1.30
   0 -11 -14   -1.80    1.00
   0  11  14    0.70    1.30
  -1 -11 -14   -0.60    1.10
   1  11  14    0.30    1.20
   2  11  14    0.90    1.10
   6  11  14   -1.10    0.90
   7  11  14   -0.10    1.10
   5 -12 -14   -0.50    1.30
  -5  12  14   -0.20    1.40
   4 -12 -14   -1.20    1.20
  -4  12  14    1.80    1.50
   3 -12 -14    0.10    1.30
  -3  12  14    0.90    1.30
   2 -12 -14   -1.40    1.10
  -2  12  14   -0.10    1.30
   1 -12 -14   -1.00    1.10
  -1  12  14    0.30    1.20
   0 -12 -14   -1.90    1.10
   0  12  14    0.10    1.20
  -1 -12 -14    1.00    1.30
   1  12  14    0.40    1.20
   6  12  14    0.60    1.10
   4 -13 -14    2.50    1.50
  -4  13  14    3.20    1.60
   3 -13 -14    1.70    1.30
  -3  13  14    3.40    1.50
   2 -13 -14   -0.70    1.20
  -2  13  14    0.50    1.40
   1 -13 -14    0.10    1.30
  -1  13  14    1.40    1.40
   0 -13 -14   -1.80    1.20
   0  13  14    0.80    1.30
  -1 -13 -14   -3.10    1.30
  -3  14  14   -0.90    1.30
   2 -14 -14    3.20    1.50
  -2  14  14    3.50    1.50
   1 -14 -14   -3.20    1.20
  -1  14  14   -0.50    1.30
   0 -14 -14   -1.80    1.40
  -1 -14 -14   -1.30    1.40
  -2  15  14    0.40    1.40
   0 -15 -14   -1.40    1.50
   0  -7  15    1.70    1.50
  -1  -6  15    3.60    1.50
   0  -6  15    3.20    1.60
   1  -6  15    4.40    1.60
   2  -6  15    4.10    1.60
  -2  -5  15    2.40    1.40
  -1  -5  15   -1.40    1.30
   0  -5  15    3.80    1.50
   1  -5  15    1.20    1.40
   2  -5  15    1.20    1.40
   3  -5  15    0.60    1.40
  -5  -4  15    0.20    1.20
  -3  -4  15    0.70    1.20
  -2  -4  15    0.40    1.30
  -1  -4  15    2.40    1.40
   0  -4  15    1.50    1.30
   1  -4  15    1.10    1.30
   2  -4  15    1.50    1.40
   3  -4  15    2.80    1.50
   4  -4  15    0.70    1.50
  -6  -3  15   -0.40    1.30
  -5  -3  15    0.50    1.30
  -4  -3  15   -0.10    1.20
  -3  -3  15    1.00    1.20
  -2  -3  15   -0.60    1.20
  -1  -3  15    1.90    1.30
   0  -3  15    2.00    1.30
   1  -3  15   -1.50    1.20
   2  -3  15    1.70    1.40
   3  -3  15    3.00    1.50
   4  -3  15    0.20    1.30
   5  -3  15    3.00    1.50
  -6  -2  15    1.20    1.30
  -5  -2  15   -0.20    1.20
  -4  -2  15   -0.30    1.20
  -4  -2  15    0.80    1.20
  -3  -2  15   -1.50    1.10
  -2  -2  15    1.60    1.20
  -1  -2  15    1.10    1.20
   0  -2  15    1.50    1.30
   1  -2  15    2.20    1.40
   2  -2  15    1.00    1.30
   3  -2  15    3.50    1.50
   4  -2  15    0.40    1.40
   5  -2  15    1.50    1.40
   6  -2  15    2.50    1.50
  -7  -1  15    1.80    1.50
  -6  -1  15    0.10    1.40
  -5  -1  15    0.10    1.30
  -5  -1  15   -1.60    1.10
  -4  -1  15   -1.20    1.10
  -4  -1  15   -1.20    1.10
  -3  -1  15   -1.20    1.20
  -2  -1  15    1.40    1.20
  -1  -1  15    4.90    1.40
   0  -1  15    1.30    1.20
   1  -1  15    0.10    1.20
   2  -1  15   -0.40    1.20
   3  -1  15    0.40    1.30
   4  -1  15    1.00    1.40
   5  -1  15    3.30    1.50
   6  -1  15    3.00    1.60
   7  -1  15    1.90    1.50
  -7   0  15    2.40    1.40
  -6   0  15    1.20    1.30
  -6   0  15   -1.00    1.20
  -5   0  15    0.00    1.30
  -5   0  15   -0.30    1.20
  -4   0  15    5.20    1.40
  -4   0  15    8.20    1.60
  -3   0  15    0.70    1.10
  -3   0  15    1.00    1.10
  -2   0  15    0.60    1.10
  -1   0  15   -0.70    1.10
   0   0  15    2.40    1.20
   1   0  15   -0.70    1.10
   2   0  15    1.00    1.20
   3   0  15   -0.50    1.20
   4   0  15    1.80    1.40
   5   0  15    2.10    1.40
   6   0  15    1.80    1.50
   7   0  15   -0.20    1.50
  -7   1  15   -0.60    1.30
  -6   1  15    1.40    1.30
  -6   1  15    2.30    1.40
  -5   1  15   -0.30    1.20
  -5   1  15   -0.50    1.20
  -4   1  15   -0.60    1.00
  -4   1  15   -1.30    1.10
  -3   1  15    0.20    1.10
  -3   1  15    0.50    1.00
  -2   1  15    3.00    1.20
  -1   1  15    0.90    1.10
   0   1  15    0.20    1.10
   1   1  15    2.80    1.30
   2   1  15    0.30    1.20
   3   1  15    0.60    1.20
   4   1  15    1.40    1.20
   5   1  15    0.60    1.30
   6   1  15    1.80    1.40
   7   1  15    1.50    1.40
   8   1  15    3.50    1.60
  -7   2  15    3.40    1.50
  -7   2  15   -1.60    1.30
  -6   2  15    6.60    1.60
  -6   2  15   11.20    1.80
  -5   2  15   -0.10    1.10
  -5   2  15   -0.20    1.10
  -4   2  15   -0.90    1.10
   3  -2 -15    1.20    1.10
  -3   2  15    0.80    1.10
  -2   2  15   -1.30    1.00
  -1   2  15    0.50    1.00
   0   2  15    5.50    1.40
   1   2  15    1.60    1.20
   2   2  15   -0.60    0.90
   3   2  15    0.20    1.20
   4   2  15   -0.50    1.10
   5   2  15   -0.10    1.20
   6   2  15    0.30    1.30
   7   2  15   -0.20    1.30
   8   2  15    3.60    1.50
   8   2  15    1.00    1.30
  -8   3  15    1.40    1.40
   7  -3 -15    2.70    1.50
  -7   3  15    0.30    1.20
   6  -3 -15    6.10    1.60
  -6   3  15    4.50    1.50
   5  -3 -15    3.80    1.50
  -5   3  15    6.90    1.50
   4  -3 -15    1.70    1.30
  -4   3  15    1.70    1.20
   3  -3 -15    2.10    1.20
  -3   3  15   -0.70    1.10
  -2   3  15    0.50    1.10
  -1   3  15    3.20    1.30
   0   3  15    2.30    1.20
   1   3  15   -1.20    1.00
   2   3  15   -0.30    1.10
   3   3  15    0.20    1.10
   4   3  15    0.30    1.10
   5   3  15   -1.70    1.10
   6   3  15    0.70    1.20
   7   3  15    1.80    1.40
   8   3  15    2.80    1.40
  -8   4  15    0.10    1.40
   7  -4 -15    2.10    1.40
  -7   4  15    1.90    1.50
   6  -4 -15    1.70    1.40
  -6   4  15    2.20    1.40
   5  -4 -15    4.90    1.50
  -5   4  15    5.20    1.40
   4  -4 -15   -0.50    1.10
  -4   4  15    1.50    1.20
   3  -4 -15   11.60    1.70
  -3   4  15    7.20    1.50
   2  -4 -15    1.70    1.10
  -2   4  15    0.20    1.10
  -1   4  15    4.40    1.30
   0   4  15    3.10    1.30
   1   4  15    2.50    1.10
   2   4  15    0.80    1.10
   3   4  15   -0.40    1.10
   4   4  15    0.90    1.10
   5   4  15    2.10    1.20
   6   4  15    2.40    1.30
   7   4  15    1.30    1.40
   8   4  15    0.20    1.30
   7  -5 -15   -1.20    1.30
  -7   5  15   -1.00    1.20
   6  -5 -15    3.30    1.50
  -6   5  15    2.00    1.30
   5  -5 -15    1.20    1.30
  -5   5  15    1.50    1.30
   4  -5 -15    3.60    1.50
  -4   5  15    1.10    1.20
   3  -5 -15    4.50    1.40
  -3   5  15    6.20    1.50
   2  -5 -15    3.20    1.20
  -2   5  15    0.60    1.20
  -1   5  15    7.00    1.50
   0   5  15    0.10    1.10
   1   5  15    1.10    1.10
   2   5  15   -1.10    1.00
   3   5  15    1.00    1.10
   4   5  15    1.10    1.10
   5   5  15    0.30    1.20
   6   5  15   -1.20    1.10
   8   5  15   -1.80    1.10
   7  -6 -15   -0.70    1.20
  -7   6  15   -0.60    1.30
   6  -6 -15    0.40    1.30
  -6   6  15   -0.10    1.20
   5  -6 -15    1.10    1.30
  -5   6  15    1.40    1.30
   4  -6 -15    0.00    1.10
  -4   6  15   -0.60    1.10
   3  -6 -15   -0.50    1.00
  -3   6  15   -2.30    1.00
   2  -6 -15    0.40    1.00
  -2   6  15   -0.30    1.10
  -1   6  15   -0.60    1.10
   0   6  15    0.30    1.10
   1   6  15    4.40    1.30
   2   6  15    2.70    1.20
   3   6  15   -1.40    1.00
   4   6  15    3.40    1.30
   5   6  15    0.10    1.20
   6   6  15    0.20    1.10
   8   6  15   -1.60    1.20
  -7   7  15    2.80    1.40
   6  -7 -15   -0.70    1.20
  -6   7  15   -1.00    1.20
   5  -7 -15    6.10    1.70
  -5   7  15    3.10    1.40
   4  -7 -15    3.60    1.40
  -4   7  15    3.20    1.40
   3  -7 -15    1.30    1.10
  -3   7  15    0.40    1.10
   2  -7 -15    1.50    1.10
  -2   7  15    0.90    1.20
   1  -7 -15    2.50    1.10
  -1   7  15    1.80    1.20
   0   7  15    4.00    1.30
   1   7  15    0.50    1.20
   2   7  15    0.80    1.10
   3   7  15    0.70    1.20
   4   7  15    0.40    1.10
   5   7  15   -0.70    1.10
   8   7  15   -1.20    1.10
   6  -8 -15    0.60    1.30
  -6   8  15    0.40    1.30
   5  -8 -15    3.60    1.50
  -5   8  15    4.80    1.50
   4  -8 -15    2.20    1.30
  -4   8  15    3.60    1.40
   3  -8 -15    2.80    1.20
  -3   8  15    3.00    1.30
   2  -8 -15    1.40    1.10
  -2   8  15    1.40    1.20
   1  -8 -15    0.70    1.00
  -1   8  15   -0.40    1.10
   0   8  15    2.60    1.30
   1   8  15    0.30    1.10
   2   8  15   -0.30    1.10
   3   8  15   -0.30    1.10
   4   8  15    1.50    1.20
   8   8  15   -1.10    1.20
   6  -9 -15   -2.20    1.10
  -6   9  15    0.30    1.40
   5  -9 -15   -0.90    1.20
  -5   9  15    1.60    1.40
   4  -9 -15    1.10    1.30
  -4   9  15    2.00    1.30
   3  -9 -15    1.10    1.20
  -3   9  15    0.20    1.30
   2  -9 -15    0.70    1.10
  -2   9  15    0.10    1.20
   1  -9 -15    0.90    1.10
  -1   9  15    0.50    1.20
   0   9  15   -0.60    1.10
   1   9  15    0.30    1.10
   2   9  15   -0.80    1.10
   3   9  15    3.50    1.40
   5 -10 -15   -2.30    1.10
  -5  10  15    0.10    1.40
   4 -10 -15    0.40    1.20
  -4  10  15   -0.80    1.30
   3 -10 -15   -1.00    1.10
  -3  10  15    0.00    1.30
   2 -10 -15   -0.30    1.10
  -2  10  15   -0.20    1.30
   1 -10 -15    6.50    1.60
  -1  10  15   10.00    1.70
   0 -10 -15    0.30    1.10
   0  10  15    1.00    1.20
   1  10  15    2.80    1.30
   2  10  15    1.50    1.30
   3  10  15    4.10    1.50
   4 -11 -15    0.00    1.30
  -4  11  15   -1.40    1.30
   3 -11 -15    2.20    1.40
  -3  11  15    3.10    1.50
   2 -11 -15   -0.20    1.20
  -2  11  15    1.00    1.40
   1 -11 -15    2.40    1.30
  -1  11  15    1.00    1.30
   0 -11 -15   -1.10    1.10
   0  11  15    4.00    1.50
   1  11  15    0.20    1.20
   2  11  15    2.00    1.20
   4 -12 -15   -1.40    1.30
  -4  12  15   -1.80    1.30
   3 -12 -15    2.70    1.50
  -3  12  15    0.90    1.50
   2 -12 -15   -2.80    1.00
  -2  12  15   -0.50    1.30
   1 -12 -15    0.50    1.20
  -1  12  15    3.20    1.40
   0 -12 -15   -1.10    1.20
   0  12  15   -1.90    1.10
   1  12  15    0.90    1.20
  -3  13  15   -2.10    1.30
   2 -13 -15   -1.00    1.30
  -2  13  15    0.40    1.40
   1 -13 -15   -0.90    1.20
  -1  13  15    0.30    1.30
   0 -13 -15   -0.80    1.30
   0  13  15    1.70    1.40
   1 -14 -15   -2.60    1.40
  -1  14  15    1.60    1.40
   0 -14 -15   -0.70    1.50
  -2  -5  16    1.20    1.40
  -1  -5  16    4.60    1.60
   0  -5  16    1.10    1.40
  -3  -4  16   -0.20    1.30
  -2  -4  16   -1.50    1.20
  -1  -4  16    1.00    1.40
   0  -4  16    0.10    1.40
   1  -4  16    3.90    1.60
   2  -4  16    3.10    1.50
  -3  -3  16   -1.40    1.30
  -2  -3  16    0.40    1.30
  -1  -3  16    1.60    1.40
   0  -3  16   -0.10    1.30
   1  -3  16    4.10    1.50
   2  -3  16    1.00    1.40
   3  -3  16    1.10    1.40
  -4  -2  16   -0.40    1.20
  -3  -2  16   -1.60    1.20
  -2  -2  16   -0.40    1.30
  -1  -2  16   -0.40    1.20
   0  -2  16    5.10    1.60
   1  -2  16    1.60    1.40
   2  -2  16    1.00    1.40
   3  -2  16    0.30    1.30
   4  -2  16    0.80    1.50
  -6  -1  16    0.10    1.40
  -5  -1  16   -0.60    1.30
  -5  -1  16    0.30    1.30
  -4  -1  16   -0.80    1.20
  -3  -1  16    0.30    1.30
  -2  -1  16    2.50    1.40
  -1  -1  16   -0.70    1.20
   0  -1  16    2.20    1.30
   1  -1  16    1.00    1.30
   2  -1  16    2.20    1.40
   3  -1  16    0.90    1.40
   4  -1  16    1.00    1.40
   5  -1  16    0.50    1.40
  -6   0  16   -1.20    1.20
  -5   0  16   -1.90    1.20
  -5   0  16    0.10    1.30
  -4   0  16    0.50    1.30
  -3   0  16   -0.60    1.20
  -2   0  16   -1.20    1.20
  -1   0  16   -0.40    1.20
   0   0  16   -0.30    1.20
   1   0  16   -0.20    1.20
   2   0  16   -1.00    1.20
   3   0  16    3.90    1.50
   4   0  16    1.10    1.40
   5   0  16    0.80    1.40
   6   0  16    1.00    1.50
  -6   1  16   -0.70    1.20
  -6   1  16    0.80    1.30
  -5   1  16    4.20    1.50
  -5   1  16    4.20    1.50
  -4   1  16    0.30    1.30
  -4   1  16   -0.70    1.10
  -3   1  16   -0.40    1.20
  -2   1  16    0.10    1.20
  -1   1  16    0.40    1.20
   0   1  16    0.50    1.10
   1   1  16    0.70    1.20
   2   1  16   -0.30    1.20
   3   1  16    0.20    1.30
   4   1  16    1.30    1.40
   5   1  16   -0.90    1.30
   6   1  16    0.20    1.40
  -7   2  16    1.50    1.40
  -6   2  16   -1.00    1.30
  -5   2  16    2.80    1.40
   4  -2 -16    1.00    1.30
  -4   2  16   -1.90    1.10
  -3   2  16   -0.70    1.20
  -2   2  16   -0.10    1.20
  -1   2  16   -0.10    1.20
   0   2  16   -0.40    1.10
   1   2  16   -1.00    1.20
   2   2  16   -0.90    1.20
   3   2  16   -0.80    1.10
   4   2  16    2.90    1.40
   5   2  16    0.60    1.30
   6   2  16    2.00    1.40
   7   2  16    1.20    1.40
  -7   3  16    3.70    1.60
   6  -3 -16    3.10    1.50
  -6   3  16    0.10    1.30
   5  -3 -16    2.50    1.40
  -5   3  16    0.80    1.30
   4  -3 -16    6.10    1.60
  -4   3  16    4.40    1.50
  -3   3  16   -0.70    1.10
  -2   3  16    0.10    1.20
  -1   3  16   -1.10    1.20
   0   3  16   -0.10    1.10
   1   3  16    0.40    1.20
   2   3  16    1.10    1.20
   3   3  16    0.50    1.20
   4   3  16    0.70    1.30
   5   3  16    3.10    1.40
   6   3  16    0.90    1.30
   7   3  16    2.20    1.50
   6  -4 -16    2.10    1.40
  -6   4  16    0.80    1.40
   5  -4 -16    2.20    1.50
  -5   4  16    3.50    1.40
   4  -4 -16    2.90    1.40
  -4   4  16    0.50    1.20
   3  -4 -16   -0.90    1.10
  -3   4  16   -0.20    1.20
  -2   4  16    1.20    1.30
  -1   4  16    0.60    1.20
   0   4  16    1.10    1.20
   1   4  16   -0.20    1.20
   2   4  16    0.20    1.20
   3   4  16    1.20    1.30
   4   4  16    3.10    1.50
   5   4  16    2.00    1.30
   6   4  16    1.00    1.30
   7   4  16    3.40    1.50
   6  -5 -16    1.10    1.50
  -6   5  16   -0.30    1.40
   5  -5 -16    0.30    1.30
  -5   5  16    0.80    1.20
   4  -5 -16    2.70    1.40
  -4   5  16    1.90    1.30
   3  -5 -16    1.30    1.20
  -3   5  16    2.20    1.30
  -2   5  16    0.80    1.20
  -1   5  16   -0.30    1.20
   0   5  16    6.60    1.60
   1   5  16    0.10    1.20
   2   5  16    0.00    1.10
   3   5  16   -1.10    1.10
   4   5  16    0.00    1.20
   5   5  16    0.20    1.30
   6   5  16    2.10    1.50
   6  -6 -16   -0.90    1.30
  -6   6  16    0.20    1.30
   5  -6 -16   -1.90    1.10
  -5   6  16   -0.60    1.20
   4  -6 -16    0.80    1.30
  -4   6  16    0.90    1.30
   3  -6 -16    1.20    1.20
  -3   6  16    1.20    1.30
  -2   6  16    2.30    1.20
  -1   6  16    0.00    1.20
   0   6  16    0.90    1.10
   1   6  16    1.60    1.30
   2   6  16   -1.00    1.10
   3   6  16   -0.60    1.20
   4   6  16   -2.20    1.10
   5   6  16   -1.10    1.30
   6   6  16   -0.50    1.20
   6  -7 -16    0.10    1.30
   5  -7 -16   -1.10    1.20
  -5   7  16    0.20    1.30
   4  -7 -16    1.30    1.30
  -4   7  16    2.20    1.40
   3  -7 -16   -0.80    1.20
  -3   7  16    0.10    1.20
   2  -7 -16   -0.30    1.00
  -2   7  16    1.20    1.30
  -1   7  16    1.20    1.20
   0   7  16    0.00    1.20
   1   7  16    2.40    1.30
   2   7  16    0.70    1.20
   3   7  16    1.70    1.30
   4   7  16   -2.20    1.10
   5   7  16   -0.30    1.30
   5  -8 -16   -0.40    1.20
  -5   8  16    0.50    1.30
   4  -8 -16    1.10    1.20
  -4   8  16    0.50    1.30
   3  -8 -16   -1.70    1.10
  -3   8  16    1.80    1.30
   2  -8 -16    0.40    1.10
  -2   8  16    2.10    1.40
  -1   8  16    1.80    1.30
   0   8  16    0.10    1.20
   1   8  16    1.70    1.30
   2   8  16   -1.90    1.20
   3   8  16    0.30    1.20
   4   8  16   -0.10    1.20
   5  -9 -16    0.10    1.30
   4  -9 -16    1.60    1.30
  -4   9  16   -1.00    1.30
   3  -9 -16    0.90    1.20
  -3   9  16   -0.80    1.30
   2  -9 -16    2.70    1.30
  -2   9  16    1.60    1.30
  -1   9  16    0.10    1.20
   0   9  16    2.60    1.40
   1   9  16   -1.20    1.20
   2   9  16    3.20    1.40
   3   9  16   -1.00    1.20
   4 -10 -16    2.40    1.40
  -4  10  16    1.40    1.40
   3 -10 -16    1.70    1.30
  -3  10  16   -0.60    1.30
   2 -10 -16    5.90    1.60
  -2  10  16    8.10    1.80
  -1  10  16    0.10    1.30
   0  10  16    1.60    1.30
   1  10  16    2.90    1.40
   2  10  16   -0.10    1.20
   3  10  16    0.20    1.20
   3 -11 -16   -0.80    1.30
  -3  11  16   -0.60    1.40
   2 -11 -16    3.10    1.60
  -2  11  16    3.50    1.60
   1 -11 -16   -2.00    1.10
  -1  11  16   -1.70    1.20
   0  11  16    1.50    1.30
   1  11  16    2.30    1.30
   2  11  16    0.50    1.30
   3 -12 -16    0.40    1.40
   2 -12 -16    0.40    1.20
  -2  12  16    1.70    1.50
   1 -12 -16   -0.10    1.20
  -1  12  16    1.70    1.40
   0  12  16    1.20    1.30
   1  12  16    0.40    1.30
   1 -13 -16    0.60    1.50
  -1  13  16    3.60    1.70
   0  13  16    1.40    1.50
  -2  -3  17   -1.80    1.20
  -1  -3  17    2.20    1.50
  -3  -2  17   -0.70    1.30
  -2  -2  17   -0.20    1.30
  -1  -2  17    1.50    1.50
   0  -2  17    1.50    1.50
   1  -2  17    1.00    1.40
   2  -2  17    1.40    1.50
  -4  -1  17    1.20    1.40
  -3  -1  17   -0.10    1.30
  -2  -1  17   -1.60    1.20
  -1  -1  17    1.50    1.40
   0  -1  17    1.00    1.40
   1  -1  17    0.80    1.40
   2  -1  17    0.90    1.40
   3  -1  17   -0.10    1.40
  -5   0  17    2.40    1.50
  -4   0  17   -2.10    1.30
  -3   0  17   -1.90    1.20
  -2   0  17    0.80    1.40
  -1   0  17    1.20    1.30
   0   0  17    0.80    1.40
   1   0  17    0.80    1.30
   2   0  17    0.80    1.30
   3   0  17    1.20    1.40
   4   0  17   -0.10    1.40
  -5   1  17   -0.20    1.30
  -4   1  17    2.80    1.60
  -3   1  17    0.40    1.40
  -2   1  17   -0.70    1.30
  -1   1  17    1.80    1.40
   0   1  17    0.60    1.30
   1   1  17    0.60    1.30
   2   1  17    0.80    1.40
   3   1  17    2.50    1.40
   4   1  17    2.60    1.50
   5   1  17    2.90    1.60
   5  -2 -17    0.70    1.30
  -5   2  17   -0.20    1.30
  -4   2  17    0.60    1.30
  -3   2  17    2.30    1.50
  -2   2  17   -2.40    1.10
  -1   2  17   -1.10    1.20
   0   2  17    1.50    1.30
   1   2  17    0.60    1.30
   2   2  17   -0.50    1.30
   3   2  17    0.80    1.40
   4   2  17   -0.90    1.30
   5   2  17    2.00    1.40
   5  -3 -17    0.90    1.40
  -5   3  17   -0.80    1.20
  -4   3  17   -1.60    1.30
  -3   3  17    0.10    1.30
  -2   3  17   -0.40    1.20
  -1   3  17   -0.20    1.20
   0   3  17   -0.50    1.20
   1   3  17    0.50    1.30
   2   3  17   -0.70    1.30
   3   3  17    1.40    1.40
   4   3  17    1.20    1.40
   5   3  17    0.20    1.40
   6   3  17    0.80    1.40
   5  -4 -17    1.30    1.40
  -5   4  17    1.50    1.40
   4  -4 -17    3.80    1.50
  -4   4  17   -0.30    1.30
  -3   4  17   -0.60    1.20
  -2   4  17   -1.00    1.10
  -1   4  17    0.50    1.30
   0   4  17   -0.30    1.30
   1   4  17   -2.20    1.20
   2   4  17    0.60    1.30
   3   4  17   -1.00    1.30
   4   4  17   -0.10    1.30
   5   4  17    0.50    1.40
   6   4  17    0.80    1.50
   5  -5 -17   -1.00    1.30
  -5   5  17   -0.30    1.30
   4  -5 -17   -0.70    1.30
  -4   5  17   -0.20    1.30
  -3   5  17   -0.20    1.30
  -2   5  17    3.10    1.40
  -1   5  17   -0.20    1.20
   0   5  17   -1.30    1.20
   1   5  17   -0.60    1.30
   2   5  17   -0.30    1.20
   3   5  17   -0.40    1.20
   4   5  17   -0.50    1.30
   5   5  17    1.20    1.50
   6   5  17    2.10    1.40
   5  -6 -17   -0.50    1.30
   4  -6 -17   -2.50    1.10
  -4   6  17    0.30    1.30
  -3   6  17   -0.90    1.20
  -2   6  17    2.40    1.40
  -1   6  17    1.10    1.40
   0   6  17   -0.70    1.30
   1   6  17   -1.10    1.20
   2   6  17   -0.40    1.30
   3   6  17   -1.70    1.20
   4   6  17   -2.20    1.10
   5   6  17    0.10    1.40
   5  -7 -17    1.70    1.40
   4  -7 -17   -0.80    1.20
  -4   7  17   -1.60    1.20
   3  -7 -17    0.00    1.10
  -3   7  17   -0.10    1.30
  -2   7  17    3.50    1.50
  -1   7  17    1.60    1.40
   0   7  17   -0.30    1.30
   1   7  17   -0.60    1.30
   2   7  17   -0.10    1.20
   3   7  17    0.00    1.20
   4   7  17    1.80    1.40
   5   7  17   -1.80    1.20
   4  -8 -17    0.30    1.20
   3  -8 -17    1.00    1.30
  -3   8  17    1.40    1.40
  -2   8  17   -1.50    1.30
  -1   8  17    2.50    1.50
   0   8  17    4.60    1.50
   1   8  17   -1.50    1.20
   2   8  17   -1.90    1.30
   3   8  17   -0.60    1.20
   4   8  17   -0.80    1.30
   4  -9 -17   -1.20    1.30
   3  -9 -17    6.60    1.70
  -3   9  17    7.20    1.80
  -2   9  17    1.90    1.40
  -1   9  17    5.50    1.60
   0   9  17    3.20    1.50
   1   9  17    1.30    1.50
   2   9  17    0.10    1.20
   3   9  17    0.70    1.30
   3 -10 -17    2.10    1.40
  -2  10  17   -0.80    1.40
  -1  10  17    8.10    1.80
   0  10  17    0.60    1.40
   1  10  17    0.50    1.30
   2  10  17    0.30    1.20
   3  10  17   -1.60    1.20
   2 -11 -17   -3.10    1.30
  -1  11  17   -1.80    1.30
   0  11  17   -0.90    1.40
   1  11  17   -2.00    1.10
   2  11  17    0.60    1.30
   0  12  17    2.50    1.50
   1  12  17   -1.70    1.30
  -1   1  18    0.80    1.40
   0   1  18    0.60    1.40
   1   1  18    4.50    1.60
  -2   2  18   -1.10    1.30
  -1   2  18    1.10    1.40
   0   2  18    0.60    1.40
   1   2  18   -0.20    1.40
   2   2  18    0.50    1.40
  -2   3  18   -1.50    1.30
  -1   3  18   -1.40    1.40
   0   3  18   -0.40    1.30
   1   3  18    0.50    1.40
   2   3  18    0.50    1.50
   3   3  18    0.60    1.50
  -2   4  18   -0.10    1.40
  -1   4  18    1.50    1.40
   0   4  18   -1.30    1.30
   1   4  18   -0.30    1.30
   2   4  18    1.30    1.40
   3   4  18    1.20    1.40
  -2   5  18   -0.10    1.30
  -1   5  18    0.00    1.40
   0   5  18    1.80    1.50
   1   5  18   -0.20    1.40
   2   5  18   -2.10    1.30
   3   5  18    0.50    1.40
   4   5  18    0.90    1.40
  -2   6  18    0.90    1.40
  -1   6  18    0.90    1.40
   0   6  18    0.70    1.50
   1   6  18    0.50    1.40
   2   6  18    0.00    1.40
   3   6  18    1.00    1.40
   4   6  18   -0.90    1.40
  -1   7  18    1.00    1.50
   0   7  18    2.40    1.50
   1   7  18   -2.30    1.30
   2   7  18   -1.20    1.20
   3   7  18   -1.00    1.30
   4   7  18    0.50    1.30
  -1   8  18    0.70    1.50
   0   8  18    1.00    1.50
   1   8  18    1.40    1.40
   2   8  18    0.50    1.40
   3   8  18   -0.50    1.40
   4   8  18   -0.10    1.30
   0   9  18    1.50    1.50
   1   9  18    1.20    1.50
   2   9  18   -1.30    1.20
   3   9  18    0.40    1.40
   2  10  18    1.50    1.40
   0   0   0    0.00    0.00

_computing_structure_solution     'SHELXT 2014/5 (Sheldrick, 2014)'
;
_shelx_hkl_checksum              59167
_shelx_shelxl_version_number     2014/7
_olex2_submission_special_instructions 'No special instructions were received'
loop_
_space_group_symop_operation_xyz
'x, y, z'
'-x, -y, -z'
loop_
_atom_site_label
_atom_site_type_symbol
_atom_site_fract_x
_atom_site_fract_y
_atom_site_fract_z
_atom_site_U_iso_or_equiv
_atom_site_adp_type
_atom_site_occupancy
_atom_site_site_symmetry_order
_atom_site_calc_flag
_atom_site_refinement_flags_posn
_atom_site_refinement_flags_adp
S1 S 0.56743(8) 0.27795(7) 0.18815(8) 0.0713(3) Uani 1 1 d . .
O1 O 0.6697(3) 0.2004(2) 0.2518(3) 0.1043(10) Uani 1 1 d . .
O2 O 0.5858(3) 0.3122(2) 0.0735(2) 0.0966(9) Uani 1 1 d . .
O3 O -0.0307(3) -0.10406(18) 0.42084(18) 0.0782(7) Uani 1 1 d . .
N1 N 0.4046(2) 0.21841(19) 0.21230(19) 0.0572(6) Uani 1 1 d . .
N2 N -0.0365(3) -0.0373(2) 0.2282(2) 0.0704(7) Uani 1 1 d . .
C1 C 0.5558(3) 0.3991(2) 0.2368(3) 0.0613(7) Uani 1 1 d . .
C2 C 0.4817(4) 0.4932(3) 0.1789(3) 0.0680(8) Uani 1 1 d . .
H2 H 0.4382 0.4930 0.1124 0.082 Uiso 1 1 calc R .
C3 C 0.4707(4) 0.5879(3) 0.2174(3) 0.0770(9) Uani 1 1 d . .
H3 H 0.4190 0.6527 0.1768 0.092 Uiso 1 1 calc R .
C4 C 0.5323(5) 0.5910(3) 0.3128(3) 0.0793(10) Uani 1 1 d . .
C5 C 0.6057(5) 0.4970(3) 0.3703(3) 0.0935(12) Uani 1 1 d . .
H5 H 0.6490 0.4981 0.4367 0.112 Uiso 1 1 calc R .
C6 C 0.6184(4) 0.3999(3) 0.3338(3) 0.0828(10) Uani 1 1 d . .
H6 H 0.6693 0.3350 0.3748 0.099 Uiso 1 1 calc R .
C7 C 0.5160(7) 0.6938(3) 0.3558(4) 0.1212(18) Uani 1 1 d . .
H7A H 0.5126 0.7617 0.2954 0.182 Uiso 1 1 calc GR .
H7B H 0.6000 0.6976 0.4011 0.182 Uiso 1 1 calc GR .
H7C H 0.4248 0.6891 0.3988 0.182 Uiso 1 1 calc GR .
C8 C 0.2790(3) 0.2573(2) 0.1472(2) 0.0537(7) Uani 1 1 d . .
C9 C 0.2716(5) 0.3255(3) 0.0428(3) 0.0843(11) Uani 1 1 d . .
H9 H 0.3583 0.3504 0.0015 0.101 Uiso 1 1 calc R .
C10 C 0.1336(6) 0.3560(4) 0.0010(3) 0.1038(15) Uani 1 1 d . .
H10 H 0.1263 0.4060 -0.0690 0.125 Uiso 1 1 calc R .
C11 C 0.0094(5) 0.3175(3) 0.0555(4) 0.0979(13) Uani 1 1 d . .
H11 H -0.0836 0.3391 0.0235 0.118 Uiso 1 1 calc R .
C12 C 0.0173(4) 0.2457(2) 0.1594(3) 0.0716(9) Uani 1 1 d . .
H12 H -0.0700 0.2180 0.1985 0.086 Uiso 1 1 calc R .
C13 C 0.1529(3) 0.2154(2) 0.2046(2) 0.0483(6) Uani 1 1 d . .
C14 C 0.1922(3) 0.1390(2) 0.3124(2) 0.0492(6) Uani 1 1 d . .
H14 H 0.1355 0.1638 0.3702 0.059 Uiso 1 1 calc R .
C15 C 0.3532(3) 0.1633(2) 0.3203(2) 0.0574(7) Uani 1 1 d . .
C16 C 0.4290(5) 0.1434(3) 0.4094(3) 0.0967(13) Uani 1 1 d . .
H16A H 0.5285 0.1661 0.4067 0.116 Uiso 1 1 calc R .
H16B H 0.3842 0.1064 0.4765 0.116 Uiso 1 1 calc R .
C17 C 0.1616(3) 0.0126(2) 0.3228(2) 0.0492(6) Uani 1 1 d . .
C18 C 0.2150(4) -0.0662(2) 0.4292(2) 0.0624(8) Uani 1 1 d . .
H18A H 0.3159 -0.0952 0.4209 0.075 Uiso 1 1 calc R .
H18B H 0.2134 -0.0269 0.4876 0.075 Uiso 1 1 calc R .
C19 C 0.1071(4) -0.1591(3) 0.4517(3) 0.0733(9) Uani 1 1 d . .
H19A H 0.1314 -0.2138 0.4089 0.088 Uiso 1 1 calc R .
H19B H 0.1056 -0.1995 0.5293 0.088 Uiso 1 1 calc R .
C20 C -0.0054(3) -0.0122(2) 0.3280(2) 0.0604(8) Uani 1 1 d . .
H20 H -0.0634 0.0560 0.3348 0.072 Uiso 1 1 calc R .
C21 C 0.0922(4) -0.0599(2) 0.1776(2) 0.0603(7) Uani 1 1 d . .
C22 C 0.2139(3) -0.0285(2) 0.2263(2) 0.0501(6) Uani 1 1 d . .
C23 C 0.3530(4) -0.0422(2) 0.1883(2) 0.0647(8) Uani 1 1 d . .
H23 H 0.4364 -0.0213 0.2216 0.078 Uiso 1 1 calc R .
C24 C 0.3700(5) -0.0878(3) 0.0988(3) 0.0871(12) Uani 1 1 d . .
H24 H 0.4655 -0.0967 0.0702 0.104 Uiso 1 1 calc R .
C25 C 0.2498(6) -0.1194(3) 0.0529(3) 0.0930(13) Uani 1 1 d . .
H25 H 0.2637 -0.1518 -0.0064 0.112 Uiso 1 1 calc R .
C26 C 0.1093(5) -0.1058(3) 0.0896(3) 0.0836(11) Uani 1 1 d . .
H26 H 0.0265 -0.1271 0.0561 0.100 Uiso 1 1 calc R .
C27 C -0.1799(4) -0.0796(4) 0.2109(4) 0.1032(13) Uani 1 1 d . .
H27A H -0.1931 -0.0706 0.1336 0.155 Uiso 1 1 calc GR .
H27B H -0.2572 -0.0369 0.2384 0.155 Uiso 1 1 calc GR .
H27C H -0.1858 -0.1598 0.2492 0.155 Uiso 1 1 calc GR .
O4 O 0.1612(6) 0.5725(4) 0.4282(4) 0.1716(19) Uani 1 1 d . .
C28 C 0.1102(6) 0.5260(4) 0.3666(4) 0.1173(16) Uani 1 1 d . .
C29 C 0.1497(8) 0.4063(4) 0.3897(5) 0.144(2) Uani 1 1 d . U
H29A H 0.2519 0.3978 0.3668 0.216 Uiso 1 1 calc GR .
H29B H 0.0846 0.3688 0.3505 0.216 Uiso 1 1 calc GR .
H29C H 0.1391 0.3719 0.4674 0.216 Uiso 1 1 calc GR .
C30 C 0.0308(10) 0.6005(7) 0.2796(6) 0.204(4) Uani 1 1 d . U
H30A H -0.0752 0.5902 0.2929 0.305 Uiso 1 1 calc GR .
H30B H 0.0585 0.5829 0.2114 0.305 Uiso 1 1 calc GR .
H30C H 0.0553 0.6790 0.2754 0.305 Uiso 1 1 calc GR .
loop_
_atom_site_aniso_label
_atom_site_aniso_U_11
_atom_site_aniso_U_22
_atom_site_aniso_U_33
_atom_site_aniso_U_23
_atom_site_aniso_U_13
_atom_site_aniso_U_12
S1 0.0447(4) 0.0698(5) 0.1053(7) -0.0348(4) 0.0190(4) -0.0047(3)
O1 0.0523(14) 0.0824(16) 0.185(3) -0.0483(18) -0.0068(16) 0.0154(12)
O2 0.0866(17) 0.1103(19) 0.1031(19) -0.0488(15) 0.0563(15) -0.0253(14)
O3 0.0836(16) 0.0610(12) 0.0839(15) -0.0095(11) 0.0377(12) -0.0201(11)
N1 0.0506(13) 0.0572(13) 0.0629(14) -0.0144(11) 0.0061(11) -0.0073(10)
N2 0.0584(15) 0.0713(16) 0.0842(18) -0.0245(14) 0.0084(13) -0.0153(12)
C1 0.0474(15) 0.0610(17) 0.0746(19) -0.0158(14) 0.0102(14) -0.0114(13)
C2 0.078(2) 0.0619(17) 0.0601(17) -0.0087(14) 0.0053(15) -0.0112(15)
C3 0.100(3) 0.0541(17) 0.069(2) -0.0021(14) 0.0066(18) -0.0018(16)
C4 0.113(3) 0.0527(17) 0.069(2) -0.0104(15) 0.011(2) -0.0175(17)
C5 0.117(3) 0.082(2) 0.085(2) -0.025(2) -0.024(2) -0.013(2)
C6 0.079(2) 0.0634(19) 0.104(3) -0.0166(18) -0.025(2) -0.0012(16)
C7 0.195(6) 0.069(2) 0.103(3) -0.027(2) 0.008(3) -0.020(3)
C8 0.0597(17) 0.0491(14) 0.0530(15) -0.0139(11) 0.0014(13) -0.0097(12)
C9 0.102(3) 0.082(2) 0.062(2) -0.0037(17) 0.0014(19) -0.035(2)
C10 0.136(4) 0.088(3) 0.075(2) 0.007(2) -0.045(3) -0.028(3)
C11 0.094(3) 0.072(2) 0.120(3) -0.006(2) -0.051(3) -0.006(2)
C12 0.0591(19) 0.0503(16) 0.105(3) -0.0179(16) -0.0109(17) -0.0028(13)
C13 0.0499(15) 0.0405(12) 0.0564(15) -0.0162(11) 0.0021(12) -0.0030(10)
C14 0.0561(15) 0.0437(13) 0.0496(14) -0.0158(11) 0.0105(12) -0.0028(11)
C15 0.0646(18) 0.0470(14) 0.0588(17) -0.0103(12) -0.0026(14) -0.0051(12)
C16 0.110(3) 0.088(2) 0.082(2) 0.0024(19) -0.034(2) -0.032(2)
C17 0.0533(15) 0.0467(13) 0.0482(14) -0.0143(11) 0.0154(11) -0.0034(11)
C18 0.081(2) 0.0521(15) 0.0502(15) -0.0083(12) 0.0134(14) -0.0014(14)
C19 0.091(2) 0.0545(16) 0.0685(19) -0.0080(14) 0.0276(17) -0.0026(16)
C20 0.0617(17) 0.0459(14) 0.0734(19) -0.0167(13) 0.0252(14) -0.0098(12)
C21 0.079(2) 0.0456(14) 0.0571(16) -0.0145(12) 0.0031(15) -0.0048(13)
C22 0.0615(16) 0.0383(12) 0.0494(14) -0.0106(10) 0.0158(12) -0.0015(11)
C23 0.0724(19) 0.0498(15) 0.0687(18) -0.0126(13) 0.0256(15) 0.0052(13)
C24 0.118(3) 0.0589(18) 0.077(2) -0.0107(17) 0.049(2) 0.0164(19)
C25 0.151(4) 0.071(2) 0.062(2) -0.0288(17) 0.019(2) 0.009(2)
C26 0.125(3) 0.068(2) 0.064(2) -0.0261(16) -0.003(2) -0.002(2)
C27 0.075(3) 0.101(3) 0.130(3) -0.021(3) -0.012(2) -0.026(2)
O4 0.206(5) 0.129(3) 0.202(4) -0.079(3) -0.077(4) 0.032(3)
C28 0.141(4) 0.104(3) 0.122(4) -0.054(3) 0.004(3) -0.031(3)
C29 0.209(6) 0.076(3) 0.161(5) -0.056(3) 0.037(4) -0.022(3)
C30 0.255(9) 0.187(7) 0.146(5) 0.011(5) -0.130(6) -0.009(6)
loop_
_atom_type_symbol
_atom_type_description
_atom_type_scat_dispersion_real
_atom_type_scat_dispersion_imag
_atom_type_scat_source
C C 0.0033 0.0016 'International Tables Vol C Tables 4.2.6.8 and 6.1.1.4'
H H 0.0000 0.0000 'International Tables Vol C Tables 4.2.6.8 and 6.1.1.4'
N N 0.0061 0.0033 'International Tables Vol C Tables 4.2.6.8 and 6.1.1.4'
O O 0.0106 0.0060 'International Tables Vol C Tables 4.2.6.8 and 6.1.1.4'
S S 0.1246 0.1234 'International Tables Vol C Tables 4.2.6.8 and 6.1.1.4'
loop_
_geom_angle_atom_site_label_1
_geom_angle_atom_site_label_2
_geom_angle_atom_site_label_3
_geom_angle
O1 S1 O2 120.06(17)
O1 S1 N1 106.43(15)
O1 S1 C1 108.51(16)
O2 S1 N1 106.30(14)
O2 S1 C1 108.61(16)
N1 S1 C1 106.07(12)
C19 O3 C20 107.8(2)
C8 N1 S1 123.51(19)
C8 N1 C15 108.1(2)
C15 N1 S1 122.27(19)
C20 N2 C27 120.5(3)
C21 N2 C20 110.5(2)
C21 N2 C27 124.1(3)
C2 C1 S1 119.6(3)
C2 C1 C6 119.8(3)
C6 C1 S1 120.6(3)
C1 C2 H2 120.1
C1 C2 C3 119.8(3)
C3 C2 H2 120.1
C2 C3 H3 119.2
C4 C3 C2 121.5(3)
C4 C3 H3 119.2
C3 C4 C7 121.1(4)
C5 C4 C3 118.4(3)
C5 C4 C7 120.4(4)
C4 C5 H5 119.3
C4 C5 C6 121.4(3)
C6 C5 H5 119.3
C1 C6 C5 119.0(3)
C1 C6 H6 120.5
C5 C6 H6 120.5
C4 C7 H7A 109.5
C4 C7 H7B 109.5
C4 C7 H7C 109.5
H7A C7 H7B 109.5
H7A C7 H7C 109.5
H7B C7 H7C 109.5
C9 C8 N1 129.6(3)
C13 C8 N1 109.3(2)
C13 C8 C9 121.0(3)
C8 C9 H9 121.2
C10 C9 C8 117.6(4)
C10 C9 H9 121.2
C9 C10 H10 118.8
C11 C10 C9 122.5(3)
C11 C10 H10 118.8
C10 C11 H11 120.1
C10 C11 C12 119.7(4)
C12 C11 H11 120.1
C11 C12 H12 120.3
C13 C12 C11 119.4(3)
C13 C12 H12 120.3
C8 C13 C14 110.2(2)
C12 C13 C8 119.7(3)
C12 C13 C14 130.1(3)
C13 C14 H14 109.0
C13 C14 C15 102.4(2)
C13 C14 C17 113.6(2)
C15 C14 H14 109.0
C15 C14 C17 113.5(2)
C17 C14 H14 109.0
N1 C15 C14 106.8(2)
C16 C15 N1 126.9(3)
C16 C15 C14 126.2(3)
C15 C16 H16A 120.0
C15 C16 H16B 120.0
H16A C16 H16B 120.0
C18 C17 C14 113.3(2)
C18 C17 C20 102.0(2)
C20 C17 C14 112.3(2)
C22 C17 C14 114.1(2)
C22 C17 C18 111.6(2)
C22 C17 C20 102.4(2)
C17 C18 H18A 111.1
C17 C18 H18B 111.1
H18A C18 H18B 109.1
C19 C18 C17 103.2(3)
C19 C18 H18A 111.1
C19 C18 H18B 111.1
O3 C19 C18 104.6(2)
O3 C19 H19A 110.8
O3 C19 H19B 110.8
C18 C19 H19A 110.8
C18 C19 H19B 110.8
H19A C19 H19B 108.9
O3 C20 C17 107.2(2)
O3 C20 H20 110.0
N2 C20 O3 113.9(2)
N2 C20 C17 105.4(2)
N2 C20 H20 110.0
C17 C20 H20 110.0
N2 C21 C22 110.6(2)
N2 C21 C26 128.5(3)
C26 C21 C22 120.9(3)
C21 C22 C17 108.8(2)
C23 C22 C17 130.6(3)
C23 C22 C21 120.5(3)
C22 C23 H23 120.8
C22 C23 C24 118.5(3)
C24 C23 H23 120.8
C23 C24 H24 119.9
C25 C24 C23 120.2(3)
C25 C24 H24 119.9
C24 C25 H25 119.0
C24 C25 C26 122.0(3)
C26 C25 H25 119.0
C21 C26 H26 121.1
C25 C26 C21 117.8(4)
C25 C26 H26 121.1
N2 C27 H27A 109.5
N2 C27 H27B 109.5
N2 C27 H27C 109.5
H27A C27 H27B 109.5
H27A C27 H27C 109.5
H27B C27 H27C 109.5
O4 C28 C29 113.4(5)
O4 C28 C30 114.0(5)
C30 C28 C29 132.4(5)
C28 C29 H29A 109.5
C28 C29 H29B 109.5
C28 C29 H29C 109.5
H29A C29 H29B 109.5
H29A C29 H29C 109.5
H29B C29 H29C 109.5
C28 C30 H30A 109.5
C28 C30 H30B 109.5
C28 C30 H30C 109.5
H30A C30 H30B 109.5
H30A C30 H30C 109.5
H30B C30 H30C 109.5
loop_
_geom_bond_atom_site_label_1
_geom_bond_atom_site_label_2
_geom_bond_distance
S1 O1 1.424(3)
S1 O2 1.428(3)
S1 N1 1.652(2)
S1 C1 1.754(3)
O3 C19 1.424(4)
O3 C20 1.429(3)
N1 C8 1.430(4)
N1 C15 1.448(4)
N2 C20 1.428(4)
N2 C21 1.382(4)
N2 C27 1.456(4)
C1 C2 1.372(4)
C1 C6 1.382(5)
C2 H2 0.9500
C2 C3 1.375(5)
C3 H3 0.9500
C3 C4 1.368(5)
C4 C5 1.365(5)
C4 C7 1.504(5)
C5 H5 0.9500
C5 C6 1.389(5)
C6 H6 0.9500
C7 H7A 0.9800
C7 H7B 0.9800
C7 H7C 0.9800
C8 C9 1.385(4)
C8 C13 1.382(4)
C9 H9 0.9500
C9 C10 1.381(6)
C10 H10 0.9500
C10 C11 1.342(6)
C11 H11 0.9500
C11 C12 1.397(5)
C12 H12 0.9500
C12 C13 1.377(4)
C13 C14 1.501(4)
C14 H14 1.0000
C14 C15 1.511(4)
C14 C17 1.552(3)
C15 C16 1.313(4)
C16 H16A 0.9500
C16 H16B 0.9500
C17 C18 1.536(4)
C17 C20 1.551(4)
C17 C22 1.515(3)
C18 H18A 0.9900
C18 H18B 0.9900
C18 C19 1.485(4)
C19 H19A 0.9900
C19 H19B 0.9900
C20 H20 1.0000
C21 C22 1.392(4)
C21 C26 1.391(4)
C22 C23 1.368(4)
C23 H23 0.9500
C23 C24 1.406(5)
C24 H24 0.9500
C24 C25 1.363(6)
C25 H25 0.9500
C25 C26 1.373(6)
C26 H26 0.9500
C27 H27A 0.9800
C27 H27B 0.9800
C27 H27C 0.9800
O4 C28 1.194(5)
C28 C29 1.458(7)
C28 C30 1.442(7)
C29 H29A 0.9800
C29 H29B 0.9800
C29 H29C 0.9800
C30 H30A 0.9800
C30 H30B 0.9800
C30 H30C 0.9800
loop_
_geom_torsion_atom_site_label_1
_geom_torsion_atom_site_label_2
_geom_torsion_atom_site_label_3
_geom_torsion_atom_site_label_4
_geom_torsion
S1 N1 C8 C9 18.8(4)
S1 N1 C8 C13 -161.47(18)
S1 N1 C15 C14 169.75(17)
S1 N1 C15 C16 -6.9(5)
S1 C1 C2 C3 179.1(2)
S1 C1 C6 C5 -179.3(3)
O1 S1 N1 C8 -165.8(2)
O1 S1 N1 C15 44.9(3)
O1 S1 C1 C2 170.1(2)
O1 S1 C1 C6 -11.0(3)
O2 S1 N1 C8 -36.7(3)
O2 S1 N1 C15 174.0(2)
O2 S1 C1 C2 38.0(3)
O2 S1 C1 C6 -143.1(3)
N1 S1 C1 C2 -75.9(3)
N1 S1 C1 C6 103.0(3)
N1 C8 C9 C10 -176.1(3)
N1 C8 C13 C12 177.3(2)
N1 C8 C13 C14 -3.0(3)
N2 C21 C22 C17 3.6(3)
N2 C21 C22 C23 -179.3(2)
N2 C21 C26 C25 179.4(3)
C1 S1 N1 C8 78.8(2)
C1 S1 N1 C15 -70.5(2)
C1 C2 C3 C4 0.1(5)
C2 C1 C6 C5 -0.5(5)
C2 C3 C4 C5 -0.2(6)
C2 C3 C4 C7 -178.3(4)
C3 C4 C5 C6 0.0(6)
C4 C5 C6 C1 0.4(6)
C6 C1 C2 C3 0.3(5)
C7 C4 C5 C6 178.1(4)
C8 N1 C15 C14 16.4(3)
C8 N1 C15 C16 -160.3(3)
C8 C9 C10 C11 -3.4(6)
C8 C13 C14 C15 12.6(3)
C8 C13 C14 C17 -110.2(2)
C9 C8 C13 C12 -2.9(4)
C9 C8 C13 C14 176.7(3)
C9 C10 C11 C12 1.3(7)
C10 C11 C12 C13 0.1(6)
C11 C12 C13 C8 0.7(4)
C11 C12 C13 C14 -178.9(3)
C12 C13 C14 C15 -167.9(3)
C12 C13 C14 C17 69.4(3)
C13 C8 C9 C10 4.1(5)
C13 C14 C15 N1 -17.2(2)
C13 C14 C15 C16 159.5(3)
C13 C14 C17 C18 174.7(2)
C13 C14 C17 C20 -70.4(3)
C13 C14 C17 C22 45.6(3)
C14 C17 C18 C19 148.0(2)
C14 C17 C20 O3 -128.1(2)
C14 C17 C20 N2 110.2(2)
C14 C17 C22 C21 -115.9(2)
C14 C17 C22 C23 67.4(4)
C15 N1 C8 C9 171.7(3)
C15 N1 C8 C13 -8.5(3)
C15 C14 C17 C18 58.3(3)
C15 C14 C17 C20 173.2(2)
C15 C14 C17 C22 -70.9(3)
C17 C14 C15 N1 105.7(2)
C17 C14 C15 C16 -77.6(4)
C17 C18 C19 O3 -39.1(3)
C17 C22 C23 C24 176.8(3)
C18 C17 C20 O3 -6.4(3)
C18 C17 C20 N2 -128.1(2)
C18 C17 C22 C21 114.1(3)
C18 C17 C22 C23 -62.7(4)
C19 O3 C20 N2 98.3(3)
C19 O3 C20 C17 -18.0(3)
C20 O3 C19 C18 36.1(3)
C20 N2 C21 C22 -12.5(3)
C20 N2 C21 C26 168.1(3)
C20 C17 C18 C19 27.0(3)
C20 C17 C22 C21 5.7(3)
C20 C17 C22 C23 -171.1(3)
C21 N2 C20 O3 -101.6(3)
C21 N2 C20 C17 15.7(3)
C21 C22 C23 C24 0.4(4)
C22 C17 C18 C19 -81.6(3)
C22 C17 C20 O3 109.2(2)
C22 C17 C20 N2 -12.6(3)
C22 C21 C26 C25 0.2(5)
C22 C23 C24 C25 -1.2(5)
C23 C24 C25 C26 1.6(6)
C24 C25 C26 C21 -1.0(6)
C26 C21 C22 C17 -177.0(3)
C26 C21 C22 C23 0.1(4)
C27 N2 C20 O3 54.5(4)
C27 N2 C20 C17 171.8(3)
C27 N2 C21 C22 -167.6(3)
C27 N2 C21 C26 13.1(5)
