#------------------------------------------------------------------------------
#$Date: 2017-09-28 16:19:54 +0300 (Thu, 28 Sep 2017) $
#$Revision: 201448 $
#$URL: file:///home/coder/svn-repositories/cod/cif/1/54/74/1547446.cif $
#------------------------------------------------------------------------------
#
# This file is available in the Crystallography Open Database (COD),
# http://www.crystallography.net/
#
# All data on this site have been placed in the public domain by the
# contributors.
#
data_1547446
loop_
_publ_author_name
'Anuradha R. Pallipurath'
'Jonathan M. Skelton'
'Mark R. Warren'
'Naghmeh Kamali'
'Patrick McArdle'
'Andrea Erxleben'
_publ_section_title
;
 Sulfamerazine: Understanding the Influence of Slip Planes in the
 Polymorphic Phase Transformation through X-Ray Crystallographic Studies
 and ab Initio Lattice Dynamics
;
_journal_name_full               'Molecular Pharmaceutics'
_journal_page_first              3735
_journal_page_last               3748
_journal_paper_doi               10.1021/acs.molpharmaceut.5b00504
_journal_volume                  12
_journal_year                    2015
_chemical_formula_moiety         'C11 H12 N4 O2 S'
_chemical_formula_sum            'C11 H12 N4 O2 S'
_chemical_formula_weight         264.31
_chemical_name_common            Sulfamerazine
_chemical_name_systematic        4-amino-N-(4-methylpyrimidin-2-yl)
_space_group_crystal_system      orthorhombic
_space_group_IT_number           61
_space_group_name_Hall           '-P 2ac 2ab'
_space_group_name_H-M_alt        'P b c a'
_symmetry_space_group_name_Hall  '-P 2ac 2ab'
_symmetry_space_group_name_H-M   'P b c a'
_atom_sites_solution_hydrogens   mixed
_cell_angle_alpha                90
_cell_angle_beta                 90
_cell_angle_gamma                90
_cell_formula_units_Z            8
_cell_length_a                   9.1237(2)
_cell_length_b                   11.6442(2)
_cell_length_c                   22.8738(4)
_cell_measurement_reflns_used    8053
_cell_measurement_temperature    240
_cell_measurement_theta_max      29.4910
_cell_measurement_theta_min      1.7280
_cell_volume                     2430.07(8)
_computing_cell_refinement
;
CrysAlisPro, Agilent Technologies,
Version 1.171.37.34 (release 22-05-2014 CrysAlis171 .NET)
(compiled May 22 2014,16:03:01)
;
_computing_data_collection
;
CrysAlisPro, Agilent Technologies,
Version 1.171.37.34 (release 22-05-2014 CrysAlis171 .NET)
(compiled May 22 2014,16:03:01)
;
_computing_data_reduction
;
CrysAlisPro, Agilent Technologies,
Version 1.171.37.34 (release 22-05-2014 CrysAlis171 .NET)
(compiled May 22 2014,16:03:01)
;
_computing_molecular_graphics    OSCAIL
_computing_structure_refinement  'SHELXL-2014/7 (Sheldrick, 2014)'
_computing_structure_solution    SHELXT
_diffrn_ambient_temperature      240
_diffrn_measured_fraction_theta_full 0.990
_diffrn_measured_fraction_theta_max 0.973
_diffrn_measurement_device       'CrystalLogic Kappa (3 circle)'
_diffrn_measurement_device_type  'Rigaku Saturn724+ (2x2 bin mode)'
_diffrn_measurement_method
;
omega rotation with 1 degree frames
;
_diffrn_measurement_specimen_support 'MiTeGen loop'
_diffrn_radiation_monochromator  'double crystal Silicon 111'
_diffrn_radiation_source         'Diamond Light Source Beamline I19'
_diffrn_radiation_type           Synchrotron
_diffrn_radiation_wavelength     0.68890
_diffrn_reflns_av_R_equivalents  0.0657
_diffrn_reflns_av_unetI/netI     0.0408
_diffrn_reflns_Laue_measured_fraction_full 0.990
_diffrn_reflns_Laue_measured_fraction_max 0.973
_diffrn_reflns_limit_h_max       11
_diffrn_reflns_limit_h_min       -12
_diffrn_reflns_limit_k_max       13
_diffrn_reflns_limit_k_min       -16
_diffrn_reflns_limit_l_max       32
_diffrn_reflns_limit_l_min       -31
_diffrn_reflns_number            21692
_diffrn_reflns_point_group_measured_fraction_full 0.990
_diffrn_reflns_point_group_measured_fraction_max 0.973
_diffrn_reflns_theta_full        24.415
_diffrn_reflns_theta_max         29.472
_diffrn_reflns_theta_min         1.726
_exptl_absorpt_coefficient_mu    0.266
_exptl_absorpt_correction_T_max  1.00000
_exptl_absorpt_correction_T_min  0.95866
_exptl_absorpt_correction_type   multi-scan
_exptl_absorpt_process_details
;
CrysAlisPro, Agilent Technologies,
Version 1.171.36.28 (release 01-02-2013 CrysAlis171 .NET)
Empirical absorption correction using spherical harmonics,
implemented in SCALE3 ABSPACK scaling algorithm.
;
_exptl_crystal_colour            Colourless
_exptl_crystal_density_diffrn    1.445
_exptl_crystal_description       Parallelepiped
_exptl_crystal_F_000             1104
_exptl_crystal_size_max          0.50
_exptl_crystal_size_mid          0.40
_exptl_crystal_size_min          0.20
_refine_diff_density_max         0.329
_refine_diff_density_min         -0.420
_refine_diff_density_rms         0.059
_refine_ls_extinction_coef       .
_refine_ls_extinction_method     none
_refine_ls_goodness_of_fit_ref   0.971
_refine_ls_hydrogen_treatment    mixed
_refine_ls_matrix_type           full
_refine_ls_number_parameters     176
_refine_ls_number_reflns         3601
_refine_ls_number_restraints     0
_refine_ls_restrained_S_all      0.971
_refine_ls_R_factor_all          0.0720
_refine_ls_R_factor_gt           0.0482
_refine_ls_shift/su_max          0.000
_refine_ls_shift/su_mean         0.000
_refine_ls_structure_factor_coef Fsqd
_refine_ls_weighting_details
'w=1/[\s^2^(Fo^2^)+(0.0463P)^2^+1.4827P] where P=(Fo^2^+2Fc^2^)/3'
_refine_ls_weighting_scheme      calc
_refine_ls_wR_factor_gt          0.1087
_refine_ls_wR_factor_ref         0.1244
_reflns_Friedel_coverage         0.000
_reflns_Friedel_fraction_full    .
_reflns_Friedel_fraction_max     .
_reflns_number_gt                2586
_reflns_number_total             3601
_reflns_threshold_expression     'I > 2\s(I)'
_cod_data_source_file            Exp_Form-II2FSynchrotron_Form-II_240K.cif
_cod_data_source_block           240k_smz-f2_a
_cod_database_code               1547446
_shelx_space_group_comment
;
The symmetry employed for this shelxl refinement is uniquely defined
by the following loop, which should always be used as a source of
symmetry information in preference to the above space-group names.
They are only intended as comments.
;
_shelx_estimated_absorpt_t_min   0.878
_shelx_estimated_absorpt_t_max   0.949
_shelx_res_file
;

    240k_smz-f2_a.res created by SHELXL-2014/7

TITL 240k_smz-f2_a.res in Pbca
REM Old TITL 036_240K_SulfamerazineF2_ in Pbca
REM SHELXT solution in Pbca
REM R1 0.118,  Rweak 0.253,  Alpha 0.019,  Orientation as input
REM Formula found by SHELXT:  C12 N3 O2 S
CELL  0.68890   9.1237  11.6442  22.8738   90.000   90.000   90.000
ZERR    8.000   0.0002   0.0002   0.0004    0.000    0.000    0.000
REM SG 61 8 8 Pbca P21/b21/c21/a PGmmm Orthorhombic
LATT 1
REM SG  ASUN  1  .5 .5 .5
REM SG  ORGN  at Inv.cen.
SYMM 0.5-X,-Y,0.5+Z
SYMM -X,0.5+Y,0.5-Z
SYMM 0.5+X,0.5-Y,-Z
SFAC C H N O S
UNIT 88 96  32  16  8
FMAP 2
PLAN -32
BOND $H
L.S. 12
SIZE    0.50  0.40  0.20
ACTA
CONF
REM Instructions for potential hydrogen bonds
EQIV $1 -x+1/2, y+1/2, z
HTAB C6 O1_$1
EQIV $2 -x+1, -y+1, -z+1
HTAB C8 O2_$2
EQIV $3 x+1, y, z
HTAB C9 O2_$3
HTAB N2 N4_$2
EQIV $4 x+1/2, y, -z+1/2
HTAB N1 O2_$4
EQIV $5 -x+1, y+1/2, -z+1/2
HTAB N1 O1_$5
HTAB N1 N3_$5
LIST 4
WGHT    0.046300    1.482700
FVAR       0.55017
S1    5    0.332447    0.346391    0.389710    11.00000    0.03239    0.03339 =
         0.02914   -0.00247   -0.00066   -0.00377
O2    4    0.197692    0.397088    0.409613    11.00000    0.03055    0.05307 =
         0.03568   -0.00219    0.00066   -0.00232
O1    4    0.342169    0.224106    0.386310    11.00000    0.05545    0.03124 =
         0.03907   -0.00164    0.00027   -0.00815
N4    3    0.666296    0.426394    0.485392    11.00000    0.03192    0.03973 =
         0.03454   -0.00322   -0.00345    0.00128
N3    3    0.655789    0.285663    0.408982    11.00000    0.03729    0.03582 =
         0.03508   -0.00240    0.00374    0.00570
N2    3    0.451693    0.394803    0.437489    11.00000    0.02985    0.03939 =
         0.03552   -0.00916   -0.00169    0.00456
N1    3    0.456026    0.532770    0.155152    11.00000    0.06875    0.04289 =
         0.03936    0.00497    0.01375    0.00305
C1    1    0.375740    0.404104    0.321709    11.00000    0.03528    0.03220 =
         0.03101   -0.00243    0.00076   -0.00057
C2    1    0.448842    0.338269    0.280471    11.00000    0.05458    0.03568 =
         0.03807    0.00108    0.00769    0.01065
AFIX  43
H2    2    0.478660    0.264135    0.289818    11.00000   -1.30000
AFIX   0
C3    1    0.477528    0.382125    0.225718    11.00000    0.05757    0.03939 =
         0.03791   -0.00295    0.01299    0.00816
AFIX  43
H3    2    0.527287    0.337426    0.198490    11.00000   -1.30000
AFIX   0
C4    1    0.432680    0.493127    0.210590    11.00000    0.04243    0.03889 =
         0.03405   -0.00025    0.00420   -0.00481
C5    1    0.359837    0.559080    0.252976    11.00000    0.04850    0.02909 =
         0.04187    0.00025    0.00662   -0.00100
AFIX  43
H5    2    0.329517    0.633207    0.243874    11.00000   -1.30000
AFIX   0
C6    1    0.332745    0.515365    0.307847    11.00000    0.03982    0.03019 =
         0.03642   -0.00551    0.00584   -0.00110
AFIX  43
H6    2    0.285600    0.560342    0.335690    11.00000   -1.30000
AFIX   0
C7    1    0.597550    0.366366    0.443447    11.00000    0.03306    0.03336 =
         0.02925    0.00203    0.00171    0.00144
C8    1    0.808036    0.401230    0.492828    11.00000    0.03392    0.05185 =
         0.03796    0.00170   -0.00423    0.00120
AFIX  43
H8    2    0.860514    0.440634    0.521334    11.00000   -1.30000
AFIX   0
C9    1    0.879213    0.319829    0.460215    11.00000    0.03079    0.05402 =
         0.04129    0.00841    0.00193    0.00666
AFIX  43
H9    2    0.978027    0.303987    0.466093    11.00000   -1.30000
AFIX   0
C10   1    0.798760    0.262020    0.418207    11.00000    0.03970    0.03811 =
         0.03924    0.00718    0.00939    0.00636
C11   1    0.866047    0.169204    0.381790    11.00000    0.05104    0.05297 =
         0.05987   -0.00492    0.01274    0.01479
AFIX 137
H11A  2    0.822188    0.096783    0.391601    11.00000   -1.30000
H11B  2    0.969509    0.165918    0.389246    11.00000   -1.30000
H11C  2    0.849615    0.185359    0.341160    11.00000   -1.30000
AFIX   0
H1N2  2    0.418666    0.444466    0.456940    11.00000    0.04478
H1N1  2    0.512450    0.492371    0.133594    11.00000    0.05294
H2N1  2    0.452625    0.602923    0.148262    11.00000    0.05564
HKLF 4

REM  240k_smz-f2_a.res in Pbca
REM R1 =  0.0482 for    2586 Fo > 4sig(Fo)  and  0.0720 for all    3601 data
REM    176 parameters refined using      0 restraints

END

WGHT      0.0482      0.7465

REM Highest difference peak  0.329,  deepest hole -0.420,  1-sigma level  0.059
Q1    1   0.3453  0.4586  0.3191  11.00000  0.05    0.33
Q2    1   0.3430  0.3800  0.3460  11.00000  0.05    0.27
Q3    1   0.1664  0.4510  0.3903  11.00000  0.05    0.26
Q4    1   0.8439  0.2915  0.4377  11.00000  0.05    0.25
Q5    1   0.8214  0.2004  0.4082  11.00000  0.05    0.24
Q6    1   0.3371  0.5180  0.2794  11.00000  0.05    0.21
Q7    1   0.3806  0.5426  0.2785  11.00000  0.05    0.21
Q8    1   0.3034  0.2597  0.4027  11.00000  0.05    0.20
Q9    1   0.3834  0.1999  0.3974  11.00000  0.05    0.20
Q10   1   0.4043  0.3655  0.4184  11.00000  0.05    0.20
Q11   1   0.4323  0.5418  0.2375  11.00000  0.05    0.19
Q12   1   0.3925  0.3413  0.2396  11.00000  0.05    0.19
Q13   1   0.1378  0.2229  0.3636  11.00000  0.05    0.19
Q14   1   0.4175  0.3536  0.2472  11.00000  0.05    0.19
Q15   1   0.4918  0.5269  0.1914  11.00000  0.05    0.19
Q16   1   0.1451  0.3944  0.4125  11.00000  0.05    0.19
Q17   1   0.4785  0.4554  0.2219  11.00000  0.05    0.19
Q18   1   0.2063  0.3617  0.3926  11.00000  0.05    0.19
Q19   1   0.6593  0.3536  0.4198  11.00000  0.05    0.18
Q20   1   0.3813  0.3749  0.3006  11.00000  0.05    0.18
Q21   1   0.8586  0.3767  0.4648  11.00000  0.05    0.18
Q22   1   1.0088  0.4630  0.5285  11.00000  0.05    0.18
Q23   1   0.3372  0.2041  0.3629  11.00000  0.05    0.18
Q24   1   0.4346  0.3806  0.3102  11.00000  0.05    0.18
Q25   1   0.4867  0.2991  0.1522  11.00000  0.05    0.17
Q26   1   0.2909  0.6188  0.2183  11.00000  0.05    0.17
Q27   1   0.1510  0.3804  0.3595  11.00000  0.05    0.17
Q28   1   0.9076  0.0994  0.3987  11.00000  0.05    0.17
Q29   1   0.3218  0.2142  0.4333  11.00000  0.05    0.17
Q30   1   0.3381  0.1586  0.3232  11.00000  0.05    0.17
Q31   1   0.1328  0.4621  0.4365  11.00000  0.05    0.17
Q32   1   0.3637  0.5068  0.2365  11.00000  0.05    0.16
;
_shelx_res_checksum              85206
_shelx_hkl_file
;
   0   0   2  503.11   11.44
   0   0   2  629.58   13.09
   0   0   3   -0.42    0.34
   0   0   3   -1.60    1.12
   0   0   4 2831.61   38.34
   0   0   4 2761.28   38.87
   0   0   5   -0.41    1.39
   0   0   5    2.79    1.87
   0   0   6 7362.96   75.06
   0   0   6 7224.85   76.45
   0   0   7   -0.34    2.59
   0   0   7    2.02    1.78
   0   0   8 1002.90   32.06
   0   0   8 1055.99   33.52
   0   0   9    0.82    2.52
   0   0   9   -0.68    1.49
   0   0  10 5442.01   85.28
   0   0  10 5114.08   80.74
   0   0  11   -0.31    1.88
   0   0  11    0.02    1.69
   0   0  12    4.62    3.20
   0   0  12   -0.10    2.01
   0   0  13   -2.22    3.29
   0   0  13    0.30    2.17
   0   0  14  750.64   36.19
   0   0  14  817.24   38.68
   0   0  15   -0.42    2.01
   0   0  15    0.41    2.73
   0   0  16   16.35    5.63
   0   0  16   10.37    5.54
   0   0  17    1.32    4.37
   0   0  17   -3.75    4.48
   0   0  18 1280.71   53.64
   0   0  18 1218.27   53.30
   0   0  19    0.92    2.40
   0   0  19    0.73    1.56
   0   0  20  130.97   18.26
   0   0  20  128.23   18.48
   0   0  21    1.35    5.19
   0   0  21    7.46    6.01
   0   0  22  232.28   24.83
   0   0  22  132.59   18.83
   0   0  23   -0.79    4.16
   0   0  23    1.01    1.79
   0   0  24   47.09   12.55
   0   0  24   60.28   13.81
   0   0  25   -5.18    5.82
   0   0  25    3.78    6.47
   0   0  26   51.16   13.07
   0   0  26   43.44   11.23
   0   0  27   -3.19    3.17
   0   0  27   -0.29    5.40
   0   0  28   57.38   13.72
   0   0  28   45.20   11.18
   0   0  29   -6.25    2.29
   0   0  29   -1.23    5.09
   0   0  30  236.43   29.76
   0   0  30  299.85   32.51
   0   0  31   -1.15    3.04
   0   0  31    2.75    6.99
   0   0  32   -1.42    2.15
   0   0  32    3.25    6.39
   0  -1   0   -0.79    0.27
   0  -1   0    0.91    0.63
   0  -1   1    0.52    0.33
   0  -1  -1    0.05    0.24
   0   1   1    0.12    0.40
   0  -1   1    0.51    0.93
   0   1   2   -0.46    0.23
   0  -1   2    0.23    0.21
   0  -1   2   -0.27    0.35
   0   1   2   -0.04    0.50
   0   1   3   -0.90    1.47
   0  -1   3    1.31    0.98
   0  -1   3    1.21    1.32
   0   1   3    0.86    1.00
   0   1   4   -1.22    1.91
   0  -1   4   -1.75    1.72
   0  -1   4   -0.32    0.54
   0  -1   4    0.19    0.78
   0   1   4   -0.31    0.52
   0  -1   5    0.65    0.64
   0   1   5    0.08    0.79
   0  -1   5    0.88    0.72
   0   1   5    0.96    1.21
   0   1   6   -0.18    0.71
   0  -1   6   -0.16    1.30
   0   1   6    2.88    2.39
   0  -1   6    2.52    1.65
   0   1   7    0.46    0.87
   0  -1   7   -0.16    0.61
   0   1   7    0.20    1.69
   0  -1   7   -1.79    2.04
   0  -1   8   -0.08    1.72
   0   1   8   -0.86    1.88
   0  -1   8   -0.10    1.30
   0   1   8   -0.14    1.42
   0   1   9   -0.67    2.25
   0   1   9   -0.75    1.39
   0  -1   9    1.34    1.55
   0  -1   9    0.89    2.18
   0  -1  10    0.09    2.78
   0   1  10    0.08    1.01
   0   1  10   -3.37    2.96
   0  -1  10    5.57    3.62
   0   1  11   -0.31    2.17
   0  -1  11    0.22    2.44
   0  -1  11    1.78    2.91
   0   1  11    1.38    2.52
   0  -1  12   -2.21    2.76
   0  -1  12    1.04    0.85
   0   1  12    1.06    1.74
   0   1  12    0.03    1.81
   0   1  13   -0.34    2.86
   0  -1  13    0.04    2.85
   0  -1  13   -0.28    2.03
   0   1  13   -1.42    3.43
   0  -1  14    6.03    4.09
   0   1  14   -0.54    3.87
   0   1  14    1.25    1.55
   0  -1  14    0.59    1.57
   0   1  15    1.41    4.51
   0  -1  15   -0.14    2.39
   0   1  15    1.74    5.14
   0  -1  15   -2.66    4.53
   0  -1  16   -2.98    4.30
   0   1  16    2.90    2.16
   0   1  16    1.02    1.91
   0  -1  16    0.57    2.56
   0  -1  17    0.18    5.60
   0   1  17    2.26    5.15
   0  -1  17   -5.71    4.63
   0   1  17   -1.95    3.10
   0   1  18   -1.54    2.89
   0   1  18    0.91    1.58
   0  -1  18   -0.98    3.70
   0  -1  18    1.08    3.47
   0  -1  19    2.84    1.82
   0   1  19    1.84    5.31
   0  -1  19   -1.39    2.66
   0   1  19   -1.70    4.81
   0  -1  20   -0.28    1.61
   0   1  20   -1.40    3.40
   0   1  20   -3.04    5.27
   0  -1  20    1.39    2.40
   0   1  21   -0.90    4.86
   0  -1  21    1.54    3.44
   0  -1  21   -0.17    4.59
   0   1  21    8.57    6.67
   0   1  22    5.59    8.34
   0  -1  22    1.47    5.36
   0   1  22   -5.04    5.89
   0  -1  22    2.45    5.27
   0   1  23   -3.32    1.50
   0   1  23   -2.35    4.37
   0  -1  23    6.60    3.99
   0  -1  23   -0.94    2.37
   0  -1  24   -4.60    4.61
   0  -1  24   -3.58    2.81
   0   1  24   -0.02    1.81
   0   1  25    2.59    3.00
   0   1  25    4.57    3.04
   0  -1  25    6.51    5.44
   0  -1  25   -1.83    2.26
   0  -1  26    2.14    4.36
   0  -1  26    3.38    6.91
   0   1  26    2.06    6.98
   0   1  26   -4.16    6.81
   0  -1  27    4.32    6.57
   0  -1  27    0.61    4.50
   0   1  27    4.10    3.40
   0   1  27    0.57    2.87
   0   1  28    2.99    3.71
   0  -1  28    3.99    4.61
   0  -1  28    0.43    4.05
   0   1  28   -7.71    5.34
   0   1  29    1.44    3.21
   0  -1  29   -5.49    3.78
   0  -1  29    4.25    5.34
   0   1  29   -1.29    3.89
   0  -1  30    3.31    5.10
   0   1  30   -7.74    5.30
   0  -1  30    3.47    5.03
   0   1  30   -8.58    9.59
   0   1  31   -4.11    6.06
   0   1  31   -3.11    3.16
   0  -1  31    9.69    8.75
   0  -1  31    0.42    6.55
   0  -1  32   -5.55    6.09
   0  -1  32   -2.51    2.59
   0   1  32   -5.20    6.65
   0   1  32    1.93    3.31
   0  -2   0   -0.10    1.77
   0  -2   0    2.65    1.45
   0  -2   1 7959.66   60.98
   0  -2  -1 8206.60   64.56
   0  -2   1 8108.09   67.27
   0   2   1 8152.04   62.82
   0  -2   2 4310.68   51.84
   0  -2  -2 4285.69   49.04
   0   2   2 4283.52   47.32
   0   2   2 4283.65   38.03
   0  -2   2 4221.13   45.29
   0  -2  -3 9928.65   80.62
   0   2   3 9872.89   77.61
   0  -2   3 9837.77   74.36
   0  -2   3 9790.31   81.80
   0   2   3 9999.00   65.86
   0  -2   4 8185.20   77.73
   0   2   4 8014.62   75.85
   0  -2   4 7902.26   72.25
   0   2   4 8128.08   66.11
   0  -2  -4 8146.50   78.99
   0   2   5 7953.81   81.51
   0   2   5 8166.54   73.67
   0  -2   5 7978.25   76.89
   0   2   6 7837.07   84.62
   0  -2   6 7613.54   83.92
   0   2   6 7411.48   80.33
   0  -2   6 7707.16   81.32
   0  -2   6 7587.32   83.31
   0  -2   7   62.30    7.83
   0   2   7   68.18    8.47
   0   2   7   72.70    8.63
   0  -2   7   59.47    7.66
   0  -2   7   61.76    8.03
   0  -2   8  541.79   24.87
   0   2   8  544.98   23.88
   0   2   8  514.44   24.20
   0  -2   8  545.86   25.38
   0  -2   8  499.49   23.71
   0   2   9 1767.58   47.30
   0  -2   9 1745.26   47.40
   0  -2   9 1695.97   46.69
   0   2   9 1842.04   46.56
   0  -2   9 1725.53   45.69
   0  -2  10  880.02   35.18
   0   2  10  968.27   36.44
   0   2  10  898.76   34.43
   0   2  11 1291.47   43.41
   0  -2  11 1287.06   43.46
   0  -2  11 1168.86   42.80
   0   2  11 1213.92   42.88
   0   2  12  600.92   30.45
   0  -2  12  547.73   29.81
   0   2  12  554.31   30.04
   0  -2  12  544.76   29.51
   0  -2  13  108.30   14.08
   0   2  13  117.85   13.80
   0  -2  13  144.80   16.18
   0   2  13  149.43   15.66
   0   2  14  682.58   35.18
   0  -2  14  689.17   35.82
   0   2  14  692.02   35.96
   0  -2  14  656.88   35.17
   0   2  15   18.29    6.59
   0   2  15   18.39    4.18
   0  -2  15    9.86    4.15
   0  -2  15   24.81    7.63
   0  -2  16   71.54   12.28
   0   2  16   76.88   12.71
   0   2  16   60.61   11.52
   0  -2  16   73.22   12.53
   0  -2  17  523.24   34.33
   0   2  17  484.61   32.95
   0  -2  17  471.40   31.58
   0   2  17  437.46   30.87
   0   2  18  251.18   24.09
   0  -2  18  210.67   22.98
   0  -2  18  212.93   22.70
   0   2  18  231.64   23.40
   0   2  19  641.48   39.72
   0  -2  19  655.36   40.18
   0  -2  19  608.95   38.24
   0   2  19  680.33   40.36
   0   2  20   65.07   13.29
   0  -2  20   68.60   14.01
   0  -2  20   70.12   13.26
   0   2  20   92.12   15.78
   0   2  21   53.74   12.11
   0   2  21   70.20   14.04
   0  -2  21   52.44   11.60
   0  -2  21   66.10   13.69
   0   2  22    2.88    3.97
   0  -2  22    3.34    6.70
   0   2  22    5.11    5.97
   0  -2  22    1.00    5.07
   0   2  23  415.59   34.25
   0   2  23  390.70   34.40
   0  -2  23  396.12   33.70
   0  -2  23  407.89   34.28
   0  -2  24    5.87    2.08
   0   2  24    3.80    4.99
   0  -2  24    9.52    7.04
   0   2  24    3.76    3.89
   0   2  25    5.90    4.62
   0  -2  25   11.03    6.51
   0   2  25   11.98    6.24
   0  -2  25   23.50    9.31
   0   2  26   94.67   18.71
   0  -2  26   80.10   17.07
   0   2  26   68.65   14.85
   0  -2  26   63.26   14.25
   0   2  27   11.04    8.26
   0  -2  27    3.01    6.04
   0  -2  27    1.57    4.33
   0   2  27    7.25    6.31
   0   2  28   16.50    7.84
   0  -2  28    5.61    3.83
   0   2  28    8.43    4.42
   0  -2  28    5.30    5.87
   0  -2  29   98.78   19.09
   0   2  29   54.66   14.57
   0   2  29   86.28   15.97
   0  -2  29   58.49   13.86
   0   2  30    5.86    5.62
   0  -2  30   14.79    9.56
   0  -2  30   -0.94    5.50
   0   2  30   -8.06    6.38
   0   2  31   -5.68    5.67
   0  -2  31    4.16    3.38
   0  -2  31   -3.62    5.30
   0  -2  32   36.49   11.88
   0   2  32   26.26    9.35
   0   2  32   25.21    8.81
   0  -2  32   38.12   12.84
   0  -3   0   -0.94    1.94
   0  -3   0    1.43    2.00
   0  -3   1   -0.09    1.12
   0  -3  -1    1.37    2.22
   0  -3   1    0.50    1.27
   0   3   1   -0.40    0.61
   0  -3  -2   -0.48    0.62
   0  -3   2    0.05    1.70
   0   3   2   -0.58    0.62
   0   3   2   -1.81    1.94
   0  -3   2   -0.99    1.76
   0  -3   3   -0.23    1.00
   0   3   3    1.71    1.38
   0   3   3    2.48    0.97
   0  -3   3   -0.94    1.46
   0  -3  -3   -0.36    0.86
   0  -3   4   -0.93    2.28
   0  -3  -4   -0.90    0.77
   0  -3   4    0.07    1.62
   0   3   4   -0.12    1.55
   0   3   4    0.04    1.74
   0   3   5    1.51    1.88
   0  -3   5    0.25    2.06
   0  -3   5    2.99    2.82
   0  -3  -5   -0.04    1.71
   0   3   5   -2.36    2.67
   0  -3   6   -1.64    0.83
   0  -3  -6    3.52    1.97
   0  -3   6   -1.38    2.06
   0   3   6   -1.40    2.50
   0   3   6    0.18    1.20
   0  -3   7    0.21    0.82
   0   3   7    0.80    2.74
   0   3   7    0.23    1.68
   0  -3   7   -1.58    2.59
   0  -3   8    1.36    2.32
   0  -3   8    1.57    2.05
   0  -3   8   -0.01    1.39
   0   3   8    0.91    3.29
   0   3   8    2.33    1.77
   0  -3   9   -0.47    2.09
   0   3   9    1.45    2.17
   0  -3   9   -0.58    2.67
   0   3   9    1.05    3.37
   0  -3   9    1.08    3.05
   0   3  10    0.96    2.81
   0  -3  10   -0.75    2.32
   0   3  10   -2.75    3.16
   0  -3  10    2.19    3.30
   0  -3  10   -0.84    3.23
   0  -3  11    0.63    3.15
   0   3  11    2.41    2.66
   0  -3  11   -1.87    1.51
   0  -3  11   -0.51    1.57
   0   3  11   -2.25    3.32
   0  -3  12    0.64    3.92
   0   3  12    1.79    3.05
   0  -3  12   -0.57    1.02
   0  -3  12    4.53    4.79
   0   3  12    1.97    4.07
   0   3  13    0.93    3.82
   0  -3  13   -0.14    3.38
   0   3  13    2.56    2.90
   0  -3  13    2.89    1.97
   0  -3  14    4.64    3.68
   0   3  14    1.59    4.41
   0  -3  14   -1.96    3.47
   0   3  14    3.04    3.48
   0   3  15    0.18    1.68
   0   3  15   -2.26    2.62
   0  -3  15   -1.11    4.01
   0  -3  15   -1.21    2.66
   0  -3  16    1.78    4.29
   0   3  16   -2.71    4.15
   0   3  16   -0.56    2.15
   0  -3  16    4.58    4.95
   0  -3  17   -1.88    4.36
   0   3  17    4.24    4.32
   0  -3  17   -0.54    2.63
   0   3  17    0.57    3.62
   0   3  18    0.62    1.28
   0   3  18   -0.04    2.93
   0  -3  18    3.02    5.01
   0  -3  18    1.95    2.54
   0  -3  19    0.47    2.18
   0   3  19   -1.36    2.29
   0   3  19    0.78    2.54
   0  -3  19    3.96    4.57
   0  -3  20   -2.17    4.39
   0   3  20   -1.13    3.16
   0   3  20    1.29    5.75
   0  -3  20    2.19    4.25
   0  -3  21   -2.17    2.47
   0   3  21    2.70    4.05
   0  -3  21    2.57    2.63
   0   3  21    2.59    6.81
   0  -3  22    1.51    3.88
   0  -3  22   -5.17    5.96
   0   3  22    0.58    1.61
   0   3  22    5.51    7.82
   0   3  23   -0.22    5.31
   0  -3  23    1.96    5.42
   0   3  23    3.74    3.42
   0  -3  23   -0.04    3.72
   0   3  24    3.28    6.68
   0   3  24    0.59    4.17
   0  -3  24    4.98    7.07
   0  -3  24    9.36    8.55
   0  -3  25   -1.21    2.14
   0   3  25    0.68    4.94
   0   3  25    1.96    4.87
   0  -3  25    0.49    5.08
   0  -3  26   -0.07    3.44
   0   3  26    5.12    4.84
   0  -3  26   -1.71    4.43
   0   3  26   -3.31    5.55
   0   3  27    1.26    3.62
   0  -3  27   -1.64    2.61
   0   3  27    3.04    3.41
   0  -3  27   -1.32    3.77
   0   3  28   -0.31    4.02
   0   3  28    1.38    4.74
   0  -3  28   -0.39    3.44
   0  -3  28   -0.82    2.40
   0  -3  29    1.74    5.91
   0   3  29   -3.76    5.38
   0   3  29    0.19    2.37
   0  -3  29    1.97    2.38
   0  -3  30   -1.10    2.83
   0   3  30   -0.30    5.54
   0  -3  30    1.98    4.49
   0   3  30   -3.16    9.22
   0  -3  31    1.35    3.92
   0   3  31    3.30    5.34
   0   3  31   -4.14    5.02
   0  -3  31    3.24    6.03
   0  -3  32    1.48    2.02
   0   3  32    3.42    2.24
   0  -3  32    7.33    7.96
   0   3  32    4.72    5.43
   0  -4   0 4153.53   65.81
   0  -4   0 4035.45   60.17
   0   4   1 1420.50   30.08
   0  -4   1 1503.42   40.80
   0  -4  -1 1416.85   36.17
   0  -4  -1 1454.75   38.69
   0  -4   1 1387.45   36.01
   0  -4   2 1647.67   43.19
   0  -4  -2 1645.05   41.49
   0  -4   2 1690.66   39.60
   0   4   2 1696.93   32.19
   0  -4   3  105.37    9.99
   0   4   3  101.92    8.27
   0   4   3  111.47   10.62
   0   4   4  211.26   12.30
   0  -4  -4  191.98   14.72
   0  -4   4  189.96   15.40
   0   4   4  216.83   15.07
   0  -4   4  216.55   14.50
   0  -4   5  204.75   14.52
   0   4   5  206.50   15.28
   0  -4   5  249.90   18.21
   0   4   5  240.71   13.59
   0  -4  -5  256.46   17.44
   0   4   6  732.28   29.87
   0  -4   6  755.95   28.90
   0   4   6  761.26   25.96
   0  -4   6  745.49   31.08
   0   4   7  312.30   20.07
   0  -4  -7  305.29   20.50
   0   4   7  285.95   17.00
   0  -4   7  324.35   20.99
   0  -4   7  319.43   19.27
   0  -4   8  216.17   17.70
   0   4   8  244.64   18.68
   0  -4  -8  253.41   19.37
   0  -4   8  249.55   17.84
   0   4   8  224.70   15.60
   0  -4  -9   13.45    5.80
   0   4   9   14.82    4.39
   0  -4   9   18.04    5.75
   0   4   9    7.45    3.79
   0  -4   9   13.83    5.35
   0  -4   9    8.17    2.55
   0  -4 -10    2.48    1.22
   0   4  10   -1.80    1.67
   0   4  10    2.12    3.22
   0  -4  10   -1.58    3.35
   0  -4  10   -1.03    1.27
   0  -4  10    3.30    3.40
   0   4  11   84.55   10.93
   0  -4  11   96.00   12.52
   0   4  11  108.12   13.83
   0  -4  11   84.88   11.50
   0  -4  11   97.22   12.94
   0  -4  12   10.25    4.85
   0   4  12    6.06    3.67
   0  -4  12    4.72    2.04
   0  -4  12    3.71    3.80
   0   4  12   -1.00    3.40
   0  -4  13    0.24    2.80
   0  -4  13    4.25    3.59
   0   4  13    4.07    2.11
   0  -4  13    9.92    5.13
   0   4  13    5.52    3.98
   0   4  14  175.05   18.07
   0  -4  14  168.81   18.45
   0  -4  14  187.44   19.55
   0  -4  14  185.49   18.94
   0   4  14  180.61   19.23
   0   4  15   87.78   13.58
   0  -4  15   77.80   13.37
   0  -4  15   66.84   12.28
   0   4  15   93.25   13.39
   0   4  16  147.91   17.57
   0  -4  16  141.01   17.65
   0   4  16  152.30   17.81
   0  -4  16  146.84   18.39
   0   4  17  501.30   33.05
   0  -4  17  600.20   36.76
   0   4  17  509.32   34.22
   0  -4  17  473.29   34.09
   0  -4  18 1399.97   58.30
   0  -4  18 1256.62   55.60
   0   4  18 1254.62   55.69
   0   4  18 1339.66   55.50
   0   4  19  357.77   29.40
   0  -4  19  374.33   30.39
   0   4  19  381.12   31.10
   0  -4  19  327.29   28.98
   0  -4  20   -0.33    2.82
   0   4  20   -0.95    1.86
   0   4  20    3.83    3.89
   0  -4  20    7.92    5.53
   0   4  21   47.25   11.59
   0  -4  21   53.92   12.06
   0  -4  21   47.65   12.88
   0   4  21   37.55   10.69
   0   4  22   -3.70    7.07
   0   4  22   -0.51    4.10
   0  -4  22    1.11    1.59
   0   4  23   85.70   15.56
   0   4  23   89.93   16.39
   0  -4  23   82.19   15.21
   0  -4  23   53.87   12.62
   0   4  24  243.27   27.12
   0  -4  24  209.02   25.53
   0   4  24  227.76   26.23
   0  -4  24  233.15   26.94
   0   4  25   95.60   17.19
   0  -4  25   96.38   17.11
   0   4  25  139.69   20.70
   0  -4  25   76.67   15.24
   0  -4  26    4.76    2.60
   0  -4  26    6.70    7.15
   0   4  26    4.29    5.47
   0   4  26    8.56    3.83
   0   4  27    1.75    2.44
   0   4  27   -4.84    3.81
   0  -4  27   10.43    7.51
   0  -4  27    3.26    5.89
   0   4  28   34.33   10.11
   0   4  28   35.95    8.44
   0  -4  28   34.84   11.45
   0  -4  28   34.77   12.11
   0  -4  29   33.13   10.99
   0  -4  29   19.93    8.82
   0   4  29   47.18   14.23
   0   4  29   16.59   10.31
   0   4  30    7.54    7.19
   0  -4  30    0.11    2.13
   0  -4  30   12.66    9.22
   0   4  30    3.61    4.58
   0   4  31    9.43    9.56
   0  -4  31   -3.40    6.88
   0  -4  31    2.99    4.96
   0   4  31   -3.13    5.71
   0  -5   0    4.43    3.69
   0  -5   0    1.65    2.89
   0  -5   1    2.73    3.15
   0  -5  -1    1.32    2.21
   0  -5   1   -1.71    2.08
   0  -5  -1   -1.28    2.08
   0  -5   2   -0.31    0.81
   0  -5  -2   -1.00    2.57
   0   5   2    1.08    1.83
   0  -5  -2   -0.23    1.16
   0  -5   2   -1.78    1.33
   0   5   3   -0.78    0.59
   0  -5   3   -0.06    2.53
   0  -5  -3    0.88    2.49
   0  -5   3   -1.22    1.69
   0   5   4   -1.80    1.90
   0  -5   4    1.41    1.95
   0  -5   4    0.75    1.60
   0  -5  -4   -1.46    2.18
   0   5   4   -0.48    1.45
   0   5   5    0.59    1.43
   0  -5  -5    0.98    1.51
   0  -5   5   -1.42    3.32
   0  -5   5   -1.08    1.03
   0   5   5   -0.34    2.13
   0  -5   6    1.12    3.09
   0  -5   6   -0.77    1.36
   0   5   6    0.88    2.41
   0   5   6   -0.97    0.78
   0  -5  -6   -0.01    2.58
   0  -5   7    0.63    2.83
   0  -5  -7   -3.34    2.98
   0   5   7    2.56    3.39
   0  -5   7    2.01    2.94
   0   5   7    3.06    2.58
   0   5   8    0.64    0.99
   0  -5   8   -1.73    3.60
   0  -5  -8    2.81    3.11
   0  -5   8    1.51    3.34
   0   5   8    1.24    2.18
   0  -5  -9    0.17    2.15
   0  -5   9    0.27    1.74
   0   5   9    0.48    3.20
   0  -5   9    2.43    2.33
   0   5   9   -1.59    1.93
   0   5  10    1.31    4.55
   0  -5  10   -0.75    1.07
   0   5  10   -0.85    2.18
   0  -5 -10   -0.94    3.23
   0  -5  10   -0.98    2.30
   0  -5  10   -0.11    1.98
   0  -5  11    1.24    3.69
   0  -5  11    0.21    1.67
   0   5  11   -0.29    2.79
   0   5  11   -0.17    2.00
   0  -5 -11    1.30    1.22
   0  -5  11    0.62    3.31
   0  -5 -12    3.03    3.91
   0  -5  12    2.26    3.82
   0  -5  12    1.57    3.33
   0   5  12    2.55    4.21
   0   5  12    0.71    2.64
   0  -5  12   -0.24    1.15
   0  -5  13    1.95    3.99
   0  -5  13   -1.78    3.80
   0  -5 -13   -0.03    3.36
   0   5  13   -3.66    5.75
   0  -5  13   -2.67    4.15
   0   5  13   -1.11    1.77
   0  -5  14   -1.17    2.22
   0   5  14    2.13    4.33
   0  -5  14   -0.23    3.36
   0  -5 -14    1.30    5.39
   0  -5  14    2.07    3.97
   0   5  14    2.00    3.81
   0  -5  15    1.68    1.48
   0   5  15   -0.57    2.29
   0  -5  15    0.37    4.76
   0   5  15   -3.24    4.31
   0  -5  15   -0.45    4.47
   0  -5 -15    1.95    4.07
   0  -5  16   -1.49    2.47
   0  -5  16   -1.78    1.05
   0   5  16    1.46    4.00
   0   5  16    6.12    5.26
   0  -5  16    1.54    2.25
   0  -5  17    0.34    1.71
   0  -5  17    4.31    5.94
   0   5  17   -1.09    3.69
   0   5  17    1.45    4.60
   0   5  18   -2.46    3.15
   0  -5  18    1.26    3.42
   0   5  18    0.09    2.38
   0  -5  18   -0.46    2.91
   0  -5  19   -2.33    2.89
   0   5  19    1.63    3.17
   0  -5  19    0.64    2.02
   0   5  19   -2.52    4.74
   0  -5  20    3.35    4.03
   0   5  20   -0.88    3.44
   0   5  20    1.58    5.17
   0  -5  20    1.92    3.39
   0  -5  21   -2.45    3.03
   0  -5  21   -1.25    5.36
   0   5  21   -1.84    2.13
   0   5  21    1.54    2.53
   0  -5  22    4.18    4.76
   0   5  22   -2.72    1.88
   0   5  22   -0.52    3.75
   0  -5  22    1.32    4.39
   0  -5  23    2.98    4.79
   0   5  23   -4.15    4.55
   0  -5  23    0.42    1.86
   0   5  23    1.62    4.56
   0  -5  24    3.03    3.62
   0   5  24   -3.97    3.90
   0  -5  24   -1.57    4.15
   0   5  24   -5.10    5.45
   0   5  25   -4.15    2.09
   0  -5  25    6.90    6.14
   0  -5  25   -3.73    4.45
   0   5  25   -0.69    3.38
   0   5  26    2.25    3.36
   0   5  26    3.39    4.94
   0  -5  26    4.11    3.22
   0  -5  26    1.30    1.82
   0   5  27   -0.26    4.71
   0  -5  27    4.50    5.86
   0   5  27   -0.39    4.38
   0  -5  27   -0.52    4.96
   0   5  28   -7.29    7.62
   0  -5  28   -2.10    4.62
   0  -5  28   -3.59    4.44
   0   5  28   -0.83    3.41
   0   5  29    0.74    1.47
   0  -5  29   -1.76    2.06
   0  -5  29   -2.91    3.97
   0  -5  30   -3.32    6.27
   0  -5  30    3.29    3.66
   0   5  30   -0.90    3.57
   0   5  30    4.54    4.62
   0  -5  31   13.05    8.11
   0   5  31    1.66    6.20
   0  -5  31    4.60    5.69
   0   5  31    7.85    7.03
   0  -6   0   15.43    4.33
   0  -6   0   19.82    6.42
   0  -6  -1 3729.16   71.36
   0  -6  -1 3719.83   75.93
   0  -6   1 3621.48   70.82
   0  -6  -2 1277.68   44.45
   0  -6  -2 1191.31   40.76
   0  -6   2 1276.87   41.56
   0   6   2 1244.49   35.08
   0  -6   2 1233.90   45.25
   0   6   3  193.62   13.61
   0  -6  -3  246.19   19.39
   0  -6   3  236.66   19.96
   0  -6   3  234.39   18.08
   0  -6  -4  552.62   29.73
   0  -6   4  578.96   31.62
   0   6   4  562.02   23.44
   0  -6   4  549.46   27.33
   0  -6   5   29.43    6.37
   0  -6   5   25.49    6.41
   0   6   5   19.76    5.31
   0   6   5   29.37    5.61
   0  -6  -5   19.06    5.74
   0   6   6    2.36    4.26
   0   6   6    6.37    2.52
   0  -6   6   13.31    4.74
   0  -6  -6    8.16    4.30
   0  -6   6    3.05    2.82
   0   6   7  273.85   17.78
   0  -6  -7  279.56   21.94
   0   6   7  299.64   22.09
   0  -6   7  302.85   21.42
   0  -6   7  295.90   23.00
   0   6   8   43.90    7.27
   0  -6   8   52.94    9.07
   0  -6   8   65.73   11.27
   0  -6  -8   68.42   10.42
   0   6   8   60.37    9.73
   0   6   9   56.37    8.57
   0  -6   9   55.81    9.94
   0   6   9   47.98    9.21
   0  -6  -9   52.02   10.02
   0  -6   9   42.28    9.06
   0   6  10   58.77    9.61
   0  -6 -10   61.93   10.83
   0  -6  10   74.51   11.47
   0  -6  10   59.03   10.89
   0   6  10   75.86   12.27
   0  -6  10   52.57    8.96
   0   6  11    1.08    2.86
   0  -6  11   -1.25    1.68
   0  -6  11   -0.79    3.26
   0  -6  11   -0.87    1.93
   0  -6 -11    1.20    2.24
   0   6  11    0.09    3.14
   0  -6  12 3194.75   81.98
   0   6  12 2965.64   78.33
   0   6  12 2829.59   69.83
   0  -6  12 3022.83   76.04
   0  -6  12 3008.62   77.57
   0  -6 -12 3120.17   81.24
   0   6  13    2.40    1.50
   0   6  13    0.04    2.59
   0  -6  13    8.14    6.11
   0  -6  13    0.08    4.48
   0  -6 -13   -4.55    3.54
   0  -6  13    5.39    5.76
   0  -6  14  275.80   24.40
   0  -6  14  283.52   25.69
   0  -6  14  344.87   27.47
   0   6  14  299.20   25.38
   0   6  14  240.56   21.88
   0  -6 -14  310.59   27.22
   0  -6  15  483.39   33.72
   0   6  15  562.03   35.97
   0   6  15  515.39   33.32
   0  -6 -15  564.23   36.37
   0  -6  15  452.23   32.69
   0  -6  15  531.66   34.66
   0   6  16   76.88   14.27
   0  -6  16   47.98   10.72
   0  -6  16   64.72   12.34
   0   6  16   51.14   11.47
   0  -6 -16   70.23   12.77
   0  -6  16   66.41   12.09
   0   6  17   62.95   13.80
   0  -6  17  101.49   15.77
   0   6  17   63.77   12.82
   0  -6 -17   66.58   13.00
   0  -6  17   49.86    9.80
   0  -6  17   79.43   14.56
   0  -6 -18  431.77   33.98
   0   6  18  382.28   31.10
   0  -6  18  435.69   33.84
   0  -6  18  462.51   35.08
   0  -6  18  441.28   34.21
   0  -6  19  285.45   28.35
   0  -6  19  313.73   30.13
   0   6  19  232.67   24.95
   0   6  19  282.17   26.69
   0  -6 -20   82.03   15.61
   0   6  20   49.06   10.81
   0  -6  20   51.12   11.81
   0  -6  20   73.87   15.06
   0   6  20   74.21   14.79
   0   6  21  324.68   30.68
   0  -6  21  335.46   31.66
   0  -6 -21  340.83   32.90
   0   6  21  348.13   31.34
   0  -6  21  346.41   32.59
   0   6  22  207.42   24.48
   0  -6 -22  221.39   27.36
   0  -6  22  252.20   27.93
   0  -6  22  187.05   24.31
   0   6  22  247.01   26.82
   0  -6  23    8.80    4.55
   0  -6 -23   15.89    7.81
   0   6  23   -2.36    5.50
   0  -6  23   13.90    6.33
   0   6  23    4.56    7.09
   0  -6 -24   47.03   13.09
   0  -6  24   53.79   12.96
   0   6  24   46.28   12.83
   0   6  24   60.35   14.41
   0  -6  24   41.33   12.47
   0   6  25  111.28   19.29
   0  -6 -25   87.84   17.57
   0  -6  25  132.50   21.05
   0   6  25  103.71   17.82
   0  -6  25  121.53   20.05
   0  -6 -26  166.34   23.73
   0  -6  26  110.99   20.28
   0   6  26  132.22   20.77
   0  -6  26  119.45   19.91
   0   6  26  126.15   22.06
   0  -6  27    8.34    6.95
   0  -6  27    2.10    5.40
   0   6  27    4.68    6.67
   0   6  27    0.86    4.08
   0  -6 -27    9.86    9.27
   0  -6  28   63.60   15.64
   0   6  28   79.06   16.71
   0  -6  28   89.00   18.04
   0   6  28   67.45   16.49
   0  -6 -28   86.83   16.93
   0   6  29    9.81    6.69
   0  -6 -29    9.49    5.19
   0   6  29    9.35    6.58
   0  -6  29    8.52    7.36
   0  -6  29    1.23    3.86
   0   6  30   -2.77    2.23
   0  -6  30    6.54    8.14
   0   6  30    9.98    7.33
   0  -6 -30   -3.19    3.13
   0  -6  30   -0.62    2.46
   0  -7   0   -1.45    1.27
   0  -7   0    7.13    5.18
   0  -7  -1   -0.28    1.23
   0  -7  -1    0.96    2.22
   0  -7   1   -1.41    1.06
   0  -7   1    0.53    3.32
   0  -7   2    0.94    2.84
   0  -7   2    2.19    4.05
   0  -7  -2    1.07    2.66
   0  -7  -2   -0.90    2.94
   0   7   3    0.16    0.99
   0  -7  -3    3.58    3.79
   0  -7   3    2.67    3.04
   0  -7  -3   -0.41    1.88
   0  -7   3    4.00    3.12
   0  -7   4   -0.32    2.17
   0  -7  -4   -2.36    2.12
   0  -7   4    3.37    2.28
   0   7   4    0.12    2.22
   0   7   5    1.12    1.49
   0  -7   5   -1.02    1.91
   0  -7  -5    2.09    4.58
   0  -7   5   -2.10    1.68
   0  -7   6    1.49    5.09
   0   7   6    0.82    1.66
   0  -7  -6   -1.68    2.62
   0  -7   6   -3.16    4.04
   0   7   6   -1.09    3.53
   0   7   7   -1.40    2.89
   0   7   7   -0.27    0.96
   0  -7   7   -3.18    1.07
   0  -7   7    3.06    3.27
   0  -7  -7   -0.64    1.65
   0  -7   8   -2.96    3.40
   0   7   8   -0.91    1.65
   0  -7   8    0.25    2.08
   0  -7  -8    2.00    5.55
   0   7   8   -1.89    3.87
   0  -7   9    0.44    1.57
   0  -7  -9   -0.11    2.28
   0   7   9   -3.03    3.61
   0  -7   9   -1.83    2.46
   0   7   9    1.22    1.92
   0  -7  10    0.68    1.88
   0  -7 -10    0.60    1.69
   0   7  10    0.71    1.70
   0  -7  10    0.61    3.08
   0   7  10    5.23    5.53
   0   7  11    1.64    3.72
   0  -7  11    8.49    6.15
   0   7  11    2.88    2.10
   0  -7  11   -0.10    2.00
   0  -7  11    1.57    3.16
   0  -7 -11   -0.62    3.87
   0   7  12    2.09    2.90
   0   7  12   -2.42    4.34
   0  -7  12    2.44    4.89
   0  -7  12   -3.08    3.55
   0  -7 -12    1.17    4.25
   0  -7  12   -2.03    1.46
   0  -7  13   -1.53    2.68
   0  -7 -13   -1.76    4.03
   0   7  13    2.48    2.91
   0  -7  13    4.57    3.95
   0  -7  13    3.27    2.77
   0   7  13    0.40    2.67
   0  -7  14   -1.95    3.44
   0  -7  14    3.35    2.90
   0  -7 -14    1.79    2.58
   0   7  14    0.80    4.23
   0  -7  14    1.53    1.76
   0   7  14    1.03    2.17
   0  -7  15    3.62    6.25
   0   7  15    1.81    2.81
   0  -7  15    0.04    2.52
   0   7  15   -2.46    1.40
   0  -7 -15    0.83    2.30
   0  -7  15    2.62    3.59
   0  -7 -16   -1.48    4.21
   0   7  16    0.07    2.65
   0  -7  16    3.20    4.14
   0   7  16    1.19    5.60
   0  -7  16    0.57    3.65
   0  -7  16    1.67    2.28
   0  -7  17    4.91    5.39
   0   7  17   -4.73    5.58
   0  -7 -17    2.82    3.20
   0  -7  17    1.02    2.19
   0  -7  17    2.32    3.43
   0   7  17    0.11    1.58
   0  -7  18    4.15    5.94
   0  -7 -18    1.51    3.16
   0   7  18   -0.54    5.27
   0   7  18    1.34    4.76
   0  -7  18   -1.23    3.50
   0  -7  18    1.02    2.44
   0  -7  19    1.48    2.94
   0   7  19   -2.33    4.04
   0   7  19   -4.00    4.89
   0  -7 -19    2.99    5.75
   0  -7  19   -2.75    5.83
   0  -7  19    2.64    7.50
   0  -7  20   -5.99    5.59
   0   7  20   -0.07    4.28
   0  -7 -20   -1.73    5.69
   0  -7  20   -2.44    2.65
   0  -7  20   -1.38    2.97
   0   7  20    0.64    5.26
   0   7  21    0.90    4.63
   0   7  21    7.50    3.16
   0  -7  21   -1.69    2.86
   0  -7 -21    3.93    2.06
   0  -7  21    5.58    4.55
   0  -7  22   -4.75    6.31
   0  -7 -22    5.45    7.85
   0  -7  22   -1.47    3.60
   0   7  22   -3.00    5.13
   0   7  22   -6.21    8.10
   0  -7  23   -5.33    5.62
   0  -7 -23    1.83    3.00
   0  -7  23   -4.04    4.43
   0   7  23   -1.96    3.70
   0   7  23   -3.12    4.47
   0   7  24   -5.98    5.70
   0   7  24    0.28    2.34
   0  -7  24   -0.75    1.69
   0  -7 -24    1.02    2.58
   0  -7  24    1.06    4.84
   0  -7  25   -0.78    3.49
   0  -7 -25    0.64    2.57
   0  -7  25   -4.33    5.32
   0   7  25   -1.80    5.41
   0   7  25    2.16    5.79
   0  -7  26    5.13    6.82
   0  -7  26    1.46    4.06
   0  -7 -26    1.04    4.69
   0   7  26    3.84    8.59
   0   7  26   -2.70    4.56
   0   7  27   -0.45    5.03
   0  -7  27    6.17    6.29
   0  -7 -27    3.22    3.50
   0  -7  27    1.03    3.82
   0   7  27   -6.77    8.53
   0  -7 -28   -4.10    5.97
   0   7  28    1.59    3.94
   0  -7  28    8.11    7.23
   0   7  28   -7.76    8.00
   0  -7  28   -4.39    6.76
   0   7  29   -1.75    5.80
   0  -7 -29    2.87    6.98
   0   7  29   -0.36    2.73
   0  -7  29   -7.69    8.29
   0  -7  29    9.97    6.86
   0  -8   0  434.95   28.57
   0  -8   0  399.44   29.07
   0  -8   1   19.18    6.59
   0  -8   1   29.25    7.78
   0  -8  -1   11.44    5.21
   0  -8  -1   21.84    6.51
   0  -8  -2   30.78    6.99
   0  -8  -2   37.43    9.40
   0  -8   2   37.29    8.27
   0  -8   2   20.88    7.41
   0  -8  -3   13.04    5.48
   0  -8   3   10.10    4.61
   0  -8  -3   15.55    7.38
   0  -8   3   20.54    6.89
   0  -8  -4  191.07   18.69
   0  -8  -4  174.94   19.05
   0  -8   4  171.47   17.75
   0   8   4  171.45   15.83
   0  -8   4  156.39   17.99
   0  -8   5   60.50   12.57
   0   8   5   62.64    9.49
   0  -8   5   67.55   11.37
   0  -8  -5   59.93   10.85
   0  -8  -5   90.70   13.82
   0   8   6  200.95   16.98
   0  -8   6  205.22   22.21
   0  -8  -6  228.12   22.26
   0  -8   6  198.12   19.49
   0   8   7 1086.62   39.85
   0  -8   7 1053.33   45.43
   0  -8  -7 1078.59   49.34
   0  -8   7 1038.15   49.70
   0  -8  -8  434.91   30.15
   0   8   8  397.89   29.46
   0   8   8  436.32   26.82
   0  -8   8  393.15   30.41
   0  -8   8  417.30   28.64
   0  -8   9  188.75   20.88
   0  -8   9  177.82   18.72
   0  -8  -9  205.95   22.48
   0   8   9  213.34   21.60
   0   8   9  235.19   19.64
   0  -8  10  146.22   18.00
   0  -8 -10  122.92   17.18
   0   8  10  165.23   18.95
   0  -8  10  123.03   17.37
   0   8  10  142.84   15.50
   0  -8 -11 1366.53   57.46
   0  -8  11 1403.39   59.04
   0   8  11 1226.40   53.53
   0  -8  11 1300.01   52.88
   0   8  11 1327.66   49.81
   0  -8  11 1324.70   53.20
   0  -8 -12   35.58    9.05
   0   8  12   49.15   10.85
   0  -8  12   60.24   12.42
   0  -8  12   34.76    8.54
   0   8  12   44.00    8.95
   0  -8  12   46.02    9.86
   0  -8  13  171.77   20.34
   0  -8 -13  166.27   20.39
   0   8  13  152.44   17.78
   0  -8  13  168.39   20.39
   0   8  13  147.68   19.39
   0  -8  13  155.49   18.82
   0   8  14  181.77   20.77
   0  -8  14  159.36   19.66
   0  -8 -14  159.32   20.09
   0   8  14  150.50   18.34
   0  -8  14  147.16   18.60
   0  -8  14  156.55   20.26
   0  -8  15  651.53   41.66
   0  -8 -15  673.67   42.31
   0  -8  15  700.59   41.96
   0   8  15  737.28   41.17
   0   8  15  680.61   41.95
   0  -8  15  668.52   42.16
   0  -8  16    9.51    5.58
   0   8  16   -0.56    2.63
   0  -8 -16    6.74    4.54
   0  -8  16    0.10    2.24
   0   8  16    8.01    4.28
   0  -8  16    1.61    2.56
   0  -8 -17  511.43   38.16
   0  -8  17  645.27   42.81
   0  -8  17  565.93   40.64
   0   8  17  561.00   38.97
   0   8  17  556.69   37.30
   0  -8  17  593.18   40.49
   0  -8  18   60.81   13.41
   0  -8  18   62.50   13.05
   0  -8  18   78.39   15.84
   0   8  18   51.83   11.63
   0   8  18   83.78   15.23
   0  -8 -18   41.98    9.77
   0   8  19  187.22   23.29
   0  -8  19  171.05   22.62
   0  -8  19  168.71   22.79
   0   8  19  131.48   20.48
   0  -8 -19  171.63   22.80
   0   8  20    1.13    2.32
   0   8  20    5.36    5.81
   0  -8  20    4.84    8.08
   0  -8 -20    3.22    4.91
   0  -8  20    8.35    7.58
   0  -8  20    6.66    7.14
   0  -8 -21  187.85   24.42
   0  -8  21  145.56   21.46
   0  -8  21  129.83   20.51
   0   8  21  174.38   23.71
   0   8  21  123.08   19.76
   0  -8  21  145.54   21.28
   0  -8 -22    4.27    2.22
   0  -8  22    8.85    7.64
   0  -8  22    4.93    3.77
   0   8  22    8.55    4.89
   0   8  22    7.72    7.34
   0  -8  23   88.26   17.11
   0  -8 -23  116.21   19.89
   0   8  23  121.19   19.57
   0   8  23   78.12   15.12
   0  -8  23  103.33   19.04
   0  -8 -24   15.34    5.66
   0  -8  24    9.01    7.75
   0  -8  24   21.91    7.91
   0   8  24   17.32    7.21
   0   8  24   14.95    7.07
   0   8  25  223.11   28.10
   0  -8  25  150.97   23.30
   0  -8  25  147.47   23.39
   0   8  25  193.92   25.93
   0  -8  26    6.81    2.10
   0  -8 -26    1.23    3.23
   0  -8  26    6.86    4.35
   0   8  26   -1.07    4.79
   0   8  26    5.43    4.98
   0  -8 -27   32.79   10.54
   0  -8  27   58.31   14.38
   0  -8  27   40.83   12.79
   0   8  27   19.76    8.68
   0   8  27   28.32   10.66
   0   8  28   -2.74    4.36
   0  -8  28   18.64    9.20
   0  -8 -28   -1.28    4.64
   0  -8  28   17.08    9.06
   0   8  28    5.57    2.05
   0  -9   0   -2.53    3.82
   0  -9   0    2.82    4.02
   0  -9  -1    6.50    4.46
   0  -9   1   -0.85    3.27
   0  -9  -1   12.29    8.37
   0  -9   1    3.41    3.13
   0  -9   2    0.19    2.46
   0  -9  -2   -3.83    1.60
   0  -9   2    2.78    4.32
   0  -9  -2    2.44    4.80
   0  -9   3   -3.13    4.24
   0  -9  -3    1.05    3.56
   0  -9   3   -4.44    5.10
   0  -9  -3    0.96    3.82
   0  -9   4   -5.10    5.30
   0  -9  -4    3.19    5.72
   0  -9   4    3.56    4.70
   0  -9  -4   -3.72    4.32
   0  -9   5   -0.49    3.88
   0  -9  -5    1.44    3.01
   0  -9   5   -1.06    3.96
   0  -9  -5   -1.96    4.61
   0   9   5   -2.57    1.11
   0  -9   6   -1.76    3.04
   0  -9  -6    2.11    1.12
   0  -9   6    0.92    2.67
   0  -9  -6   -1.90    1.37
   0   9   6    1.14    2.03
   0  -9  -7    2.86    3.78
   0   9   7    0.64    1.15
   0  -9   7    1.61    4.17
   0  -9   7    0.26    2.38
   0   9   8    0.68    2.21
   0  -9   8    1.48    4.01
   0  -9   8    2.82    4.43
   0  -9  -8    1.73    5.02
   0  -9  -9    3.37    5.35
   0  -9   9    0.27    3.01
   0   9   9   -3.74    4.73
   0  -9   9    2.08    3.35
   0   9  10    0.61    3.61
   0  -9 -10   -3.30    4.92
   0  -9  10   -1.28    3.70
   0  -9  10    4.80    6.51
   0   9  10   -0.09    2.55
   0   9  11    3.09    1.04
   0   9  11   -3.72    5.95
   0  -9  11    0.82    4.10
   0  -9  11   -1.56    3.67
   0  -9 -11   -0.98    2.72
   0  -9  11   -1.92    5.64
   0  -9  12   -4.07    6.01
   0  -9 -12   -2.78    4.34
   0  -9  12    0.28    4.01
   0   9  12    2.51    3.99
   0   9  12   -2.80    1.67
   0  -9  12    1.05    3.72
   0  -9 -13   -3.15    5.81
   0  -9  13   -3.03    2.92
   0  -9  13   -0.30    1.89
   0   9  13    3.41    7.61
   0   9  13   -2.54    3.83
   0  -9  13    2.45    4.23
   0  -9  14   -2.09    3.30
   0  -9  14    1.26    5.27
   0   9  14   -0.10    2.28
   0   9  14    1.28    3.40
   0  -9 -14    3.86    5.48
   0  -9  14    5.59    4.66
   0   9  15   -0.22    2.41
   0  -9  15    0.15    2.66
   0  -9  15   -2.28    3.92
   0  -9  15    4.89    4.53
   0   9  15    0.34    4.01
   0  -9 -15    6.83    6.48
   0  -9  16   -0.31    2.61
   0  -9  16    1.09    4.12
   0  -9  16    2.81    2.64
   0   9  16    1.74    4.50
   0  -9 -16    1.78    4.25
   0   9  16    3.77    2.80
   0   9  17   -3.23    2.97
   0  -9  17    0.52    2.19
   0  -9 -17    5.06    5.47
   0   9  17   -1.56    3.28
   0  -9  17   -0.94    2.24
   0  -9 -18    0.47    1.83
   0  -9  18    0.05    4.58
   0  -9  18   -5.34    4.85
   0   9  18   -5.41    4.37
   0   9  18    8.50    6.33
   0  -9  18   -5.05    5.30
   0   9  19    1.58    5.18
   0   9  19    0.31    4.23
   0  -9  19   10.36    6.72
   0  -9  19    5.09    5.30
   0  -9 -19   -0.02    2.67
   0  -9  19    0.64    2.36
   0  -9  20   -2.53    3.26
   0  -9 -20    0.44    5.14
   0  -9  20   13.84    9.94
   0   9  20   -4.99    5.50
   0  -9  20   -0.86    4.05
   0   9  20    0.10    4.40
   0  -9  21    3.80    4.64
   0  -9 -21    5.57    4.06
   0   9  21    6.56    6.29
   0   9  21   -2.67    2.19
   0  -9  21    1.35    4.58
   0  -9  21    3.09    2.18
   0   9  22    3.02    2.88
   0  -9  22    7.61    7.07
   0  -9  22   -4.02    3.11
   0  -9  22    3.18    5.33
   0   9  22    2.78    1.89
   0  -9 -22    0.70    4.98
   0  -9  23   -2.06    2.54
   0   9  23    4.55    5.27
   0  -9  23    0.97    3.89
   0  -9 -23   -3.27    2.60
   0  -9  24    3.26    7.12
   0  -9  24   -8.35    6.72
   0   9  24   -0.47    2.43
   0  -9 -24    4.26    4.31
   0  -9 -25   -1.67    4.33
   0   9  25   -1.73    1.95
   0  -9  25   -3.48    8.40
   0  -9  25    8.19    8.15
   0   9  26    1.44    5.83
   0  -9 -26   -1.71    6.51
   0  -9  26   -3.15    4.18
   0  -9  26   -5.27    6.55
   0   9  27    7.19    5.20
   0  -9  27   -2.60    5.08
   0  -9 -27   -3.14    4.79
   0  -9  27   -5.47    8.36
   0 -10   0   27.29    7.68
   0 -10   0   39.13    9.59
   0 -10  -1    5.12    6.07
   0 -10  -1   13.77    6.46
   0 -10   1    3.72    2.87
   0 -10   1   14.57    4.15
   0 -10   2   11.55    5.18
   0 -10  -2   15.72    7.48
   0 -10  -2    7.11    5.11
   0 -10   2   10.52    5.54
   0 -10   3    4.31    4.95
   0 -10  -3    1.75    4.09
   0 -10  -3    0.79    1.61
   0 -10   3    0.27    3.57
   0 -10  -4  201.09   22.70
   0 -10   4  224.88   25.29
   0 -10   4  244.14   23.10
   0 -10  -4  208.06   21.78
   0 -10   5  246.10   23.49
   0 -10  -5  258.20   25.93
   0 -10  -5  231.89   23.50
   0 -10   5  227.96   25.12
   0 -10  -6  237.16   24.34
   0  10   6  209.91   19.52
   0 -10   6  208.44   24.62
   0 -10   6  241.21   23.85
   0 -10  -6  220.56   24.08
   0 -10  -7   78.42   14.84
   0 -10  -7   87.93   14.66
   0 -10   7   96.06   14.95
   0  10   7   75.67   11.97
   0 -10   7   73.98   14.78
   0 -10  -8  669.81   41.33
   0  10   8  588.37   33.92
   0 -10  -8  675.91   40.52
   0 -10   8  662.69   39.85
   0 -10   8  726.67   45.77
   0  10   9   44.32    9.95
   0 -10   9   39.34   10.42
   0 -10  -9   53.74   13.16
   0 -10   9   64.97   12.42
   0 -10 -10    0.46    4.24
   0 -10  10   11.43    7.45
   0 -10  10    4.72    5.59
   0 -10  11  261.95   25.78
   0 -10  11  292.18   29.32
   0 -10  11  309.31   28.24
   0 -10 -11  305.24   29.45
   0  10  12   69.87   13.49
   0 -10 -12   53.74   12.50
   0 -10  12   87.96   15.71
   0 -10  12   80.76   16.26
   0 -10  12   67.23   13.27
   0 -10  13   74.13   15.34
   0 -10 -13   51.26   11.10
   0  10  13   34.93    9.83
   0 -10  13   39.99    9.00
   0 -10  13   47.53   11.05
   0 -10 -14  251.70   27.19
   0 -10  14  268.48   28.32
   0 -10  14  245.75   26.74
   0 -10  14  203.35   23.48
   0  10  14  249.34   26.25
   0 -10  15    8.00    7.57
   0 -10  15    4.74    6.56
   0 -10 -15   11.60    6.41
   0  10  15    3.57    3.31
   0 -10  15   11.79    2.65
   0  10  16    0.46    1.85
   0 -10  16   -1.49    3.94
   0 -10 -16   -4.44    5.36
   0 -10  16   -2.25    3.54
   0 -10  16    0.57    3.97
   0 -10  17    3.31    5.78
   0 -10 -17    4.21    5.65
   0  10  17    8.85    6.28
   0 -10  17   12.08    7.57
   0 -10  17    1.06    2.73
   0 -10  18  133.28   21.40
   0 -10  18  126.64   19.74
   0 -10 -18  121.87   19.95
   0 -10  18  189.30   24.86
   0  10  18  105.32   17.24
   0  10  19    6.40    5.36
   0 -10  19    3.20    5.92
   0 -10  19   16.74    7.08
   0 -10 -19    8.61    5.68
   0 -10  19    7.77    4.18
   0 -10 -20    5.65    4.51
   0 -10  20    6.97    6.21
   0  10  20   16.97    8.00
   0 -10  20    0.69    2.70
   0 -10  20    4.86    5.37
   0 -10  21   24.26    9.30
   0 -10 -21   44.76   12.25
   0 -10  21   41.29   12.60
   0 -10  21   42.25   13.01
   0  10  21   36.76   10.26
   0 -10  22  251.21   28.94
   0 -10 -22  267.91   30.61
   0 -10  22  261.47   30.69
   0 -10  22  215.16   28.12
   0 -10 -23   -5.08    2.82
   0  10  23   -1.26    1.63
   0 -10  23   -4.01    6.75
   0 -10  23    5.20    8.65
   0 -10  23   14.30   11.74
   0  10  24   13.82    7.82
   0 -10  24    7.77    6.80
   0 -10  24    1.59    3.87
   0 -10 -24   15.46    7.22
   0 -10  25   70.67   16.53
   0 -10  25   42.87   12.63
   0  10  25   48.59   14.34
   0 -10 -25   66.92   15.27
   0 -10  26   71.19   17.88
   0 -10 -26   44.56   12.88
   0  10  26   26.15   10.70
   0 -10  26   64.04   15.85
   0 -11   0    2.49    2.27
   0 -11   0   -4.02    3.83
   0 -11   1   -1.10    2.81
   0 -11   1   -7.05    5.26
   0 -11  -1    2.92    4.59
   0 -11  -1   -1.27    3.96
   0 -11   2    2.51    4.53
   0 -11  -2    2.10    4.03
   0 -11  -2    0.90    5.93
   0 -11   2    0.22    4.41
   0 -11  -3    2.67    3.22
   0 -11   3    4.51    3.78
   0 -11  -3    8.91    8.36
   0 -11   3   -3.39    6.08
   0 -11   4    4.81    5.81
   0 -11  -4    5.91    7.64
   0 -11  -4    0.54    3.05
   0 -11   4   -0.13    1.77
   0 -11  -5   -0.02    3.73
   0 -11   5    1.47    4.23
   0 -11   5   -0.35    3.74
   0 -11  -5    3.91    5.75
   0 -11  -6   -0.38    3.93
   0 -11  -6    5.83    4.13
   0 -11   6   -0.02    2.93
   0 -11   6   -1.41    2.92
   0 -11  -7   -0.68    1.92
   0 -11   7   -1.85    3.41
   0 -11   7    3.73    4.47
   0 -11  -7    0.23    3.81
   0 -11  -8    5.36    5.75
   0 -11   8    8.52    5.56
   0 -11  -8    5.84    5.89
   0 -11   8   -3.63    3.55
   0 -11  -9   -0.48    3.69
   0 -11   9   -0.40    3.03
   0 -11  -9    3.22    6.77
   0 -11   9   -2.60    4.25
   0 -11  10   -0.74    1.75
   0 -11 -10    0.40    3.31
   0 -11  10    0.91    4.70
   0 -11  11    2.34    4.51
   0 -11 -11    4.42    5.75
   0 -11  11   -2.97    5.20
   0 -11  12    1.39    4.14
   0 -11 -12   -1.39    2.76
   0 -11  12    1.55    3.25
   0 -11  13   -1.14    3.14
   0 -11 -13    4.10    8.11
   0 -11  13   -7.54    5.91
   0  11  14   -2.25    5.58
   0 -11  14    1.00    1.62
   0 -11 -14    0.19    5.42
   0 -11  14   -4.96    4.21
   0  11  15   -1.88    3.87
   0 -11  15    0.39    2.89
   0 -11  15    0.12    5.37
   0 -11 -15    0.97    3.29
   0  11  16    5.38    7.97
   0 -11 -16    3.59    2.29
   0 -11  16    5.08    4.75
   0 -11  16   -1.51    4.66
   0 -11  17   -2.34    5.77
   0 -11 -17   -0.70    4.03
   0 -11  17    1.61    5.15
   0  11  17   -2.16    2.37
   0 -11  18    1.60    4.58
   0 -11 -18   -4.09    5.36
   0 -11  18    0.26    4.48
   0  11  18   -1.65    3.35
   0 -11  19    0.08    5.67
   0 -11  19   -8.26    5.35
   0  11  19    0.20    5.64
   0 -11  19   -4.42    5.53
   0 -11 -19    4.93    6.31
   0  11  20   -0.03    3.43
   0 -11  20    0.87    5.78
   0 -11  20    9.35    5.87
   0 -11 -20   -1.94    4.36
   0  11  21    6.34    7.04
   0 -11  21    1.67    5.63
   0 -11  21    2.30    3.28
   0 -11 -21   -6.16    4.69
   0 -11  21   -6.49    1.75
   0  11  22   -3.13    3.52
   0 -11  22    4.31    4.75
   0 -11 -22    1.03    2.55
   0 -11  22    4.73    6.97
   0 -11  23    4.42    7.61
   0 -11  23    2.04    3.21
   0  11  23   -2.61    5.47
   0 -11 -23    8.09    8.34
   0 -11  23  -13.19    7.20
   0 -11  24    3.82    5.18
   0 -11 -24   -2.13    6.60
   0  11  24    6.62    6.45
   0 -11  24    0.50    5.96
   0 -11  24   -0.03    6.75
   0 -12   0  131.55   19.49
   0 -12   0  174.39   23.42
   0 -12  -1    5.13    6.11
   0 -12   1   10.31    6.00
   0 -12  -1    6.54    1.74
   0 -12   1    8.59    5.77
   0 -12  -2   -0.28    2.75
   0 -12  -2    1.61    4.93
   0 -12   2    0.86    2.69
   0 -12   2   -2.60    5.50
   0 -12  -3   94.95   15.91
   0 -12   3  112.85   19.31
   0 -12  -3  111.15   18.85
   0 -12   3  105.40   16.81
   0 -12  -4    0.29    3.87
   0 -12   4    2.92    6.63
   0 -12  -4    5.07    5.70
   0 -12   4    2.37    1.63
   0 -12  -5  110.30   18.15
   0 -12   5  103.95   17.31
   0 -12   5   99.89   16.99
   0 -12  -5   92.14   16.64
   0 -12  -6   11.20    6.97
   0 -12  -6   12.82    4.38
   0 -12   6   11.32    7.12
   0 -12   6    2.94    4.25
   0 -12   7   33.13   10.82
   0 -12  -7   29.18    9.01
   0 -12  -7   29.08    9.01
   0 -12   7   19.26    6.76
   0 -12  -8   21.01    5.96
   0 -12   8   44.50   13.10
   0 -12   8   27.51    9.68
   0 -12  -8   24.50    8.77
   0 -12  -9   10.89    7.73
   0 -12  -9   29.01   10.84
   0 -12   9   37.84   13.31
   0 -12   9   18.23    3.82
   0 -12  10  283.98   28.55
   0 -12 -10  243.20   27.51
   0 -12 -10  290.88   29.58
   0 -12  10  247.18   26.58
   0 -12  11  114.22   20.91
   0 -12 -11  141.02   21.35
   0 -12  11  119.08   19.09
   0 -12 -11  113.31   18.34
   0 -12 -12   36.79   10.85
   0 -12  12   51.72   12.81
   0 -12 -12   30.00   11.05
   0 -12  12   42.82   12.39
   0 -12  13    5.36    5.22
   0 -12  13   -0.18    2.98
   0 -12 -13    5.64    5.57
   0 -12  14   22.33    9.94
   0 -12  14   19.62    6.51
   0 -12 -14   28.35    9.66
   0 -12  15    2.40    5.17
   0 -12 -15   -3.20    1.70
   0 -12 -16    4.50    6.41
   0 -12  16   -2.38    3.69
   0 -12  16    0.97    2.11
   0 -12 -17    7.76    3.00
   0 -12  17   14.10    8.31
   0 -12  17   -5.49    5.79
   0 -12 -18    9.19    8.01
   0 -12  18    5.46    3.12
   0 -12  18   10.84    3.73
   0 -12  19   -3.98    2.98
   0  12  19    3.31    3.84
   0 -12  19    2.44    2.50
   0 -12 -19    0.27    6.27
   0 -12 -20   21.73    8.17
   0  12  20    9.82    6.04
   0 -12  20   12.41    5.70
   0 -12  20   15.46    8.05
   0  12  21   32.95   12.00
   0 -12 -21   35.79   10.90
   0 -12  21   24.28   10.94
   0 -12  21   34.94   11.43
   0 -12 -22    5.16    6.24
   0  12  22    2.62    4.35
   0 -12  22    7.96    5.12
   0 -13   0    6.11    6.43
   0 -13   0   -3.04    7.05
   0 -13  -1   -0.43    2.78
   0 -13  -1   -3.65    6.35
   0 -13   1   -1.37    2.36
   0 -13   1    3.79    7.19
   0 -13   2   -1.61    5.78
   0 -13  -2    1.09    1.89
   0 -13  -2   -2.65    2.69
   0 -13   2    0.83    4.61
   0 -13  -3   -0.88    4.81
   0 -13   3   -5.99    6.37
   0 -13  -3    2.60    5.96
   0 -13   3    8.42    5.89
   0 -13  -4   -1.71    4.73
   0 -13   4    0.02    3.37
   0 -13  -4   -2.07    4.42
   0 -13   4    0.81    3.47
   0 -13  -5   -3.09    4.69
   0 -13  -5    4.12    7.51
   0 -13   5    1.67    2.97
   0 -13   5   -0.50    2.71
   0 -13   6    4.85    4.93
   0 -13   6    3.95    5.11
   0 -13  -6   -0.80    5.05
   0 -13  -6   -4.74    6.62
   0 -13   7    4.97    6.13
   0 -13  -7    2.68    7.49
   0 -13  -7   -3.52    5.06
   0 -13   7    1.78    2.81
   0 -13  -8    0.02    4.54
   0 -13   8    4.51    7.51
   0 -13   8    8.76    7.83
   0 -13  -8    0.59    5.90
   0 -13   9    4.38    6.40
   0 -13  -9   -4.59    4.37
   0 -13   9   -2.61    5.48
   0 -13  -9    0.46    2.88
   0 -13  10    5.43    7.05
   0 -13 -10   -2.98    3.74
   0 -13  10   -0.19    1.58
   0 -13 -10   -3.44    7.20
   0 -13  11   -3.73    4.42
   0 -13 -11    2.75    4.96
   0 -13  11   -4.47    1.79
   0 -13 -11   -0.57    4.40
   0 -13 -12   -0.26    5.79
   0 -13  12   -4.51    5.23
   0 -13  12   -2.46    5.60
   0 -13 -12    4.51    4.68
   0 -13  13    0.54    4.72
   0 -13 -13   -0.28    5.18
   0 -13  13    1.56    1.61
   0 -13 -13   -0.92    3.64
   0 -13 -14    2.90    2.01
   0 -13  14    2.70    6.03
   0 -13 -14    1.28    3.78
   0 -13  14    6.17    7.57
   0 -13 -15    5.72    6.36
   0 -13  15    5.44    5.19
   0 -13 -15    2.42    2.17
   0 -13  15   -2.93    3.53
   0 -13  16    4.54    6.01
   0 -13  16    1.49    3.15
   0 -13 -16   -1.90    4.68
   0 -13  17    2.09    4.04
   0 -13  17    0.97    3.56
   0 -13 -17   -2.61    5.09
   0 -13 -18    3.55    5.87
   0 -13  18    0.31    3.76
   0 -13  18   -3.56    3.31
   0 -13  19   -1.09    4.84
   0 -13  19   -0.17    3.77
   0 -13 -19   -3.75    6.55
   0 -13  20   -3.61    2.88
   0 -13  20   -2.38    5.89
   0 -14   0   46.08   13.22
   0 -14   0   25.68   11.99
   0 -14   1   31.78   10.91
   0 -14  -1   52.39   11.82
   0 -14   1   60.23   14.15
   0 -14  -1   36.04   11.53
   0 -14   2    1.23    4.50
   0 -14  -2    2.36    5.41
   0 -14   2   -0.67    3.33
   0 -14  -2    0.20    2.13
   0 -14  -3   15.39    6.59
   0 -14  -3   -0.62    3.98
   0 -14   3   24.04   10.25
   0 -14   3    7.61    9.15
   0 -14  -4   -3.37    3.98
   0 -14  -4   11.71    7.62
   0 -14   4   23.25    9.99
   0 -14   4   20.25    8.90
   0 -14   5    7.16    3.58
   0 -14   5    1.93    4.71
   0 -14  -5    9.65    8.69
   0 -14  -5    2.03    4.13
   0 -14   6   57.06   14.51
   0 -14   6   33.00   10.16
   0 -14  -6   57.95   13.25
   0 -14  -6   18.82    8.35
   0 -14  -7   90.32   18.66
   0 -14   7   99.43   18.61
   0 -14  -7   89.75   17.10
   0 -14   7   96.16   16.91
   0 -14  -8   80.47   18.73
   0 -14   8   70.76   16.31
   0 -14   8   65.94   15.14
   0 -14  -8   52.97   13.71
   0 -14  -9    0.42    5.03
   0 -14  -9    0.44    5.28
   0 -14   9    0.94    2.62
   0 -14 -10   41.28   12.08
   0 -14 -10   50.50   12.77
   0 -14  10   67.93   14.86
   0 -14  11    4.32    3.93
   0 -14 -11    8.36    7.40
   0 -14 -11   11.20    7.87
   0 -14  11    3.80    6.93
   0 -14 -12   27.87    9.43
   0 -14  12   25.31    8.60
   0 -14 -12   19.13    6.74
   0 -14  12   21.27    8.26
   0 -14  13   54.22   13.99
   0 -14 -13   41.77   10.15
   0 -14 -13   45.31   12.76
   0 -14  13   61.74   15.95
   0 -14 -14   33.59   11.62
   0 -14  14   37.45   12.48
   0 -14 -14   31.48   10.77
   0 -14  14   40.06   11.89
   0 -14 -15   -4.78    7.00
   0 -14  15    3.82    6.20
   0 -14  15   -4.29    3.48
   0 -14 -15   -1.41    2.80
   0 -14 -16   14.31    7.61
   0 -14  16   14.32    9.21
   0 -14 -16   18.67    9.31
   0 -14  16    1.96    5.00
   0 -14  17   -1.09    4.29
   0 -14  17   11.33    8.27
   0 -14 -17   -4.72    6.12
   0 -14 -17    3.66    4.97
   0 -15   0   -1.91    2.73
   0 -15   0   -0.21    3.68
   0 -15   1   -5.17    3.13
   0 -15  -1    0.66    4.66
   0 -15   1    3.14    5.86
   0 -15  -1   -5.92    6.95
   0 -15   2    9.18    6.42
   0 -15  -2    0.92    6.17
   0 -15  -2    6.34    2.69
   0 -15   2    1.75    5.71
   0 -15  -3    0.89    3.68
   0 -15   3   -0.03    4.06
   0 -15   3    4.69    5.92
   0 -15  -3   -3.18    6.22
   0 -15  -4   -2.69    4.30
   0 -15   4   -0.32    3.91
   0 -15   4    5.92    6.64
   0 -15  -4   -3.40    5.53
   0 -15   5   -5.20    7.62
   0 -15  -5   -3.81    5.80
   0 -15  -5   -2.46    3.60
   0 -15   5    0.32    5.47
   0 -15  -6   -9.96    7.82
   0 -15   6    5.82    7.33
   0 -15   6    4.25    4.90
   0 -15  -6    2.49    5.88
   0 -15   7    3.18    5.18
   0 -15  -7    3.79    3.48
   0 -15  -7   -0.33    4.56
   0 -15   7    7.54    8.19
   0 -15  -8   -4.14    5.82
   0 -15   8    1.46    4.54
   0 -15   8  -11.29   11.60
   0 -15  -8   -3.78    2.95
   0 -15  -9   -5.54    8.81
   0 -15  -9    1.15    6.82
   0 -15   9   -0.11    6.77
   0 -15   9  -14.26    9.44
   0 -15 -10   -1.43    5.52
   0 -15 -10   -0.98    2.55
   0 -15  10   -2.21    3.40
   0 -15  10    1.49    3.26
   0 -15  11   -0.82    4.90
   0 -15 -11   -3.38    2.76
   0 -15  11    3.75    6.06
   0 -15 -11   -5.28    7.96
   0 -15 -12    3.98    4.97
   0 -15  12    5.37    5.88
   0 -15 -12    2.13    6.44
   0 -15  12    3.88    6.69
   0 -15  13    2.94    4.93
   0 -15 -13    0.14    5.18
   0 -15  13    5.27    4.96
   0 -15 -13   -1.43    6.50
   0 -15 -14   -0.32    3.30
   0 -15 -14   -4.64    6.92
   0 -15  14   -5.37    5.60
   0 -15  14    4.60    6.25
   0 -16   0  105.12   20.29
   0 -16   0   93.97   18.91
   0 -16   1   -1.09    2.41
   0 -16   1    9.58    8.38
   0 -16  -1   -1.71    4.81
   0 -16  -1    0.40    3.33
   0 -16  -2    9.80    5.85
   0 -16   2   -0.21    1.99
   0 -16   2    0.81    4.70
   0 -16  -2    7.17    7.97
   0 -16  -3    6.54    4.24
   0 -16   3    5.87    8.23
   0 -16  -3   -0.32    5.06
   0 -16   4  172.78   25.06
   0 -16  -4  201.20   27.99
   0 -16  -4  174.50   25.32
   0 -16   4  195.53   28.26
   0 -16  -5   -1.23    3.58
   0 -16   5    5.59    7.89
   0 -16  -5   10.03    3.29
   0 -16   5    6.64    3.94
   0 -16   6   -3.09    2.70
   0 -16   6    0.84    4.09
   0 -16  -6    5.05    7.91
   0 -16  -6    0.39    3.35
   0 -16   7   15.87    7.78
   0 -16  -7   26.97   13.47
   0 -16  -7   15.07    8.82
   0 -16   7   32.79   10.99
   0 -16   8   16.69    9.46
   0 -16  -8   16.92    7.00
   0 -16   8   14.09    7.81
   0 -16  -8   14.81    9.85
  -1   0   0   -1.06    0.96
   1   0   1    0.38    0.16
  -1   0   1    1.95    1.03
  -1   0   2 2617.79   25.49
  -1   0   2 2670.39   32.54
  -1   0   3   -0.03    0.67
  -1   0   3   -0.59    1.02
   1   0   3   -0.12    0.36
  -1   0   4 1704.83   31.98
  -1   0   4 1671.56   28.36
  -1   0   5    0.09    1.60
  -1   0   5   -0.26    0.84
   1   0   5   -0.21    1.05
  -1   0   6 3160.18   52.63
  -1   0   6 3187.80   47.81
   1   0   6 3219.51   52.60
  -1   0   7   -1.59    2.61
  -1   0   7    0.34    0.68
   1   0   7    0.38    1.54
   1   0   7    0.38    1.18
   1   0   8 3210.40   59.85
   1   0   8 3226.05   59.46
  -1   0   8 3146.47   60.13
  -1   0   8 3250.68   55.99
  -1   0   9   -0.04    1.92
  -1   0   9   -0.72    2.14
   1   0   9    0.48    2.03
   1   0   9   -0.65    1.87
  -1   0  10    7.19    3.40
   1   0  10    7.76    3.61
   1   0  10    6.18    2.85
  -1   0  10    2.02    1.31
  -1   0  11    1.92    2.91
  -1   0  11    0.32    2.51
   1   0  11   -0.19    1.41
   1   0  11    2.36    2.44
  -1   0  12 1654.87   49.35
  -1   0  12 1543.74   50.55
   1   0  12 1623.50   49.90
   1   0  12 1570.64   49.57
  -1   0  13    0.53    2.90
  -1   0  13   -2.47    2.02
   1   0  13    1.54    2.71
   1   0  13    0.41    1.80
   1   0  14  612.47   33.63
  -1   0  14  709.40   34.94
   1   0  14  661.55   35.52
  -1   0  14  682.28   35.76
   1   0  15    2.42    3.68
   1   0  15    3.32    1.89
  -1   0  15   -1.40    2.70
  -1   0  15   -3.24    2.98
  -1   0  16 1837.95   60.64
  -1   0  16 2022.73   65.91
   1   0  16 1968.94   64.79
   1   0  16 1959.18   63.50
   1   0  17   -0.86    3.94
  -1   0  17   -1.04    3.68
   1   0  17    1.66    2.94
  -1   0  17    3.83    5.64
   1   0  18    5.67    2.59
   1   0  18    0.94    2.64
  -1   0  18    0.85    4.92
  -1   0  18    0.35    2.07
   1   0  19   -2.93    2.59
   1   0  19    2.91    3.64
  -1   0  19    1.89    3.68
  -1   0  19   -1.09    3.35
   1   0  20  102.51   15.89
  -1   0  20  101.49   15.69
   1   0  20   86.48   15.63
  -1   0  20   81.84   15.02
   1   0  21   -3.49    2.07
  -1   0  21    0.02    5.39
  -1   0  21   -4.33    5.46
   1   0  21    1.61    2.36
  -1   0  22   49.95   10.92
   1   0  22   59.89   14.00
   1   0  22   65.62   13.33
  -1   0  22   62.27   13.46
  -1   0  23    0.86    5.79
  -1   0  23    4.10    5.08
   1   0  23   12.34    6.72
   1   0  23    6.40    4.44
   1   0  24  250.45   26.71
  -1   0  24  302.12   29.27
   1   0  24  297.44   30.12
  -1   0  24  304.85   31.31
  -1   0  25    5.38    5.56
   1   0  25   -2.86    5.26
   1   0  25    0.10    6.09
  -1   0  25    4.18    7.57
  -1   0  26  406.53   37.14
  -1   0  26  342.02   32.53
   1   0  26  358.53   32.81
   1   0  26  305.82   32.62
   1   0  27    1.83    3.02
  -1   0  27   -0.22    3.08
  -1   0  27   -5.30    6.39
   1   0  27   -1.61    1.82
  -1   0  28   -2.13    5.48
  -1   0  28   11.56    5.62
   1   0  28    2.77    5.40
   1   0  28    9.52    6.82
   1   0  29   -1.85    4.88
  -1   0  29   -4.91    4.62
   1   0  29    0.86    2.05
  -1   0  29    4.05    6.36
   1   0  30   39.72   12.62
   1   0  30   21.60    9.20
  -1   0  30   25.23   11.13
  -1   0  30   47.30   12.52
   1   0  31    4.17    2.49
  -1   0  31    1.94    6.28
  -1   0  31    1.46    3.05
   1   0  31    0.90    4.63
   1   0  32    3.36    5.89
  -1   0  32   10.62    8.43
  -1   0  32   16.19    9.22
   1   0  32    4.54    5.80
   1  -1   0    0.42    0.58
  -1   1   0   -1.09    1.08
  -1  -1   0   -0.40    0.37
   1  -1   0    0.98    1.35
  -1   1   1  978.28   20.87
   1   1   1  935.04   14.94
  -1  -1   1  915.66   18.95
   1  -1   1  948.15   15.23
   1  -1  -1  948.06   16.71
  -1  -1   1  884.24   13.98
  -1  -1  -1  837.75   15.85
   1  -1   1  965.38   19.22
  -1   1   2 2945.89   35.00
   1  -1   2 2962.62   36.46
  -1  -1  -2 3382.46   34.87
   1   1   2 3088.82   32.55
  -1   1   2 2779.26   36.78
   1  -1   2 2978.49   29.86
  -1  -1   2 3179.69   32.72
  -1  -1   2 2810.87   35.72
  -1   1   3  490.93   15.51
  -1  -1   3  483.65   15.34
   1  -1   3  497.35   13.91
  -1  -1   3  519.79   13.05
  -1   1   3  494.52   16.75
   1  -1   3  449.82   15.65
  -1  -1   3  463.24   15.70
   1   1   3  459.69   14.78
  -1   1   4  159.98    9.87
  -1   1   4  142.23    9.68
   1   1   4  156.29    9.72
   1  -1   4  161.78   10.11
   1  -1   4  178.78    9.34
  -1  -1   4  162.00    9.92
  -1  -1   4  155.64   10.09
   1   1   4  143.40    8.69
  -1  -1   4  157.71    8.46
   1   1   5  649.92   20.73
  -1  -1   5  578.19   20.93
   1  -1   5  649.01   22.33
  -1   1   5  602.51   21.36
  -1  -1   5  589.27   18.63
  -1   1   5  619.40   20.69
   1   1   5  626.74   21.65
   1  -1   5  660.82   20.47
  -1  -1   5  590.70   20.90
  -1  -1   6  128.99   10.82
  -1  -1   6  116.04    9.25
   1  -1   6  139.67   11.26
  -1  -1   6  123.28   10.34
  -1   1   6  134.69   10.62
   1   1   6  123.07   10.25
  -1   1   6  120.00    9.88
   1   1   6  125.17    9.98
   1  -1   7  359.42   19.24
   1   1   7  364.23   18.33
  -1  -1   7  374.96   17.97
  -1   1   7  354.71   18.49
   1   1   7  380.38   19.34
  -1  -1   7  357.62   18.92
  -1   1   7  346.93   18.42
  -1   1   8  336.49   19.11
  -1  -1   8  381.61   20.43
   1  -1   8  381.03   20.93
  -1   1   8  348.95   19.25
   1   1   8  341.28   19.34
  -1  -1   8  388.74   19.31
   1   1   8  390.76   20.00
   1   1   9  106.31   10.84
   1   1   9   88.26   10.33
   1  -1   9  100.61   11.43
  -1   1   9   59.04    8.60
  -1  -1   9   81.63    9.55
  -1  -1   9  123.79   12.22
   1  -1   9   99.05   11.27
  -1   1   9   97.12   10.43
   1   1  10   25.70    6.51
  -1   1  10   23.43    5.30
   1  -1  10   23.50    5.69
   1   1  10   23.16    5.08
  -1   1  10   28.66    5.93
   1  -1  10   26.93    5.72
  -1  -1  10   34.32    7.47
  -1  -1  10   18.28    4.51
  -1  -1  11  270.36   19.20
   1   1  11  270.13   19.69
  -1   1  11  269.46   20.41
  -1  -1  11  286.09   20.99
   1   1  11  291.25   20.41
  -1   1  11  264.38   19.14
   1  -1  11  247.58   19.56
   1  -1  11  251.47   19.50
   1  -1  12   35.42    7.33
   1   1  12   27.79    6.83
   1  -1  12   31.79    7.11
   1   1  12   29.66    6.98
  -1  -1  12   38.06    8.06
  -1  -1  12   55.63    9.04
  -1   1  12   42.28    8.15
  -1   1  12   17.58    6.14
   1  -1  13  596.12   32.35
  -1  -1  13  631.34   33.66
   1   1  13  613.73   32.26
   1  -1  13  626.50   33.55
  -1   1  13  612.52   32.68
  -1   1  13  590.91   30.83
  -1  -1  13  624.69   31.57
   1   1  13  579.67   31.34
   1   1  14   69.46   11.34
   1  -1  14   75.34   11.41
  -1  -1  14   77.08   11.73
   1   1  14   88.49   12.44
   1  -1  14   63.17   11.24
  -1  -1  14   76.75   10.88
  -1   1  14   81.26   11.80
  -1   1  14   62.44   10.75
  -1  -1  15   85.68   13.29
   1   1  15   77.01   12.02
  -1  -1  15   65.76   10.74
   1  -1  15   48.30    9.80
  -1   1  15   78.05   12.04
  -1   1  15   93.41   13.17
   1  -1  15   89.83   12.85
   1   1  15   78.98   11.67
  -1   1  16  132.96   16.31
   1   1  16  132.15   16.46
  -1   1  16  152.06   17.64
   1   1  16  147.14   17.59
  -1  -1  16  202.04   19.57
   1  -1  16  147.47   17.80
  -1  -1  16  152.41   18.54
   1  -1  16  165.00   18.04
   1  -1  17  736.32   39.80
  -1   1  17  744.47   40.71
  -1  -1  17  706.61   38.51
   1   1  17  698.18   38.77
  -1   1  17  794.12   40.84
   1  -1  17  770.95   41.53
   1   1  17  738.58   39.77
  -1  -1  17  706.31   40.63
   1   1  18    1.75    3.46
  -1   1  18    7.92    5.84
   1   1  18    3.14    2.34
  -1  -1  18    8.01    4.80
   1  -1  18    2.21    2.22
  -1   1  18    3.17    4.97
   1  -1  18   -0.33    2.27
  -1  -1  18    7.50    3.85
  -1  -1  19    9.95    4.69
  -1  -1  19    5.41    4.14
   1   1  19   10.04    3.92
   1   1  19   19.27    7.92
   1  -1  19    6.92    2.93
   1  -1  19    9.82    5.13
  -1   1  19   11.59    2.16
  -1   1  19   16.64    7.65
   1  -1  20  489.45   35.02
  -1  -1  20  464.51   34.90
  -1   1  20  539.53   37.22
   1   1  20  426.30   32.62
  -1  -1  20  494.45   34.70
   1  -1  20  434.82   34.32
  -1   1  20  513.46   35.87
   1   1  20  467.61   35.52
  -1   1  21    5.99    5.66
   1   1  21    6.59    6.15
  -1  -1  21    0.02    2.83
  -1  -1  21   -3.14    2.99
   1   1  21    4.29    2.96
  -1   1  21    0.91    3.44
   1  -1  21    1.48    4.84
   1  -1  21    6.29    7.09
   1  -1  22   73.02   14.11
   1   1  22   87.69   15.91
  -1  -1  22   65.99   13.14
  -1   1  22   66.59   13.40
   1  -1  22   84.19   15.45
   1   1  22  104.76   17.39
  -1  -1  22   96.41   17.19
  -1   1  22   81.65   15.54
   1   1  23   78.26   15.04
   1  -1  23   73.77   14.73
   1  -1  23   85.53   15.91
  -1   1  23  110.85   18.01
  -1   1  23  103.85   17.10
  -1  -1  23   78.27   15.41
  -1  -1  23  103.26   18.31
   1   1  23   99.94   17.80
  -1   1  24    0.37    2.32
   1   1  24    1.01    3.87
   1   1  24    0.04    4.61
  -1  -1  24   -0.46    3.82
   1  -1  24    1.52    4.02
   1  -1  24   -2.41    5.94
  -1  -1  24    4.74    5.53
  -1   1  24    6.90    7.47
   1  -1  25   79.07   15.53
  -1  -1  25   52.16   12.85
  -1  -1  25   74.99   15.39
  -1   1  25   76.08   15.91
   1  -1  25   78.07   16.55
   1   1  25   70.18   14.44
  -1   1  25   73.25   15.60
   1   1  25   64.93   14.45
  -1   1  26   31.08    9.00
   1   1  26   75.12   16.87
  -1  -1  26   61.82   14.55
  -1  -1  26   73.09   15.89
  -1   1  26   58.23   13.35
   1   1  26   67.65   15.48
   1  -1  26   59.10   13.92
   1  -1  26   60.21   14.01
   1   1  27    1.96    4.67
   1  -1  27    2.55    2.18
   1  -1  27   -0.71    5.14
   1   1  27    1.21    4.17
  -1   1  27   11.01    7.92
  -1  -1  27   -1.73    3.80
  -1  -1  27   -1.76    2.23
  -1   1  27   -0.96    5.39
   1   1  28    3.44    6.89
  -1   1  28    1.66    3.66
   1  -1  28    0.41    4.09
  -1   1  28    3.23    3.34
  -1  -1  28    4.97    5.52
   1   1  28   -3.18    6.61
   1  -1  28    8.45    6.67
  -1  -1  28    0.28    2.26
   1  -1  29    4.46    3.14
  -1   1  29   -4.57    7.16
   1  -1  29    2.18    6.17
  -1  -1  29    2.18    3.08
  -1  -1  29    3.01    7.45
   1   1  29    4.57    5.42
  -1   1  29   -1.60    4.11
   1   1  29   -4.43    5.01
  -1   1  30   -1.90    6.26
   1   1  30    3.46    5.13
  -1  -1  30    6.88    6.38
  -1   1  30    2.08    2.93
   1   1  30   -0.74    4.24
   1  -1  30   -3.50    4.87
   1  -1  30    0.93    2.21
  -1  -1  30    9.01    8.57
  -1   1  31   12.54    7.80
  -1  -1  31    7.50    2.43
   1   1  31    5.67    5.40
   1  -1  31    7.37    5.81
  -1  -1  31    0.80    3.78
   1  -1  31    1.14    2.75
   1   1  31    2.45    3.73
  -1   1  31    1.85    2.91
  -1  -1  32   27.60    9.59
   1  -1  32   15.55    9.23
   1   1  32    8.41    6.97
  -1   1  32   11.91    8.89
   1  -1  32   25.43   11.27
   1   1  32   13.54    6.17
  -1   1  32   19.36   10.28
  -1  -1  32   29.19   11.31
  -1  -2   0    0.03    1.48
   1  -2   0    0.00    1.21
  -1   2   0   -0.98    0.78
   1  -2   0   -0.30    1.09
  -1   2   1  113.60    8.27
   1  -2  -1  125.60    8.00
   1  -2   1  116.25    7.57
  -1  -2   1  111.87    8.53
  -1  -2   1  104.27    5.89
   1   2   1  126.31    6.88
  -1  -2  -1  132.30    8.33
   1  -2   1  112.83    8.22
   1  -2  -1  108.29    7.93
   1  -2   2  495.57   16.63
  -1  -2  -2  435.70   16.01
   1  -2   2  423.61   16.43
  -1   2   2  464.77   17.65
  -1  -2   2  462.61   17.91
  -1  -2   2  442.27   12.34
  -1  -2   2  445.45   12.51
   1   2   2  437.22   14.33
  -1   2   2  443.99   16.66
   1  -2  -3 8121.39   73.84
  -1  -2   3 8049.49   76.96
   1  -2   3 7919.41   75.07
  -1   2   3 8107.64   73.92
   1   2   3 8189.72   51.26
   1   2   3 7913.61   67.78
  -1  -2   3 7955.21   57.99
  -1   2   3 8284.12   73.15
   1  -2   3 7761.48   70.03
  -1  -2   3 7580.53   61.60
  -1  -2  -4  327.14   15.44
  -1  -2   4  311.14   12.99
  -1   2   4  312.11   15.15
  -1  -2   4  322.93   16.09
   1   2   4  333.09   15.21
   1   2   4  316.29   12.47
  -1  -2   4  333.89   14.42
   1  -2   4  336.24   15.00
  -1   2   4  326.08   15.63
   1  -2   4  327.70   15.77
  -1   2   5 6968.29   75.82
   1   2   5 7109.77   65.90
  -1  -2   5 7165.76   73.82
  -1  -2   5 6886.31   66.91
  -1  -2  -5 6972.95   77.28
   1  -2   5 7075.71   77.34
  -1  -2   5 6960.42   77.71
  -1   2   5 7330.64   77.82
   1   2   5 6772.15   75.40
   1  -2   5 7071.33   73.44
   1   2   6  994.12   30.25
  -1   2   6  931.11   29.22
   1  -2   6  902.26   27.90
  -1  -2   6  940.16   28.86
   1  -2   6  926.26   29.68
  -1   2   6  934.93   30.26
   1   2   6  934.35   27.15
  -1  -2   6  901.52   29.85
  -1   2   7  345.77   19.44
   1  -2   7  351.57   18.41
  -1  -2   7  351.23   17.72
   1  -2   7  325.00   18.60
   1   2   7  353.24   17.82
  -1  -2   7  357.59   19.08
  -1  -2   7  348.41   19.47
  -1   2   7  364.29   19.11
  -1  -2   8   61.85    7.73
  -1   2   8   93.39   10.37
   1  -2   8   92.75   10.16
  -1  -2   8  104.17   10.88
   1  -2   8   86.62    9.80
   1   2   8   78.29    8.94
   1   2   8   87.69    9.97
  -1   2   8   89.59    9.97
  -1  -2   8   90.13   10.20
   1  -2   9  499.03   25.18
  -1   2   9  541.70   26.17
  -1  -2   9  504.88   25.35
  -1  -2   9  544.80   24.80
   1   2   9  527.55   24.35
  -1  -2   9  531.29   26.48
   1   2   9  545.99   25.94
  -1   2   9  508.11   24.96
   1  -2   9  511.26   25.13
  -1   2  10 2430.21   58.33
   1  -2  10 2425.69   59.73
  -1  -2  10 2433.72   59.02
  -1  -2  10 2608.12   57.65
  -1   2  10 2504.44   58.43
   1   2  10 2518.61   59.20
   1   2  10 2381.89   55.14
  -1  -2  11  161.34   14.89
   1   2  11  158.66   14.90
  -1   2  11  181.60   16.53
   1  -2  11  181.08   16.77
  -1   2  11  187.99   16.86
   1  -2  11  175.74   17.05
   1   2  11  152.46   14.88
  -1  -2  11  164.68   16.08
  -1  -2  12   27.77    6.42
   1  -2  12   42.61    7.93
  -1   2  12   44.90    9.09
   1   2  12   44.11    7.99
  -1  -2  12   40.08    8.12
   1  -2  12   56.13    9.42
  -1   2  12   19.69    5.70
   1   2  12   31.03    7.35
  -1  -2  13  600.08   31.52
   1  -2  13  642.63   35.17
  -1  -2  13  658.34   34.12
  -1   2  13  684.40   34.56
   1   2  13  510.20   29.35
  -1   2  13  563.54   31.01
   1   2  13  650.34   33.15
   1  -2  13  593.61   32.91
  -1  -2  14   55.83   10.65
  -1   2  14   53.41    9.91
  -1   2  14   74.83   11.86
   1  -2  14   65.32   10.96
  -1  -2  14   52.98   10.16
   1  -2  14   64.04   11.21
   1   2  14   83.30   12.43
   1   2  14   67.94   10.71
  -1  -2  15  462.76   30.96
   1  -2  15  449.46   30.62
  -1   2  15  477.37   30.25
   1  -2  15  471.53   31.63
  -1   2  15  540.79   32.83
  -1  -2  15  436.15   28.52
   1   2  15  469.77   30.14
   1   2  15  457.02   29.87
   1   2  16  142.79   17.52
   1   2  16  170.00   19.40
  -1   2  16  115.82   16.02
   1  -2  16  121.92   16.39
   1  -2  16  117.93   15.72
  -1  -2  16  111.68   15.14
  -1  -2  16  139.61   17.37
  -1   2  16  129.21   15.68
   1  -2  17   86.41   13.79
   1   2  17   71.59   12.12
  -1  -2  17   76.39   12.86
   1   2  17   97.22   14.94
  -1   2  17   73.34   12.17
   1  -2  17   80.83   13.77
  -1  -2  17   73.66   13.02
  -1   2  17   85.48   13.88
  -1   2  18   20.30    6.77
  -1   2  18    5.92    2.70
  -1  -2  18   10.90    6.08
   1   2  18   13.08    6.51
  -1  -2  18   17.65    8.19
   1  -2  18    1.71    2.76
   1  -2  18   16.99    6.49
   1   2  18   15.85    5.78
   1   2  19   87.31   14.74
   1  -2  19   90.07   15.00
  -1   2  19   84.64   14.21
  -1  -2  19   80.23   13.48
   1  -2  19   75.15   14.09
  -1  -2  19   95.31   16.05
   1   2  19   78.88   14.29
  -1   2  19   79.51   13.73
   1  -2  20  913.05   49.45
   1  -2  20  980.79   50.31
  -1  -2  20  935.53   50.31
  -1  -2  20  922.66   48.59
   1   2  20  892.44   48.59
  -1   2  20 1019.48   51.05
   1   2  20  967.62   49.57
  -1   2  20  949.80   48.35
  -1   2  21   76.26   13.98
   1  -2  21   86.40   15.20
   1   2  21   80.20   15.14
  -1   2  21   66.60   13.26
  -1  -2  21   77.82   14.34
   1  -2  21   78.56   14.30
   1   2  21   76.50   13.70
  -1  -2  21   92.95   15.97
  -1   2  22   46.78   12.12
   1   2  22   39.13   11.44
   1   2  22   25.77    7.85
  -1  -2  22   52.28   12.22
   1  -2  22   44.46   10.57
   1  -2  22   30.90   10.12
  -1  -2  22   45.40   10.04
  -1   2  22   34.93    9.89
   1  -2  23   69.83   14.79
   1   2  23   55.37   12.99
  -1  -2  23   78.90   15.71
   1  -2  23   86.21   16.23
   1   2  23   68.44   13.99
  -1   2  23   81.11   15.31
  -1   2  23   76.91   14.75
  -1  -2  23  111.33   17.67
   1   2  24   11.33    2.90
   1   2  24   27.82    9.46
  -1  -2  24   23.36    8.62
  -1   2  24   28.90   10.12
  -1  -2  24   17.22    9.11
   1  -2  24   34.69    9.81
  -1   2  24   39.37   10.99
   1  -2  24   19.40    6.25
  -1   2  25    1.78    3.73
  -1  -2  25    6.63    5.96
  -1  -2  25    1.71    2.22
   1  -2  25    4.12    4.47
   1   2  25   11.45    5.58
  -1   2  25    4.48    6.03
   1  -2  25   -1.57    4.65
   1   2  25    3.26    3.38
  -1  -2  26   35.84    9.89
   1  -2  26   20.06    4.49
  -1  -2  26   39.37   12.34
   1   2  26   50.31   12.56
  -1   2  26   66.63   14.79
   1  -2  26   55.75   13.70
  -1   2  26   71.33   15.08
   1   2  26   35.83   10.86
  -1  -2  27  133.29   21.11
   1  -2  27  101.67   18.29
  -1   2  27  106.34   19.68
   1   2  27  114.67   19.80
   1   2  27   94.02   16.67
   1  -2  27  100.52   18.62
  -1   2  27   90.11   17.31
  -1  -2  27  118.23   19.40
  -1   2  28    9.41    2.70
   1  -2  28   20.95   10.42
   1  -2  28    1.49    1.82
  -1   2  28    8.53    8.67
  -1  -2  28    2.27    4.48
  -1  -2  28    1.51    4.15
   1   2  28    3.76    5.10
   1   2  28    6.82    7.50
  -1  -2  29    6.53    5.70
  -1   2  29    7.29    4.38
   1   2  29    1.56    3.72
  -1  -2  29   16.73    7.86
  -1   2  29    2.35    5.51
   1  -2  29    9.55    3.07
   1   2  29    7.71    7.16
   1  -2  29   18.94   11.33
   1   2  30   75.41   17.95
  -1  -2  30   52.83   14.79
   1  -2  30   38.49   11.00
   1   2  30   70.57   15.53
  -1   2  30   68.21   15.15
   1  -2  30   49.61   15.58
  -1  -2  30   61.33   15.03
  -1   2  30   36.81   11.92
  -1  -2  31   33.69   11.18
   1  -2  31   36.12   11.91
   1   2  31   40.01   12.47
   1  -2  31   21.00    9.69
  -1   2  31   16.53    8.34
  -1   2  31   35.55   10.25
  -1  -2  31   30.10    9.32
   1   2  31   21.65   11.29
   1   2  32    5.62    8.55
  -1   2  32   -3.05    4.30
   1  -2  32    0.08    2.43
  -1  -2  32    5.69    6.43
  -1   2  32    4.71    4.72
   1  -2  32    3.89    6.30
   1   2  32   -3.76    7.64
  -1  -2  32    0.03    3.14
  -1   3   0    0.52    1.91
  -1  -3   0   -1.07    0.83
  -1  -3   0    2.08    1.62
   1  -3   0    0.75    0.63
   1  -3   0    1.64    1.50
  -1  -3   1 1899.53   22.22
   1  -3   1 1814.33   38.30
   1  -3  -1 1872.72   37.44
  -1  -3  -1 1780.78   38.13
  -1  -3   1 1796.03   39.89
  -1  -3   1 1900.28   32.46
   1  -3  -1 1815.06   38.57
  -1   3   1 1828.19   37.06
   1  -3   1 1872.40   38.36
   1   3   1 1893.73   33.89
   1  -3  -2  411.73   17.93
  -1  -3   2  416.05   15.50
  -1  -3   2  422.32   19.88
  -1  -3   2  394.16   12.57
  -1   3   2  437.64   18.31
   1  -3   2  394.69   17.58
   1   3   2  406.31   16.34
   1  -3   2  411.56   18.66
  -1  -3  -2  401.24   18.06
  -1  -3   3 2448.30   38.64
  -1  -3   3 2502.58   50.25
  -1   3   3 2465.26   46.60
   1  -3   3 2429.01   46.81
  -1  -3  -3 2556.96   47.41
  -1   3   3 2564.16   46.53
  -1  -3   3 2486.06   36.88
   1  -3  -3 2500.54   46.10
   1  -3   3 2479.27   46.23
   1   3   3 2454.37   27.25
   1   3   3 2428.33   42.45
  -1  -3   4  259.56   13.30
  -1  -3   4  315.09   14.44
   1  -3  -4  279.09   16.01
   1   3   4  269.43   10.90
   1  -3   4  274.50   16.13
   1  -3   4  270.23   16.00
  -1   3   4  272.46   15.16
  -1   3   4  294.19   16.55
  -1  -3  -4  286.59   16.32
   1   3   4  271.89   14.67
  -1  -3   4  286.57   17.37
   1  -3  -5  792.22   28.56
  -1  -3   5  720.75   24.38
  -1   3   5  810.00   26.62
  -1   3   5  779.69   28.26
   1  -3   5  811.24   28.34
   1   3   5  774.24   21.90
  -1  -3   5  769.97   24.88
  -1  -3   5  734.39   28.51
   1   3   5  789.51   26.94
   1  -3   5  842.23   28.04
  -1  -3   6  467.29   19.85
  -1  -3  -6  468.21   22.50
   1  -3   6  470.67   22.10
  -1   3   6  499.77   22.22
   1  -3  -6  476.05   23.73
  -1  -3   6  458.12   20.47
   1  -3   6  479.49   22.57
  -1   3   6  460.83   22.82
   1   3   6  400.56   18.08
   1   3   6  466.55   22.32
  -1  -3   6  483.16   24.01
  -1  -3   7   80.42    9.07
  -1  -3  -7   70.21    9.17
   1  -3   7   81.10    9.82
  -1  -3   7   63.34    8.93
  -1  -3   7   79.58    9.43
  -1   3   7   71.25    8.81
   1   3   7   65.88    7.63
   1   3   7   77.15    9.46
   1  -3   7   58.64    8.26
  -1   3   7   76.14    9.48
  -1   3   8 2574.71   57.65
   1  -3   8 2592.44   56.78
   1  -3   8 2603.68   56.39
  -1  -3   8 2672.52   54.14
  -1   3   8 2587.51   55.52
   1   3   8 2719.73   59.02
  -1  -3  -8 2474.64   58.20
   1   3   8 2559.66   51.23
  -1  -3   8 2607.78   58.67
  -1  -3   8 2704.59   57.17
   1  -3   9  210.38   16.37
  -1  -3   9  289.07   19.36
   1   3   9  218.69   15.98
  -1   3   9  235.02   18.22
  -1   3   9  232.68   17.31
   1  -3   9  249.25   18.50
  -1  -3   9  262.87   17.58
   1   3   9  254.55   18.61
  -1  -3   9  272.57   19.52
  -1  -3  10  622.64   28.87
   1  -3  10  639.67   31.34
  -1   3  10  594.08   28.56
  -1   3  10  620.25   30.75
  -1  -3  10  599.80   29.64
   1   3  10  618.45   30.35
   1  -3  10  587.76   29.01
   1   3  10  660.19   28.79
  -1  -3  10  616.82   30.53
  -1   3  11   70.20   10.11
   1  -3  11   69.80   10.20
   1   3  11   68.41    9.92
   1  -3  11   64.53   10.54
  -1  -3  11   66.75   10.33
   1   3  11   61.14   10.43
  -1  -3  11   67.73   10.11
  -1   3  11   72.15   10.56
  -1  -3  11   57.45    9.45
   1   3  12  145.77   14.96
  -1  -3  12  123.04   14.90
  -1   3  12   97.88   12.50
   1  -3  12  144.35   15.61
  -1  -3  12  116.71   13.85
  -1  -3  12  117.25   13.56
  -1   3  12  130.09   14.96
   1   3  12  140.91   15.29
   1  -3  12  119.02   14.10
   1  -3  12  132.99   14.95
   1   3  13    1.89    1.43
  -1   3  13    2.78    1.23
   1  -3  13    3.38    3.68
  -1  -3  13   -2.19    2.30
  -1  -3  13    8.14    3.89
  -1   3  13   12.72    5.40
   1  -3  13   17.49    5.97
   1   3  13    6.36    4.75
  -1  -3  14  108.93   14.18
   1   3  14   90.97   12.76
   1   3  14  109.52   14.38
   1  -3  14  102.02   14.80
  -1   3  14  105.76   14.65
   1  -3  14  106.24   14.23
  -1  -3  14  100.85   13.76
  -1   3  14   86.96   12.57
  -1  -3  15   -0.05    3.57
   1  -3  15    1.80    1.68
  -1  -3  15   -1.63    3.57
  -1   3  15   -1.19    2.64
   1   3  15   -2.30    3.43
   1  -3  15    5.52    5.30
  -1   3  15    3.27    4.24
   1   3  15    0.06    2.66
   1   3  16    0.48    5.10
   1  -3  16    0.46    5.05
  -1   3  16    0.41    1.99
  -1  -3  16    3.17    3.58
   1  -3  16   -2.70    2.51
  -1   3  16    4.30    4.52
  -1  -3  16    1.08    3.74
   1   3  16   -2.06    2.26
   1  -3  17   42.77   10.76
   1  -3  17   51.70   11.68
   1   3  17   60.87   11.45
  -1  -3  17   43.78    9.81
   1   3  17   32.75    9.56
  -1  -3  17   43.58    9.75
  -1   3  17   40.44    9.95
  -1   3  17   26.51    7.03
  -1   3  18   28.88    8.79
   1  -3  18   46.13   11.12
   1   3  18   33.98    8.09
  -1  -3  18   38.46    8.17
   1   3  18   65.09   11.85
  -1  -3  18   56.49   11.97
  -1   3  18   55.58   11.45
   1  -3  18   54.00   10.59
  -1  -3  19  571.69   37.64
   1  -3  19  587.13   38.66
  -1   3  19  528.21   36.55
   1  -3  19  637.44   40.33
  -1  -3  19  616.40   39.53
   1   3  19  596.20   38.89
   1   3  19  624.49   40.26
  -1   3  19  544.36   37.12
  -1  -3  20   84.44   15.23
   1  -3  20   83.23   14.92
  -1  -3  20   96.28   15.90
   1   3  20  112.59   17.24
   1  -3  20  115.78   17.58
  -1   3  20   91.33   15.33
   1   3  20  106.24   16.48
  -1   3  20   99.47   16.76
   1  -3  21  191.70   23.57
   1  -3  21  140.93   19.74
  -1  -3  21  165.55   22.07
  -1  -3  21  169.03   21.61
  -1   3  21  159.97   20.31
   1   3  21  166.64   21.27
  -1   3  21  125.70   18.75
   1   3  21  164.37   21.03
   1  -3  22   18.06    8.60
  -1   3  22   19.19    7.21
   1   3  22   19.39    7.03
  -1  -3  22   13.29    6.76
   1   3  22   30.57   10.20
  -1  -3  22   29.36   10.86
   1  -3  22   29.16    9.26
  -1   3  22   10.83    7.19
   1  -3  23   62.58   13.33
  -1  -3  23   35.13   10.60
  -1  -3  23   35.35   10.55
  -1   3  23   41.98   10.36
  -1   3  23   61.09   12.78
   1  -3  23   40.32   12.77
   1   3  23   41.06   10.78
   1   3  23   58.21   13.32
   1   3  24   -5.43    5.67
   1   3  24   -1.51    5.06
  -1   3  24    2.89    4.02
  -1   3  24    5.24    7.35
  -1  -3  24   -1.82    2.89
   1  -3  24   -1.57    4.43
   1  -3  24   -3.14    6.45
  -1  -3  24    2.47    1.64
  -1   3  25   28.69   10.48
  -1  -3  25   33.73   10.59
  -1   3  25   16.26    7.16
   1   3  25   38.44   11.90
   1  -3  25   34.92    9.76
   1  -3  25   35.60   10.82
  -1  -3  25   50.92   13.52
   1   3  25   28.53    9.19
  -1  -3  26    9.27    6.73
  -1   3  26    1.50    4.76
  -1  -3  26   15.25    9.75
   1  -3  26    2.34    3.19
   1  -3  26   22.70    8.88
  -1   3  26    9.82    5.55
   1   3  26    4.55    6.29
   1   3  26   12.14    3.20
   1   3  27    7.11    2.15
   1  -3  27    1.46    5.33
   1  -3  27    0.56    5.27
  -1   3  27   -3.57    5.57
  -1  -3  27    4.85    3.59
  -1  -3  27   -5.36    6.90
  -1   3  27    1.32    5.07
   1   3  27   -4.67    6.75
   1  -3  28   -2.98    2.69
  -1   3  28   -3.56    3.93
  -1   3  28   13.81    8.75
  -1  -3  28    4.12    5.41
   1   3  28    6.92    7.88
  -1  -3  28    5.31    4.84
   1   3  28    0.34    2.33
   1  -3  28    1.99    7.89
  -1  -3  29    3.97    3.53
  -1   3  29   -4.06    5.07
  -1  -3  29    0.97    1.89
   1  -3  29    0.51    3.07
   1   3  29    6.77    6.53
  -1   3  29   -2.12    3.62
   1  -3  29   -3.62    6.99
   1   3  29   11.16    8.07
   1  -3  30    0.60    6.38
   1  -3  30    4.21    7.95
  -1   3  30    7.58    7.54
   1   3  30    1.55    3.47
  -1   3  30   -3.20    2.59
  -1  -3  30   -0.61    3.31
  -1  -3  30    4.49    5.42
   1   3  30   -1.76    4.16
   1  -3  31   21.26    9.22
   1   3  31   24.75   11.09
  -1  -3  31   18.98    7.19
  -1   3  31   25.23    8.76
  -1  -3  31   30.77   11.32
  -1   3  31   25.01    9.71
   1  -3  31   18.47    9.16
   1   3  31   31.36   10.92
  -1   3  32    7.25    5.59
  -1  -3  32   15.41    8.56
   1  -3  32    2.32    5.99
   1   3  32    1.98    2.55
   1   3  32   -2.26    4.44
   1  -3  32    9.99   10.01
  -1   3  32    7.59    7.46
  -1  -3  32    2.25    2.80
  -1   4   0    0.10    1.37
   1  -4   0   -0.35    2.10
   1  -4   0   -1.70    0.88
  -1  -4   0    0.75    1.99
  -1  -4   0    1.61    2.28
   1  -4   1   12.37    3.54
  -1  -4   1    5.76    2.16
  -1  -4  -1    9.82    3.64
   1  -4  -1   19.06    4.90
   1  -4  -1    9.34    3.43
   1  -4   1   11.60    3.38
  -1  -4   1   18.69    4.15
  -1   4   1   11.14    2.31
  -1  -4   2 1958.19   48.25
  -1  -4  -2 1837.82   44.62
   1   4   2 1978.76   24.13
   1  -4   2 1880.51   44.85
  -1  -4   2 1883.70   39.02
   1  -4  -2 1806.92   42.99
  -1   4   2 1908.17   41.37
   1  -4   2 1899.49   44.91
   1  -4  -2 1899.96   44.53
   1   4   2 1974.79   41.74
  -1  -4   3   36.41    4.72
  -1  -4  -3   42.66    6.85
   1  -4   3   43.78    7.08
   1   4   3   28.86    3.44
  -1  -4   3   27.83    4.88
   1   4   3   40.86    6.29
   1  -4  -3   29.94    5.48
  -1   4   3   31.36    5.39
   1  -4   3   30.89    5.83
  -1  -4   3   41.52    6.88
   1  -4   4  632.71   26.31
   1   4   4  707.39   26.28
   1   4   4  667.15   18.24
  -1  -4   4  670.13   24.25
   1  -4   4  732.56   29.02
   1  -4  -4  691.06   27.86
  -1  -4   4  711.97   30.39
  -1   4   4  702.01   27.98
  -1  -4  -4  659.28   27.48
  -1  -4   4  680.70   22.51
  -1   4   4  721.96   26.97
   1  -4  -5  870.85   32.53
   1  -4   5  901.23   32.57
  -1  -4  -5  870.74   31.89
  -1  -4   5  870.81   33.97
  -1  -4   5  853.81   27.44
  -1   4   5  892.83   32.47
  -1  -4   5  906.59   29.10
   1   4   5  864.89   30.39
   1   4   5  867.58   23.27
  -1   4   5  939.24   30.89
   1  -4   5  886.64   33.25
  -1  -4   6  445.02   20.94
   1   4   6  433.67   17.64
  -1   4   6  426.51   21.42
  -1   4   6  471.36   24.39
   1   4   6  428.17   21.95
  -1  -4  -6  456.09   24.10
   1  -4  -6  487.85   25.07
  -1  -4   6  454.15   24.65
   1  -4   6  442.39   23.59
   1  -4   6  464.58   24.06
  -1  -4   6  421.21   20.59
  -1  -4   7 1085.63   34.32
   1   4   7 1082.46   30.06
  -1  -4   7 1041.00   34.16
  -1  -4  -7 1025.61   38.15
  -1  -4   7 1146.01   40.43
   1  -4  -7 1063.66   38.23
   1   4   7 1011.77   36.09
   1  -4   7 1080.66   37.92
  -1   4   7 1020.42   37.13
  -1   4   7 1026.23   34.50
   1  -4   7 1061.67   37.67
   1   4   8 1929.65   43.57
   1  -4   8 1849.61   50.56
  -1  -4   8 1707.09   51.00
   1   4   8 1943.85   51.60
  -1   4   8 1755.60   47.26
  -1   4   8 1720.00   50.06
   1  -4  -8 1686.56   50.45
   1  -4   8 1837.81   50.17
  -1  -4   8 1763.10   46.03
  -1  -4  -8 1777.17   51.26
  -1  -4   8 1748.64   47.13
   1  -4   9 1494.90   46.64
  -1   4   9 1633.68   49.83
  -1  -4   9 1596.52   45.81
  -1  -4   9 1620.50   50.41
   1   4   9 1603.89   42.36
   1  -4  -9 1495.74   49.89
   1   4   9 1620.91   49.18
  -1  -4  -9 1597.96   49.40
  -1   4   9 1624.28   47.17
   1  -4   9 1557.88   48.08
  -1  -4   9 1653.58   47.84
  -1  -4  10  492.89   27.43
  -1  -4  10  511.00   28.73
   1   4  10  467.17   24.32
   1   4  10  451.21   27.09
  -1  -4 -10  441.20   27.43
   1  -4  10  443.87   26.42
   1  -4  10  473.70   27.04
  -1   4  10  438.75   26.43
  -1   4  10  472.22   26.54
  -1  -4  10  464.56   25.88
   1   4  11    0.93    3.77
   1  -4  11    4.39    2.60
  -1  -4 -11    5.15    3.83
  -1  -4  11    7.00    3.84
   1  -4  11    5.16    3.53
  -1   4  11    3.72    3.49
   1   4  11    4.57    2.76
  -1   4  11    2.60    1.94
  -1  -4  11    3.86    2.76
  -1  -4  11    2.92    3.14
  -1  -4 -12   69.31   10.88
   1  -4  12   64.52   10.59
  -1  -4  12   70.86   10.61
   1   4  12   64.65   10.07
  -1   4  12   89.53   12.63
  -1   4  12   77.14   11.24
   1  -4  12   64.57   11.06
  -1  -4  12   77.31   11.73
   1   4  12   71.01   11.84
  -1  -4  12   81.08   12.29
  -1  -4  13   81.34   12.76
   1  -4  13   78.13   12.21
   1   4  13   55.60   10.41
   1  -4  13   75.16   12.42
   1   4  13   77.59   11.60
  -1  -4  13   78.25   12.94
  -1  -4  13   79.85   12.03
   1  -4  13   74.23   11.33
  -1   4  13   58.43   10.27
  -1   4  13   57.84    9.90
   1   4  14  383.49   27.52
  -1   4  14  370.95   26.42
  -1  -4  14  385.81   28.20
   1  -4  14  406.60   28.31
  -1  -4  14  369.49   27.31
  -1  -4  14  374.95   26.88
   1  -4  14  385.93   28.33
  -1   4  14  405.30   28.67
   1  -4  14  406.25   28.53
   1   4  14  381.16   26.75
  -1  -4  15   29.10    8.11
   1   4  15   34.97    8.76
  -1  -4  15   24.01    6.71
  -1   4  15   40.90    9.71
   1   4  15   32.65    8.64
  -1  -4  15   23.15    6.33
  -1   4  15   39.74    9.04
   1  -4  15   13.95    6.07
   1  -4  15   31.51    9.40
   1   4  16   44.62    9.83
  -1  -4  16   23.41    8.29
  -1  -4  16   17.89    4.99
   1  -4  16   37.04    9.62
   1   4  16   32.26    8.78
  -1   4  16   34.61    7.57
  -1   4  16   33.62    7.83
   1  -4  16   32.60    9.24
   1   4  17  238.40   23.16
  -1  -4  17  275.28   26.07
   1  -4  17  309.89   26.71
   1  -4  17  277.40   26.04
  -1  -4  17  246.54   23.96
  -1   4  17  271.06   24.23
   1   4  17  263.36   25.16
  -1   4  17  294.33   26.27
   1  -4  18  180.50   21.13
   1  -4  18  205.54   22.88
  -1  -4  18  177.94   22.07
  -1  -4  18  180.97   22.00
  -1   4  18  208.29   21.79
  -1   4  18  168.91   19.94
   1   4  18  167.69   19.97
   1   4  18  176.91   20.17
   1  -4  19  133.70   18.59
  -1   4  19   94.52   15.90
  -1  -4  19  134.32   19.19
  -1   4  19   95.55   15.83
   1   4  19  107.89   16.89
   1   4  19   99.26   15.80
  -1  -4  19   98.76   15.67
   1  -4  19  121.10   17.61
  -1   4  20    1.35    2.34
   1   4  20   -3.68    5.17
  -1  -4  20   -0.04    1.24
  -1  -4  20    2.88    5.04
   1  -4  20    1.92    1.69
  -1   4  20   -0.28    3.37
   1   4  20   -1.25    3.64
   1  -4  20   -1.06    3.73
  -1   4  21   62.24   13.01
  -1  -4  21   67.37   13.58
   1   4  21   63.82   14.68
  -1  -4  21   55.51   11.91
   1  -4  21   71.99   14.90
   1  -4  21   70.55   14.00
  -1   4  21   78.72   14.57
   1   4  21   84.61   14.97
   1   4  22   48.63   12.04
  -1   4  22   61.56   12.29
   1   4  22   35.75    9.33
  -1  -4  22   43.15   11.72
  -1  -4  22   53.04   12.27
   1  -4  22   30.21    9.63
  -1   4  22   51.98   11.84
   1  -4  22   36.29   10.81
  -1   4  23  226.18   25.99
  -1  -4  23  250.30   28.53
  -1  -4  23  254.33   27.57
  -1   4  23  205.94   24.69
   1  -4  23  251.85   28.49
   1   4  23  216.71   24.03
   1  -4  23  238.30   26.20
   1   4  23  191.74   23.96
  -1  -4  24   18.69    9.20
   1   4  24    7.96    5.40
   1  -4  24    5.66    6.93
  -1   4  24   -0.71    3.24
  -1   4  24   -3.67    3.38
   1   4  24    2.12    5.11
  -1  -4  24   -1.11    2.01
   1  -4  24    5.05    5.08
  -1  -4  25   -1.80    4.46
  -1  -4  25    2.66    4.94
   1   4  25    0.72    4.15
  -1   4  25    4.87    5.69
   1  -4  25    1.55    3.99
   1  -4  25    2.52    1.75
  -1   4  25   -2.98    3.72
   1   4  25   -2.67    2.05
  -1   4  26    4.61    4.74
  -1  -4  26   17.66    8.62
   1   4  26   25.87    9.12
   1  -4  26   32.10   10.54
  -1   4  26   48.70   13.48
   1   4  26   29.05    9.39
  -1  -4  26   21.42    8.44
   1  -4  26   24.47    9.03
   1  -4  27    5.39    2.32
  -1   4  27   34.54   11.36
  -1  -4  27   29.96   11.21
  -1   4  27   30.17   10.55
  -1  -4  27   29.54   10.32
   1   4  27   38.82   12.81
   1   4  27   24.36   10.31
   1  -4  27   32.38   11.27
  -1  -4  28   -5.82    4.59
   1  -4  28    2.55    6.22
   1  -4  28   -0.03    3.26
   1   4  28   -1.02    2.56
   1   4  28    3.29    3.06
  -1  -4  28    3.78    6.50
  -1   4  28   -2.78    4.57
  -1   4  28    6.02    5.37
   1   4  29   -0.87    5.43
  -1  -4  29    5.80    5.36
   1  -4  29    1.68    2.40
  -1  -4  29    8.39    2.44
   1   4  29   -1.00    4.31
  -1   4  29    2.35    3.21
  -1   4  29    1.30    2.04
   1  -4  29    9.66    3.66
   1  -4  30   13.61    5.00
   1   4  30   32.83   10.47
   1   4  30   26.37    9.98
  -1   4  30    9.56    6.94
   1  -4  30   24.60    7.22
  -1   4  30   17.59    6.87
  -1  -4  30   14.49    7.99
  -1  -4  30   18.65   10.74
  -1  -4  31   23.84   10.61
   1   4  31   14.18    8.67
  -1  -4  31   29.22   11.80
   1  -4  31   15.11    5.70
  -1   4  31   14.32    8.46
   1   4  31   14.55    6.72
   1  -4  31   18.93   10.12
  -1   4  31   22.45    9.47
  -1  -5   0   -0.79    0.85
   1  -5   0   -2.25    0.95
   1  -5   0    2.62    2.30
  -1  -5   0    3.05    2.50
  -1   5   1  671.97   27.70
   1  -5   1  674.45   29.79
  -1  -5   1  600.55   29.11
  -1  -5  -1  666.40   26.30
   1  -5  -1  673.50   29.05
  -1  -5  -1  622.05   29.47
   1  -5  -1  634.99   28.22
   1  -5   1  635.71   27.93
  -1  -5   1  673.49   26.37
   1   5   2    6.58    1.77
  -1  -5  -2    9.87    4.08
   1  -5   2    5.34    1.84
   1  -5   2    2.80    1.87
  -1   5   2    8.64    3.93
   1  -5  -2    4.18    2.05
  -1  -5   2    8.63    4.50
   1  -5  -2    4.57    3.44
  -1  -5   2    1.53    0.74
  -1  -5   3   28.21    7.40
   1   5   3   36.56    4.15
   1  -5  -3   45.67    7.15
   1  -5   3   30.74    6.81
  -1   5   3   29.72    5.70
   1   5   3   30.32    6.12
  -1  -5   3   32.66    6.39
   1  -5   3   22.31    5.22
  -1  -5  -3   40.40    8.21
   1  -5   4   74.61   10.64
   1   5   4   69.97    6.63
  -1  -5  -4   70.64   10.02
   1  -5  -4   77.24   10.06
  -1   5   4   79.19    9.55
   1   5   4   74.93    9.75
  -1  -5   4   78.39    8.91
   1  -5   4   75.09    9.44
  -1  -5   4   90.00   11.55
  -1  -5   5   79.21    8.74
  -1   5   5   73.51    9.41
   1  -5  -5   63.17    9.15
   1  -5   5  104.34   12.21
   1   5   5   84.94    7.42
  -1  -5  -5   68.08    9.59
  -1  -5   5   87.91   12.13
  -1  -5   5   93.04   10.26
   1  -5   5   75.28   10.27
  -1   5   5   67.46    9.76
   1   5   5   89.22   11.04
   1  -5   6   67.56    9.71
  -1  -5  -6   56.04    9.36
  -1   5   6   58.46    9.44
   1  -5  -6   69.34   10.14
   1   5   6   60.50    8.99
  -1  -5   6   72.04    8.99
   1   5   6   66.50    7.11
  -1   5   6   64.95    8.90
   1  -5   6   73.37   10.60
  -1  -5   6   69.95   10.11
  -1  -5   6   73.98    9.54
   1  -5   7    0.08    2.03
  -1   5   7    0.29    1.99
   1  -5   7    0.56    1.82
  -1  -5   7   -0.82    1.14
   1   5   7    2.27    0.83
   1   5   7    3.00    3.30
  -1  -5   7   -0.77    2.60
  -1  -5  -7    0.11    2.05
  -1   5   7    2.68    4.03
  -1  -5   7    0.01    1.13
   1  -5  -7    0.69    2.91
  -1  -5   8  652.13   29.35
  -1   5   8  662.55   29.52
  -1   5   8  632.49   31.94
   1   5   8  650.59   31.35
   1  -5   8  665.05   31.81
  -1  -5  -8  677.90   33.26
  -1  -5   8  632.34   29.12
   1  -5  -8  642.64   32.72
  -1  -5   8  662.96   33.48
   1   5   8  608.10   25.13
   1  -5   8  712.46   34.24
  -1  -5   9 1054.48   43.01
   1  -5   9 1023.54   41.91
  -1   5   9 1079.32   42.44
  -1  -5  -9  917.69   41.42
   1  -5   9 1033.64   40.68
  -1   5   9 1057.02   39.18
   1  -5  -9  983.14   41.25
   1   5   9 1044.64   34.45
   1   5   9 1046.35   40.81
  -1  -5   9 1076.28   40.03
  -1  -5   9 1032.33   38.42
  -1  -5  10    0.83    3.60
   1  -5  10   -1.12    2.27
  -1  -5 -10    1.04    3.35
   1  -5  10   -0.39    2.08
  -1  -5  10   -0.61    2.46
  -1  -5  10    2.31    1.08
   1  -5 -10   -1.70    2.09
   1   5  10    3.81    3.14
  -1   5  10    2.67    2.93
   1   5  10    0.84    2.86
  -1   5  10   -1.23    2.87
  -1   5  11  116.60   14.03
  -1   5  11  127.75   15.37
  -1  -5  11  129.52   15.28
   1  -5 -11  118.10   15.30
   1   5  11  116.23   12.70
  -1  -5 -11  137.11   15.94
   1  -5  11  124.78   14.92
   1   5  11   96.18   13.14
  -1  -5  11  136.27   15.19
  -1  -5  11  128.02   14.56
   1  -5  11  105.05   14.29
  -1  -5  12    6.92    4.97
   1  -5  12    1.76    1.29
   1   5  12    0.58    1.38
  -1   5  12    2.10    2.43
  -1  -5  12    2.05    1.11
  -1  -5  12    0.94    2.69
  -1   5  12    2.08    3.33
   1   5  12    1.43    1.83
   1  -5 -12    6.55    4.46
   1  -5  12    2.48    3.53
  -1  -5 -12    0.32    2.79
  -1   5  13   43.25    9.39
   1  -5  13   46.68   10.30
   1   5  13   58.46    9.86
   1  -5  13   53.96    9.75
  -1  -5  13   52.71    9.97
  -1  -5 -13   51.20   10.10
  -1  -5  13   43.15    9.12
  -1  -5  13   39.57    9.96
  -1   5  13   45.53    9.33
   1   5  13   44.34    9.25
   1  -5 -13   56.88   11.19
   1  -5  13   47.75    9.60
   1   5  14  170.16   17.24
  -1   5  14  169.67   18.59
   1  -5 -14  161.43   20.30
  -1  -5  14  141.63   18.44
   1   5  14  193.29   19.92
  -1  -5  14  210.54   20.35
   1  -5  14  190.71   20.38
   1  -5  14  195.67   20.49
  -1  -5 -14  203.98   21.06
  -1  -5  14  176.71   19.67
  -1   5  14  159.14   18.40
   1  -5  14  148.46   17.92
   1  -5  15   90.73   14.38
   1  -5  15   72.14   12.56
  -1   5  15   89.39   14.46
   1   5  15  114.12   15.65
  -1  -5  15   90.99   14.74
  -1  -5  15   87.15   14.74
   1   5  15  107.64   14.33
   1  -5  15  127.23   16.68
  -1  -5 -15   99.25   15.48
  -1  -5  15  112.52   15.49
  -1   5  15  107.22   14.84
   1   5  16   88.18   13.25
  -1   5  16   70.61   13.16
   1   5  16   96.57   15.21
  -1  -5  16   60.43   13.19
  -1  -5  16   61.09   11.72
  -1  -5 -16   83.35   14.38
  -1  -5  16   65.79   12.27
   1  -5  16   85.46   14.04
  -1   5  16   76.38   14.29
   1  -5  16   60.95   11.87
   1  -5  16   81.78   14.04
  -1  -5 -17   29.96    9.48
   1  -5  17   39.15    9.38
  -1  -5  17   47.90   11.70
   1   5  17   48.46   10.52
  -1   5  17   37.04   10.00
   1  -5  17   41.68   10.54
  -1  -5  17   54.71   11.30
   1   5  17   44.09   10.51
  -1  -5  17   57.08   11.35
  -1   5  17   40.16   10.29
   1  -5  18   -3.16    3.95
  -1   5  18    0.35    2.88
  -1  -5  18    0.64    3.47
  -1  -5 -18    5.56    5.04
   1   5  18   -1.17    4.35
  -1   5  18   -1.28    3.05
   1  -5  18   -1.39    2.62
   1   5  18    0.10    3.11
  -1  -5  18    1.33    3.47
   1  -5  19   23.88    7.34
  -1   5  19   46.28   11.83
  -1   5  19   55.76   11.39
   1  -5  19   41.06   11.12
  -1  -5  19   63.76   12.33
   1   5  19   25.93    8.02
  -1  -5  19   50.98   12.06
   1   5  19   43.64   10.11
  -1   5  20   41.33   11.63
   1   5  20   66.57   15.22
  -1  -5  20   70.77   13.64
   1   5  20   87.14   15.63
  -1  -5  20   94.33   17.25
   1  -5  20   80.62   15.35
   1  -5  20   70.56   14.08
  -1   5  20   46.36    9.30
  -1   5  21   53.98   12.96
   1   5  21   54.12   12.12
  -1   5  21   59.25   12.99
  -1  -5  21   42.11   10.98
   1   5  21   54.53   13.22
  -1  -5  21   43.79   11.59
   1  -5  21   62.21   13.00
   1  -5  21   44.73   11.71
   1   5  22    2.71    4.01
  -1   5  22   11.26    3.85
  -1   5  22   25.94    8.49
   1  -5  22   10.54    2.50
   1  -5  22   16.89    9.09
  -1  -5  22   23.56    6.92
  -1  -5  22   23.47    9.60
   1   5  22   13.02    6.16
   1  -5  23   46.42   12.94
   1   5  23   29.44   11.01
   1  -5  23   24.59    8.91
   1   5  23   14.36    6.80
  -1  -5  23    8.72    4.85
  -1  -5  23   15.29    6.72
  -1   5  23   21.56    7.52
  -1   5  23   18.30    7.73
   1   5  24    1.09    5.35
  -1  -5  24    0.31    2.32
  -1  -5  24   -0.43    3.63
  -1   5  24    4.28    4.45
   1  -5  24    4.16    7.75
  -1   5  24    4.59    4.17
   1   5  24   -1.25    6.91
   1  -5  24   -2.37    4.40
  -1   5  25   -1.65    2.04
   1  -5  25   -3.46    6.11
  -1  -5  25    3.12    6.20
   1  -5  25    3.98    5.56
   1   5  25    4.86    5.14
   1   5  25    2.58    5.04
  -1  -5  25    3.85    2.98
  -1   5  25   -2.10    5.24
  -1  -5  26   29.06   11.62
   1  -5  26   23.90    8.69
  -1   5  26   22.15    9.22
   1   5  26   27.83    8.68
   1   5  26   44.92   12.35
   1  -5  26   28.54    9.15
  -1  -5  26   55.82   14.59
  -1   5  26   23.94    9.25
   1   5  27   15.91    9.83
   1   5  27    7.79    5.20
  -1   5  27   -6.45    8.33
   1  -5  27   -0.97    2.88
  -1  -5  27    3.51    3.67
   1  -5  27   11.80    6.96
  -1   5  27   11.53    6.15
  -1  -5  27    9.85    6.96
  -1   5  28   -6.80    7.15
   1  -5  28   -2.76    7.14
   1   5  28   -6.05    7.52
   1   5  28    2.53    6.52
  -1   5  28   -0.77    4.75
   1  -5  28    7.82    5.07
  -1  -5  28    5.10    3.85
  -1  -5  28   -0.25    4.62
  -1   5  29    9.36    5.83
  -1   5  29   19.11    8.50
   1  -5  29   11.22    9.72
  -1  -5  29   24.80    8.36
   1  -5  29   41.68   13.29
  -1  -5  29   17.45    8.78
   1   5  29   20.33    8.65
   1   5  29   27.05   10.58
   1  -5  30   11.39    9.13
  -1   5  30   10.25    5.76
  -1  -5 -30   -0.09    6.52
   1  -5  30   27.05   11.37
  -1  -5  30    6.36    3.21
  -1  -5  30    5.98    7.98
   1   5  30    5.28    6.86
  -1   5  30   17.36    8.79
   1   5  30   11.98    8.11
   1   5  31   27.41   11.98
  -1   5  31   16.71    6.88
  -1  -5  31   23.56    9.36
   1  -5  31   24.68    8.00
   1   5  31   36.89   12.50
  -1  -5 -31    9.68    8.11
   1  -5  31   12.67    6.32
  -1  -5  31   11.04    6.72
  -1   5  31   21.44   11.59
  -1  -6   0   -1.37    1.48
   1  -6   0    2.39    2.79
   1  -6   0   -1.82    0.95
  -1  -6   0   -0.48    2.71
   1  -6  -1 1941.09   53.16
  -1  -6  -1 2037.56   51.04
  -1  -6   1 1935.03   49.41
   1  -6   1 2011.62   56.54
   1  -6  -1 1950.59   54.56
  -1   6   1 1997.73   50.48
  -1  -6  -1 1984.40   56.46
   1  -6   1 1925.79   53.51
  -1  -6   1 1911.01   55.86
  -1  -6  -2   35.21    7.10
   1  -6   2   29.08    6.75
   1  -6  -2   30.50    6.97
   1  -6  -2   22.33    5.29
  -1  -6   2   28.56    5.74
   1  -6   2   15.54    5.15
  -1  -6  -2   37.42    7.83
  -1  -6   2   24.53    6.51
  -1   6   2   29.77    6.29
   1  -6   3  486.36   26.93
   1  -6  -3  413.77   25.07
   1   6   3  520.41   17.92
  -1   6   3  463.74   24.10
   1  -6   3  492.07   28.18
   1  -6  -3  471.78   27.54
  -1  -6  -3  484.07   27.24
  -1  -6   3  453.94   24.21
  -1  -6   3  469.44   28.42
   1   6   4   27.32    4.00
   1  -6   4   44.18    8.48
  -1  -6   4   33.53    7.78
  -1   6   4   33.70    6.64
   1  -6  -4   46.28    8.36
  -1  -6   4   33.24    6.49
   1   6   4   26.42    5.98
   1  -6   4   22.82    5.76
  -1  -6  -4   38.05    7.82
   1   6   5 1243.84   42.43
   1   6   5 1246.12   32.00
  -1   6   5 1288.41   41.89
   1  -6   5 1263.33   43.99
   1  -6   5 1288.95   46.93
  -1  -6   5 1330.43   42.35
  -1  -6   5 1346.03   49.42
  -1  -6  -5 1262.39   46.31
   1  -6   6   39.23    7.88
  -1   6   6   55.67    9.06
  -1  -6   6   50.74    9.81
  -1  -6   6   45.86    7.13
   1   6   6   52.89    6.62
   1   6   6   50.34    8.51
   1  -6   6   57.28    9.63
  -1  -6  -6   34.42    9.01
   1  -6  -6   35.82    7.71
  -1   6   6   41.97    8.37
  -1  -6   6   42.88    7.68
   1  -6   7  213.22   18.49
  -1  -6   7  238.25   18.37
  -1   6   7  211.54   17.61
  -1  -6  -7  204.69   19.09
   1  -6   7  217.14   19.74
  -1  -6   7  241.10   20.81
   1  -6  -7  220.25   19.52
  -1  -6   7  246.89   18.06
   1   6   7  235.85   15.33
   1   6   7  236.42   19.66
  -1   6   7  252.79   20.60
   1  -6  -8  146.73   16.65
   1   6   8  129.62   14.62
   1  -6   8  144.73   15.26
  -1   6   8  150.81   14.96
   1  -6   8  143.88   16.23
  -1  -6  -8  177.84   17.97
  -1  -6   8  137.62   16.44
   1   6   8  152.62   12.62
  -1  -6   8  172.82   16.20
  -1   6   8  138.33   15.59
  -1  -6   8  191.22   16.66
  -1  -6   9  684.27   32.49
  -1  -6  -9  591.34   33.28
   1  -6   9  600.28   33.84
  -1  -6   9  625.37   31.40
  -1   6   9  603.09   31.35
   1  -6   9  633.30   33.44
  -1   6   9  643.63   34.64
   1  -6  -9  607.12   34.71
   1   6   9  660.90   33.92
  -1  -6   9  571.01   33.78
   1   6   9  619.06   27.12
   1  -6  10  121.32   15.32
  -1  -6  10  204.02   20.35
  -1  -6 -10  142.48   16.52
  -1  -6  10  125.28   14.64
  -1   6  10  131.87   15.01
   1   6  10  130.63   14.98
   1  -6  10  132.73   15.92
   1   6  10  153.49   14.27
  -1  -6  10  130.38   14.90
   1  -6 -10  152.25   16.93
  -1   6  10  166.39   17.57
  -1  -6 -11  409.30   28.43
   1  -6 -11  424.10   29.45
  -1  -6  11  450.87   28.59
   1   6  11  410.57   24.70
  -1   6  11  317.08   24.83
  -1  -6  11  393.21   26.03
  -1   6  11  404.70   26.50
   1  -6  11  404.92   27.87
   1   6  11  368.45   26.31
   1  -6  11  407.95   28.70
  -1  -6  11  314.88   25.49
  -1   6  12  412.53   29.43
   1  -6  12  371.59   27.42
   1  -6 -12  439.61   31.08
   1   6  12  382.07   25.21
  -1  -6 -12  439.90   30.18
   1  -6  12  431.89   29.44
  -1   6  12  422.98   28.27
  -1  -6  12  470.55   30.12
  -1  -6  12  398.48   27.35
   1   6  12  441.12   30.04
  -1  -6  12  433.45   30.08
  -1   6  13  229.31   21.24
   1  -6 -13  218.14   21.87
   1   6  13  222.78   19.81
  -1  -6  13  204.41   20.25
   1  -6  13  189.14   20.19
   1   6  13  217.45   21.73
  -1  -6  13  186.82   19.93
  -1  -6 -13  232.41   23.05
   1  -6  13  236.25   22.81
  -1  -6  13  232.28   22.61
  -1   6  13  194.12   20.33
   1  -6  14   36.76    8.91
   1  -6  14   28.88    7.88
  -1  -6  14   23.84    6.53
   1  -6 -14   20.67    6.51
  -1   6  14   20.31    7.19
   1  -6  14   51.60   11.02
   1   6  14   40.14    9.38
  -1  -6 -14   21.25    7.09
  -1   6  14   31.85    9.62
  -1  -6  14   37.02    9.40
   1   6  14   32.69    8.42
  -1  -6  14   16.43    7.62
  -1  -6 -15  167.91   20.26
   1  -6  15  186.38   20.73
   1   6  15  139.03   17.15
   1  -6  15  221.14   22.89
   1  -6  15  197.17   21.63
   1   6  15  212.58   22.84
   1  -6 -15  159.89   19.82
  -1  -6  15  205.35   21.77
  -1   6  15  173.73   20.45
  -1  -6  15  216.03   22.49
  -1   6  15  178.46   19.80
  -1  -6  15  163.34   20.24
  -1  -6  16   18.90    7.21
   1   6  16    3.55    4.97
   1  -6 -16    7.24    3.92
  -1   6  16    3.18    3.54
  -1  -6  16    3.38    2.75
   1  -6  16   13.17    5.60
  -1   6  16    6.37    2.86
   1  -6  16    6.99    4.43
  -1  -6 -16    6.71    5.47
   1   6  16    4.01    2.51
   1  -6  16    8.01    4.41
  -1  -6  16   11.23    7.62
  -1   6  17    3.59    5.89
  -1  -6  17    5.13    6.30
   1  -6  17    1.11    2.73
   1  -6 -17    3.64    5.93
   1   6  17   -3.13    4.06
  -1  -6 -17    4.18    3.13
   1   6  17    1.76    6.12
  -1  -6  17    4.69    4.98
   1  -6  17    2.40    2.19
  -1  -6  17   -5.73    6.28
   1  -6  17    0.08    2.11
  -1   6  17    2.07    4.29
   1  -6  18   25.05    9.47
  -1  -6  18   12.48    4.67
  -1  -6  18    9.33    4.75
   1  -6  18   23.15    9.71
  -1  -6 -18   30.57   10.41
  -1  -6  18   14.42    6.19
   1   6  18    8.30    4.04
   1   6  18   19.43    7.94
   1  -6 -18   18.46    7.50
  -1   6  18   18.50    8.71
   1  -6  18   24.68    8.70
  -1   6  18   11.05    5.08
   1  -6  19    2.42    5.43
   1  -6 -19   -1.89    5.23
   1  -6  19   -0.13    3.35
   1   6  19    2.91    2.80
   1   6  19    2.96    2.09
  -1   6  19   -1.79    3.92
  -1  -6  19    1.63    4.82
  -1   6  19    5.74    3.28
  -1  -6  19    5.38    6.00
  -1  -6 -19   -0.04    4.52
   1  -6 -20  150.23   20.43
  -1   6  20  190.63   23.15
  -1  -6  20  151.47   20.96
  -1  -6 -20  171.01   21.59
  -1   6  20  177.25   22.18
   1  -6  20  155.68   21.10
   1  -6  20  172.26   22.90
   1   6  20  173.02   22.40
   1   6  20  158.63   20.05
  -1  -6  20  139.43   20.49
   1  -6 -21    5.97    2.19
  -1   6  21    1.95    5.84
   1  -6  21   -2.81    4.19
  -1  -6  21    3.63    2.52
  -1   6  21   -1.46    3.98
   1   6  21   -1.35    4.68
  -1  -6  21   -2.69    4.03
   1   6  21    1.06    4.76
   1  -6  21    0.95    6.64
  -1  -6 -21   -0.84    4.20
   1   6  22  137.94   19.66
   1  -6  22  121.71   20.04
  -1  -6 -22  107.24   18.55
  -1  -6  22   97.00   17.28
   1  -6  22  125.07   19.45
   1  -6 -22  109.00   18.89
   1   6  22  106.53   18.62
  -1   6  22  115.22   18.99
  -1   6  22  107.96   17.89
  -1  -6  22  106.54   18.90
  -1  -6  23   19.91    8.06
  -1   6  23   17.77    9.19
   1  -6  23    5.29    5.31
  -1  -6  23    9.42    3.94
  -1   6  23   16.78    8.10
   1   6  23    5.44    3.12
   1   6  23   26.83    8.91
   1  -6 -23   35.49    9.90
  -1  -6 -23   18.39   10.01
   1  -6  23   16.96    8.45
   1  -6  24   41.16   11.58
   1  -6  24   32.24    9.79
   1   6  24   39.81   11.40
   1   6  24   34.25   10.44
  -1   6  24   30.06   10.08
  -1   6  24   28.35    8.87
   1  -6 -24   23.88    7.22
  -1  -6 -24   12.00    8.71
  -1  -6  24   27.92    8.63
  -1  -6  24   30.40    9.07
   1  -6 -25    8.41    6.61
   1  -6  25    3.24    1.92
  -1  -6 -25    8.29    7.53
   1   6  25   -1.66    4.43
  -1   6  25   15.81    9.97
   1   6  25   -0.68    5.44
   1  -6  25   15.21   10.42
  -1   6  25   12.87    7.77
  -1  -6  25   -2.59    6.34
  -1  -6  25    3.86    1.72
  -1   6  26   24.44    8.43
   1   6  26   10.35    5.30
  -1  -6  26   17.54    6.99
   1  -6  26    3.20    3.35
  -1  -6 -26   -1.30    5.25
   1   6  26   12.22    7.81
   1  -6 -26   10.62    6.97
  -1  -6  26    7.00    2.22
  -1   6  26    3.32    5.81
   1  -6  26   33.52   12.41
  -1   6  27   -4.12    6.37
   1  -6 -27   17.51    9.19
  -1  -6  27   13.82    9.47
   1  -6  27   13.39    7.92
  -1  -6 -27   -2.06    5.84
   1   6  27    8.89    4.14
   1   6  27    3.64    3.75
   1  -6  27   15.39    9.02
  -1   6  27    7.42    7.76
  -1  -6  27   11.28    7.02
  -1   6  28   51.03   12.44
   1   6  28   84.13   18.23
   1  -6  28   71.53   15.92
   1  -6 -28   58.75   15.94
  -1  -6  28   30.45   11.35
  -1  -6  28   50.88   12.81
   1  -6  28   90.67   17.71
  -1   6  28   89.08   16.79
   1   6  28   65.08   15.37
  -1  -6 -28   58.79   16.59
  -1  -6  29   -3.72    4.51
   1  -6 -29    0.86    2.07
  -1   6  29   -1.51    5.02
   1  -6  29    7.31    7.20
  -1   6  29   -0.90    3.22
   1   6  29    5.85    9.10
   1  -6  29    4.04    3.61
  -1  -6 -29    4.00    5.22
  -1  -6  29   -5.40    4.23
   1   6  29   -3.81    3.45
   1   6  30    5.21    7.25
   1  -6  30   17.02    8.22
   1  -6  30   38.77   11.65
  -1  -6 -30   39.61   11.42
   1   6  30   18.04    6.79
   1  -6 -30   31.53    9.53
  -1  -6  30   31.93   11.79
  -1  -6  30   21.02    8.71
  -1   6  30   15.18    8.62
  -1   6  30   34.32   10.09
  -1  -7   0   -3.14    1.34
   1  -7   0   -0.07    1.11
  -1  -7   0   -0.17    2.43
   1  -7   0    2.64    2.50
  -1  -7   1  174.91   18.46
  -1  -7   1  185.99   16.64
  -1  -7  -1  154.71   17.09
   1  -7   1  173.84   17.48
   1  -7   1  171.33   17.46
   1  -7  -1  160.84   16.97
  -1  -7  -1  173.26   16.03
   1  -7  -1  176.57   17.63
   1  -7  -2   15.32    5.47
   1  -7  -2   10.11    4.43
   1  -7   2   13.62    4.69
  -1  -7  -2   19.16    5.20
  -1   7   2   13.30    4.02
  -1  -7   2   13.37    4.03
   1  -7   2   23.69    7.39
  -1  -7   2   14.14    6.36
  -1  -7  -2   12.45    3.77
   1  -7  -3   15.45    5.15
  -1  -7   3   15.62    5.45
   1  -7   3   15.14    3.43
   1  -7  -3   20.52    5.66
  -1  -7  -3   17.05    4.94
   1  -7   3   10.31    4.10
  -1  -7   3   22.20    7.32
  -1  -7  -3   25.53    7.82
  -1   7   3   15.85    5.34
   1  -7   4  168.37   17.66
  -1  -7  -4  163.75   17.35
   1  -7  -4  173.52   18.13
  -1  -7   4  182.00   16.41
  -1  -7   4  170.05   19.39
   1  -7  -4  141.37   15.63
   1   7   4  154.31   11.27
   1  -7   4  133.40   14.91
  -1   7   4  150.69   14.71
   1   7   5  561.51   30.89
   1  -7   5  559.10   31.20
  -1  -7  -5  583.15   32.92
   1   7   5  529.70   21.58
   1  -7  -5  572.54   32.88
  -1   7   5  575.11   29.15
  -1  -7   5  593.25   34.79
  -1  -7   5  630.24   31.51
   1  -7   5  597.35   34.47
   1  -7  -6  171.31   17.94
   1  -7   6  146.24   16.16
   1   7   6  178.13   13.07
  -1  -7   6  168.38   15.01
  -1  -7   6  166.25   16.02
  -1  -7  -6  150.94   17.65
  -1   7   6  182.15   16.88
  -1  -7   6  166.33   18.55
   1  -7   6  188.30   19.69
   1   7   6  148.98   16.32
  -1  -7  -7    3.57    2.42
   1  -7   7    7.70    3.69
   1  -7   7    4.28    3.33
   1   7   7    3.06    2.90
  -1  -7   7    3.62    3.81
  -1  -7   7    4.70    3.25
   1   7   7    2.58    2.44
  -1   7   7    2.77    2.27
  -1   7   7    4.55    4.23
   1  -7  -7   -0.42    3.07
  -1  -7   7    1.16    2.82
   1  -7   8  143.89   16.15
   1  -7   8  125.08   15.82
  -1  -7   8  151.89   17.63
  -1   7   8  164.14   16.65
   1  -7  -8  120.01   15.50
  -1  -7  -8  113.23   15.67
  -1  -7   8  145.50   15.43
   1   7   8  131.82   15.73
  -1  -7   8  168.86   16.87
  -1   7   8  157.66   17.83
   1   7   8  150.24   13.23
   1  -7  -9   48.64   10.11
  -1  -7  -9   53.73   11.24
   1  -7   9   41.82    8.77
   1   7   9   39.67    8.64
   1  -7   9   40.89    8.74
  -1   7   9   43.23    8.63
   1   7   9   37.93    7.23
  -1  -7   9   50.03    9.34
  -1  -7   9   53.10    9.58
  -1  -7   9   62.88   11.39
  -1   7   9   52.27   11.00
  -1  -7  10   98.87   14.62
   1  -7  10   58.23   11.38
  -1   7  10   83.97   12.60
  -1  -7  10  120.69   14.41
  -1  -7  10   71.44   11.67
  -1   7  10  104.75   14.48
   1   7  10   69.94   11.75
  -1  -7 -10   85.17   14.09
   1  -7 -10   91.07   13.91
   1  -7  10   93.49   14.09
   1   7  10   88.50   11.11
  -1  -7 -11   -1.06    2.32
   1   7  11   10.56    5.39
  -1  -7  11    2.49    1.31
  -1  -7  11   13.40    4.08
   1  -7  11    7.88    5.87
  -1   7  11    3.86    3.82
   1   7  11    6.78    3.35
  -1  -7  11   11.18    5.64
  -1   7  11    3.05    3.38
   1  -7  11   19.40    7.14
   1  -7 -11   11.70    6.64
  -1  -7  12   15.39    5.72
   1   7  12   10.78    3.69
   1  -7  12    7.46    3.96
  -1   7  12   12.28    5.38
  -1  -7  12   10.38    3.96
  -1  -7  12    8.42    4.79
   1  -7 -12   22.00    8.00
   1  -7  12    7.20    4.07
  -1  -7 -12   12.39    5.89
   1   7  12    4.72    2.66
  -1   7  12   12.50    6.29
  -1  -7  13  271.93   25.25
  -1  -7 -13  303.53   26.69
  -1   7  13  336.70   29.02
   1   7  13  306.69   23.81
  -1   7  13  298.05   24.90
   1  -7  13  325.38   26.56
   1   7  13  371.59   29.26
  -1  -7  13  316.29   26.28
   1  -7  13  366.26   28.70
   1  -7 -13  326.03   29.98
  -1  -7  13  312.82   25.44
  -1   7  14  484.68   31.84
   1  -7 -14  421.42   31.99
  -1   7  14  486.14   34.53
   1  -7  14  487.62   34.42
  -1  -7  14  513.48   35.44
   1  -7  14  557.33   36.39
  -1  -7  14  526.64   34.19
   1   7  14  499.28   33.95
   1  -7  14  518.18   34.59
  -1  -7  14  477.47   33.51
   1   7  14  509.34   31.12
  -1  -7 -14  572.48   37.65
  -1  -7 -15    2.06    6.05
   1  -7  15    0.02    2.77
  -1  -7  15   -1.20    2.07
   1   7  15    1.24    1.19
   1   7  15    6.22    4.17
  -1  -7  15    2.34    1.83
   1  -7  15    5.38    4.65
   1  -7 -15   -0.59    1.71
  -1  -7  15   -0.81    1.85
  -1   7  15    3.40    4.38
   1  -7  15    2.18    3.41
  -1   7  15    3.40    3.77
  -1  -7  16    2.81    1.75
  -1   7  16    4.36    6.54
  -1   7  16   -3.13    3.19
   1  -7  16    1.12    2.87
   1   7  16    0.91    4.15
  -1  -7  16    9.04    5.03
  -1  -7 -16    5.08    4.12
   1   7  16    0.86    4.32
   1  -7 -16   -2.93    3.31
  -1  -7  16    1.25    2.51
   1  -7  16    1.87    2.94
   1  -7  16   -0.77    2.82
  -1   7  17  193.37   22.46
   1  -7 -17  194.07   22.66
   1  -7  17  218.81   24.70
  -1  -7  17  184.54   21.63
   1  -7  17  248.57   25.60
   1   7  17  206.59   22.87
  -1  -7  17  245.46   25.16
  -1  -7 -17  188.36   23.23
  -1   7  17  224.22   23.53
   1   7  17  191.21   23.09
  -1  -7  17  208.05   23.48
   1  -7  17  202.09   23.44
  -1  -7  18   60.55   12.60
  -1  -7  18   94.99   15.70
   1  -7  18   83.44   15.83
  -1   7  18   63.99   12.86
  -1  -7 -18   61.47   13.31
   1  -7  18   51.36   10.66
   1   7  18   73.81   14.25
   1   7  18   81.13   13.96
   1  -7  18   54.71   12.05
   1  -7 -18   72.22   14.45
  -1  -7  18   71.19   13.91
  -1   7  18   46.53   11.29
  -1   7  19   82.80   15.48
   1  -7  19  107.11   18.09
   1  -7  19   78.64   14.11
   1  -7 -19   99.57   17.42
  -1  -7  19   92.85   16.52
  -1  -7 -19   84.05   16.39
   1   7  19  117.09   16.88
  -1  -7  19   76.09   15.28
   1   7  19   88.93   15.31
   1  -7  19  100.44   17.81
  -1   7  19  101.27   16.63
  -1  -7  19   79.18   16.34
  -1  -7  20    0.63    4.38
   1   7  20    8.16    5.06
  -1   7  20    3.28    2.58
  -1  -7  20    4.26    3.02
  -1   7  20    3.33    2.15
  -1  -7 -20    0.14    1.53
  -1  -7  20    7.49    3.82
   1   7  20   -1.78    4.82
   1  -7  20    5.07    3.95
   1  -7 -20   11.22    4.77
   1  -7  20    2.01    4.33
  -1  -7  21    2.17    3.68
  -1  -7  21    4.76    4.92
  -1   7  21   11.80    8.29
   1   7  21    6.16    6.73
   1  -7 -21   12.34    4.91
   1  -7  21    8.13    7.51
  -1  -7 -21   11.65    6.71
   1  -7  21    8.65    4.86
   1   7  21   11.58    7.96
  -1   7  21   11.84    6.99
   1   7  22    6.97    4.05
  -1   7  22   -1.25    3.19
  -1  -7  22    0.77    2.28
  -1  -7  22    9.63    6.07
   1   7  22   -2.25    3.05
  -1   7  22    1.21    4.49
   1  -7  22    8.77   10.00
   1  -7  22    3.90    7.57
   1  -7 -22    0.86    4.83
  -1  -7 -22    2.89    3.78
  -1  -7  23   48.95   12.64
   1  -7  23   54.71   13.29
  -1   7  23   70.64   15.49
  -1  -7  23   72.88   15.86
   1  -7 -23   62.89   14.54
   1   7  23   56.17   13.70
   1  -7  23   70.33   15.68
  -1  -7 -23   47.18   13.37
   1   7  23   52.41   13.50
  -1   7  23   90.52   16.31
  -1  -7 -24   -4.00    6.02
   1   7  24    2.94    4.74
   1   7  24   -2.13    7.80
  -1  -7  24   -0.16    5.61
  -1   7  24   -1.02    2.81
   1  -7 -24    3.93    2.39
   1  -7  24   -1.17    5.32
  -1   7  24    4.28    4.94
  -1  -7  24    3.81    3.44
   1  -7  24   -0.57    4.12
  -1  -7  25    0.52    6.54
   1  -7 -25    7.66    7.03
   1  -7  25    3.36    6.38
  -1  -7  25    8.51    6.97
   1   7  25    0.96    3.14
  -1   7  25   10.31    6.70
  -1   7  25   -0.15    2.20
  -1  -7 -25    3.35    5.25
   1   7  25    4.20    5.76
   1  -7  25    1.20    2.03
  -1  -7  26    1.95    4.78
   1  -7 -26    8.59    4.69
  -1  -7 -26   11.59    8.57
   1   7  26    1.50    4.89
   1   7  26   -2.19    3.93
  -1  -7  26    4.15    6.81
  -1   7  26    7.21    4.70
   1  -7  26   -1.67    2.90
   1  -7  26    7.46    7.24
  -1   7  26    1.09    3.30
   1  -7  27   46.43   13.95
   1  -7  27   42.57   12.32
  -1  -7 -27   58.54   13.14
   1   7  27   16.54    7.64
   1  -7 -27   51.47   13.96
   1   7  27   26.82    9.58
  -1  -7  27   22.30    9.85
  -1   7  27   18.24   10.96
  -1  -7  27   38.18   13.82
  -1   7  27   38.19   13.07
   1   7  28   61.06   14.95
  -1  -7 -28   55.54   14.21
   1  -7  28   40.19   13.03
  -1  -7  28   29.17   11.96
  -1  -7  28   12.83    2.97
   1   7  28   39.29   13.50
  -1   7  28   15.96    6.65
   1  -7 -28   24.43    7.46
  -1   7  28   51.78   14.79
   1  -7  28   16.72    9.49
  -1  -7  29    5.38    5.10
  -1   7  29    1.17    3.01
  -1  -7 -29    5.00    3.77
   1   7  29   15.87    9.82
  -1   7  29   10.06    7.70
   1   7  29   -2.12    6.40
   1  -7 -29    4.82    6.84
  -1  -7  29    0.83    2.98
   1  -7  29    3.49    3.05
   1  -7  29    0.46    2.28
   1  -8   0    1.74    3.11
  -1  -8   0    1.12    4.69
   1  -8   0   -2.09    1.78
  -1  -8   0    1.17    2.55
  -1  -8  -1 1023.52   47.01
  -1  -8  -1  991.40   41.95
   1  -8  -1 1003.75   44.17
   1  -8   1 1003.85   43.48
   1  -8  -1  985.06   45.45
  -1  -8   1 1005.44   41.74
  -1  -8   1 1006.28   46.62
   1  -8   1  987.43   45.06
   1  -8  -2  151.50   16.95
  -1  -8   2  164.00   16.83
   1  -8   2  149.80   16.85
   1  -8   2  129.26   16.43
  -1  -8  -2   93.15   14.54
  -1  -8   2  159.89   18.51
  -1  -8  -2  144.38   16.17
   1  -8  -2  133.14   15.41
   1  -8   3   29.47    6.76
   1  -8   3   23.28    7.20
  -1  -8  -3   25.17    6.00
  -1  -8   3   22.68    7.21
   1  -8  -3   24.46    7.80
   1  -8  -3   26.89    7.71
  -1   8   3   23.10    7.09
  -1  -8   3   30.22    7.78
  -1  -8  -3   27.31    7.05
   1  -8  -4   13.62    6.98
  -1  -8   4    5.65    3.79
  -1  -8  -4    7.65    4.15
  -1   8   4   12.44    5.62
   1  -8   4    1.39    2.59
   1  -8  -4    5.90    2.23
   1  -8   4    8.37    4.89
  -1  -8  -4    4.66    5.44
  -1  -8   4    7.41    5.05
  -1  -8   5  989.66   47.01
   1  -8   5  894.13   44.33
   1   8   5  879.33   30.91
  -1  -8  -5  895.32   43.66
  -1  -8   5  903.82   39.80
   1  -8  -5  871.79   41.98
  -1   8   5  894.89   39.27
   1  -8  -5  985.42   45.28
   1  -8   5  862.80   41.14
   1  -8   6   36.99    9.08
  -1  -8   6   39.16    9.56
  -1  -8  -6   45.28   10.50
   1  -8  -6   29.65    8.75
   1   8   6   32.85    6.08
  -1   8   6   38.58    9.09
   1  -8   6   38.34   10.16
  -1  -8   6   49.55    8.52
  -1  -8   6   40.56    8.64
   1  -8   7  276.77   23.48
   1  -8   7  280.07   25.23
  -1  -8   7  242.58   19.64
  -1   8   7  291.88   22.57
  -1  -8   7  270.65   25.59
   1   8   7  280.73   17.95
   1  -8  -7  259.35   24.11
  -1  -8  -7  262.58   24.06
  -1  -8   7  275.15   22.22
   1   8   7  265.72   23.24
  -1  -8   8   13.90    5.85
   1  -8   8   14.16    6.15
  -1   8   8   13.22    3.20
   1   8   8   12.61    6.49
  -1  -8  -8    9.80    5.32
  -1  -8   8   16.30    4.94
  -1  -8   8   14.00    5.72
   1  -8   8   29.19    8.42
   1  -8  -8   19.84    8.26
   1   8   8   22.92    5.27
  -1  -8   9 1647.35   55.41
  -1   8   9 1623.69   59.78
  -1  -8   9 1742.32   58.71
   1   8   9 1643.26   48.91
   1   8   9 1516.17   57.70
  -1  -8  -9 1511.44   59.60
   1  -8   9 1696.97   59.71
   1  -8   9 1713.60   63.41
  -1  -8   9 1823.41   65.86
  -1   8   9 1811.03   59.36
   1  -8  -9 1701.89   62.48
   1  -8  10   41.62    9.18
  -1   8  10   47.96    9.55
   1   8  10   50.09    8.50
  -1  -8  10   43.83   10.25
   1   8  10   42.04   10.28
  -1  -8  10   39.23    9.56
   1  -8 -10   43.54    9.31
  -1  -8 -10   44.89   11.16
   1  -8  10   49.51   10.40
  -1  -8  10   39.51    9.44
  -1   8  10   28.49    6.44
   1  -8  11   14.90    5.86
   1   8  11   26.92    6.37
   1  -8  11   20.95    7.25
  -1  -8 -11   19.90    7.18
  -1  -8  11   18.15    5.90
   1   8  11   16.74    6.89
  -1  -8  11   29.96    8.24
  -1   8  11   18.32    6.85
  -1  -8  11   15.53    6.10
   1  -8 -11   19.24    5.98
  -1   8  11   32.47    8.29
   1  -8 -12  267.09   25.42
  -1  -8  12  220.40   21.10
   1  -8  12  319.95   27.26
  -1  -8 -12  274.69   25.55
  -1  -8  12  250.96   25.37
  -1   8  12  191.29   20.18
  -1  -8  12  249.35   23.61
   1  -8  12  221.58   23.43
   1   8  12  232.37   20.66
   1   8  12  235.98   23.19
  -1   8  12  209.09   22.11
   1  -8 -13  114.51   17.22
   1  -8  13  108.47   16.14
  -1  -8  13  113.25   16.81
  -1  -8 -13  127.97   18.23
   1   8  13   91.31   12.95
  -1   8  13  107.74   15.54
  -1   8  13   92.88   14.95
  -1  -8  13  127.70   17.60
   1   8  13  127.72   18.18
   1  -8  13  112.15   16.83
  -1  -8  13  112.62   16.17
  -1  -8  14    6.81    2.06
  -1  -8  14    8.12    6.82
   1  -8  14    4.74    4.13
   1  -8  14   12.99    5.15
   1  -8 -14   11.61    8.01
   1  -8  14    9.61    6.90
   1   8  14   10.69    3.79
   1   8  14   16.42    7.28
  -1   8  14    7.61    4.02
  -1  -8 -14    7.10    6.30
  -1   8  14   -0.99    2.16
  -1  -8  14   13.69    5.05
   1  -8  15   90.79   14.31
   1   8  15   63.33   11.96
   1  -8  15   75.15   13.88
  -1   8  15   84.97   15.01
  -1  -8 -15   75.70   13.63
   1  -8 -15   32.37    9.86
   1   8  15   98.77   16.05
  -1  -8  15   66.95   14.24
  -1  -8  15   93.64   16.17
  -1   8  15   66.19   12.79
   1  -8  15   66.53   14.40
  -1  -8  15   90.77   15.26
  -1   8  16    0.64    1.50
  -1  -8  16    1.19    3.39
  -1  -8  16    3.43    3.83
   1  -8  16    3.64    3.06
   1   8  16    7.24    5.08
   1  -8  16    7.92    5.37
   1  -8  16   11.60    4.54
  -1  -8 -16    3.89    5.41
  -1  -8  16    7.45    5.91
  -1   8  16   10.33    5.00
   1   8  16    7.33    4.66
   1  -8 -16    2.25    3.22
  -1  -8 -17  157.99   21.94
  -1   8  17  179.81   21.71
   1   8  17  142.91   18.05
   1  -8  17  175.10   21.53
   1   8  17  135.90   19.04
  -1   8  17  148.67   20.39
   1  -8  17  163.82   21.29
  -1  -8  17  128.97   19.11
  -1  -8  17  108.37   17.63
   1  -8  17  133.68   19.55
  -1  -8  18    0.98    3.98
   1  -8  18    1.65    1.99
  -1   8  18    7.85    8.11
   1   8  18    0.06    1.60
   1  -8 -18    2.05    2.17
  -1  -8 -18    4.19    4.90
  -1  -8  18    3.33    2.87
  -1   8  18    6.23    5.84
   1  -8  18    3.43    3.19
   1  -8  18    9.21    4.98
  -1  -8  18    7.15    8.16
   1   8  18    1.33    3.73
  -1  -8  19  280.92   28.46
   1   8  19  261.02   26.65
  -1  -8 -19  248.71   28.01
  -1   8  19  276.01   28.58
  -1  -8  19  239.25   25.99
  -1   8  19  210.86   24.81
   1  -8  19  216.00   25.27
   1   8  19  272.54   28.12
   1  -8  19  232.58   27.85
   1  -8  19  223.92   26.59
  -1  -8  19  212.33   25.92
   1  -8 -19  208.38   25.90
   1  -8  20   12.15    9.20
  -1   8  20    5.64    3.54
   1   8  20   -3.86    5.42
   1  -8  20   10.15    8.59
   1   8  20   -2.57    3.34
  -1  -8 -20   -0.87    2.68
  -1  -8  20   -2.29    5.39
  -1  -8  20   -6.51    4.67
  -1  -8  20   -1.41    4.09
   1  -8 -20    6.05    5.51
  -1   8  20    1.33    5.64
   1  -8  20   -0.45    4.03
  -1   8  21  115.18   18.80
   1  -8 -21   86.74   15.65
  -1   8  21   71.94   14.70
   1   8  21   73.45   14.91
  -1  -8  21   91.36   17.81
   1  -8  21   99.85   18.08
   1  -8  21  115.65   18.15
   1  -8  21   52.28   12.05
  -1  -8  21   91.05   16.97
  -1  -8  21   63.63   14.07
  -1  -8 -21   62.51   15.50
   1   8  21   89.12   15.96
  -1  -8  22    4.41    4.28
   1  -8 -22    4.80    6.55
  -1  -8  22   -0.58    3.47
  -1   8  22    2.17    1.88
  -1  -8 -22    2.19    6.20
  -1   8  22   12.37    6.11
   1  -8  22    3.48    6.45
   1  -8  22   10.98    9.88
   1   8  22    3.34    3.72
   1   8  22   23.92   10.38
   1  -8  23  109.22   20.09
   1  -8  23  112.25   19.51
   1   8  23  107.63   19.39
  -1  -8  23  111.88   19.74
  -1  -8 -23   52.10   14.99
  -1   8  23  113.26   18.24
   1   8  23   79.08   16.20
   1  -8 -23  109.43   19.36
  -1  -8  23  112.10   19.99
  -1   8  23  109.05   18.41
   1  -8  24   10.13    7.02
  -1  -8  24   -0.39    3.11
   1   8  24   -2.88    3.13
  -1  -8  24    7.48    5.22
  -1  -8 -24    5.39    4.83
  -1   8  24    3.97    3.08
  -1   8  24   -6.52    4.23
   1  -8  24   10.38    8.68
   1  -8 -24    3.39    5.14
   1   8  24   -0.08    2.86
  -1   8  25   10.04    7.60
   1  -8  25   12.07    4.21
  -1  -8  25   15.77    6.17
  -1  -8  25   16.95   10.26
  -1   8  25   30.58   10.76
   1  -8 -25   16.28    7.43
   1  -8  25   26.40    8.98
   1   8  25   11.12    6.53
  -1  -8 -25   12.91    8.29
  -1  -8 -26    7.46    8.85
   1  -8 -26    1.21    4.63
  -1  -8  26   -4.60    7.36
   1  -8  26    3.05    5.18
  -1  -8  26   -5.40    5.89
  -1   8  26    6.07    6.46
  -1   8  26   -4.48    5.19
   1  -8  26    0.03    3.38
   1   8  26   -5.04    3.57
   1  -8  27   97.45   20.36
  -1   8  27   86.41   19.02
  -1  -8 -27   67.91   16.47
   1   8  27   88.75   17.61
  -1  -8  27  101.77   18.83
   1  -8  27   84.49   17.42
   1  -8 -27   52.14   13.94
  -1  -8  27   98.55   20.62
  -1   8  27   82.64   16.50
  -1  -8  28   20.16   12.66
  -1   8  28   12.63    9.15
   1  -8  28    8.90    5.20
  -1  -8 -28   -2.78    5.15
  -1  -8  28    0.43    6.55
   1  -8 -28    0.26    3.42
  -1   8  28   13.96   10.32
   1  -8  28    7.50    2.81
   1   8  28    1.75    5.29
  -1  -9   0   -1.36    4.19
  -1  -9   0   -0.03    1.79
   1  -9   0    3.58    3.32
   1  -9   0    0.90    2.73
   1  -9  -1   45.56   10.40
  -1  -9  -1   37.14    8.76
  -1  -9   1   52.19   10.78
  -1  -9  -1   27.98    7.89
   1  -9  -1   45.46    9.63
   1  -9   1   45.42    9.53
   1  -9   1   23.45    7.81
  -1  -9   1   27.73    7.15
  -1  -9  -2  110.63   15.37
  -1  -9  -2  101.30   15.24
   1  -9   2  130.70   16.62
  -1  -9   2  117.21   17.16
   1  -9   2  124.11   17.21
   1  -9  -2  104.66   16.03
  -1  -9   2  128.62   16.22
   1  -9  -2  115.02   16.13
  -1  -9  -3  180.92   21.04
  -1  -9   3  156.32   19.80
   1  -9  -3  146.38   18.35
  -1  -9   3  154.86   17.81
  -1  -9  -3  159.54   17.83
   1  -9   3  160.08   19.89
   1  -9   3  166.31   18.76
   1  -9  -3  165.37   19.03
   1  -9  -4   57.41   12.38
  -1  -9  -4   49.38    9.79
  -1  -9  -4   61.97   12.16
  -1  -9   4   62.39   11.17
   1  -9   4   61.49   11.38
   1  -9   4   65.70   13.04
   1  -9  -4   52.05   10.21
  -1  -9   4   76.84   14.04
  -1   9   4   55.18   10.74
   1  -9  -5   11.69    5.54
   1  -9   5   11.23    3.58
  -1   9   5   13.93    5.24
  -1  -9  -5   21.47    8.45
   1  -9  -5   17.14    6.89
  -1  -9   5    8.68    4.92
  -1  -9  -5   10.17    5.58
  -1  -9   5    2.12    3.96
   1  -9   5   14.06    6.77
  -1  -9   6   90.99   11.83
  -1  -9   6   86.21   13.14
  -1  -9  -6  107.40   15.99
   1  -9  -6   82.74   14.61
   1  -9  -6  107.58   15.41
   1   9   6   91.73   11.14
   1  -9   6  103.15   16.25
  -1   9   6   79.80   12.60
   1  -9   6   87.18   13.66
  -1  -9   6  104.15   16.49
   1  -9   7    2.96    6.08
  -1   9   7    1.21    2.20
  -1  -9  -7    2.29    2.30
  -1  -9   7    2.36    2.86
   1  -9  -7   -2.31    4.55
  -1  -9   7    1.80    2.67
   1  -9   7    1.68    4.29
   1  -9  -7    4.08    6.19
   1   9   7   -1.04    2.02
  -1  -9   7    1.61    2.79
  -1  -9   8   38.03    9.33
   1  -9  -8   17.20    7.76
  -1  -9   8   32.58    7.54
  -1  -9  -8   34.42    8.64
   1   9   8   28.36    5.67
   1  -9   8   42.90    9.59
  -1  -9   8   34.00    8.91
   1  -9   8   19.57    7.34
  -1   9   8   26.91    6.94
  -1  -9  -9 1328.00   58.36
   1  -9   9 1397.20   56.42
  -1   9   9 1322.54   52.39
  -1  -9   9 1383.43   60.27
   1   9   9 1336.65   56.27
   1  -9  -9 1325.92   56.70
  -1  -9   9 1278.39   50.96
   1   9   9 1362.95   45.89
  -1  -9   9 1298.50   53.05
   1  -9   9 1341.87   59.12
   1  -9 -10   38.26    9.42
  -1   9  10   31.55    8.41
  -1  -9  10   45.21   10.43
   1  -9  10   49.74   12.58
  -1  -9  10   30.13    8.18
  -1  -9 -10   45.42   10.90
  -1  -9  10   22.77    7.14
   1  -9  10   27.19    8.17
   1   9  10   35.72    8.12
   1   9  10   40.51    9.60
   1   9  11   43.56   11.07
   1   9  11   44.03    8.81
   1  -9  11   26.69   10.34
   1  -9 -11   35.69    9.60
  -1  -9  11   52.29   11.19
  -1   9  11   35.88    9.44
  -1  -9  11   41.29    8.83
  -1   9  11   54.96   11.21
   1  -9  11   46.95   10.67
  -1  -9  11   35.11   11.61
  -1  -9 -11   50.74   11.31
  -1  -9 -12   14.06    6.44
  -1  -9  12   16.50    6.62
   1   9  12   13.25    6.84
   1  -9  12   15.21    7.30
  -1  -9  12    8.57    3.73
  -1  -9  12    2.83    2.77
   1  -9 -12    9.68    5.81
   1  -9  12   14.26    7.19
  -1   9  12    7.11    5.37
  -1   9  12    1.01    2.09
  -1  -9  13   11.36    7.48
   1   9  13    0.62    1.80
   1  -9 -13    5.88    6.06
  -1  -9  13    7.52    6.06
   1  -9  13    3.06    5.84
   1  -9  13    7.57    4.64
  -1  -9 -13    6.60    5.22
  -1   9  13    4.18    6.06
  -1   9  13   15.37    8.14
  -1  -9  13    1.67    3.33
  -1  -9  14   10.18    4.99
  -1  -9 -14   25.33    8.30
   1  -9  14    3.70    2.43
  -1  -9  14   18.11    7.61
   1  -9  14   12.31    5.45
   1  -9 -14   21.72    9.64
  -1   9  14    4.02    1.58
  -1  -9  14   22.12    6.47
  -1   9  14    5.25    1.77
   1   9  14   13.63    7.36
   1  -9  14   21.51    8.01
  -1  -9  15   55.06   13.37
  -1   9  15   46.25   11.56
   1  -9 -15   53.88   13.29
   1   9  15   24.87    9.95
  -1  -9  15   48.19   11.26
   1  -9  15   41.08   11.07
   1  -9  15   46.48   10.12
  -1  -9 -15   60.39   13.91
   1  -9  15   32.46    8.75
  -1  -9  15   60.78   12.12
  -1   9  15   36.88    9.29
  -1   9  16   71.10   14.39
  -1  -9 -16   90.52   16.79
   1  -9 -16   90.15   16.16
  -1  -9  16   99.16   16.96
   1   9  16   83.59   14.91
   1  -9  16   85.05   15.08
   1  -9  16   93.06   16.39
  -1   9  16   62.52   13.57
  -1  -9  16   91.56   17.40
  -1  -9  16   82.18   15.79
   1  -9  16   93.25   16.82
  -1   9  17   15.73    8.53
   1  -9 -17   23.36    6.80
   1   9  17    9.43    7.12
   1  -9  17   17.20    9.53
   1  -9  17   14.36    7.85
  -1  -9 -17    8.01    5.31
  -1  -9  17   -2.49    7.74
  -1  -9  17    8.94    5.03
  -1  -9  17   14.81    6.40
  -1   9  17   20.96    8.58
   1  -9  17    2.98    4.03
  -1  -9  18   51.88   11.90
  -1  -9 -18   25.40    8.46
   1   9  18   48.57   12.56
  -1   9  18   34.23   10.28
   1  -9  18   48.73   12.19
   1  -9  18   56.31   14.38
  -1  -9  18   53.49   13.02
  -1  -9  18   21.96    7.75
   1  -9 -18   49.05   11.98
   1  -9  18   25.21    9.80
  -1   9  18   34.63   12.43
   1  -9 -19   69.50   14.05
   1  -9  19   43.47   11.73
   1   9  19   39.78   11.25
  -1  -9 -19   60.37   14.11
  -1   9  19   44.47   11.93
  -1  -9  19   48.21   12.05
  -1  -9  19   43.68   12.94
  -1  -9  19   45.54   11.36
   1  -9  19   69.65   15.34
   1  -9  19   43.91   11.51
  -1   9  19   43.50   12.28
  -1   9  20   17.96    6.70
   1  -9  20   31.29    9.68
  -1   9  20   32.43    9.01
  -1  -9 -20   40.53   11.45
  -1  -9  20   49.75   12.42
   1  -9  20   21.76   11.16
   1  -9 -20   46.26   11.77
   1  -9  20   22.38    9.30
  -1  -9  20   40.58   12.01
  -1  -9  20   32.14   10.58
   1   9  20   56.28   12.21
   1   9  21   71.66   15.42
   1  -9  21   49.20   13.42
   1  -9 -21   38.57   12.44
  -1  -9  21   62.46   15.79
  -1  -9  21   52.03   12.51
  -1  -9 -21   79.53   16.79
   1  -9  21   79.95   15.81
  -1   9  21   65.15   14.83
  -1  -9  21   41.71   12.18
  -1   9  21   53.01   12.73
   1  -9  21   71.42   15.19
   1   9  22   20.07   11.49
  -1  -9  22   18.73    9.24
  -1  -9 -22   -0.39    2.72
  -1  -9  22    8.07    2.92
   1  -9  22    5.69    3.59
   1  -9 -22    3.01    4.02
  -1   9  22   18.55    9.63
   1  -9  22    6.38    3.17
  -1   9  22   12.15    9.01
  -1  -9  22   10.65    6.59
   1  -9  22    4.94    5.97
   1  -9  23    3.85    5.29
   1  -9 -23   -3.07    4.51
  -1   9  23   -2.31    3.88
  -1   9  23    2.69    6.51
  -1  -9  23   -2.90    4.78
  -1  -9 -23    7.07    7.44
  -1  -9  23    2.17    3.53
   1   9  23    1.98    4.49
   1  -9  23   -0.05    4.07
  -1   9  24   17.44    7.26
  -1  -9  24   16.33    8.33
   1  -9 -24   16.49    8.83
   1   9  24   19.30    9.56
  -1  -9  24   27.29    8.94
  -1  -9 -24   13.27    3.85
   1  -9  24   12.70    4.88
  -1   9  24   20.96    9.73
   1  -9  24   17.87    6.63
  -1  -9  25    0.64    4.80
  -1  -9  25   13.32    8.92
   1  -9  25    1.62    3.84
   1  -9 -25    2.33    6.03
  -1   9  25   -3.79    7.23
   1   9  25    3.62    5.29
  -1  -9 -25    4.20    4.83
  -1   9  25    1.81    2.95
   1  -9  25    0.68    3.21
  -1  -9  26   -1.74    5.95
  -1  -9  26   -7.82    6.91
   1  -9 -26    2.60    4.14
  -1  -9 -26   -3.11    3.74
  -1   9  26    1.63    5.02
  -1   9  26    2.97    2.63
   1  -9  26    1.73    6.37
   1   9  26    0.08    3.26
   1  -9  26    4.24    2.95
   1  -9  27   21.36    9.49
   1   9  27   43.43   13.30
   1  -9  27   38.37   11.53
  -1  -9  27   53.49   15.37
  -1   9  27   32.69   12.10
  -1  -9 -27   20.31    9.18
   1  -9 -27   23.38   10.73
  -1  -9  27   32.49   11.89
   1 -10   0    1.65    4.00
  -1 -10   0   -1.58    3.88
  -1 -10   0    1.41    5.24
   1 -10   0    0.07    3.86
   1 -10   1  112.85   17.08
   1 -10  -1  146.13   19.21
  -1 -10   1  109.69   15.64
   1 -10  -1  101.87   15.83
  -1 -10  -1  104.80   15.55
  -1 -10   1  116.95   18.21
   1 -10   1   97.84   14.63
  -1 -10  -1  103.75   14.83
  -1 -10  -2   51.58   11.87
  -1 -10   2   43.56    9.50
   1 -10   2   44.84   11.34
  -1 -10   2   54.11   12.10
   1 -10   2   45.32   10.62
   1 -10  -2   68.59   14.31
  -1 -10  -2   57.76   11.55
   1 -10  -2   56.45   11.85
   1 -10  -3  276.93   25.47
  -1 -10   3  286.70   25.36
   1 -10   3  220.67   22.85
  -1 -10   3  242.62   26.33
  -1 -10  -3  261.65   25.87
  -1 -10  -3  269.47   24.49
   1 -10   3  279.96   26.70
   1 -10  -3  251.13   25.05
  -1 -10   4   20.81    9.00
   1 -10   4    6.35    4.48
   1 -10   4   13.18    4.15
  -1 -10   4    6.70    3.77
  -1 -10  -4   13.31    6.91
  -1 -10  -4   20.61    6.85
   1 -10  -4   17.01    7.72
   1 -10  -4   14.82    7.51
   1 -10   5  252.28   26.01
   1 -10  -5  232.27   24.77
  -1 -10   5  207.92   21.43
  -1  10   5  214.78   21.72
  -1 -10  -5  242.83   24.90
   1 -10   5  247.78   23.92
  -1 -10   5  223.75   25.50
  -1 -10  -5  253.71   24.23
   1 -10  -5  215.63   22.49
  -1 -10   6  180.75   22.95
   1 -10   6  146.59   19.98
  -1 -10  -6  137.51   18.96
  -1 -10  -6  159.53   19.35
  -1  10   6  179.53   20.41
   1 -10  -6  164.11   20.16
   1 -10   6  161.88   19.42
   1 -10  -6  167.83   21.33
  -1 -10   6  154.07   18.73
   1 -10  -7  124.34   18.33
  -1 -10   7  135.37   19.45
  -1 -10   7  128.81   17.07
  -1  10   7   93.40   14.33
  -1 -10  -7  127.32   17.87
   1 -10  -7  143.14   18.93
   1 -10   7   95.74   16.34
   1 -10   7  117.67   16.97
  -1 -10  -7  123.34   17.58
   1 -10   8   76.38   14.60
  -1 -10  -8   65.57   13.26
   1 -10  -8   77.07   14.90
   1 -10  -8   79.09   14.25
  -1 -10   8   92.84   14.76
  -1 -10   8  101.77   17.06
   1 -10   8   87.97   14.66
  -1  10   8   46.01   10.02
   1 -10   9   91.78   15.75
   1 -10   9   74.80   14.12
  -1 -10  -9   78.12   15.15
  -1 -10   9  100.35   15.81
  -1 -10   9   84.38   15.10
   1 -10  -9   87.12   15.73
  -1  10   9   74.04   12.67
  -1 -10  10  423.73   31.79
  -1  10  10  417.21   31.53
   1 -10 -10  389.24   33.11
   1 -10  10  438.03   34.92
  -1 -10  10  454.20   36.14
  -1 -10 -10  479.32   36.30
   1 -10  10  445.25   33.83
   1 -10 -11   15.51    6.64
   1 -10  11   24.10    8.41
  -1 -10  11   35.77   10.51
   1 -10  11   24.35    8.03
  -1 -10  11   18.61    6.77
  -1  10  11   21.48    7.48
  -1 -10 -11   19.97    6.87
   1  10  11   21.26    7.05
   1 -10  12   99.61   16.00
  -1 -10  12  112.46   18.28
   1 -10  12   88.17   16.08
   1  10  12   58.18   11.56
  -1  10  12  115.38   17.27
   1 -10 -12   93.22   16.58
  -1 -10  12   81.77   14.42
  -1 -10 -12   72.39   14.97
  -1  10  13   69.37   13.87
   1 -10 -13   72.85   15.07
  -1  10  13   75.53   15.04
  -1 -10  13   76.20   14.41
  -1 -10 -13   84.80   15.37
  -1 -10  13   81.92   16.10
   1 -10  13   84.62   14.97
   1 -10  13   95.69   16.75
   1  10  13   88.75   15.78
   1 -10 -14    5.09    3.49
   1 -10  14   11.48    6.27
   1 -10  14    6.87    5.22
  -1 -10  14   11.64    4.77
   1 -10  14    2.48    5.11
  -1  10  14    9.07    7.03
  -1 -10  14    8.14    4.75
  -1  10  14    5.69    7.35
  -1 -10 -14   10.77    7.25
   1  10  14    4.52    3.20
   1  10  15    5.85    4.43
   1 -10  15   -3.96    6.84
   1 -10  15    3.76    6.90
   1 -10 -15   11.23    7.23
  -1 -10  15   -4.31    3.66
  -1  10  15   -6.04    3.77
   1 -10  15    1.74    4.90
  -1 -10 -15    0.09    5.25
  -1 -10  15   -3.92    5.15
  -1 -10  15    8.73    7.98
  -1  10  15    0.20    2.44
  -1 -10  16  138.69   20.15
  -1 -10  16  117.44   18.86
  -1  10  16  152.20   21.46
   1 -10 -16  143.54   20.75
   1  10  16  106.84   18.66
   1 -10  16  109.39   19.09
  -1  10  16  136.64   20.53
   1 -10  16  128.01   19.66
   1 -10  16  144.10   20.62
  -1 -10  16  135.80   20.44
  -1 -10 -16  103.19   18.10
  -1  10  17   23.95    8.32
   1 -10  17   22.85    8.32
  -1  10  17   18.00    6.93
  -1 -10  17   18.50    7.93
  -1 -10  17   25.10    9.65
   1  10  17   29.56    7.82
  -1 -10  17   28.15    9.19
   1 -10 -17   22.29   10.83
  -1 -10 -17    8.02    4.85
   1 -10  17    7.08    4.50
   1 -10  17   18.00    8.31
   1 -10  18   14.59    8.27
   1 -10 -18    9.52    3.08
   1 -10  18   26.51    8.85
  -1  10  18   15.43    6.20
  -1 -10  18   34.78   10.70
   1  10  18    1.29    3.50
  -1 -10 -18   11.28    5.86
  -1  10  18   23.36    8.61
   1 -10  18   20.71    9.67
  -1 -10  18   16.17    8.11
  -1 -10  18   15.34    9.82
  -1 -10  19    8.87    6.43
   1 -10  19   10.34    7.31
  -1  10  19   13.90    8.27
   1 -10 -19    3.53    4.57
  -1 -10 -19    5.96    4.84
   1  10  19    1.68    4.61
  -1 -10  19   16.30    9.99
   1 -10  19    5.00    3.64
  -1  10  19    0.51    4.38
  -1 -10  19    3.71    3.93
   1 -10  19   -2.85    2.47
  -1 -10  20  130.22   21.58
  -1  10  20  187.85   25.30
   1  10  20  139.92   21.51
  -1 -10 -20  180.28   24.49
  -1 -10  20  121.11   20.88
   1 -10 -20  185.50   24.36
   1 -10  20  181.89   25.26
  -1 -10  20  165.45   23.77
   1 -10  20  178.22   24.52
   1 -10  20  148.16   24.47
  -1 -10  21   -5.49    5.10
  -1 -10 -21    4.48    4.72
   1 -10  21   -2.75    4.40
   1 -10 -21   14.81    8.99
   1  10  21    4.03    6.01
  -1 -10  21   10.58    7.19
   1 -10  21    6.52    2.83
  -1  10  21    2.91    4.64
  -1 -10  21    4.12    2.26
   1 -10  21   -5.98    5.12
   1 -10  22    3.22    4.88
   1 -10 -22   17.62    7.98
  -1  10  22   11.09    6.46
  -1 -10 -22   14.83    7.04
  -1 -10  22   12.77    6.74
   1 -10  22   22.42   10.74
  -1 -10  22   26.41   10.81
  -1 -10  22   27.39   11.60
   1  10  22   32.96   11.97
   1 -10  22   34.20   10.88
  -1 -10 -23   -4.09    4.22
   1 -10  23    5.37    6.79
  -1 -10  23    6.04    6.50
   1 -10 -23   13.83    9.37
  -1  10  23    5.18    4.46
   1 -10  23    2.36    3.47
  -1 -10  23   -2.03    3.92
   1 -10  23    0.81    3.56
  -1 -10  23   -3.99    4.11
   1  10  23    4.91    7.11
   1 -10  24   26.96    9.32
   1 -10 -24   35.75   10.66
   1  10  24   19.98    9.16
  -1 -10 -24   29.19    8.03
  -1 -10  24   15.53    5.91
   1 -10  24   13.43    9.48
  -1 -10  24   27.34   11.72
  -1  10  24   19.08   10.75
   1 -10 -25    3.41    7.53
   1 -10  25   -6.62    7.22
  -1 -10  25    3.42    5.18
   1  10  25   -2.43    8.09
  -1 -10  25   15.23   12.17
   1 -10  25   10.25    8.48
  -1 -10 -25    3.27    5.59
  -1  10  25    2.38    4.91
  -1 -11   0   -1.42    2.50
   1 -11   0   -3.92    3.71
   1 -11   0    0.95    2.65
   1 -11  -1    5.80    4.20
  -1 -11  -1    4.84    1.28
   1 -11   1    9.00    6.92
  -1 -11  -1    0.62    3.58
   1 -11  -1   10.83    6.97
  -1 -11   1    0.19    3.33
  -1 -11   1    4.24    4.59
   1 -11   1    6.56    4.26
   1 -11   2    0.70    3.47
  -1 -11  -2    6.38    4.84
   1 -11  -2    7.54    4.78
  -1 -11  -2    0.22    2.98
   1 -11  -2   -1.34    3.73
  -1 -11   2    7.40    5.55
   1 -11   2   15.17    6.10
  -1 -11   2    9.96    4.78
   1 -11   3   64.27   12.99
  -1 -11  -3   54.63   11.92
   1 -11  -3   44.95   11.08
   1 -11  -3   54.39   12.48
  -1 -11   3   64.04   14.51
  -1 -11  -3   29.13    8.44
   1 -11   3   48.75   10.93
  -1 -11   3   45.44   10.69
  -1 -11  -4   60.33   12.56
  -1 -11   4   68.58   15.35
   1 -11   4   29.01    8.58
   1 -11   4   35.70   11.22
  -1 -11  -4   55.87   11.90
   1 -11  -4   57.69   14.49
  -1 -11   4   41.18    9.40
   1 -11  -4   40.89   10.29
  -1 -11   5   -6.44    2.60
   1 -11   5    2.11    2.37
   1 -11   5    4.99    4.73
  -1 -11  -5    3.25    2.76
   1 -11  -5    8.89    5.69
  -1 -11   5    3.81    3.64
   1 -11  -5   -2.20    4.11
  -1 -11  -5    2.60    1.95
   1 -11   6    2.39    4.14
   1 -11   6   19.14    6.43
  -1 -11   6   10.35    6.45
  -1 -11  -6   12.20    6.20
   1 -11  -6   18.93    7.66
  -1 -11  -6   12.14    4.40
   1 -11  -6   14.46    6.33
  -1 -11   6   11.51    7.09
   1 -11   7   33.52   11.45
   1 -11  -7   25.81    7.85
   1 -11  -7   26.44    6.90
  -1 -11   7   39.19   10.88
  -1 -11  -7   30.57    9.09
   1 -11   7   21.72    7.90
  -1 -11  -7   26.22    8.63
  -1 -11   7   14.95    6.41
  -1 -11   8  137.54   19.61
  -1 -11   8  187.28   22.09
   1 -11   8  179.10   21.91
  -1 -11  -8  175.37   22.32
   1 -11  -8  150.25   20.60
   1 -11  -8  185.99   22.20
  -1 -11  -8  161.58   20.14
   1 -11   8  206.43   25.01
   1 -11   9    2.11    2.21
  -1 -11  -9    4.08    4.27
  -1 -11   9    1.88    5.27
   1 -11  -9    8.72    5.90
  -1 -11   9    2.15    6.17
   1 -11   9   11.02    6.98
   1 -11  -9    9.11    3.54
  -1 -11  -9   23.06    8.84
  -1 -11  10  144.21   20.66
  -1 -11 -10  212.02   25.52
   1 -11  10  219.26   24.12
   1 -11 -10  157.61   22.32
   1 -11 -10  215.41   24.57
   1 -11  10  192.93   24.17
  -1 -11  10  163.85   21.41
   1 -11  11   10.39    6.01
  -1 -11  11   15.76    4.59
   1 -11  11   19.13    8.13
  -1 -11  11   11.39    6.23
   1 -11 -11   22.12    9.79
  -1 -11 -11   11.61    6.82
   1 -11  12   43.96   10.73
  -1 -11  12   61.94   13.65
   1 -11 -12   63.88   14.65
  -1 -11  12   58.43   14.26
   1 -11  12   36.57   10.42
  -1 -11 -12   33.11   10.44
  -1 -11  13   20.88    7.44
   1 -11 -13   11.15    5.36
   1 -11  13   15.26    8.33
  -1 -11  13    9.61    7.14
  -1 -11 -13   10.62    5.01
   1  11  13    4.72    4.42
   1 -11  13    7.38    2.21
  -1 -11 -14    6.91    6.24
   1 -11 -14   -0.40    3.91
   1 -11  14   12.66    6.38
   1  11  14    1.32    6.29
   1 -11  14   -4.40    2.88
  -1 -11  14   11.66    7.76
   1 -11  14    4.07    3.68
  -1 -11  14    8.25    3.49
  -1 -11  15    0.14    1.56
   1 -11  15    1.52    5.44
  -1 -11  15   -4.39    5.47
  -1 -11 -15   -1.04    1.96
   1 -11 -15    2.76    6.33
   1 -11  15    2.64    3.83
   1  11  15   -1.47    1.95
   1 -11  15    6.43    4.05
  -1 -11  16   -3.42    4.18
   1 -11  16    2.08    6.38
  -1 -11 -16    8.26    6.67
  -1 -11  16   12.50    7.05
   1 -11  16    3.60    3.73
   1 -11 -16    9.41    7.22
   1  11  16   11.28    8.02
  -1  11  16    0.05    1.83
   1 -11  16   14.85    7.10
   1 -11  17   16.24    6.90
  -1 -11  17   37.77   13.84
   1 -11  17   15.20    9.15
  -1  11  17   17.37    6.44
   1 -11  17   14.13    6.18
   1  11  17   25.79    8.40
   1 -11 -17   20.69    7.41
  -1 -11  17   20.34    8.21
  -1 -11 -17    8.87    6.21
  -1  11  18    3.05    1.78
  -1 -11  18   -4.43    4.60
   1 -11 -18    1.20    2.36
   1 -11  18    1.74    5.17
  -1 -11 -18   -2.26    4.60
  -1 -11  18   -4.57    5.45
   1  11  18   -3.88    5.12
   1 -11  18   -3.80    1.91
   1 -11  18   -2.47    4.34
   1 -11  19   20.35    9.71
   1 -11  19   31.05   10.36
  -1 -11  19   24.84    6.33
  -1  11  19   24.34    9.32
   1 -11  19   37.07   12.10
   1 -11 -19   15.99    9.69
  -1 -11  19   23.33    8.66
   1  11  19   18.93    8.86
  -1 -11 -19   27.69   10.17
   1 -11  20   22.95    9.64
   1 -11  20   23.46   10.77
   1  11  20   16.67    6.68
   1 -11  20   23.45    7.76
  -1 -11  20   24.07    9.51
  -1  11  20   14.77    7.00
   1 -11 -20   24.64    9.80
  -1 -11  20   18.88    8.86
  -1 -11 -20   25.83   11.43
  -1 -11  21   17.10   10.35
  -1 -11 -21    9.45    6.84
  -1  11  21    9.75    4.61
  -1 -11  21   13.96    7.79
   1 -11 -21    7.83    6.94
   1 -11  21   -6.86    8.91
   1  11  21    8.37    3.46
   1 -11  21   13.05    7.88
   1 -11  21    5.55    5.86
   1  11  22    6.08    3.73
  -1  11  22    0.11    6.40
   1 -11 -22    0.33    5.09
  -1 -11  22    2.42    4.35
   1 -11  22    5.35    7.19
   1 -11  22   -0.59    6.52
  -1 -11 -22   -0.28    3.45
   1 -11  22   -1.72    6.61
  -1 -11 -23    3.04    6.11
   1 -11  23    0.14    5.21
   1 -11 -23    1.77    3.73
  -1  11  23   -3.84    5.81
  -1 -11  23   14.82    5.78
   1  11  23    3.00    4.53
   1 -11  23   12.31    7.91
   1 -11  23   -3.86    4.39
  -1 -11 -24    3.08    3.81
   1 -11  24   -5.49    5.09
   1 -11 -24   -1.20    2.92
  -1  11  24    0.17    2.95
   1  11  24   -3.72    4.72
   1 -11  24    0.60    5.94
  -1 -11  24    6.52    7.75
   1 -12   0   -4.26    7.64
  -1 -12   0    8.36    2.54
   1 -12   0    6.87    5.74
  -1 -12   0    6.17    7.39
  -1 -12   1    1.73    5.64
  -1 -12  -1    8.08    7.46
   1 -12   1   -1.14    2.53
   1 -12  -1    0.85    3.89
   1 -12   1   -2.04    4.54
  -1 -12   1   -2.76    2.41
  -1 -12  -1    3.59    5.08
   1 -12  -1   -5.92    6.57
  -1 -12   2   60.25   12.86
   1 -12   2   50.86   11.63
   1 -12  -2   64.53   13.22
  -1 -12  -2   45.25   11.45
  -1 -12   2   46.60   10.51
  -1 -12  -2   41.08   10.66
   1 -12  -2   49.97   10.74
   1 -12   2   35.29   10.80
   1 -12   3   12.91    5.11
   1 -12  -3   11.42    6.73
  -1 -12  -3    2.97    2.46
   1 -12  -3    1.31    4.18
  -1 -12   3   14.15    5.89
  -1 -12  -3   10.65    6.75
  -1 -12   3   10.36    6.00
   1 -12   3   17.80    7.18
  -1 -12   4   -4.89    4.66
   1 -12   4   -2.59    5.24
   1 -12  -4    4.63    7.12
   1 -12   4   -0.30    3.42
   1 -12  -4    1.66    4.80
  -1 -12  -4    1.28    3.78
  -1 -12  -4    4.16    5.37
  -1 -12   4   -4.76    6.25
   1 -12   5    2.42    5.63
  -1 -12  -5   -2.02    1.85
  -1 -12   5    4.91    6.63
   1 -12  -5    1.49    3.97
   1 -12   5   15.65    8.82
  -1 -12   5    5.65    2.93
  -1 -12  -5    2.81    2.64
   1 -12  -5    5.22    4.59
   1 -12   6   24.15    8.35
  -1 -12  -6   15.09    6.65
  -1 -12   6   11.25    4.74
   1 -12   6    6.10    2.68
  -1 -12  -6    9.02    6.42
   1 -12  -6    3.90    3.26
  -1 -12   6    7.32    4.55
   1 -12  -6    6.42    1.64
   1 -12  -7    9.23    8.05
   1 -12  -7   10.20    5.60
  -1 -12   7   15.50    8.96
   1 -12   7    6.25    3.96
  -1 -12  -7   13.65    2.44
  -1 -12   7   16.64    7.73
  -1 -12  -7   19.01    6.94
   1 -12   7   14.77    6.06
  -1 -12  -8   22.96    9.10
  -1 -12   8   33.24   10.14
   1 -12   8   27.67   11.42
   1 -12  -8   36.87   11.21
   1 -12   8   24.00    9.16
  -1 -12   8   41.81   11.68
   1 -12  -8   35.39   10.22
  -1 -12  -8   26.06    8.90
  -1 -12   9   79.80   16.51
   1 -12   9   79.00   15.37
   1 -12  -9   90.93   16.07
  -1 -12  -9   81.61   15.72
   1 -12  -9   75.73   15.87
  -1 -12   9   93.91   15.52
  -1 -12  -9   87.78   16.65
   1 -12   9   95.33   15.97
  -1 -12  10   14.88    7.16
   1 -12  10   23.31   10.32
  -1 -12 -10    5.83    5.35
   1 -12 -10   11.37    7.45
  -1 -12 -10    0.88    1.88
  -1 -12  10   16.30    7.91
   1 -12  10    8.69    5.83
   1 -12 -10    1.56    3.32
  -1 -12  11    6.98    3.85
  -1 -12 -11    4.92    3.90
  -1 -12 -11   15.77    5.94
   1 -12  11    1.35    4.45
   1 -12  11   -5.53    4.94
   1 -12 -11   11.48    7.86
  -1 -12  11   -1.31    1.48
   1 -12 -11    3.13    3.12
  -1 -12  12    3.25    5.30
  -1 -12  12    3.43    5.21
   1 -12  12   11.39    4.76
  -1 -12 -12   15.36    8.21
   1 -12 -12    4.34    2.80
   1 -12  12   10.38    8.44
   1 -12 -12   16.93    8.77
   1 -12  13  128.40   20.70
  -1 -12 -13  162.22   23.05
   1 -12 -13  128.17   19.40
   1 -12  13  109.99   18.93
   1 -12 -13  117.27   19.77
  -1 -12  13  136.25   21.42
  -1 -12  13  121.50   18.61
   1 -12  14   -1.70    2.89
   1 -12 -14   -0.05    3.01
   1 -12  14   -0.19    5.87
  -1 -12  14    4.20    6.52
  -1 -12  14   11.43    7.10
  -1 -12 -14   -3.72    4.83
   1 -12  15    5.42    6.60
  -1 -12 -15    7.92    7.02
  -1 -12  15    0.80    5.38
   1 -12 -15    1.47    2.58
   1 -12  15   -5.89    7.82
  -1 -12  15    1.35    6.00
   1  12  16   59.66   13.78
   1 -12 -16   53.71   14.81
  -1 -12  16   47.02   12.22
   1 -12  16   60.69   14.56
  -1 -12  16   46.02   12.60
   1 -12  16   60.43   14.11
  -1 -12 -16   82.69   17.11
  -1 -12  17   15.79    9.52
   1 -12  17   10.63    7.54
  -1 -12  17   14.28    7.47
   1 -12 -17   15.01    7.52
  -1 -12 -17   14.17    6.75
   1 -12  17    8.30    6.69
   1  12  17   20.88    9.47
  -1 -12  18    2.88    3.60
  -1 -12 -18   14.11    7.60
   1 -12 -18   -7.82    7.88
   1  12  18    8.43    8.04
  -1 -12  18    3.89    2.32
   1 -12  18    8.25    4.04
   1 -12  18    4.02    4.55
  -1 -12 -19   70.45   16.68
   1 -12 -19   57.94   14.76
   1  12  19   59.40   14.87
   1 -12  19   54.80   15.37
   1 -12  19   54.64   15.48
  -1 -12  19   31.74   14.05
   1  12  20   -0.90    6.08
  -1  12  20    0.78    3.39
  -1 -12 -20    7.37    2.87
   1 -12  20    0.08    3.97
  -1 -12  20    2.96    4.05
   1 -12 -20    6.84    8.36
   1 -12  20   -1.51    4.59
   1 -12  21    3.22    4.88
  -1 -12  21   -4.70    4.94
  -1 -12 -21    1.15    4.81
  -1  12  21    2.39    6.92
   1  12  21   -3.18    6.94
   1 -12 -21   -7.42    6.52
   1 -12  21    0.61    4.82
  -1  12  22    9.17    6.45
   1  12  22   10.80    5.19
   1 -12  22   12.81    8.21
  -1 -12 -22    8.68    6.68
   1 -12  22    7.17    3.33
   1 -12 -22   13.01    7.69
  -1 -12  22   12.42    7.41
  -1 -13   0    5.50    7.64
   1 -13   0   -1.02    5.34
  -1 -13   0   -0.16    3.83
   1 -13   0    2.43    3.62
   1 -13  -1   28.01    8.63
   1 -13   1   42.86   12.48
  -1 -13  -1   38.28   10.66
  -1 -13  -1   30.53   10.71
  -1 -13   1   42.88   11.42
  -1 -13   1   31.49   10.12
   1 -13   1   39.08   11.31
  -1 -13  -2   21.53    9.59
  -1 -13  -2   18.02    7.36
   1 -13  -2   14.47    7.82
  -1 -13   2   19.97    8.36
   1 -13   2   21.28    9.11
   1 -13  -2    8.70    3.67
   1 -13   2   15.12    8.81
  -1 -13   2   19.05    8.47
   1 -13   3   16.61    7.80
  -1 -13  -3    7.72    2.84
  -1 -13   3   28.47    9.40
   1 -13   3   18.43    5.58
  -1 -13  -3   20.32    9.81
   1 -13  -3   17.51    6.35
  -1 -13   3   19.57    8.55
   1 -13  -3   15.99    5.55
  -1 -13   4   47.79   13.43
   1 -13   4   50.32   12.00
   1 -13  -4   37.23   11.49
   1 -13  -4   49.39   13.79
  -1 -13   4   28.16    9.68
   1 -13   4   30.87    9.80
  -1 -13  -4   27.85   10.04
  -1 -13  -4   30.49    8.83
   1 -13   5    0.39    2.59
  -1 -13   5   -1.73    4.53
  -1 -13  -5    6.09    5.30
   1 -13  -5    3.15    4.82
   1 -13  -5    3.13    7.02
  -1 -13   5    2.43    4.47
   1 -13   5   10.76    9.48
  -1 -13  -5   -2.08    5.98
   1 -13   6   -0.21    5.12
  -1 -13   6   -0.92    4.03
  -1 -13   6    6.50    4.88
  -1 -13  -6   -2.48    4.97
   1 -13  -6    4.12    3.53
  -1 -13  -6   -3.55    4.97
   1 -13  -6    2.72    2.30
   1 -13   6    2.02    3.16
  -1 -13   7   18.61    7.90
   1 -13   7   14.39    9.02
  -1 -13   7   -2.20    4.18
  -1 -13  -7   17.19    9.75
   1 -13  -7    8.58    6.91
  -1 -13  -7   10.49    7.57
   1 -13   7    2.63    2.85
   1 -13  -7   10.55    7.43
  -1 -13  -8    8.17    8.15
  -1 -13   8   11.21    6.93
   1 -13   8    2.41    4.35
  -1 -13   8    7.14    5.59
  -1 -13  -8    5.51    2.50
   1 -13  -8    7.47    4.68
   1 -13   8   16.87    9.11
   1 -13  -8    3.56    5.23
  -1 -13  -9   53.08   13.09
   1 -13   9   74.69   16.30
   1 -13  -9   45.33   12.01
   1 -13  -9   61.93   14.82
  -1 -13  -9   61.26   14.47
   1 -13   9   66.48   13.80
  -1 -13   9   58.12   14.14
  -1 -13   9   96.68   17.67
  -1 -13 -10    0.67    4.93
   1 -13 -10    7.92    6.62
  -1 -13  10    8.67    7.91
   1 -13  10   11.69    6.62
   1 -13 -10    4.05    5.66
  -1 -13  10    9.15    6.42
   1 -13  10    3.51    2.50
  -1 -13 -10   17.84    8.45
  -1 -13  11   -1.79    2.53
   1 -13 -11   -3.30    5.45
   1 -13  11    1.52    4.50
   1 -13  11   -2.14    3.02
  -1 -13  11   -1.91    5.39
  -1 -13 -11    7.58    7.41
   1 -13 -11   -4.01    4.51
  -1 -13 -11   -2.03    4.06
  -1 -13 -12   26.93   11.48
   1 -13  12    8.01    5.97
  -1 -13  12   29.33    9.76
  -1 -13 -12   31.62   12.33
   1 -13  12   51.62   11.97
   1 -13 -12   42.73   12.53
  -1 -13  12   24.08    8.95
   1 -13 -12   32.60    8.59
  -1 -13  13    2.74    5.57
   1 -13  13   15.38    7.76
  -1 -13 -13    8.57    6.47
  -1 -13  13    4.78    2.51
   1 -13 -13    1.05    2.68
   1 -13  13   -2.98    4.23
   1 -13 -13    4.20    5.81
  -1 -13 -13   -3.08    6.10
   1 -13  14   18.58    8.78
   1 -13 -14   11.37    5.56
  -1 -13 -14    6.55    3.41
  -1 -13  14   13.88    8.98
  -1 -13 -14   30.91   11.40
   1 -13  14   16.64    9.77
  -1 -13  14   17.46    8.92
   1 -13 -14    1.23    4.27
   1 -13 -15   40.01   10.71
   1 -13 -15   77.50   16.94
   1 -13  15   42.97   12.14
  -1 -13 -15   52.75   12.56
  -1 -13  15   38.23   11.61
   1 -13  15   46.22   11.10
  -1 -13  15   76.10   17.81
  -1 -13  16    8.87    7.12
   1 -13 -16    7.96    6.40
   1 -13 -16    0.21    2.96
   1 -13  16    5.57    7.50
  -1 -13 -16    0.50    3.06
   1 -13  16    1.86    2.40
   1 -13  17    2.64    6.96
  -1 -13 -17    7.10    8.42
  -1 -13  17   -2.15    3.57
   1 -13 -17   -5.34    7.51
   1 -13  17    0.30    3.10
   1 -13 -18   13.66    8.31
   1 -13  18    2.46    4.15
  -1 -13  18    3.22    4.71
   1 -13  18    9.87    5.54
  -1 -13 -18    4.81    5.64
  -1 -13 -19    3.91    3.56
   1 -13  19    7.94    7.23
  -1 -13  19   10.54    6.94
   1 -13 -19    9.44    8.28
   1 -13  19    5.91    4.28
  -1 -13 -20   -2.77    1.84
   1 -13  20   -2.73    2.35
   1 -13  20    0.78    2.56
   1 -14   0   -2.69    4.54
  -1 -14   0    4.50    3.91
   1 -14   0    4.55    8.54
  -1 -14   0   -2.83    2.76
   1 -14   1   16.61    8.66
  -1 -14   1   24.15   11.35
   1 -14  -1   10.92    5.53
  -1 -14  -1    2.85    4.30
  -1 -14   1   13.30    6.98
  -1 -14  -1   28.21    9.25
   1 -14  -1   11.53    9.32
   1 -14   1    3.49    2.91
  -1 -14  -2   27.13    9.80
   1 -14  -2   12.18    4.76
  -1 -14   2   14.57    6.31
   1 -14   2   39.62   11.88
  -1 -14   2   19.64    8.29
  -1 -14  -2   17.40    7.51
   1 -14  -2   32.06   10.53
   1 -14   2   24.97    8.59
  -1 -14  -3   10.18    5.02
  -1 -14   3    9.32    6.95
   1 -14  -3   39.45   13.07
  -1 -14  -3    9.85    5.04
   1 -14   3    9.89    5.11
  -1 -14   3    6.64    4.15
   1 -14  -3    9.52    4.58
   1 -14   3   32.04   10.92
  -1 -14   4   -0.59    3.38
   1 -14   4    0.61    3.47
  -1 -14  -4    6.70    5.90
  -1 -14   4    5.63    3.96
   1 -14   4    1.88    2.21
   1 -14  -4   -4.31    8.63
   1 -14  -4    3.10    6.23
  -1 -14  -4    2.24    3.64
  -1 -14   5   40.20   11.92
   1 -14   5   43.72   10.94
   1 -14  -5   52.23   14.21
   1 -14   5   59.52   14.72
   1 -14  -5   56.97   12.35
  -1 -14  -5   44.72   12.17
  -1 -14  -5   48.11   12.61
  -1 -14   5   57.69   15.90
   1 -14   6   98.16   17.45
  -1 -14   6  117.98   19.16
  -1 -14   6   62.14   15.16
  -1 -14  -6   49.56   13.53
   1 -14  -6   47.15   12.87
  -1 -14  -6   65.71   14.74
   1 -14   6   73.94   17.00
   1 -14  -6   87.48   17.93
   1 -14  -7   -6.50    7.86
  -1 -14  -7   -0.39    5.28
   1 -14   7   -1.28    6.17
   1 -14  -7    6.80    6.58
  -1 -14   7   -1.11    4.66
  -1 -14   7    3.27    4.68
  -1 -14  -7    3.84    5.57
   1 -14   7    6.83    7.08
   1 -14  -8    8.27    5.43
  -1 -14  -8    2.78    7.08
  -1 -14   8    2.66    5.62
   1 -14   8   -3.17    4.52
   1 -14  -8   -7.26    6.21
   1 -14   8   -3.09    6.13
  -1 -14   8    1.48    5.10
  -1 -14  -8    2.80    6.96
   1 -14   9   13.50    8.33
  -1 -14  -9   15.21    8.65
   1 -14  -9    6.32    6.69
   1 -14  -9   14.94    8.74
  -1 -14  -9   13.54    6.84
  -1 -14   9   12.52    4.44
   1 -14   9    8.53    4.57
  -1 -14   9   22.88   10.41
   1 -14 -10   30.93   10.91
  -1 -14 -10   58.57   14.46
   1 -14 -10   69.16   17.63
  -1 -14  10   63.33   13.46
   1 -14  10   52.50   12.49
  -1 -14  10   45.98   13.20
   1 -14  10   43.32   13.41
  -1 -14 -10   43.37   13.87
   1 -14  11    8.04    4.87
   1 -14 -11   12.35    8.10
  -1 -14 -11    1.37    4.13
   1 -14 -11    3.02    4.42
  -1 -14 -11   -1.63    6.19
  -1 -14  11    5.02    5.18
   1 -14  11   -1.92    2.55
   1 -14 -12   18.61    8.19
   1 -14 -12   23.50    8.03
   1 -14  12    5.33    3.18
  -1 -14  12   15.81    8.76
   1 -14  12   10.73    5.60
  -1 -14 -12   12.29    5.17
  -1 -14 -12    8.62    7.54
  -1 -14  13   14.88    4.88
   1 -14  13   19.22    8.82
  -1 -14 -13   27.09   10.93
   1 -14  13   14.33    9.28
  -1 -14 -13    6.11    6.74
   1 -14 -13   22.31   11.01
   1 -14 -13   15.94    8.31
   1 -14 -14   25.15   11.66
   1 -14  14    4.47    2.16
   1 -14  14   29.89    8.29
   1 -14 -14   16.66    5.81
  -1 -14 -14   27.22   11.23
  -1 -14  14   46.09   14.01
  -1 -14 -14   26.42   10.16
   1 -14 -15   45.56   13.60
   1 -14  15   28.98   10.95
   1 -14 -15   39.31   11.31
   1 -14  15   50.60   14.52
  -1 -14 -15   24.88    8.78
  -1 -14 -15   53.95   14.09
  -1 -14  15   59.64   14.61
  -1 -14 -16   20.45    7.64
   1 -14  16   50.07   13.54
   1 -14  16   54.27   12.83
  -1 -14 -16   29.85   10.33
   1 -14 -16   51.28   14.23
   1 -14 -16   64.31   15.61
  -1 -14  16   34.52   13.48
   1 -14 -17   28.34   11.25
   1 -14  17   24.95   10.52
  -1 -14 -17   43.10   13.51
  -1 -14 -17   34.38   11.16
   1 -14  17   26.41   11.87
   1 -14 -17   18.87    8.68
  -1 -14  17   41.47   11.69
   1 -15   0   -6.02    2.13
  -1 -15   0    6.56    4.91
   1 -15   0    0.77    4.20
  -1 -15   0    2.95    6.60
  -1 -15   1   -3.36    7.31
  -1 -15  -1    0.75    3.43
   1 -15   1   -0.24    2.47
   1 -15   1   -2.15    4.49
   1 -15  -1    9.59    8.57
  -1 -15   1    1.13    6.93
  -1 -15  -1   10.16   10.48
   1 -15  -1   -2.77    4.44
   1 -15   2   37.73   10.42
  -1 -15  -2   62.74   15.81
   1 -15  -2   47.12   12.88
  -1 -15  -2   36.19    9.37
   1 -15  -2   35.65   11.14
   1 -15   2   31.14    9.90
  -1 -15   2   58.11   15.32
  -1 -15   2   57.29   12.76
  -1 -15   3   17.63    8.30
  -1 -15  -3   25.82    9.61
  -1 -15  -3   16.11    7.69
   1 -15  -3    5.94    3.98
   1 -15  -3   14.26    6.08
   1 -15   3    2.58    2.98
  -1 -15   3    5.94    2.25
   1 -15   3   16.57    6.47
   1 -15   4    4.13    3.11
  -1 -15  -4   14.05    4.04
   1 -15  -4    8.42    6.83
  -1 -15   4    6.42    5.10
  -1 -15  -4   -6.01    8.49
   1 -15   4   -3.33    2.37
   1 -15  -4    5.43    5.45
  -1 -15   4   19.50   10.32
   1 -15  -5   -4.29    2.96
  -1 -15  -5    3.98    4.48
  -1 -15   5    0.59    4.21
  -1 -15   5    7.85    9.46
  -1 -15  -5   -3.81    7.43
   1 -15  -5    5.52    7.34
   1 -15   5    3.66    5.30
   1 -15   5    9.00    3.99
  -1 -15   6    8.25    3.74
   1 -15   6   18.55    8.38
   1 -15   6   26.53    9.47
  -1 -15  -6   10.85    5.66
  -1 -15  -6   17.21    8.18
  -1 -15   6   44.11   14.82
   1 -15  -6   17.51    8.03
   1 -15  -6   36.66   10.36
   1 -15  -7   30.27   10.52
  -1 -15   7   15.99    8.52
   1 -15   7    7.92    5.42
  -1 -15  -7   10.47    8.49
   1 -15  -7   15.30    8.08
   1 -15   7   14.43    4.19
  -1 -15  -7   18.27   11.18
  -1 -15   7   -6.21    4.60
  -1 -15   8   19.59    9.06
   1 -15   8   31.25    8.55
  -1 -15  -8   16.94    7.18
   1 -15  -8   21.22    7.62
   1 -15  -8   15.09    8.68
   1 -15   8   15.69    6.68
  -1 -15  -8   19.54    7.75
  -1 -15   9   12.24    7.98
   1 -15   9   18.71    9.05
   1 -15  -9    1.33    6.01
   1 -15   9   12.09    6.65
  -1 -15  -9    9.25    8.69
   1 -15  -9   31.07    9.65
  -1 -15  -9   11.13    7.64
   1 -15 -10   35.45   13.15
  -1 -15 -10   15.55    6.36
   1 -15  10   44.41   13.43
   1 -15  10   43.38   11.04
   1 -15 -10   29.19    9.04
  -1 -15 -10   24.43    9.32
  -1 -15  10   29.61   11.10
   1 -15  11    0.33    2.06
   1 -15  11    3.35    6.85
   1 -15 -11    4.49    2.14
  -1 -15  11    3.74    6.37
  -1 -15 -11    1.12    3.59
   1 -15 -11    3.71    6.75
  -1 -15 -11   -1.11    3.21
   1 -15  12   15.95    9.11
   1 -15 -12    8.36    5.39
  -1 -15 -12   -3.74    8.02
   1 -15 -12   13.34    8.78
  -1 -15 -12    7.51    8.17
   1 -15  12   -1.89    5.14
  -1 -15  12   17.11   12.14
  -1 -15  13    4.47    7.07
   1 -15  13   -4.52    7.08
   1 -15  13   -7.02    6.54
   1 -15 -13    9.24    5.78
   1 -15 -13    5.78    4.87
  -1 -15 -13   -4.90    5.82
  -1 -15 -13   -0.55    4.17
   1 -16   0    4.90    3.00
   1 -16   0   -4.84    6.31
  -1 -16   0   -4.06    5.12
  -1 -16   1    2.64    9.00
  -1 -16   1    3.50    4.04
  -1 -16  -1    0.09    4.23
   1 -16   1   -0.69    1.89
  -1 -16  -1    9.10    8.89
   1 -16  -1    1.32    2.24
   1 -16   1   10.54    4.57
   1 -16  -1   -0.42    3.67
  -1 -16  -2   69.18   16.93
  -1 -16   2  114.41   21.87
   1 -16  -2  102.08   19.94
   1 -16   2   92.23   18.01
   1 -16   2  106.52   20.37
   1 -16  -2   78.46   17.32
  -1 -16  -2   81.44   19.01
   1 -16   3   -2.89    4.69
   1 -16   3   -1.07    5.42
  -1 -16  -3   -0.18    3.05
   1 -16  -3   17.71    9.97
   1 -16  -3   -3.48    4.27
  -1 -16  -3  -13.03    9.03
  -1 -16   3   10.79    7.86
  -1 -16   4   -6.78    3.55
   1 -16   4    7.97    4.14
  -1 -16  -4   15.01    9.77
   1 -16  -4   10.57   10.43
   1 -16   4    2.09    6.43
   1 -16  -4    8.06    7.83
  -1 -16  -4    8.92    5.56
  -1 -16   5   34.05    9.54
   1 -16   5   20.98   10.19
   1 -16  -5   31.41   11.81
  -1 -16  -5    9.69    6.86
   1 -16   5   15.51    8.03
  -1 -16  -5   27.21   11.06
   1 -16  -5    1.88    5.12
  -1 -16  -6   15.59    9.66
   1 -16   6    3.87    3.89
  -1 -16  -6    6.82    4.99
   1 -16  -6    7.54    3.37
  -1 -16   6    5.52    3.44
   1 -16   6    9.19    5.97
   1 -16  -6    7.50    7.14
  -1 -16  -7   -5.86    7.24
  -1 -16  -7    2.42    3.42
   1 -16   7    3.79    5.62
   1 -16  -7   22.98   10.56
   1 -16  -7   12.89    8.84
   1 -16   7    9.08    7.37
  -1 -16   7    0.68    5.66
   1 -16  -8   17.25   10.23
   1 -16   8   22.66   10.26
  -1 -16  -8    8.11    6.91
  -1 -16  -8    9.08    5.90
   1 -16   8    3.57    5.07
   1 -16  -8    4.58    5.17
   2   0   0  662.68   13.71
  -2   0   0  701.43   20.65
   2   0   1    0.33    0.55
  -2   0   1    1.16    1.34
   2   0  -1    0.88    0.30
  -2   0  -1    0.60    1.68
  -2   0   2 5732.73   42.32
  -2   0   2 5721.99   60.84
  -2   0   3   -1.07    0.99
   2   0   3    0.51    0.80
   2   0   4 3141.93   46.84
  -2   0   4 3029.53   49.04
  -2   0   4 3045.97   39.06
   2   0   5   -0.74    0.79
  -2   0   5    0.26    0.80
  -2   0   5    0.43    0.83
   2   0   6  504.33   21.65
  -2   0   6  486.36   21.46
  -2   0   6  496.83   19.32
  -2   0   7    0.38    1.85
  -2   0   7   -1.06    2.34
   2   0   7    1.22    1.98
  -2   0   8 2011.09   48.42
   2   0   8 2028.06   49.59
  -2   0   8 2096.06   44.82
  -2   0   9   -1.14    2.38
   2   0   9    0.46    1.04
  -2   0   9   -1.06    0.82
  -2   0  10 5123.85   78.44
   2   0  10 5174.61   85.47
   2   0  11    4.44    1.93
  -2   0  11    0.75    2.37
   2   0  11   -2.56    3.06
  -2   0  11   -2.56    2.34
  -2   0  12  997.31   38.58
   2   0  12 1023.91   41.53
   2   0  12 1009.79   41.00
  -2   0  12 1036.60   40.62
  -2   0  13   -2.19    3.15
   2   0  13    0.28    2.20
   2   0  13    1.05    1.75
  -2   0  13   -1.22    2.86
   2   0  14 1469.26   52.72
  -2   0  14 1433.76   49.77
  -2   0  15    1.69    3.90
   2   0  15   -1.45    3.45
  -2   0  15   -0.29    3.72
   2   0  15   -0.55    3.53
  -2   0  16   70.46   11.15
  -2   0  16   73.42   12.18
   2   0  16   34.77    8.94
   2   0  16   69.85   12.18
   2   0  17   -2.49    3.62
   2   0  17   -0.92    2.67
  -2   0  17    4.71    5.13
  -2   0  17   -1.36    3.04
   2   0  18  170.56   19.84
  -2   0  18  154.44   18.74
   2   0  18  143.10   19.98
  -2   0  18  126.36   17.15
  -2   0  19    2.04    5.53
  -2   0  19    3.69    1.33
   2   0  19    2.92    3.58
   2   0  19    3.17    5.43
  -2   0  20   49.50   11.04
  -2   0  20   60.26   12.67
   2   0  20   49.67   12.42
   2   0  20   48.87   10.95
  -2   0  21    0.56    4.21
  -2   0  21   -3.60    4.66
   2   0  21   -1.67    1.75
   2   0  21    2.79    3.61
  -2   0  22   -0.15    4.20
   2   0  22    3.35    6.30
   2   0  22    2.03    5.25
  -2   0  22    0.72    2.75
  -2   0  23    4.20    6.30
  -2   0  23    6.08    7.43
   2   0  23    6.59    8.11
   2   0  23   -0.02    2.57
  -2   0  24   17.83    7.96
  -2   0  24   10.36    5.31
   2   0  24   26.43    9.57
   2   0  24   12.40    5.59
  -2   0  25    2.25    1.86
  -2   0  25    3.25    5.28
   2   0  25    3.03    4.77
   2   0  25   -6.62    7.55
  -2   0  26   49.06   12.81
   2   0  26   35.87   11.84
  -2   0  26   39.76   12.54
   2   0  26   26.46   10.13
  -2   0  27    2.39    4.33
   2   0  27   10.32    6.81
  -2   0  27   -1.27    2.10
   2   0  27    6.96    7.12
   2   0  28   -2.77    4.33
  -2   0  28    0.03    2.28
   2   0  28   -0.23    3.24
  -2   0  28    0.26    4.87
   2   0  29   -3.96    4.60
  -2   0  29   -2.79    6.52
  -2   0  29   -0.82    5.17
   2   0  29   -2.01    3.70
   2   0  30    7.27    5.29
  -2   0  30    4.50    3.59
  -2   0  30    8.13    4.77
   2   0  30    8.54    3.29
  -2   0  31   -8.91    9.03
  -2   0  31   -3.32    5.87
   2   0  31   -0.08    4.54
   2   0  31    1.65    5.93
  -2   0  32   74.00   15.77
   2   0  32   57.00   14.62
   2   0  32   65.79   14.95
  -2   0  32   37.59   12.59
  -2  -1   0 7994.29   60.79
  -2   1   0 7970.16   78.03
  -2  -1   1 6783.08   54.08
   2  -1   1 6964.63   60.82
  -2   1   1 7007.18   71.88
   2   1   1 7099.48   43.57
  -2  -1  -1 7515.14   51.50
  -2   1  -1 6721.99   74.07
  -2  -1   1 6459.43   56.72
   2  -1  -1 6894.23   58.21
   2  -1   2   46.45    3.18
   2  -1   2   43.63    4.91
  -2  -1   2   58.01    5.41
   2   1   2   38.72    3.89
  -2  -1  -2   51.20    4.23
  -2   1   2   44.59    5.93
  -2  -1   2   43.16    4.95
   2  -1   3 2818.86   44.12
   2   1   3 2696.41   37.79
  -2   1   3 2710.62   39.86
  -2  -1   3 2759.06   25.85
  -2  -1   3 2741.93   41.19
   2  -1   3 2690.49   29.25
  -2   1   3 2734.07   46.61
  -2  -1   3 2827.12   41.80
  -2  -1   4 2625.71   43.85
  -2   1   4 2612.76   41.69
   2  -1   4 2554.08   44.68
  -2  -1   4 2590.68   43.39
  -2  -1   4 2607.11   31.26
  -2  -1  -4 2581.69   37.55
  -2   1   4 2574.44   47.04
   2  -1   4 2482.05   33.55
  -2  -1   5   11.32    3.77
  -2   1   5   11.79    3.75
   2  -1   5    5.97    2.89
  -2  -1   5   13.01    2.78
  -2  -1   5   11.91    3.08
   2   1   5   11.73    2.97
  -2   1   5   11.53    3.22
  -2   1   6   11.93    3.23
   2  -1   6    9.65    3.16
  -2  -1   6    9.25    2.61
   2   1   6   20.92    4.52
  -2  -1   6   15.48    4.42
  -2   1   6    7.76    2.85
  -2  -1   7  120.70   10.13
   2   1   7  120.33   11.02
  -2   1   7  117.05   10.55
   2  -1   7  118.32   11.55
  -2  -1   7  132.69   11.75
  -2   1   7  124.90   11.76
   2  -1   8 1108.39   37.15
   2   1   8 1137.70   36.30
  -2  -1   8 1084.61   35.81
  -2  -1   8 1142.96   32.51
  -2   1   8 1114.15   36.72
  -2   1   8 1190.56   35.53
  -2   1   9    3.34    1.18
   2   1   9    4.54    3.22
  -2   1   9    3.31    2.89
  -2  -1   9    1.13    1.14
   2  -1   9    5.82    2.30
  -2  -1   9    4.05    2.76
   2   1   9    7.57    3.25
  -2  -1  10  625.51   27.47
  -2  -1  10  635.37   30.34
   2  -1  10  673.94   31.39
  -2   1  10  669.25   29.50
   2   1  10  620.00   28.86
  -2   1  10  632.69   30.18
   2   1  10  665.12   30.32
  -2   1  11   -0.18    1.61
  -2  -1  11    0.79    2.39
   2  -1  11   -1.54    1.67
   2   1  11    0.04    2.32
  -2  -1  11    2.81    2.40
  -2   1  11    1.63    2.97
   2   1  11    2.40    2.46
  -2  -1  12 1807.42   51.46
   2   1  12 1853.86   55.17
  -2  -1  12 1760.85   55.22
   2  -1  12 1761.05   54.01
  -2   1  12 1874.40   55.20
   2  -1  12 1909.40   56.45
  -2   1  12 1923.75   54.45
   2   1  12 1779.15   53.62
  -2  -1  13    6.79    4.35
  -2   1  13   13.48    4.99
  -2   1  13   11.12    5.68
   2   1  13    0.47    1.07
   2  -1  13   12.37    6.74
  -2  -1  13   -0.15    3.68
   2   1  13    3.74    2.92
   2  -1  13    1.45    2.98
  -2  -1  14  914.89   42.59
   2   1  14  947.44   41.63
   2   1  14  884.92   41.05
  -2   1  14  875.69   40.70
  -2  -1  14  890.91   39.04
   2  -1  14  962.81   42.69
   2  -1  14  847.43   41.14
  -2   1  14  918.46   40.66
  -2   1  15  380.43   27.33
   2   1  15  385.13   27.83
  -2  -1  15  400.31   27.28
   2  -1  15  428.84   29.28
  -2   1  15  401.47   28.04
  -2  -1  15  475.47   31.49
   2  -1  15  417.34   29.38
   2   1  15  399.91   27.97
   2  -1  16   85.84   13.72
  -2  -1  16   74.11   12.56
   2  -1  16   85.42   14.13
  -2   1  16  106.29   14.75
   2   1  16  106.83   14.99
  -2  -1  16   89.46   14.11
   2   1  16   97.61   14.26
  -2   1  16   83.49   12.47
   2  -1  17   59.57   11.40
  -2   1  17   45.18   10.11
  -2  -1  17   45.15    9.35
   2   1  17   45.46    8.66
   2  -1  17   32.91    8.46
  -2  -1  17   31.48    8.95
  -2   1  17   48.36    9.76
   2   1  17   32.71    9.47
  -2  -1  18 1037.17   47.48
  -2  -1  18 1093.94   51.40
  -2   1  18 1108.61   50.89
   2  -1  18 1026.20   49.92
   2  -1  18 1114.95   51.10
   2   1  18 1094.68   50.79
  -2   1  18 1075.86   49.87
   2   1  18 1103.10   50.46
  -2  -1  19    1.28    1.68
   2   1  19    1.91    3.62
  -2  -1  19    1.43    2.71
   2   1  19    4.58    3.34
  -2   1  19   -5.05    6.60
   2  -1  19   -2.31    2.10
  -2   1  19    3.72    4.54
   2  -1  19    8.50    2.99
  -2   1  20  100.05   15.73
   2  -1  20   91.36   16.78
  -2  -1  20  104.31   15.49
   2   1  20   82.59   15.40
  -2  -1  20   83.72   14.90
   2   1  20   85.00   14.97
  -2   1  20   50.72   11.58
   2  -1  20   85.84   14.72
   2   1  21   64.18   12.38
   2  -1  21   53.51   11.40
   2  -1  21   54.02   11.52
  -2   1  21   57.98   11.62
  -2   1  21   57.70   13.23
  -2  -1  21   58.72   11.94
  -2  -1  21   61.33   13.47
   2   1  21   44.31    8.89
  -2   1  22  190.97   22.72
  -2   1  22  230.95   25.82
   2   1  22  214.49   24.47
   2   1  22  244.67   26.62
  -2  -1  22  196.19   23.48
   2  -1  22  257.60   26.46
  -2  -1  22  208.41   23.71
   2  -1  22  214.35   24.11
   2   1  23   27.56    9.63
  -2   1  23   44.91   11.04
  -2   1  23   38.18   10.36
   2   1  23   46.69   11.16
   2  -1  23   56.26   13.52
  -2  -1  23   69.12   14.62
  -2  -1  23   38.13   11.31
   2  -1  23   44.38   11.04
   2   1  24   13.93    7.14
  -2  -1  24   12.94    3.20
  -2   1  24   21.56    8.68
   2  -1  24    4.19    4.47
  -2  -1  24   11.45    4.65
   2   1  24   20.90    7.71
  -2   1  24   36.94   11.74
   2  -1  24   31.49    9.60
  -2  -1  25   84.65   15.88
   2  -1  25  134.98   20.98
   2   1  25  134.43   21.24
  -2   1  25  112.00   18.96
  -2  -1  25  140.50   21.23
   2   1  25   95.57   17.51
   2  -1  25  105.12   17.25
  -2   1  25  132.04   20.76
   2  -1  26  259.22   28.34
  -2   1  26  322.12   32.09
  -2  -1  26  290.03   30.31
   2  -1  26  290.62   31.12
  -2   1  26  341.79   32.65
   2   1  26  283.80   31.07
   2   1  26  332.61   32.41
  -2  -1  26  314.50   31.32
  -2  -1  27   28.67   10.53
   2   1  27   39.73   11.25
   2  -1  27   26.92    8.83
  -2   1  27   23.67    9.57
   2   1  27   45.73   13.43
  -2  -1  27    7.69    4.50
   2  -1  27   41.52   12.42
  -2  -1  28  228.22   27.68
  -2   1  28  222.13   28.15
   2   1  28  254.41   30.60
   2  -1  28  246.87   28.11
   2  -1  28  303.71   32.50
  -2   1  28  259.62   28.87
   2   1  28  249.30   29.04
  -2  -1  28  243.52   29.32
   2   1  29  115.93   19.39
   2  -1  29  139.72   22.92
  -2   1  29  117.12   21.02
  -2  -1  29  137.15   21.99
  -2   1  29  113.97   20.06
   2   1  29  123.51   21.46
  -2  -1  29  118.08   20.39
   2  -1  29  147.05   22.67
  -2   1  30    4.75    4.01
  -2  -1  30    8.68    5.53
  -2   1  30   10.84    5.38
   2   1  30   -1.33    3.09
   2  -1  30   18.29    8.81
  -2  -1  30    8.98    3.39
   2   1  30   15.92    9.94
   2  -1  30   22.51   11.43
  -2  -1  31    6.01    4.07
   2   1  31    4.81    6.46
   2  -1  31    2.19    3.75
  -2   1  31    3.95    5.66
  -2  -1  31    4.08    6.71
   2  -1  31    3.08    5.18
   2   1  31   -2.13    8.14
  -2   1  31    4.45    2.32
  -2  -1  32   75.61   17.09
  -2   1  32   57.27   12.93
   2   1  32   60.53   14.39
   2  -1  32   62.56   16.17
   2   1  32   43.09   10.84
   2  -1  32   61.05   14.65
  -2   1  32   52.14   13.62
  -2  -1  32   75.31   14.84
  -2  -2   0 1275.76   29.27
   2  -2   0 1363.43   31.70
  -2   2   0 1286.92   34.62
  -2  -2   0 1257.07   19.87
   2  -2   0 1224.13   23.73
   2   2   0 1377.32   18.07
   2  -2  -1  227.78   12.69
  -2  -2   1  228.20   12.92
   2  -2   1  231.09   10.54
  -2  -2  -1  227.76   11.81
  -2   2   1  241.16   14.88
   2   2   1  240.02    8.90
   2  -2  -1  241.83   11.05
   2  -2   1  212.95   12.95
  -2   2  -1  225.18   14.65
  -2  -2   1  201.00    8.76
   2   2   2    2.36    1.61
   2  -2  -2    3.04    2.07
  -2  -2   2    2.75    1.28
   2  -2  -2   -0.12    1.45
  -2  -2   2    2.75    2.41
   2  -2   2    0.69    0.85
  -2  -2  -2   -0.25    0.78
  -2   2   2   -1.54    2.30
   2  -2   2    0.11    1.50
  -2  -2   3 3642.43   44.99
   2  -2   3 3390.12   53.79
  -2   2   3 3369.88   52.05
  -2  -2  -3 3392.26   47.35
   2  -2  -3 3432.64   49.19
  -2  -2   3 3300.57   51.47
  -2  -2   3 3648.13   33.09
   2  -2   3 3540.96   44.37
  -2   2   3 3576.34   59.09
  -2   2   4 2650.42   50.30
  -2  -2   4 2533.75   32.54
   2   2   4 2666.21   43.49
  -2  -2   4 2764.45   42.95
  -2   2   4 2531.74   46.77
  -2  -2   4 2452.16   46.96
   2  -2   4 2561.52   47.56
  -2   2   5 1622.55   40.36
  -2   2   5 1635.98   39.01
  -2  -2  -5 1535.89   35.54
   2  -2   5 1691.58   40.30
  -2  -2   5 1654.29   36.76
   2  -2   5 1611.47   33.41
   2   2   5 1698.48   37.38
  -2  -2   5 1687.95   30.44
  -2  -2   5 1620.72   39.95
  -2  -2  -6  597.78   23.63
   2   2   6  418.48   19.50
   2   2   6  417.41   19.16
  -2  -2   6  500.79   18.53
  -2   2   6  285.63   17.89
  -2  -2   6  461.83   21.12
  -2   2   6  504.47   22.62
   2  -2   6  483.62   22.84
  -2  -2   6  449.38   22.17
   2  -2   6  477.88   19.55
  -2   2   7  656.66   26.44
  -2   2   7  586.76   26.44
   2  -2   7  581.26   26.71
  -2  -2   7  626.01   22.73
   2   2   7  623.47   23.95
   2   2   7  586.93   24.56
  -2  -2   7  605.84   25.62
  -2  -2   7  660.14   27.54
  -2  -2   8    4.13    3.16
   2  -2   8    4.37    3.35
  -2  -2   8    1.61    1.30
   2  -2   8    1.38    1.07
  -2   2   8    0.30    2.07
   2   2   8    1.31    0.74
  -2   2   8   -0.45    2.53
  -2  -2   8    2.77    1.97
   2   2   8    2.13    1.84
   2  -2   9   28.89    6.64
  -2  -2   9   27.59    5.88
   2   2   9   27.82    5.67
  -2   2   9   31.14    6.30
  -2   2   9   30.81    7.06
   2   2   9   30.31    6.20
  -2  -2   9   31.77    5.86
  -2  -2   9   29.59    6.24
  -2   2  10   15.45    4.87
   2   2  10   16.11    4.36
   2   2  10    5.87    2.90
  -2  -2  10   11.22    4.01
  -2  -2  10    8.21    2.14
  -2   2  10    7.55    4.20
   2  -2  10   10.49    4.13
   2   2  11  526.16   28.30
  -2   2  11  527.40   28.28
  -2  -2  11  496.64   25.97
   2  -2  11  529.94   29.11
  -2  -2  11  507.07   28.18
  -2   2  11  516.81   28.28
   2   2  11  504.79   27.04
  -2   2  12    8.07    4.15
  -2  -2  12    6.22    3.52
   2   2  12    1.48    1.76
  -2  -2  12    2.93    2.06
   2  -2  12    2.52    3.25
   2   2  12    5.96    2.38
  -2   2  13 1813.90   56.19
  -2  -2  13 1765.70   52.96
   2   2  13 1653.22   53.81
  -2  -2  13 1705.85   56.68
   2  -2  13 1728.52   57.15
  -2   2  13 1711.49   55.16
   2   2  13 1785.53   54.95
  -2   2  14   17.11    5.37
   2   2  14    8.84    4.17
  -2   2  14   15.19    5.57
  -2  -2  14    8.04    3.04
  -2  -2  14   12.13    4.22
   2  -2  14    4.81    1.60
   2  -2  14    5.32    4.00
   2   2  14    6.56    3.36
  -2   2  15   36.16    7.92
   2   2  15   32.30    8.17
   2   2  15   24.33    6.28
  -2  -2  15   23.68    6.03
  -2   2  15   30.49    7.58
   2  -2  15   16.56    6.14
  -2  -2  15   27.89    7.84
   2  -2  15   32.02    8.13
   2   2  16   96.66   13.72
  -2  -2  16   80.97   12.40
   2  -2  16  103.80   15.27
  -2   2  16  115.55   16.17
  -2  -2  16   75.40   13.52
   2   2  16   69.56   12.52
   2  -2  16   88.50   13.30
  -2   2  16   71.22   12.23
   2  -2  17   -0.29    4.24
  -2  -2  17   -1.26    4.07
   2   2  17    1.91    5.46
  -2   2  17   -0.13    1.42
   2   2  17   -2.15    3.49
  -2  -2  17    4.67    5.71
   2  -2  17    0.59    1.51
  -2   2  17   10.68    4.57
  -2   2  18   32.63    8.64
  -2  -2  18   42.30   10.11
   2  -2  18   42.47   11.49
  -2   2  18   41.32    8.92
  -2  -2  18   52.44   12.48
   2   2  18   41.62   10.62
   2   2  18   46.20    9.80
   2  -2  18   42.59   11.02
  -2   2  19   56.69   11.83
   2   2  19   57.08   11.51
  -2  -2  19   43.44    9.83
   2  -2  19   75.56   15.06
   2   2  19   64.79   13.24
  -2  -2  19   40.12   11.59
  -2   2  19   56.83   11.83
   2  -2  19   49.07   10.58
   2   2  20    1.03    1.78
  -2   2  20   -4.13    4.19
  -2  -2  20    1.10    3.48
  -2  -2  20    0.66    4.98
   2  -2  20   -0.31    1.60
  -2   2  20    5.11    2.89
   2   2  20    2.80    5.95
   2  -2  20   -4.22    5.32
   2   2  21   91.65   14.91
   2  -2  21  119.81   17.69
  -2  -2  21   83.70   14.01
   2   2  21  112.20   17.48
  -2  -2  21   95.50   16.84
  -2   2  21   71.73   12.45
   2  -2  21   67.40   14.14
  -2   2  21   83.90   14.09
  -2  -2  22   67.51   13.02
  -2   2  22   65.15   13.05
   2   2  22   41.33   10.09
   2   2  22   29.09   10.30
  -2   2  22   34.41    9.14
  -2  -2  22   50.21   11.88
   2  -2  22   67.45   14.68
   2  -2  22   42.79   11.39
  -2  -2  23    2.68    2.61
   2   2  23    3.64    4.25
   2  -2  23    0.51    2.58
  -2   2  23   -0.66    2.32
  -2   2  23    8.98    7.51
  -2  -2  23    4.25    6.44
   2   2  23    0.32    3.24
   2  -2  23    1.36    3.22
   2  -2  24    7.70    4.75
  -2  -2  24   -2.37    4.28
   2  -2  24    6.53    4.08
  -2   2  24    4.25    4.33
  -2   2  24    3.19    3.29
  -2  -2  24   -3.54    3.43
   2   2  24   15.63    7.34
   2   2  24    5.06    4.95
  -2   2  25   -1.14    2.68
   2   2  25   -2.77    5.41
  -2  -2  25   -1.38    5.28
  -2   2  25    2.04    6.77
  -2  -2  25    0.92    4.52
   2  -2  25   -1.71    3.95
   2   2  25    5.69    4.76
   2  -2  25   -3.26    2.97
   2  -2  26   15.59    4.86
  -2   2  26   10.18    6.32
   2   2  26   10.78    3.63
   2   2  26   23.91   10.83
  -2   2  26   22.67    9.08
  -2  -2  26   25.93    9.69
   2  -2  26    8.73    7.99
  -2  -2  26   13.85    5.78
   2   2  27   23.61    9.03
   2  -2  27   60.14   13.94
  -2   2  27   27.94   10.40
  -2   2  27   14.95    6.52
  -2  -2  27   29.91   12.17
   2  -2  27   26.86    8.46
   2   2  27   35.01   11.70
  -2  -2  27   21.33    9.13
   2   2  28   -0.97    1.75
  -2  -2  28    7.97    4.15
  -2   2  28    3.06    6.10
   2  -2  28    3.96    3.39
  -2  -2  28    7.26    4.43
   2   2  28    0.88    5.62
   2  -2  28   15.53    7.52
  -2   2  28    5.04    4.42
  -2   2  29   24.76   11.60
   2   2  29   47.34   14.21
  -2  -2  29   17.25    7.06
   2  -2  29   26.98   10.85
   2   2  29   40.07   11.77
  -2   2  29   27.85    9.66
  -2  -2  29   27.57   10.55
   2  -2  29   34.58   12.20
   2   2  30   -0.53    2.95
  -2  -2  30    2.40    3.46
   2  -2  30    1.01    5.86
   2  -2  30    3.69    5.57
  -2   2  30   14.48    9.77
  -2  -2  30   17.79    9.10
   2   2  30    0.84    4.14
  -2   2  30    4.69    3.03
  -2   2  31   19.16    8.93
   2  -2  31    0.99    6.45
   2   2  31   16.66    9.20
  -2  -2  31   39.76   13.30
   2  -2  31   11.97    6.11
  -2   2  31   16.27    8.69
  -2  -2  31   21.59    9.75
   2   2  31   18.74    8.59
   2  -2  32    3.77    5.35
  -2   2  32    6.73    6.15
   2   2  32   -2.25    3.33
  -2  -2  32   -3.84    4.99
   2   2  32   -1.95    5.60
  -2  -2  32   -2.29    4.04
  -2   2  32    2.59    5.50
   2  -2  32   16.75   13.63
  -2  -3   0 1024.56   30.56
   2  -3   0 1102.87   28.03
   2  -3   0 1032.90   31.36
  -2   3   0 1011.52   33.25
  -2   3   1  514.76   23.34
  -2  -3   1  514.13   22.11
  -2  -3  -1  467.90   20.61
   2  -3   1  514.36   19.58
   2  -3  -1  507.70   19.11
  -2  -3   1  575.02   12.46
  -2  -3   1  525.44   14.80
   2  -3  -1  521.36   22.11
   2   3   1  538.43   16.54
   2  -3   1  472.41   21.28
   2  -3   2   15.48    3.56
  -2  -3   2   27.20    5.22
  -2  -3   2   22.40    3.30
   2  -3  -2   22.25    4.55
  -2   3   2   14.30    4.10
   2  -3  -2   16.45    4.63
   2  -3   2   21.38    5.53
  -2  -3   2   20.92    2.76
   2   3   2   20.82    3.52
  -2  -3  -2   17.42    3.85
   2   3   3  108.86    8.80
   2  -3   3  111.08    9.42
  -2  -3  -3  108.81    9.82
   2  -3   3   84.50    9.42
   2  -3  -3  112.46    9.90
  -2   3   3  101.55   10.50
   2   3   3   95.98    5.70
  -2  -3   3   95.60   10.01
  -2  -3   3   92.04    6.60
  -2  -3   3   92.11    7.11
   2  -3   4   28.31    5.26
   2  -3  -4   36.47    6.13
  -2  -3   4   23.43    4.47
   2  -3   4   24.27    5.64
  -2  -3  -4   28.49    5.25
  -2  -3   4   23.19    3.59
  -2   3   4   27.20    5.53
  -2  -3   4   25.29    4.30
  -2   3   4   32.42    5.74
   2   3   4   25.74    4.48
   2   3   4   24.15    3.40
  -2  -3   5  183.93   14.78
   2  -3   5  185.82   14.60
  -2  -3   5  177.15   12.29
  -2   3   5  183.70   13.95
  -2   3   5  192.70   14.76
  -2  -3  -5  161.61   12.49
   2  -3  -5  181.60   13.78
  -2  -3   5  191.21   10.86
   2  -3   5  156.70   12.22
   2   3   5  181.27   10.13
   2   3   5  202.15   13.61
   2  -3   6  315.63   19.46
  -2  -3   6  301.75   19.26
   2  -3   6  286.63   16.70
   2   3   6  311.75   18.01
  -2  -3  -6  302.24   18.51
  -2  -3   6  315.88   17.89
  -2   3   6  319.49   19.41
  -2  -3   6  349.41   16.31
  -2  -3  -7   33.56    6.20
  -2  -3   7   21.51    5.66
   2  -3   7   20.63    4.50
   2   3   7   22.04    4.93
  -2   3   7   36.08    6.94
  -2   3   7   24.08    5.09
   2   3   7   24.40    4.83
   2  -3   7   29.50    6.61
  -2  -3   7   21.18    5.08
  -2  -3   7   20.64    4.16
   2   3   8  626.04   25.09
  -2  -3   8  599.74   27.52
  -2  -3   8  664.82   25.92
  -2  -3  -8  577.84   27.01
  -2   3   8  637.94   29.26
   2  -3   8  606.49   28.82
  -2  -3   8  561.35   28.43
  -2   3   8  578.27   27.85
   2  -3   8  599.33   26.67
   2   3   8  653.30   29.01
   2  -3   9  335.22   20.49
  -2   3   9  359.07   22.81
  -2  -3   9  338.94   21.78
  -2  -3   9  332.71   19.47
   2  -3   9  321.44   22.02
  -2  -3  -9  364.01   22.72
   2   3   9  311.19   18.79
  -2   3   9  373.31   23.02
   2   3   9  302.92   20.46
  -2  -3   9  311.51   21.68
   2  -3  10   94.60   12.65
  -2  -3  10  116.68   11.99
  -2  -3  10  120.93   13.69
  -2   3  10  133.45   14.72
   2   3  10  132.80   12.73
  -2   3  10  108.22   12.82
   2   3  10  154.23   14.95
   2  -3  10  123.67   12.95
  -2  -3  10  124.30   14.78
   2   3  11  394.88   25.44
  -2  -3  11  395.07   23.18
   2   3  11  419.55   24.51
  -2   3  11  372.73   24.77
  -2  -3  11  435.46   27.06
  -2   3  11  388.24   25.36
  -2  -3  11  399.81   26.72
   2  -3  11  403.98   26.33
   2  -3  11  420.67   24.96
  -2  -3  12    3.94    4.90
  -2   3  12    2.52    1.95
   2  -3  12   -0.72    2.03
   2   3  12    6.66    4.08
  -2  -3  12   -1.36    3.07
  -2  -3  12    0.63    1.98
  -2   3  12    1.56    3.40
   2   3  12    0.45    1.63
  -2   3  13   76.39   12.07
  -2  -3  13   74.03   10.95
  -2  -3  13   99.06   12.82
   2   3  13   72.29   11.54
   2   3  13   95.97   12.26
   2  -3  13   94.79   13.82
  -2   3  13   73.25   11.68
  -2   3  14    2.61    1.21
  -2   3  14   18.16    6.91
  -2  -3  14    2.47    1.57
   2   3  14   15.46    5.98
   2  -3  14    3.60    4.04
  -2  -3  14    4.64    1.08
   2   3  14    3.78    2.39
   2   3  15   86.62   14.20
  -2  -3  15   75.03   12.32
   2  -3  15   68.18   11.79
  -2   3  15   83.11   13.34
  -2   3  15   65.32   11.78
   2   3  15   76.01   11.74
   2  -3  15   75.71   13.44
  -2  -3  15   70.51   11.05
   2   3  16    2.15    2.87
  -2   3  16   -0.65    4.23
  -2  -3  16    1.81    2.95
   2  -3  16    1.21    4.00
   2  -3  16   -0.39    1.98
  -2  -3  16    5.19    5.03
   2   3  16   -2.89    5.40
  -2   3  16   -0.80    2.08
  -2  -3  17  283.61   26.27
  -2  -3  17  321.60   26.08
  -2   3  17  290.64   26.00
   2  -3  17  340.43   28.21
   2  -3  17  258.91   24.74
  -2   3  17  309.57   26.47
   2   3  17  251.93   23.20
   2   3  17  292.76   25.73
  -2  -3  18  105.33   15.85
   2  -3  18   91.89   14.60
  -2   3  18  112.56   16.31
  -2  -3  18  104.65   16.85
   2   3  18  112.48   15.67
   2  -3  18   91.67   15.51
  -2   3  18   83.06   13.95
   2   3  18   79.32   13.62
  -2   3  19  226.35   24.10
  -2  -3  19  211.23   24.14
   2   3  19  200.77   22.37
  -2  -3  19  214.61   23.00
   2  -3  19  242.72   25.20
   2  -3  19  237.75   24.75
   2   3  19  240.16   24.94
  -2   3  19  210.62   22.88
   2  -3  20   26.39    8.24
  -2   3  20   46.27   11.02
  -2   3  20   35.97   10.07
   2   3  20   63.72   12.65
  -2  -3  20   39.47   10.29
  -2  -3  20   28.47    8.54
   2   3  20   42.98   10.87
   2  -3  20   48.28   11.10
   2   3  21   12.68    7.79
  -2   3  21    4.94    4.45
  -2  -3  21    5.31    3.53
   2  -3  21    2.39    4.67
   2  -3  21    1.88    1.92
   2   3  21    8.57    7.25
  -2  -3  21    5.94    5.56
  -2   3  21    5.78    5.47
   2  -3  22   50.82   12.37
  -2  -3  22   67.66   13.66
   2  -3  22   66.90   14.30
   2   3  22   70.71   14.29
  -2  -3  22   61.28   13.98
  -2   3  22   47.67   11.14
  -2   3  22   65.24   14.38
   2   3  22   64.70   14.69
   2  -3  23    3.47    4.20
   2   3  23   -0.46    4.20
  -2   3  23    7.60    6.89
  -2  -3  23   -0.75    3.39
  -2  -3  23    0.02    1.94
   2   3  23    0.40    2.85
   2  -3  23    5.54    8.04
  -2   3  23    0.04    3.68
   2   3  24   19.22    9.96
  -2   3  24   11.82    6.42
   2   3  24   21.84    8.38
  -2  -3  24   13.73    3.96
   2  -3  24   14.32    6.32
  -2   3  24   19.46    9.04
   2  -3  24    9.44    2.38
  -2  -3  24   10.22    3.19
  -2  -3  25  174.93   23.62
   2   3  25  168.40   23.38
   2  -3  25  170.44   22.82
  -2   3  25  176.74   22.62
   2  -3  25  169.60   23.83
  -2  -3  25  191.83   25.14
  -2   3  25  150.78   22.84
   2   3  25  171.76   23.07
   2  -3  26    0.90    3.94
  -2  -3  26   -0.52    2.13
   2  -3  26    6.32    3.96
  -2   3  26    7.07    5.46
   2   3  26    9.37    6.69
  -2   3  26   -2.65    4.52
   2   3  26    0.94    2.26
  -2  -3  26   -3.02    5.03
  -2  -3  27   11.60    6.87
  -2   3  27    7.08    5.51
   2   3  27    7.73    4.12
   2  -3  27   13.97    7.30
   2  -3  27   17.68    7.40
  -2   3  27    8.46    5.68
   2   3  27    8.05    5.03
  -2  -3  27    6.98    6.13
  -2  -3  28   48.42   12.97
  -2   3  28   36.67   11.72
  -2   3  28   51.30   13.33
   2   3  28   39.35   11.91
   2  -3  28   40.17   10.39
  -2  -3  28   27.70   10.40
   2   3  28   33.45   11.05
   2  -3  28   39.96   13.06
  -2   3  29   96.51   19.02
   2   3  29   90.65   17.99
   2   3  29  102.89   19.67
   2  -3  29   77.49   15.99
  -2  -3  29  112.78   20.57
  -2   3  29   89.04   18.27
  -2  -3  29   93.69   18.16
   2  -3  29   85.75   17.69
  -2   3  30   17.85    8.38
   2   3  30    7.21    6.20
   2   3  30   12.96    9.30
  -2  -3  30   19.80    8.13
   2  -3  30   13.65    8.76
  -2   3  30   31.23   11.79
  -2  -3  30    8.89    6.56
   2  -3  30   20.21   10.35
   2  -3  31   87.16   20.02
   2   3  31   60.05   15.75
  -2  -3  31   43.61   13.03
  -2   3  31   89.37   18.76
   2  -3  31   50.50   14.12
   2   3  31   83.64   17.83
  -2   3  31   73.91   16.50
  -2  -3  31   74.35   17.28
   2  -4   0    4.00    2.60
  -2   4   0    6.21    2.46
  -2  -4   0    2.18    1.60
  -2  -4   0    4.95    1.91
   2  -4   0    6.67    3.14
  -2   4   1    7.15    4.11
   2  -4  -1    1.98    2.02
   2  -4   1    3.50    0.72
  -2  -4  -1    7.06    4.30
  -2  -4   1    3.61    1.62
   2  -4   1    4.26    2.65
   2  -4  -1    3.34    2.28
  -2  -4   1    6.77    1.40
   2   4   2   82.47    8.14
  -2  -4   2   89.87   10.70
   2  -4   2   80.12    8.89
  -2  -4  -2   98.92   10.68
   2  -4  -2   64.20    8.88
   2  -4  -2   84.11    9.14
   2  -4   2   85.23   10.21
  -2   4   2   57.83    8.37
  -2  -4   2   74.38    7.35
  -2  -4   2   87.88    6.01
   2  -4   3  100.04   10.34
  -2  -4   3  107.14    8.48
   2  -4  -3  114.58   11.14
   2  -4   3  123.42   12.15
  -2  -4  -3  113.16   11.40
   2  -4  -3  111.10   11.64
  -2  -4   3   93.94    7.52
   2   4   3   99.58    9.50
  -2   4   3  106.02   11.06
  -2  -4   3   80.59    9.97
   2  -4  -4  360.75   20.37
   2  -4   4  313.96   18.83
  -2  -4   4  334.10   15.74
  -2  -4  -4  326.08   19.68
   2   4   4  369.49   11.23
   2   4   4  363.14   18.73
  -2   4   4  330.85   20.28
  -2  -4   4  362.18   22.10
  -2  -4   4  352.05   15.85
   2  -4   4  356.01   20.68
   2  -4   5   29.11    6.50
   2  -4  -5   30.20    6.18
  -2  -4  -5   39.77    7.11
   2  -4   5   35.88    7.14
  -2  -4   5   33.53    5.64
  -2  -4   5   30.38    7.04
   2   4   5   37.70    6.33
  -2  -4   5   36.54    5.41
  -2   4   5   32.66    7.17
  -2   4   5   23.99    5.68
   2  -4   6  590.44   26.40
   2  -4  -6  593.71   27.90
  -2  -4  -6  553.73   26.96
   2  -4   6  579.05   27.70
   2   4   6  585.20   21.41
  -2  -4   6  552.44   23.45
  -2   4   6  597.35   28.45
  -2  -4   6  570.33   22.51
   2   4   6  571.85   26.35
  -2   4   6  636.42   28.84
  -2  -4   6  566.22   28.62
   2  -4  -7  372.96   22.93
  -2  -4  -7  270.29   19.37
  -2  -4   7  332.53   18.02
  -2   4   7  275.45   19.41
   2   4   7  314.59   20.25
   2  -4   7  370.40   21.83
   2   4   7  387.34   17.87
  -2   4   7  319.72   21.23
   2  -4   7  303.84   21.13
  -2  -4   7  345.43   22.70
  -2  -4   7  372.79   20.57
  -2  -4   8  849.10   36.26
   2  -4   8  873.85   34.58
  -2   4   8  885.90   35.96
   2  -4  -8  871.36   36.98
  -2   4   8  844.13   35.41
  -2  -4   8  901.89   33.78
  -2  -4   8  942.35   32.42
  -2  -4  -8  826.93   35.80
   2   4   8  816.68   28.67
   2   4   8  853.71   34.47
  -2   4   9  149.32   15.27
  -2   4   9  192.48   17.21
  -2  -4  -9  190.96   17.44
   2  -4   9  170.24   15.36
  -2  -4   9  183.11   14.87
  -2  -4   9  177.28   17.73
   2   4   9  180.60   14.14
  -2  -4   9  186.08   16.00
   2  -4   9  168.50   16.26
   2   4   9  167.35   15.65
   2  -4  -9  207.40   18.17
  -2  -4  10  316.46   20.71
   2   4  10  333.55   20.78
  -2  -4 -10  334.05   23.49
   2  -4  10  314.49   23.33
  -2  -4  10  287.04   22.92
  -2   4  10  311.52   22.58
   2  -4  10  310.07   21.52
  -2   4  10  302.94   22.27
   2   4  10  359.53   24.00
  -2  -4  10  325.32   22.54
   2  -4  11    3.37    4.59
  -2  -4  11   -0.72    1.81
   2   4  11    0.70    1.99
   2   4  11    1.34    1.93
  -2  -4  11    1.80    4.02
  -2  -4 -11    0.05    1.39
   2  -4  11    3.81    4.51
  -2   4  11    2.87    2.94
  -2  -4  11    0.60    1.03
  -2   4  11    2.43    2.17
  -2   4  12   15.54    5.78
  -2  -4  12   22.05    6.47
   2  -4  12   11.50    4.32
   2   4  12   23.20    5.77
  -2   4  12   19.86    4.38
  -2  -4  12   18.29    5.99
   2   4  12   16.12    5.28
  -2  -4 -12   15.25    5.96
  -2  -4  12   12.86    4.93
   2  -4  12   16.84    5.92
   2  -4  13    6.69    3.73
  -2  -4  13    9.22    4.82
   2  -4  13    0.92    2.55
  -2  -4 -13   15.33    5.72
  -2   4  13    4.99    4.31
  -2  -4  13   11.64    5.47
  -2  -4  13   18.95    6.81
   2   4  13    5.17    2.97
   2   4  13   15.82    6.62
  -2   4  13   12.19    5.23
  -2  -4 -14   94.43   14.28
  -2   4  14  109.89   15.09
  -2  -4  14  109.82   14.20
   2  -4  14   87.07   13.50
  -2   4  14  118.69   15.25
   2   4  14   76.81   11.91
  -2  -4  14  101.30   14.93
   2   4  14   95.40   14.19
  -2  -4  14  109.13   15.34
  -2   4  15  301.76   25.47
  -2  -4  15  284.71   23.75
  -2  -4  15  304.44   25.89
   2   4  15  284.37   23.66
   2   4  15  295.75   25.07
  -2   4  15  306.61   25.97
  -2   4  16   49.95   10.71
   2  -4  16   60.59   13.25
   2   4  16   50.32   10.27
  -2  -4  16   53.38   11.26
  -2   4  16   75.07   13.31
   2   4  16   81.48   13.48
  -2  -4  16   46.88   11.15
   2  -4  16   74.21   13.27
  -2   4  17    1.91    1.93
   2   4  17   -4.02    5.26
   2   4  17   -4.56    6.69
  -2  -4  17    1.53    2.77
  -2   4  17   -2.55    3.77
   2  -4  17    1.07    3.16
   2  -4  17   -0.39    4.09
  -2  -4  17    0.53    1.96
  -2   4  18    5.78    4.84
   2   4  18    5.95    5.17
  -2  -4  18   18.19    7.89
  -2   4  18    8.38    5.41
  -2  -4  18    6.80    4.33
   2  -4  18    6.82    4.35
   2   4  18   12.23    5.21
   2  -4  18    9.05    5.05
  -2  -4  19    0.23    2.47
  -2   4  19    2.32    5.11
   2   4  19   -0.50    3.79
   2   4  19    2.86    5.38
  -2   4  19    2.55    4.87
   2  -4  19    0.86    3.59
  -2  -4  19   -1.84    1.58
   2  -4  19   -4.32    3.80
  -2  -4  20  117.46   17.80
   2  -4  20  156.65   20.06
   2   4  20  104.04   17.03
  -2   4  20  148.21   20.50
  -2   4  20   87.16   15.93
  -2  -4  20  111.69   18.70
   2   4  20  102.48   16.71
   2  -4  20  134.58   20.22
  -2   4  21   13.66    7.19
   2   4  21    1.77    3.60
  -2  -4  21    5.76    5.60
  -2   4  21    9.85    7.47
  -2  -4  21    3.40    6.00
   2  -4  21    7.23    7.36
   2   4  21   -0.17    2.98
   2  -4  21   10.99    5.47
  -2  -4  22   62.64   13.67
   2  -4  22   91.32   15.94
   2   4  22   60.41   14.29
  -2   4  22   53.38   11.56
   2  -4  22   40.21   12.36
   2   4  22   61.52   14.22
  -2   4  22   62.73   14.51
  -2  -4  22   56.49   12.83
   2  -4  23    7.75    4.77
   2   4  23    8.42    6.20
  -2  -4  23   11.77    7.65
  -2   4  23   14.92    6.00
   2   4  23   18.34    8.11
   2  -4  23   20.09    9.33
  -2  -4  23   14.32    7.25
  -2   4  23    5.27    1.87
  -2   4  24   27.26    8.41
   2  -4  24   12.20    7.97
  -2  -4  24   26.96    9.42
   2   4  24   12.38    5.51
  -2  -4  24   13.13    5.79
  -2   4  24   25.95    9.37
   2   4  24   17.97    8.98
   2  -4  24   19.10   10.05
  -2  -4  25   36.51   10.84
   2   4  25   70.41   15.38
  -2   4  25   38.42   10.46
   2   4  25   33.26   11.44
   2  -4  25   55.44   14.93
   2  -4  25   29.27   11.57
  -2   4  25   41.45   10.63
  -2  -4  25   49.31   13.16
  -2  -4  26    0.15    3.00
  -2   4  26   -2.00    3.52
   2   4  26    2.35    3.77
   2  -4  26   -1.46    3.28
  -2  -4  26   -2.31    4.75
   2   4  26   -3.72    5.11
   2  -4  26    1.20    2.94
  -2   4  26   -0.05    4.08
   2   4  27   18.53    9.64
  -2  -4  27   17.43    9.56
   2   4  27   17.45   10.07
  -2   4  27    9.43    7.41
  -2   4  27   18.26    8.19
   2  -4  27   25.30    8.61
  -2  -4  27   28.37    8.45
   2  -4  27   18.00    8.07
  -2   4  28   20.40    8.46
   2   4  28   23.95    9.50
  -2  -4  28    9.85    6.19
  -2  -4  28   15.52    8.70
   2  -4  28   19.02    8.76
   2  -4  28   17.33    7.05
   2   4  28   11.13    6.71
  -2   4  28   38.50   12.56
   2  -4  29   -2.42    2.56
  -2   4  29    1.73    5.90
  -2  -4  29    4.43    7.36
   2   4  29    3.63    6.97
  -2   4  29   -1.91    3.71
  -2  -4  29    6.89    8.13
   2   4  29   -4.96    6.96
   2  -4  29   -9.68    9.54
   2   4  30   -5.99    5.88
  -2  -4  30    6.01    2.41
   2   4  30    5.48    5.78
  -2   4  30    1.83    2.25
  -2  -4  30    9.73    6.50
  -2   4  30   15.90    8.68
   2  -4  30   -1.79    3.72
   2  -4  30   -1.89    2.87
  -2   4  31   -0.34    3.26
  -2  -4  31   -2.58    4.44
   2   4  31    6.21    7.31
   2  -4  31    3.80    5.38
  -2   4  31    1.29    3.73
  -2  -4  31    7.83    7.33
   2   4  31    6.23    5.32
   2  -4  31   -1.55    7.28
  -2  -5   0 3672.51   58.67
  -2  -5   0 3603.73   72.20
   2  -5   0 3673.89   68.55
  -2   5   0 3756.01   73.01
   2  -5   0 3517.08   70.78
   2  -5   1   12.52    3.18
  -2  -5   1   15.61    5.13
  -2  -5  -1   19.08    4.63
  -2  -5  -1   18.51    6.10
   2  -5  -1   16.82    4.82
  -2   5   1    9.28    3.67
  -2  -5   1   22.19    4.82
   2  -5  -1   12.82    4.38
   2  -5   1   15.14    4.35
  -2  -5   2  123.85   13.30
   2  -5   2   98.63   11.57
   2  -5   2  105.01   11.84
   2  -5  -2  124.33   12.83
   2  -5  -2  108.74   11.76
  -2   5   2  121.73   12.66
  -2  -5   2  101.50    6.41
  -2  -5  -2   97.88   11.68
  -2  -5   2  107.46    9.99
   2  -5   3   78.04   10.21
  -2  -5  -3   97.67   11.46
  -2  -5   3   71.80   10.34
  -2  -5   3   78.18    8.42
   2  -5  -3   71.50   10.11
   2  -5  -3   96.29   11.49
  -2   5   3   87.08   11.02
   2  -5   3   73.30   10.43
  -2  -5   3   68.82    6.49
   2   5   3   65.48    8.29
  -2  -5   4  105.58   12.88
   2  -5   4   92.64   11.36
   2   5   4   82.10    9.84
   2  -5  -4   89.81   11.33
  -2   5   4   88.89   10.70
  -2  -5  -4   88.51   10.88
  -2  -5   4   82.61    8.90
  -2  -5   4   85.37    7.87
   2   5   4   75.02    4.62
   2  -5   4   60.66    9.31
  -2  -5   5  341.77   18.33
   2  -5   5  348.33   22.30
   2  -5  -5  345.31   21.84
   2  -5   5  328.58   22.19
  -2  -5  -5  343.20   22.52
   2   5   5  353.29   20.37
   2   5   5  327.28   12.09
  -2   5   5  353.79   23.01
  -2  -5   5  360.12   17.84
  -2  -5   5  353.82   24.28
   2  -5   6   62.74    9.70
  -2  -5   6   65.44   10.54
   2  -5   6   55.20    9.49
  -2  -5  -6   52.48    8.64
   2  -5  -6   53.72    8.98
  -2   5   6   66.76   10.04
   2   5   6   43.69    5.08
  -2   5   6   60.14    9.79
  -2  -5   6   68.21    8.44
   2   5   6   56.73    8.70
  -2  -5   6   72.16    8.58
   2  -5   7  454.33   26.00
  -2  -5   7  433.52   22.34
   2   5   7  448.84   24.87
  -2  -5  -7  433.14   26.23
  -2  -5   7  426.18   21.96
   2  -5  -7  412.02   25.79
  -2   5   7  435.33   26.27
  -2   5   7  447.80   25.85
   2   5   7  447.46   18.15
  -2  -5   7  443.74   27.50
   2  -5   7  411.75   25.62
  -2  -5  -8 1469.78   49.16
  -2  -5   8 1396.77   42.43
   2  -5  -8 1341.68   47.88
  -2   5   8 1429.49   47.94
  -2  -5   8 1324.63   40.51
  -2  -5   8 1387.87   49.73
   2  -5   8 1450.51   47.33
  -2   5   8 1467.00   49.99
   2   5   8 1466.16   47.16
   2   5   8 1333.57   34.98
   2  -5   8 1394.53   47.58
  -2  -5   9    5.24    3.64
  -2  -5   9    1.11    1.36
   2   5   9    6.14    3.95
   2  -5   9    5.32    1.48
  -2  -5  -9    2.60    2.85
  -2  -5   9    2.31    3.53
   2   5   9    1.61    1.40
   2  -5  -9    6.15    3.14
  -2   5   9    1.11    2.25
  -2   5   9    1.85    2.28
   2  -5   9    1.42    2.39
  -2  -5  10  284.75   20.10
   2  -5 -10  238.51   20.65
  -2  -5 -10  287.50   23.17
  -2   5  10  241.88   20.61
  -2  -5  10  278.52   22.62
   2   5  10  262.21   17.93
   2  -5  10  282.80   21.93
   2  -5  10  195.43   18.65
  -2  -5  10  252.16   19.69
  -2   5  10  241.24   21.45
   2   5  10  260.83   21.27
   2  -5  11   71.66   11.26
  -2  -5  11  103.40   14.42
  -2   5  11   76.45   12.27
  -2  -5 -11   65.31   11.00
  -2  -5  11   82.39   11.84
  -2   5  11   84.43   12.47
   2   5  11   86.25   10.85
   2   5  11  111.54   14.16
   2  -5  11   74.48   11.65
  -2  -5  11   88.33   12.27
   2  -5 -11   81.41   12.87
  -2  -5  12   21.07    7.55
   2   5  12   28.16    7.87
   2  -5 -12   26.40    6.42
   2  -5  12   10.13    3.93
  -2   5  12   15.49    6.42
  -2  -5 -12    7.76    4.50
  -2  -5  12   20.84    5.53
   2   5  12   18.64    5.48
   2  -5  12   14.06    5.61
  -2  -5  12   20.00    6.15
  -2   5  12   21.84    6.41
  -2  -5  13   77.85   12.52
   2  -5  13   51.93   10.13
  -2  -5 -13   62.50   11.38
  -2  -5  13   79.13   12.03
   2  -5  13   68.37   12.08
  -2   5  13   98.66   14.35
  -2   5  13   75.16   12.81
   2   5  13   80.42   11.64
   2  -5 -13   75.60   12.29
   2   5  13   75.27   11.63
  -2  -5  13   62.23   11.14
   2  -5  14  593.98   36.67
  -2  -5 -14  557.41   34.70
  -2  -5  14  545.89   32.76
   2   5  14  535.96   31.09
  -2  -5  14  532.90   34.19
  -2  -5  14  484.78   32.92
  -2   5  14  553.72   34.03
  -2   5  14  539.93   33.80
   2   5  14  549.05   34.58
  -2   5  15  157.72   18.89
  -2  -5  15  145.62   17.52
  -2  -5 -15  135.16   17.33
   2   5  15  167.67   19.36
   2   5  15  119.61   15.07
   2  -5  15  139.88   18.14
  -2  -5  15  114.92   15.85
  -2   5  15  128.46   17.66
   2  -5  15  150.32   18.00
  -2  -5  15  145.73   18.08
  -2   5  16   27.34    7.95
  -2  -5  16   29.52    7.46
   2  -5  16   25.07    7.54
  -2  -5  16   20.45    5.94
  -2   5  16    6.85    4.22
  -2  -5 -16   15.55    6.68
   2   5  16    9.95    5.86
   2   5  16   20.31    6.35
  -2  -5  16   23.96    8.79
   2  -5  16   27.14    7.77
   2  -5  16   17.75    5.55
   2   5  17   11.30    5.96
   2  -5  17    4.22    3.84
  -2  -5 -17   36.48   10.78
  -2  -5  17   15.75    5.14
  -2   5  17   23.77    9.78
  -2   5  17    2.58    4.11
   2   5  17   21.00    7.79
  -2  -5  17   20.85    7.02
   2  -5  17   14.89    7.11
  -2  -5  18  105.58   15.59
   2  -5  18   70.43   14.58
  -2   5  18  117.21   17.58
   2   5  18  121.03   16.48
  -2  -5 -18   93.88   16.18
  -2   5  18  101.98   16.18
  -2  -5  18   94.08   15.69
   2  -5  18  104.97   17.84
   2   5  18  110.32   17.17
  -2  -5  19  140.20   19.56
  -2   5  19  112.43   17.07
   2   5  19  121.68   17.99
   2  -5  19  129.30   18.80
  -2   5  19  116.12   17.43
  -2  -5 -19  132.96   19.22
  -2  -5  19  167.22   21.63
   2  -5  19  147.92   20.77
   2   5  19  149.93   20.24
   2   5  20   55.27   12.21
   2  -5  20   59.88   13.52
  -2  -5  20   38.74   10.82
  -2   5  20   69.51   13.89
  -2  -5 -20   25.84    9.22
  -2  -5  20   36.60   10.76
   2   5  20   32.44    8.80
   2  -5  20   43.11   11.49
  -2   5  20   46.54   11.38
   2   5  21    7.06    3.73
   2  -5  21    6.17    1.86
  -2  -5  21   19.45    7.20
  -2  -5  21   11.28    5.82
  -2  -5 -21    8.72    4.95
  -2   5  21   24.84   10.64
   2   5  21    0.40    3.47
   2  -5  21    6.77    5.37
  -2   5  21   10.62    5.46
   2  -5  22  162.98   22.21
  -2  -5 -22  157.19   21.43
  -2  -5  22  157.49   22.09
  -2   5  22  131.91   19.54
  -2  -5  22  148.90   21.35
   2   5  22  135.43   19.79
  -2   5  22  142.99   21.00
   2   5  22  137.21   20.02
   2  -5  22  174.33   23.09
   2   5  23    3.91    5.13
  -2  -5  23   -2.32    3.06
  -2  -5 -23    3.62    6.23
  -2   5  23   -4.57    3.02
   2  -5  23    7.75    7.64
  -2   5  23    7.65    7.27
   2   5  23   -0.25    3.24
  -2  -5  23    8.62    6.27
   2  -5  23    2.35    2.03
  -2   5  24   43.74   10.75
   2   5  24   45.79   13.16
   2  -5  24   18.58    8.17
   2   5  24   24.12   10.03
  -2   5  24   27.82    9.82
  -2  -5  24   26.19    8.89
   2  -5  24   39.23   13.43
  -2  -5 -24   40.24   12.76
  -2  -5  24   24.28    8.61
  -2   5  25    1.94    2.03
  -2  -5 -25    7.33    6.77
   2   5  25    0.05    1.76
   2  -5  25    3.41    4.73
  -2   5  25    1.20    5.78
  -2  -5  25   11.98    8.72
   2  -5  25   -1.01    5.37
   2   5  25    1.97    3.74
  -2  -5  25    3.36    5.14
   2  -5  26   49.85   14.76
  -2  -5  26   63.31   15.66
   2   5  26   68.92   14.72
  -2   5  26   53.86   12.64
  -2  -5  26   45.53   11.89
  -2  -5 -26   34.45    9.98
  -2   5  26   47.14   12.41
   2  -5  26   44.92   12.42
   2   5  26   42.80   11.53
  -2   5  27   19.60    9.46
  -2   5  27   12.92    8.28
   2   5  27    8.40    6.49
  -2  -5  27   10.81    6.04
   2  -5  27   16.31   10.27
  -2  -5 -27   22.48    7.36
   2   5  27   10.59    6.07
  -2  -5  27   13.59    6.78
   2  -5  27    7.79    6.34
   2   5  28   37.34   11.35
  -2   5  28   48.24   13.07
   2  -5  28   46.84   13.66
   2   5  28   53.21   14.80
   2  -5  28   47.25   13.50
  -2  -5  28   47.26   12.90
  -2   5  28   49.63   12.23
  -2  -5  28   39.04   10.71
  -2  -5 -28   44.10   14.74
  -2   5  29    4.28    5.93
  -2   5  29    6.24    6.91
   2  -5  29    0.53    3.53
  -2  -5  29   -3.51    2.45
   2  -5  29    4.58    5.26
   2   5  29   -6.42    8.28
  -2  -5  29   -3.02    8.43
  -2  -5 -29   -0.99    6.57
   2   5  29    7.03    9.12
  -2   5  30   11.01    8.48
  -2  -5  30   12.78    7.64
   2  -5  30   12.45    9.66
   2  -5  30   15.23    9.12
   2   5  30   15.25    5.60
   2   5  30   20.80    8.21
  -2  -5 -30   10.20    6.35
  -2   5  30    7.45    7.44
  -2  -5  30   12.77    9.83
   2  -6   0  551.85   29.23
   2  -6   0  557.87   29.89
  -2  -6   0  581.38   31.27
  -2  -6   0  573.82   25.95
  -2   6   1   54.60    9.68
   2  -6   1   41.96    8.27
  -2  -6  -1   39.86    7.00
  -2  -6   1   30.07    6.90
  -2  -6  -1   36.38    7.67
   2  -6  -1   41.89    7.76
   2  -6   1   38.15    8.95
  -2  -6   1   40.64    6.89
   2  -6  -1   39.97    8.87
  -2  -6   2   27.05    6.68
  -2  -6  -2   28.17    7.03
   2  -6  -2   17.68    6.65
   2  -6  -2   23.10    6.51
   2  -6   2   21.79    6.12
  -2  -6   2   27.65    5.49
  -2  -6   2   25.42    3.32
   2  -6   2   17.82    5.57
  -2   6   2   29.78    7.58
   2  -6   3   45.07    8.59
  -2  -6   3   40.58    5.11
   2  -6  -3   47.90    8.59
  -2  -6   3   48.61    9.18
   2  -6  -3   46.12    8.73
  -2  -6  -3   39.02    8.10
  -2  -6   3   42.33    7.31
   2  -6   3   34.11    7.95
  -2   6   3   51.01    9.15
   2  -6   4  215.71   19.06
  -2  -6  -4  238.60   19.81
  -2  -6   4  215.11   15.94
   2  -6  -4  223.94   18.77
  -2  -6   4  231.57   20.63
   2  -6  -4  227.23   19.43
  -2   6   4  227.38   18.80
   2   6   4  247.28   18.14
  -2  -6   4  252.50   14.13
   2  -6   4  253.12   20.29
   2  -6   5  114.69   13.81
  -2  -6  -5  137.08   15.37
   2  -6   5  131.75   14.58
   2  -6  -5  146.30   16.11
  -2   6   5  118.23   13.96
  -2  -6   5  173.97   14.41
   2   6   5  165.81   15.30
  -2  -6   5  134.37   15.63
  -2  -6   5  135.47   11.42
   2   6   5  155.49    8.39
  -2  -6   6   17.42    7.05
   2   6   6   14.87    2.99
   2  -6   6   10.38    4.75
   2  -6   6   10.31    3.55
  -2  -6  -6    6.33    4.70
  -2  -6   6    9.12    3.12
   2  -6  -6   14.17    5.55
  -2   6   6    7.70    4.00
  -2  -6   6   12.25    3.69
   2   6   6   13.70    4.51
   2  -6   7  136.11   15.41
   2  -6   7  180.63   17.62
  -2  -6  -7  165.78   17.19
   2   6   7  153.72   11.05
   2  -6  -7  175.63   17.49
   2   6   7  190.78   17.06
  -2   6   7  177.89   17.99
  -2  -6   7  188.72   18.93
  -2  -6   7  188.63   15.24
  -2   6   7  204.13   18.43
  -2  -6   7  179.59   15.35
   2  -6  -8    6.63    4.89
  -2  -6   8    3.13    3.03
  -2  -6   8    5.55    3.15
   2  -6   8    7.20    2.17
  -2  -6  -8    2.37    4.29
  -2  -6   8   13.28    5.26
   2  -6   8   13.84    5.53
  -2   6   8    8.44    4.23
  -2   6   8    8.52    4.85
   2   6   8    4.66    1.76
   2   6   8    2.99    2.59
   2   6   9   20.95    5.04
   2  -6   9    5.91    3.81
  -2   6   9   14.96    4.82
  -2  -6   9    9.62    3.13
  -2  -6   9   13.90    5.37
   2  -6  -9    0.71    4.05
   2   6   9   14.60    6.16
   2  -6   9   19.13    6.98
  -2   6   9   14.19    4.63
  -2  -6  -9   19.11    6.84
  -2  -6   9   12.43    4.51
   2  -6 -10   56.35   11.63
  -2  -6  10   37.37    7.76
   2  -6  10   53.66   10.36
  -2  -6 -10   38.43    8.62
   2   6  10   47.30    7.67
  -2  -6  10   46.08    9.35
   2   6  10   55.40    9.86
  -2  -6  10   44.62    9.12
  -2   6  10   46.07   10.35
   2  -6  10   51.27   10.11
  -2   6  10   41.08    8.66
   2   6  11  484.49   25.71
  -2  -6  11  494.19   30.18
  -2  -6 -11  479.55   31.22
  -2  -6  11  516.33   29.67
  -2   6  11  512.22   31.81
   2  -6 -11  517.18   33.18
   2  -6  11  472.42   30.90
   2   6  11  475.19   30.35
  -2   6  11  506.67   32.04
  -2  -6  11  534.72   33.90
   2  -6  11  448.68   29.86
  -2  -6  12  124.09   17.31
   2  -6  12  139.03   17.48
  -2   6  12  145.93   18.13
  -2  -6  12  163.42   17.55
  -2  -6 -12  126.57   16.23
   2  -6 -12  149.70   18.87
   2   6  12  123.29   15.91
   2   6  12  124.09   13.46
  -2  -6  12  138.46   16.37
  -2   6  12  128.12   16.30
   2  -6  12  142.45   17.07
   2  -6 -13  124.65   16.95
   2  -6  13   78.19   13.69
  -2   6  13  115.02   15.12
  -2  -6  13  114.93   14.91
  -2  -6 -13   85.11   13.74
   2   6  13   91.24   12.07
   2   6  13   99.33   14.27
   2  -6  13   97.63   14.71
  -2  -6  13   92.13   14.17
  -2  -6  13   92.46   13.54
  -2  -6  14  266.09   24.14
   2   6  14  255.68   24.59
  -2  -6  14  270.57   23.67
  -2   6  14  294.46   26.20
   2  -6  14  265.03   24.23
  -2   6  14  249.19   23.40
   2  -6 -14  290.92   26.51
   2   6  14  273.86   21.68
  -2  -6  14  253.16   24.80
   2  -6  14  255.16   23.52
   2  -6 -15  122.54   17.90
  -2   6  15  116.08   17.00
  -2  -6  15  130.13   16.94
   2  -6  15  131.09   17.93
  -2  -6  15  101.08   15.99
   2   6  15  110.56   14.84
  -2   6  15  113.33   16.86
   2   6  15  135.61   18.01
  -2  -6 -15   97.98   15.35
   2  -6  15  113.43   16.36
  -2  -6  15   94.08   15.05
   2   6  16  175.56   20.57
   2  -6 -16  122.79   17.45
   2  -6  16  152.92   19.63
  -2  -6  16  114.12   16.60
  -2  -6 -16  122.45   18.13
   2   6  16  182.08   18.98
  -2   6  16  140.37   18.34
  -2   6  16  171.30   20.88
  -2  -6  16  117.49   16.71
   2  -6  16  169.41   21.18
  -2  -6  16  142.62   19.42
   2  -6  17    0.96    2.16
   2  -6  17   -1.41    4.28
  -2  -6  17    1.20    4.95
   2   6  17    1.05    3.90
  -2   6  17    0.02    2.85
  -2   6  17    8.87    4.82
   2  -6  17    1.07    3.22
  -2  -6 -17    0.75    1.49
  -2  -6  17    4.26    1.93
   2  -6 -17    4.18    4.99
   2   6  17    0.85    3.30
  -2  -6  17    4.69    5.20
   2   6  18   60.54   12.63
  -2   6  18   74.25   13.67
   2  -6  18   95.82   16.88
  -2  -6  18   72.85   13.80
  -2  -6  18   70.48   14.46
   2  -6 -18   74.29   14.85
  -2  -6 -18   65.92   13.61
  -2  -6  18   65.94   13.91
  -2   6  18   83.80   15.58
   2   6  18   53.38   11.07
   2  -6  18   46.64   13.04
   2   6  19   10.59    4.88
  -2  -6 -19   24.94    9.02
  -2   6  19   14.99    8.36
  -2  -6  19    4.26    3.47
   2  -6 -19   14.17    7.20
  -2  -6  19    6.56    3.65
   2   6  19   17.61    6.15
   2  -6  19   19.77    7.38
   2  -6  19   23.94    9.30
  -2   6  19   12.50    4.36
   2  -6 -20    6.65    6.69
   2   6  20    4.01    4.82
  -2   6  20    2.21    3.13
  -2  -6 -20    3.75    4.68
  -2   6  20    0.39    3.82
   2  -6  20    1.10    3.36
  -2  -6  20    3.49    5.81
   2   6  20    0.12    4.22
  -2  -6  20    2.79    3.57
   2  -6  20    1.34    3.11
  -2  -6  21    7.35    5.36
  -2   6  21   13.72    6.87
  -2  -6  21   13.66    7.45
   2   6  21   13.62    7.03
   2  -6 -21   18.90    9.73
   2   6  21   -1.43    3.56
  -2  -6 -21   18.11    9.27
   2  -6  21   25.09    9.10
   2  -6  21   16.73    8.93
  -2   6  21   16.16    8.66
  -2  -6  22   56.67   13.49
   2   6  22  101.00   17.03
   2  -6 -22   68.70   14.88
   2   6  22   53.31   13.12
  -2   6  22   84.97   14.87
   2  -6  22   71.19   15.07
  -2  -6 -22   64.06   15.16
  -2   6  22   59.02   13.86
  -2  -6  22   40.36   11.97
   2  -6  22   70.28   14.08
   2   6  23   15.76    6.32
  -2   6  23   16.88    5.69
  -2   6  23   12.81    5.49
   2  -6 -23   14.98    6.29
  -2  -6  23    7.88    5.91
  -2  -6 -23   16.51    6.87
   2  -6  23   41.57   10.71
   2   6  23   25.93    9.89
  -2  -6  23   11.00    5.10
   2  -6  23   28.49   10.53
  -2  -6 -24   68.13   16.90
  -2  -6  24  122.21   19.84
  -2   6  24   88.69   16.90
   2  -6  24  109.35   18.48
   2   6  24   83.25   16.02
  -2   6  24  101.28   17.75
   2  -6 -24   75.57   16.74
  -2  -6  24  118.78   19.49
   2  -6  24   89.58   17.74
   2   6  24  145.24   21.24
  -2   6  25    3.27    3.51
   2  -6  25   -1.32    5.17
  -2  -6  25   13.95    8.07
  -2   6  25    6.24    6.71
   2   6  25    0.08    1.67
   2   6  25    6.83    5.11
   2  -6 -25   -3.61    7.76
  -2  -6  25    6.04    6.98
   2  -6  25    1.29    3.19
  -2  -6 -25    8.56    7.24
   2   6  26   24.76    6.18
   2  -6  26   34.23   11.16
  -2  -6  26   31.19   10.31
  -2   6  26   29.92   11.15
  -2  -6 -26   17.00    4.78
   2  -6 -26   32.09   14.41
   2   6  26   11.31    7.02
  -2  -6  26   46.38   12.76
   2  -6  26   41.29   12.29
  -2   6  26   20.06    9.90
  -2  -6  27    8.03    5.40
   2   6  27    9.10    6.38
   2  -6  27    3.76    3.98
  -2   6  27    2.38    3.33
  -2  -6  27    4.45    4.09
  -2   6  27    0.21    2.46
  -2  -6 -27    1.29    1.90
   2  -6 -27    4.09    3.22
   2   6  27    2.56    3.62
   2  -6  27    6.49    7.29
  -2   6  28    0.67    4.62
   2   6  28   20.79    6.99
   2  -6  28   -3.66    3.04
  -2  -6  28    5.01    3.75
  -2  -6 -28    4.15    6.42
   2  -6 -28   -7.40    8.18
  -2  -6  28   22.63    9.65
   2  -6  28   10.30    7.50
  -2   6  28   10.86    7.51
   2   6  28    2.22    2.68
   2   6  29   31.02   12.91
   2  -6 -29   11.09    7.06
   2  -6  29   14.30    7.30
  -2  -6 -29   13.68   10.16
  -2   6  29   30.81    9.10
  -2  -6  29   18.94    9.35
  -2   6  29   37.06   11.58
   2   6  29   33.00   11.83
  -2  -6  29    6.28    3.93
   2  -6  29   31.53   10.44
   2   6  30   11.30    6.59
  -2  -6  30   20.06    8.94
   2  -6  30   20.31    8.52
  -2  -6  30   45.41   16.26
  -2  -6 -30   22.88   11.39
  -2   6  30   11.89    5.61
   2  -6 -30    0.03    3.76
  -2   6  30   12.24    9.45
   2  -6  30   13.80    6.80
   2   6  30   15.36    6.84
   2  -7   0    4.26    2.20
  -2  -7   0    5.17    2.89
   2  -7   0   -0.01    1.51
  -2  -7   0    1.80    1.48
  -2  -7  -1  847.00   35.05
   2  -7   1  757.12   37.15
  -2  -7  -1  812.05   39.80
   2  -7  -1  778.43   37.45
   2  -7  -1  762.32   37.20
  -2  -7   1  795.22   39.52
   2  -7   1  713.52   35.36
  -2  -7   1  712.49   16.90
  -2  -7   1  798.61   33.65
   2  -7  -2  265.19   21.68
  -2  -7   2  254.84   18.97
  -2  -7   2  269.77   23.27
   2  -7   2  218.34   19.41
   2  -7   2  241.94   20.87
  -2  -7  -2  245.70   21.69
   2  -7  -2  229.69   20.36
  -2  -7  -2  176.09   16.51
  -2  -7   2  247.20   11.82
  -2   7   2  245.65   21.15
  -2  -7   3  693.53   37.78
   2  -7  -3  626.45   33.75
   2  -7   3  703.49   36.09
  -2   7   3  681.87   34.81
  -2  -7  -3  718.37   36.68
   2  -7  -3  691.91   35.18
  -2  -7   3  707.39   31.31
   2  -7   3  716.32   36.00
  -2  -7   3  683.08   22.63
  -2  -7  -4   98.75   13.72
  -2   7   4  118.04   14.37
   2  -7  -4  119.63   15.09
   2  -7  -4  115.44   14.42
  -2  -7   4  118.23   12.94
   2  -7   4  112.42   13.79
  -2  -7   4  117.67   15.36
   2  -7   4  141.51   16.41
  -2  -7   4  124.74   10.14
  -2  -7   5  195.38   20.25
   2   7   5  210.58   18.70
  -2  -7   5  206.63   17.54
  -2  -7  -5  211.23   19.83
   2  -7  -5  209.59   19.72
   2  -7   5  167.05   17.60
  -2  -7   5  163.18   13.35
   2  -7   5  208.72   20.31
   2  -7  -5  178.26   18.49
  -2   7   5  206.84   19.31
   2   7   5  172.87    9.23
  -2  -7   6  224.46   22.32
   2  -7   6  306.82   24.73
  -2  -7   6  268.66   20.21
   2  -7   6  260.70   22.03
  -2  -7  -6  280.01   23.45
   2  -7  -6  264.44   22.59
   2   7   6  288.81   22.58
  -2   7   6  247.50   21.18
  -2  -7   6  252.30   17.67
   2   7   6  244.64   12.54
  -2  -7   7  744.64   40.20
   2  -7   7  735.31   37.70
  -2  -7  -7  707.68   38.30
   2  -7  -7  685.41   36.92
  -2   7   7  747.67   37.18
   2   7   7  735.95   24.25
   2   7   7  799.45   37.64
  -2  -7   7  781.66   32.74
   2  -7   7  787.68   40.33
  -2  -7   7  719.03   33.68
  -2  -7   8  137.70   17.42
   2  -7   8  112.23   15.33
  -2  -7   8  120.14   13.31
   2  -7  -8  111.38   15.13
  -2  -7  -8  134.85   16.04
   2   7   8  112.95   14.18
  -2   7   8  116.31   15.50
   2   7   8  133.67   11.02
  -2  -7   8  132.07   14.73
   2  -7   8   95.89   14.09
   2   7   9   89.75   13.25
   2  -7  -9   84.30   13.16
  -2  -7   9  105.97   13.25
   2  -7   9  116.83   15.68
  -2   7   9  105.04   14.52
  -2   7   9  101.06   14.32
   2   7   9   97.55   10.28
  -2  -7   9  102.38   13.32
   2  -7   9   77.76   12.54
  -2  -7  -9   77.85   13.02
  -2  -7   9   70.54   12.89
  -2  -7  10   67.12   12.27
   2  -7  10   56.35   10.65
   2   7  10   62.70    8.60
   2  -7 -10   43.42    9.59
  -2  -7  10   49.88    9.09
   2   7  10   71.08   12.04
   2  -7  10   51.13    9.60
  -2  -7 -10   66.96   12.42
  -2   7  10   58.08   11.79
  -2   7  10   73.00   12.14
  -2  -7  10   56.82   10.26
  -2   7  11 1999.26   64.60
  -2  -7  11 2011.87   68.25
  -2   7  11 2000.25   66.95
   2  -7  11 2105.77   68.22
   2   7  11 1940.27   64.06
  -2  -7 -11 1835.33   64.46
  -2  -7  11 1993.72   61.23
   2  -7 -11 2019.15   67.47
  -2  -7  11 1950.56   60.92
   2  -7  11 1983.59   65.12
   2   7  11 1833.54   51.00
  -2  -7  12  354.87   28.83
   2  -7  12  339.01   27.92
   2   7  12  380.53   24.08
  -2   7  12  372.94   27.97
   2  -7  12  396.00   29.84
  -2  -7 -12  359.36   28.36
  -2  -7  12  341.67   25.91
   2  -7 -12  349.37   28.55
  -2   7  12  341.62   27.94
  -2  -7  12  346.12   26.65
   2   7  12  346.69   27.58
   2  -7  13  156.43   19.15
  -2  -7  13  118.35   17.17
  -2  -7  13  161.15   18.75
  -2  -7 -13  121.65   16.33
  -2   7  13  125.06   17.66
  -2  -7  13  148.96   17.81
   2   7  13  131.16   14.93
  -2   7  13  140.83   17.79
   2   7  13  126.59   16.99
   2  -7  13  122.16   16.93
   2  -7 -14   76.92   13.68
   2  -7  14   86.87   15.71
  -2  -7  14  103.25   16.54
   2   7  14   60.93   10.23
  -2  -7 -14   95.34   15.45
  -2   7  14   94.52   16.17
  -2  -7  14   59.92   13.36
   2   7  14   84.60   14.89
  -2  -7  14   70.06   13.73
   2  -7  14   86.77   15.12
  -2  -7 -15    0.47    3.62
   2  -7  15    0.69    3.55
   2  -7 -15   12.05    6.46
  -2  -7  15    7.23    6.91
  -2  -7  15    3.00    5.34
  -2   7  15   -0.29    4.26
  -2   7  15    0.09    4.25
   2  -7  15   10.11    6.08
   2   7  15    2.81    3.80
   2   7  15    4.01    4.40
  -2  -7  15    8.82    4.36
   2   7  16  128.53   16.73
  -2  -7  16  169.99   20.31
   2  -7 -16  169.93   21.91
   2   7  16  132.63   18.83
  -2  -7  16  120.75   16.81
  -2  -7 -16  157.13   21.21
  -2   7  16  136.68   18.29
   2  -7  16  123.60   17.70
   2  -7  16  135.11   19.48
  -2   7  16  140.50   19.25
  -2  -7  16  146.51   19.89
  -2  -7  17  195.90   23.49
   2  -7 -17  163.59   21.58
   2  -7  17  180.93   22.79
  -2  -7  17  144.09   19.48
  -2   7  17  173.45   21.48
   2   7  17  146.30   18.62
  -2  -7 -17  182.07   22.01
   2  -7  17  177.00   21.47
  -2   7  17  199.23   23.22
   2   7  17  176.22   21.59
  -2  -7  17  178.15   21.80
   2  -7  18   44.96   11.49
   2  -7  18   33.81    9.33
  -2  -7  18   46.57   11.38
   2   7  18   35.42    9.61
  -2  -7  18   60.83   13.44
  -2  -7 -18   39.94   10.45
  -2   7  18   67.88   14.16
   2  -7 -18   59.12   11.99
   2   7  18   38.12    9.96
  -2   7  18   66.68   13.57
   2  -7  18   54.54   13.49
  -2  -7  18   30.22    9.12
  -2  -7  19   77.81   14.25
   2   7  19   49.32   10.07
   2   7  19   62.73   13.23
  -2  -7  19   60.24   13.06
  -2  -7 -19   25.35   11.09
  -2  -7  19   46.93   12.45
   2  -7  19   39.61   10.83
  -2   7  19   44.49   11.37
   2  -7 -19   84.96   15.14
   2  -7  19   45.82   11.73
   2  -7  19   45.61   11.30
  -2   7  19   83.94   15.91
   2   7  20    8.34    6.30
  -2   7  20   12.75    6.84
   2  -7 -20    6.57    7.19
  -2   7  20    0.36    4.88
  -2  -7  20    1.96    4.03
  -2  -7  20   14.21    6.33
  -2  -7 -20    6.16    5.96
   2   7  20   20.39    8.49
   2  -7  20    5.55    4.54
  -2  -7  20    5.44    6.93
   2  -7  20   -0.87    1.47
   2   7  21   64.06   12.98
   2   7  21  101.15   17.39
  -2   7  21   79.56   15.84
  -2  -7  21  108.34   17.78
   2  -7  21  126.84   18.82
  -2  -7 -21  133.22   19.64
   2  -7 -21  116.43   19.59
   2  -7  21   76.43   16.11
  -2  -7  21   98.72   16.89
  -2   7  21  108.32   17.70
   2   7  22   -0.62    3.58
  -2  -7 -22   -0.72    4.32
   2  -7  22   -2.36    3.45
   2  -7  22   -2.07    3.68
  -2  -7  22   -0.71    3.78
   2  -7 -22    6.60    5.04
   2   7  22   -5.29    7.29
  -2  -7  22    1.49    4.69
  -2   7  22    3.74    3.70
  -2   7  22    4.96    5.76
   2   7  23   -5.06    4.14
  -2  -7  23    0.45    2.34
  -2  -7 -23    2.32    5.74
  -2  -7  23   17.99    9.22
  -2   7  23    6.66    6.77
   2  -7 -23    4.66    4.63
   2   7  23   -2.57    5.47
   2  -7  23    2.46    2.97
  -2   7  23   -9.32    7.47
   2  -7  23   -8.58    7.37
   2   7  24    0.33    2.77
  -2  -7  24    1.23    2.07
   2  -7 -24    1.34    2.83
  -2  -7 -24    1.38    2.67
  -2   7  24    3.02    7.10
   2  -7  24    2.54    4.31
   2  -7  24    1.30    4.60
  -2  -7  24    3.94    5.72
   2   7  24   -4.16    5.38
  -2   7  24    6.71    5.94
   2  -7 -25   95.86   18.28
  -2  -7 -25   86.38   16.91
   2  -7  25  107.17   19.72
  -2  -7  25   68.38   15.61
   2  -7  25   81.35   17.05
   2   7  25   76.69   16.26
  -2   7  25   88.93   17.79
   2   7  25   95.88   17.86
  -2   7  25   93.30   18.31
  -2  -7  25   78.97   17.48
   2   7  26    4.66    6.05
   2   7  26   -3.51    6.43
   2  -7 -26    4.74    4.14
   2  -7  26    6.34    5.38
  -2   7  26   11.15    7.83
  -2  -7 -26   -0.45    5.17
  -2  -7  26   15.42    9.55
   2  -7  26    8.62    7.37
  -2  -7  26    3.41    3.51
  -2   7  26    0.79    1.75
   2   7  27   -1.06    2.06
   2  -7  27   13.75    9.13
   2  -7 -27   -0.31    3.97
  -2  -7  27   18.97   10.28
   2  -7  27   26.04   11.06
  -2  -7 -27    8.75    6.97
  -2   7  27    4.60    7.44
  -2  -7  27    9.22    7.09
  -2   7  27   15.27    6.74
   2   7  28   -2.46    6.85
  -2   7  28    4.26    9.63
   2  -7 -28   14.82    9.40
   2  -7  28    0.60    5.41
  -2  -7 -28    2.54    4.65
   2  -7  28    3.52    5.88
  -2  -7  28    8.43    6.38
  -2   7  28    0.19    2.75
  -2   7  29   21.70    8.91
   2   7  29   35.15   12.69
  -2   7  29   47.22   14.97
   2  -7  29   38.08   12.73
   2  -7 -29   35.88   10.09
  -2  -7 -29   36.99   12.79
  -2  -7  29   26.02    9.92
   2  -7  29   34.01   11.84
   2  -8   0   11.23    6.02
  -2  -8   0   25.67    8.12
   2  -8   0   20.01    7.33
  -2  -8   0    9.90    3.89
  -2  -8   1   12.27    5.55
  -2  -8   1   15.96    5.89
   2  -8   1   12.91    6.00
  -2  -8  -1   13.50    5.25
   2  -8  -1   14.61    4.67
   2  -8  -1    7.00    2.71
  -2  -8  -1   12.68    5.13
   2  -8   1    7.59    4.12
   2  -8   2   40.26   10.03
  -2  -8  -2   29.59    7.28
   2  -8  -2   18.24    6.67
   2  -8  -2   38.99    9.78
   2  -8   2   29.94    7.57
  -2  -8  -2   24.15    7.19
  -2  -8   2   30.52    6.87
  -2  -8   2   26.22    7.44
   2  -8  -3  158.67   18.06
  -2  -8   3  144.77   18.27
   2  -8   3  150.18   17.73
  -2  -8  -3  135.91   17.18
  -2  -8  -3  130.41   15.15
  -2   8   3  139.99   16.49
   2  -8   3  137.44   16.42
  -2  -8   3  110.70   13.20
   2  -8  -3  161.03   17.96
   2  -8  -4  258.32   23.03
  -2  -8   4  212.30   18.78
  -2  -8  -4  256.51   23.60
   2  -8  -4  206.84   20.65
  -2  -8   4  264.94   24.49
   2  -8   4  214.26   21.63
   2  -8   4  227.33   21.39
  -2   8   4  218.91   20.60
  -2  -8  -4  226.83   20.28
  -2  -8   4  196.46   14.31
   2  -8   5  222.19   22.26
  -2   8   5  177.74   18.64
  -2  -8   5  184.72   17.51
   2  -8  -5  220.28   21.37
   2  -8   5  205.96   20.25
  -2  -8   5  188.68   21.04
   2  -8  -5  176.53   19.53
  -2  -8   5  162.68   13.47
  -2  -8  -5  227.99   22.36
   2  -8   6    0.99    3.37
   2  -8  -6    3.87    5.65
   2  -8  -6    0.28    2.50
  -2  -8   6    2.28    3.82
   2  -8   6    9.05    6.40
  -2  -8  -6   -2.16    3.67
   2   8   6    4.24    2.03
   2   8   6    1.76    1.26
  -2   8   6    0.20    2.11
  -2  -8   6    8.32    4.82
  -2  -8   6    3.11    2.57
  -2  -8   7   91.91   12.82
   2  -8   7   71.84   12.12
   2  -8   7   30.46    7.67
   2  -8  -7  101.94   14.46
   2  -8  -7   70.27   12.11
   2   8   7   77.02   12.97
  -2   8   7   75.82   11.78
  -2  -8   7   69.85   10.69
   2   8   7   67.56    7.35
  -2  -8   7   81.31   14.22
  -2  -8  -7   67.00   12.55
   2  -8   8    3.41    4.58
  -2  -8  -8    0.91    1.57
  -2   8   8    0.44    2.87
  -2  -8   8   -2.43    2.55
   2  -8  -8    2.13    3.34
   2  -8   8   -1.00    3.50
  -2  -8   8   -0.88    1.24
  -2  -8   8    1.26    2.80
   2   8   8    3.00    3.27
   2   8   8   -1.52    2.26
   2  -8   9  112.52   15.20
  -2  -8  -9   88.70   14.48
  -2  -8   9   88.43   13.03
   2  -8  -9   76.55   13.26
   2  -8   9  100.56   15.72
   2   8   9   87.42    9.93
  -2   8   9  110.49   15.35
   2   8   9   82.41   13.84
  -2  -8   9  118.07   17.20
  -2  -8   9   88.72   12.34
   2  -8  10   73.21   13.31
   2   8  10   60.22    9.23
  -2  -8 -10   71.25   12.31
   2  -8 -10   64.92   11.73
  -2   8  10   64.87   13.10
  -2   8  10   80.29   13.77
   2   8  10   69.73   12.07
  -2  -8  10   87.20   13.16
   2  -8  10   74.02   13.30
  -2  -8  10   93.59   14.09
  -2  -8  10   65.89   13.26
  -2  -8  11   -2.06    4.86
   2  -8  11   -3.19    4.32
   2  -8 -11   -2.20    3.41
  -2  -8  11    9.09    5.36
  -2   8  11   -6.94    5.55
   2  -8  11   -2.80    1.44
  -2  -8 -11   -1.22    2.51
  -2   8  11    4.90    5.06
  -2  -8  11    1.97    2.34
   2   8  11    2.21    3.05
   2   8  11   -0.43    2.51
  -2  -8  12   27.80   10.14
   2  -8  12   21.68    7.35
  -2  -8  12   19.48    6.58
   2  -8  12   28.36    8.04
  -2  -8 -12   27.06    8.29
  -2   8  12   26.96    7.68
   2  -8 -12   41.32   11.29
   2   8  12   20.11    5.62
   2   8  12   24.49    8.01
  -2   8  12   17.31    6.41
  -2  -8  12   17.87    6.54
  -2  -8  13    1.76    2.77
  -2  -8  13    5.73    6.33
   2  -8  13    5.48    3.51
  -2   8  13    9.20    6.40
   2  -8 -13    4.71    2.94
   2  -8  13    5.46    3.11
  -2  -8 -13    5.55    5.61
   2   8  13    2.98    3.62
  -2   8  13   -1.05    4.26
  -2  -8  13    1.23    3.12
   2   8  13    4.80    3.11
  -2  -8  14   45.81   10.28
  -2  -8  14   47.24   11.87
  -2   8  14   39.73   10.23
   2  -8  14   43.27   10.33
   2   8  14   36.21   10.41
  -2   8  14   22.51    6.18
   2   8  14   40.40    8.92
  -2  -8 -14   42.05   10.30
   2  -8 -14   47.69   12.31
   2  -8  14   37.63    9.89
  -2  -8  14   33.66    8.88
  -2   8  15  256.87   25.96
  -2  -8 -15  258.21   26.57
   2  -8 -15  237.15   25.48
   2   8  15  245.31   25.43
   2  -8  15  270.76   26.73
  -2   8  15  262.65   27.58
  -2  -8  15  257.89   26.15
  -2  -8  15  263.92   25.62
   2  -8  15  247.05   25.57
  -2  -8  15  241.54   25.66
  -2  -8  16   -0.86    2.53
   2  -8  16   -1.10    1.94
  -2  -8 -16    6.38    7.37
   2  -8 -16   -3.37    3.67
  -2   8  16   -2.32    2.22
  -2  -8  16   -0.66    3.93
   2  -8  16    0.75    3.85
  -2   8  16   -2.43    2.56
  -2  -8  16    2.44    4.69
   2   8  16    4.27    3.79
   2  -8  17   72.56   15.07
   2  -8  17   92.51   16.18
  -2  -8 -17   90.30   15.66
  -2  -8  17   98.22   16.34
   2  -8 -17   94.52   16.10
  -2   8  17   74.24   15.21
   2  -8  17   81.06   14.68
  -2  -8  17   85.73   15.43
  -2   8  17   78.08   14.76
   2   8  17   92.75   16.53
  -2  -8  17   99.85   17.81
  -2  -8  18   28.04   10.05
  -2   8  18   33.28   10.81
   2  -8  18   34.71   11.14
  -2  -8 -18   22.36    8.25
  -2   8  18   21.89    7.60
   2  -8  18   27.48    9.90
   2  -8  18   28.63    8.56
  -2  -8  18   19.87    6.69
  -2  -8  18   26.52   10.04
   2  -8 -18   35.23   10.50
   2   8  18   46.31   12.29
   2  -8  19   52.75   13.28
   2  -8  19   74.51   15.13
  -2  -8  19   52.97   11.53
  -2  -8  19   91.88   17.12
  -2   8  19   89.30   17.24
  -2  -8 -19  100.47   16.74
   2  -8 -19   33.93   13.37
   2  -8  19   73.82   14.87
  -2   8  19   71.56   14.46
   2   8  19   85.52   16.68
  -2  -8  19   71.58   13.50
   2   8  20    2.12    5.06
  -2   8  20   -2.51    5.33
  -2  -8  20   -3.82    6.17
  -2  -8  20    2.38    5.40
  -2  -8  20    2.72    2.49
   2  -8 -20   -0.56    4.42
   2  -8  20   -0.72    3.85
  -2  -8 -20   -0.96    4.77
   2  -8  20    5.04    5.09
  -2   8  20   -1.23    5.57
   2  -8  20   -1.49    6.12
  -2  -8  21  123.85   19.77
  -2  -8 -21  125.01   21.08
   2  -8 -21  140.19   21.97
   2  -8  21  123.53   20.06
  -2  -8  21  151.06   21.98
  -2   8  21  145.00   20.88
   2   8  21  103.16   17.48
   2  -8  21  136.19   21.05
  -2   8  21  113.11   18.55
  -2  -8  21  117.25   19.61
   2   8  22   -1.00    4.04
   2  -8  22   -2.23    6.46
   2  -8 -22   -0.51    4.08
  -2  -8  22    3.84    4.13
  -2   8  22    1.93    3.23
  -2  -8  22    2.06    3.70
  -2   8  22   -4.89    5.55
   2  -8  22    1.07    2.71
  -2  -8 -22    4.86    6.52
   2   8  23   18.30    5.84
   2  -8  23    8.28    5.77
  -2  -8  23   11.45    4.56
  -2  -8 -23   17.01    7.08
   2  -8 -23   10.99    8.57
  -2   8  23   12.28    7.87
   2  -8  23   23.36   11.05
  -2  -8  23   15.76    6.94
  -2   8  23   10.88    7.03
  -2  -8  24   12.10    7.25
  -2  -8 -24    9.70    8.81
   2  -8 -24   17.33    7.07
  -2   8  24    3.52    2.62
   2  -8  24   -2.85    8.09
  -2  -8  24   16.96    6.96
   2   8  24    1.62    2.21
  -2   8  24    8.28    6.45
   2  -8  24   16.70    9.90
  -2  -8  25  171.99   25.58
   2  -8  25  124.76   21.19
   2  -8  25  144.28   21.89
  -2   8  25  155.77   22.97
   2   8  25  166.58   25.47
   2  -8 -25  164.14   23.97
  -2   8  25  153.77   21.77
  -2   8  26   20.06    9.51
   2  -8 -26   26.98    9.54
   2  -8  26   12.98    7.32
   2  -8  26   35.38   10.01
  -2  -8 -26   23.27   10.48
  -2  -8  26   30.75   11.74
   2   8  26   12.21    6.55
  -2   8  26   39.46   12.66
   2   8  27    5.07    5.80
  -2  -8 -27   -0.73    4.04
  -2   8  27    3.16    7.26
   2  -8  27   -2.26    5.78
   2  -8  27   18.22    4.78
  -2   8  27   18.92   10.85
   2  -8 -27    0.52    4.36
  -2  -8  27   -1.82    5.63
   2   8  28   -6.99    6.77
  -2  -8 -28    2.90    5.65
   2  -8  28   -1.92    4.46
   2  -8 -28    1.27    8.33
  -2   8  28   -5.06    5.32
  -2  -8  28    3.47    5.20
   2  -8  28    8.13    7.27
  -2   8  28    1.34    5.70
  -2  -9   0   29.40    6.94
  -2  -9   0   21.17    8.48
   2  -9   0   22.53    8.91
   2  -9   0   34.99    8.54
  -2  -9   1  154.85   19.65
   2  -9   1  193.15   21.29
  -2  -9  -1  166.98   20.98
   2  -9  -1  158.40   19.30
  -2  -9  -1  158.92   17.83
   2  -9   1  201.42   21.20
   2  -9  -1  142.84   18.20
  -2  -9   1  147.99   16.80
  -2  -9  -2   20.94    5.83
   2  -9  -2   14.37    6.71
   2  -9   2   19.19    6.57
  -2  -9   2   10.72    6.52
   2  -9   2    6.54    4.83
  -2  -9  -2   11.22    5.90
   2  -9  -2   22.33    7.92
  -2  -9   2   18.48    5.44
   2  -9  -3  360.74   28.50
   2  -9   3  425.93   31.65
  -2  -9   3  422.29   32.52
  -2  -9  -3  414.45   28.58
  -2  -9  -3  370.36   30.56
   2  -9  -3  420.07   30.79
  -2  -9   3  379.89   26.65
   2  -9   3  398.63   29.46
   2  -9  -4  131.33   16.76
   2  -9   4  125.05   17.52
  -2  -9  -4  103.65   15.53
   2  -9  -4  119.29   16.35
  -2  -9  -4  100.18   14.33
  -2  -9   4   98.07   15.70
  -2  -9   4  111.39   14.83
   2  -9   4   81.74   14.15
  -2   9   4  116.92   16.07
  -2  -9   5   10.13    4.44
   2  -9  -5   16.88    5.92
   2  -9   5   15.76    7.09
  -2  -9   5   13.25    6.42
   2  -9   5   22.42    8.20
  -2  -9  -5   17.87    7.40
  -2  -9  -5    7.05    2.50
   2  -9  -5    6.41    4.17
  -2   9   5   13.05    4.19
   2  -9   6  265.67   25.62
  -2  -9   6  246.73   22.02
  -2  -9   6  311.17   28.16
  -2  -9  -6  239.53   24.43
   2  -9  -6  266.36   25.65
   2  -9  -6  249.96   24.44
  -2   9   6  254.56   24.12
   2  -9   6  228.12   22.38
  -2  -9   7 1094.28   54.22
   2  -9   7 1074.38   52.34
   2  -9   7 1217.70   52.56
  -2  -9  -7 1207.20   53.72
   2  -9  -7 1096.77   51.39
   2  -9  -7 1112.95   51.07
  -2   9   7 1075.28   49.28
  -2  -9   7 1069.94   46.05
  -2  -9   8  534.60   37.35
   2  -9   8  450.21   34.69
   2  -9   8  530.73   35.22
  -2  -9  -8  498.73   35.64
   2  -9  -8  459.22   33.40
   2   9   8  482.47   33.24
   2  -9  -8  485.59   33.54
  -2   9   8  459.20   31.84
  -2  -9   8  500.85   31.96
  -2  -9  -9   23.59    8.68
  -2  -9   9   33.32   10.39
   2  -9   9   31.21    8.45
  -2   9   9   26.17    6.99
  -2  -9   9   28.47    8.91
   2  -9   9   13.75    4.11
   2  -9  -9   15.00    3.93
   2   9   9   20.48    6.18
  -2  -9  10  358.34   30.84
   2  -9  10  359.06   29.62
   2  -9  10  376.79   30.11
  -2  -9 -10  328.86   29.52
   2  -9 -10  357.58   29.68
  -2   9  10  334.74   29.45
   2   9  10  371.82   30.12
  -2  -9  10  321.34   26.74
  -2  -9  11   70.84   14.55
  -2   9  11   82.63   14.55
   2  -9  11   73.04   13.32
   2  -9  11   67.06   12.98
   2  -9 -11   55.79   13.27
  -2  -9 -11   63.69   12.90
  -2  -9  11   26.90    9.52
  -2  -9  11   87.85   13.93
   2   9  11   60.23   12.38
  -2   9  12   -5.23    2.20
   2  -9  12   -0.10    3.54
  -2  -9 -12    1.45    1.33
  -2  -9  12   -1.09    1.45
   2  -9  12    2.85    5.91
  -2  -9  12    0.28    5.44
  -2   9  12    6.63    4.75
   2   9  12   -1.77    2.88
   2  -9 -12    2.15    4.20
  -2  -9  12   14.71    8.26
  -2  -9  13  173.36   21.94
   2  -9  13  173.25   21.93
   2  -9 -13  157.10   20.68
  -2   9  13  169.14   21.05
  -2  -9 -13  182.15   22.13
  -2   9  13  152.93   20.24
  -2  -9  13  143.96   18.75
   2   9  13  154.19   20.69
  -2  -9  13  153.92   19.11
   2  -9  13  127.84   17.55
  -2   9  14   32.83    9.53
  -2  -9  14   15.82    5.49
  -2  -9  14   37.27   11.37
   2  -9  14   28.37    8.85
   2   9  14   31.05    9.94
   2  -9  14   45.13   10.94
  -2  -9 -14   22.56    6.86
  -2   9  14   15.19    5.86
  -2  -9  14   24.55    8.20
   2  -9 -14   19.19    8.24
   2  -9  15  121.31   18.73
  -2  -9  15   93.01   16.97
  -2  -9 -15  100.46   17.93
   2  -9 -15   99.39   17.65
  -2  -9  15  125.72   18.45
  -2   9  15  128.25   19.00
  -2   9  15  128.45   18.79
   2  -9  15  116.28   18.06
  -2  -9  15  127.07   17.72
   2   9  15  134.70   19.73
   2   9  16   48.55   12.47
  -2  -9  16   37.87    9.84
  -2   9  16   61.34   13.07
   2  -9  16   58.81   12.62
   2  -9  16   52.50   11.45
   2  -9 -16   69.87   14.39
  -2   9  16   50.34   12.25
  -2  -9 -16   64.07   13.98
  -2  -9  16   47.56   11.33
  -2  -9  16   54.69   11.83
   2  -9  17  249.38   26.32
  -2  -9 -17  208.28   25.66
   2  -9 -17  186.93   23.17
  -2   9  17  229.78   26.49
  -2  -9  17  200.01   23.67
   2  -9  17  223.21   25.03
  -2   9  17  193.60   24.14
  -2  -9  17  249.55   27.36
   2   9  17  245.19   26.41
   2  -9  17  219.84   25.94
  -2  -9  17  211.96   25.02
  -2  -9 -18   11.44    6.13
   2  -9  18    9.66    2.04
  -2  -9  18   -0.98    4.99
   2  -9  18   16.90    8.63
   2  -9 -18    7.21    7.62
  -2   9  18   19.58    9.73
   2   9  18    8.72    3.55
  -2   9  18   11.20    6.33
  -2  -9  18    8.36    6.61
  -2  -9  18   15.46    6.63
   2  -9  18    7.81    5.87
   2  -9  19   17.30    8.65
  -2  -9  19   11.99    6.03
  -2   9  19   43.09   11.72
  -2  -9 -19   27.97    8.44
   2  -9 -19   43.74   12.08
  -2  -9  19   22.31    9.57
  -2   9  19   20.06    8.05
  -2  -9  19   26.00    7.87
   2   9  19   33.99   11.10
   2  -9  19   19.53    8.23
   2  -9  19   17.33    6.84
   2  -9  20    2.56    5.23
   2  -9  20    6.89    6.31
  -2  -9  20   -1.83    4.45
  -2  -9  20   -4.24    6.85
  -2   9  20    2.31    4.05
   2  -9  20    1.36    5.41
  -2  -9 -20   -2.50    5.77
  -2   9  20    1.10    2.10
   2  -9 -20   10.39    7.21
  -2  -9  20   -2.01    2.18
   2   9  20    1.68    1.65
  -2  -9  21   33.17   10.24
  -2  -9 -21   30.47   10.74
  -2   9  21   57.96   13.49
   2  -9 -21   40.54   11.96
   2   9  21   44.17   11.85
  -2  -9  21   36.74   10.35
  -2  -9  21   36.29   12.00
  -2   9  21   40.79   11.76
   2  -9  21   27.75    9.58
   2  -9  21   30.22   10.35
   2  -9  21   36.89   12.33
   2  -9  22   41.70   11.56
  -2  -9  22   38.23   12.38
  -2   9  22   62.69   15.21
   2   9  22   69.00   14.95
  -2  -9 -22   71.77   15.00
   2  -9 -22   68.72   14.22
   2  -9  22   53.74   13.35
  -2   9  22   40.59   14.14
  -2  -9  22   34.04    8.27
   2   9  23    8.63    4.27
  -2   9  23    8.25    7.21
   2  -9  23   11.74    4.99
  -2   9  23   11.61    7.98
  -2  -9 -23   17.18    7.43
  -2  -9  23   19.45    8.65
   2  -9  23   13.43    9.56
   2  -9 -23    1.00    3.82
   2   9  24   12.24    7.96
  -2  -9 -24    2.50    4.35
  -2   9  24    3.13    7.31
  -2   9  24   11.45    8.47
   2  -9  24    0.77    4.86
  -2  -9  24   -2.05    3.20
   2  -9  24    9.41    4.39
   2  -9 -24    3.68    3.75
  -2   9  25   12.81    9.22
   2  -9  25   11.47    8.39
  -2  -9  25    6.64    3.01
  -2  -9 -25    7.96    6.42
  -2   9  25   18.05    8.93
   2   9  25   14.02    6.77
   2  -9 -25   23.92   11.99
   2  -9  25   12.45    7.47
   2  -9  26   -4.48    6.94
   2  -9 -26    1.29    7.69
   2  -9  26    2.39    5.27
  -2   9  26    1.03    5.78
  -2  -9 -26   -2.33    6.50
  -2  -9  26    2.51    4.95
  -2   9  26   -0.03    6.76
   2   9  26    5.97    3.14
  -2  -9 -27   -1.44    4.26
  -2   9  27    5.65    6.95
   2  -9  27   -0.30    3.74
  -2  -9  27  -13.85   11.42
  -2   9  27   -6.74    4.23
   2  -9  27    1.77    2.70
   2  -9 -27    0.76    6.66
   2   9  27    2.44    3.17
  -2 -10   0   77.61   14.80
   2 -10   0   53.42   12.25
  -2 -10   0   58.01   11.45
   2 -10   0   56.59   11.35
   2 -10  -1    6.50    2.93
   2 -10  -1    1.08    4.41
  -2 -10   1    8.66    7.80
   2 -10   1   11.65    5.14
  -2 -10  -1    8.10    6.89
  -2 -10  -1   14.10    5.57
   2 -10   1   12.85    5.64
  -2 -10   1    3.98    4.90
   2 -10   2    0.83    3.96
  -2 -10  -2    1.45    2.11
  -2 -10   2   -0.93    4.99
   2 -10   2   -0.48    3.05
  -2 -10  -2    3.15    3.90
   2 -10  -2    0.95    4.21
   2 -10  -2    0.44    4.14
  -2 -10   2    1.08    2.81
  -2 -10  -3    1.19    3.08
  -2 -10   3    3.66    2.51
   2 -10   3    0.47    2.05
  -2 -10  -3    0.84    3.38
   2 -10  -3    4.49    2.18
  -2 -10   3    1.07    3.90
   2 -10   3    9.38    5.41
   2 -10  -3   12.77    6.76
  -2 -10   4   90.86   15.94
  -2 -10  -4   75.43   14.01
   2 -10   4   78.04   15.40
  -2 -10   4   78.35   13.00
   2 -10   4   67.01   12.54
   2 -10  -4   91.44   15.58
  -2 -10  -4   85.53   13.23
   2 -10  -4   74.38   13.60
  -2 -10   5   18.65    6.76
   2 -10  -5   14.66    7.19
  -2  10   5   19.53    7.53
   2 -10   5   24.48    8.60
  -2 -10   5    7.99    5.50
   2 -10   5   11.98    6.25
  -2 -10  -5   10.16    5.44
  -2 -10  -5   15.42    6.71
   2 -10  -5   16.26    7.49
  -2 -10   6   94.79   15.52
   2 -10  -6   97.88   16.53
  -2 -10   6   85.10   13.99
  -2 -10  -6  108.27   17.03
   2 -10  -6   80.44   14.36
   2 -10   6   81.95   14.45
   2 -10   6  110.64   16.99
  -2  10   6  130.52   18.51
  -2 -10  -6   99.67   14.98
  -2 -10   7    4.19    5.20
   2 -10   7    6.14    7.76
   2 -10  -7    1.51    3.88
  -2 -10  -7    6.22    6.40
  -2  10   7    0.96    2.29
  -2 -10   7   -1.92    1.26
   2 -10  -7   -1.51    2.60
   2 -10   7   -0.77    4.76
  -2 -10   8   16.18    7.72
   2 -10   8   16.57    6.60
   2 -10  -8    7.63    5.47
  -2 -10  -8    5.31    3.02
  -2 -10   8   11.84    4.92
  -2  10   8   18.72    8.08
   2 -10  -8   11.40    6.70
   2 -10   8   12.83    6.71
  -2  10   9    3.85    3.74
  -2 -10  -9   -5.72    5.87
  -2 -10   9   -1.77    1.44
   2 -10   9    5.05    3.32
   2 -10  -9    6.49    4.63
  -2 -10   9    3.26    3.08
   2 -10  -9    1.13    2.43
   2 -10   9    2.32    4.24
   2 -10 -10    6.88    5.96
  -2 -10  10   -1.59    2.04
   2 -10 -10    5.56    5.60
   2  10  10   -0.18    3.14
  -2 -10 -10    1.50    5.21
  -2 -10  10   -0.46    2.92
   2 -10  10    1.54    3.01
  -2  10  10    7.50    4.61
   2 -10  10    0.66    4.79
  -2 -10  11   94.89   16.73
   2 -10  11   87.84   14.94
  -2 -10  11   80.01   13.75
  -2 -10 -11  117.57   18.09
   2 -10 -11   92.28   15.92
  -2  10  11   86.06   14.45
   2  10  11   83.43   15.17
   2 -10  11  105.83   16.81
  -2 -10  12   33.98    8.61
   2 -10  12   58.87   13.13
  -2 -10 -12   38.71   11.54
   2 -10 -12   78.74   15.65
  -2 -10  12   59.04   13.18
   2 -10  12   39.14   11.28
  -2  10  12   61.37   13.03
   2  10  12   72.18   13.89
   2 -10  13   -2.77    7.29
  -2 -10  13    1.65    4.92
  -2 -10  13   10.28    6.37
   2 -10  13    7.25    3.69
   2 -10 -13    3.18    5.92
  -2 -10 -13   14.32    6.77
  -2  10  13   14.19    5.41
   2  10  13   10.21    4.65
  -2 -10  14   28.86    9.97
   2 -10  14   39.19   10.47
  -2 -10 -14   23.49    9.16
  -2 -10  14   22.04    6.31
   2 -10 -14   31.90    9.81
   2 -10  14   39.96   10.33
  -2  10  14   44.49   11.81
   2  10  14   18.38    6.67
  -2 -10  15   42.74   10.83
   2 -10  15   62.65   13.83
  -2 -10  15   50.68   13.17
  -2  10  15   27.55    8.96
   2 -10  15   52.47   12.63
   2 -10 -15   39.66   11.18
  -2 -10 -15   33.36   10.06
  -2  10  15   28.02    8.71
   2  10  15   51.31   12.98
  -2 -10  16   24.18    7.33
   2 -10  16   24.30    8.72
   2 -10 -16   18.89    7.06
   2 -10  16   27.71   10.68
  -2 -10  16   16.24    8.17
   2  10  16   15.10    8.42
  -2 -10 -16   10.68    6.34
  -2  10  16   29.66   10.24
  -2  10  16   26.87   10.55
   2 -10  17   -3.49    5.05
   2 -10  17   -2.36    4.63
   2  10  17   -1.37    4.52
  -2 -10  17    3.66    6.44
   2 -10 -17    3.41    2.74
  -2 -10 -17    1.30    2.99
  -2 -10  17   -3.06    4.48
  -2  10  17   -0.83    4.94
  -2  10  17    3.35    3.11
   2 -10  17    7.66    7.24
   2 -10  18   25.58    9.50
  -2 -10  18   56.57   14.38
   2 -10  18   27.40   11.41
  -2  10  18   46.39   12.65
   2 -10  18   46.71   12.08
  -2 -10 -18   34.48   11.58
   2  10  18   60.98   13.09
   2 -10 -18   19.55    8.64
  -2  10  18   32.02    8.99
  -2 -10  18   66.38   16.10
   2 -10  19   57.55   14.08
  -2 -10  19   43.74   12.16
  -2  10  19   46.78   14.01
  -2 -10 -19   32.23   10.76
   2 -10  19   42.01   11.11
  -2  10  19   46.64   12.12
   2 -10 -19   33.69   10.44
   2 -10  19   20.97    9.23
   2  10  19   37.79   12.04
   2 -10  20    1.56    6.02
   2 -10  20    9.22    8.55
   2 -10 -20    0.28    6.61
  -2 -10 -20    1.82    4.28
   2 -10  20   -2.16    3.89
  -2  10  20    6.68    5.75
  -2 -10  20    6.36    4.17
  -2  10  20    5.27    4.31
   2  10  20    7.31    6.12
   2 -10  21    9.20    7.00
  -2 -10  21    4.08    4.45
  -2 -10 -21   17.60    9.22
   2 -10 -21   10.87    3.13
  -2  10  21   19.54   11.14
  -2  10  21   21.03    6.75
   2  10  21   24.33   10.11
   2 -10  21   17.74    8.58
   2 -10  21   24.68    9.83
  -2  10  22   78.32   16.27
  -2 -10  22   50.35   12.18
   2  10  22   47.11   13.44
  -2  10  22   91.05   17.40
  -2 -10 -22   59.32   14.44
   2 -10 -22   64.22   14.60
   2 -10  22   72.09   16.94
   2 -10  22   66.20   14.90
   2 -10  22   61.73   14.12
   2 -10  23   16.41    6.95
   2 -10 -23   20.27    8.23
  -2 -10 -23    4.66    2.02
  -2  10  23   26.59   10.17
   2 -10  23   31.96   12.30
  -2  10  23   19.19    9.27
   2  10  23    4.29    3.62
  -2 -10  23   24.73   10.96
  -2  10  24   12.01    6.85
  -2 -10 -24   14.76    8.71
   2 -10 -24   15.25    8.87
  -2  10  24    9.97    7.27
   2 -10  24   14.77    8.16
   2 -10  24   17.54    9.47
   2  10  24   16.53    5.08
  -2 -10 -25   -4.48    7.19
   2  10  25    9.50    8.09
   2 -10  25   11.52    7.65
  -2  10  25    8.68    5.48
   2 -10 -25   -4.73    6.46
   2 -10  25    1.02    5.22
  -2 -11   0  250.99   27.57
   2 -11   0  257.42   28.05
   2 -11   0  219.78   24.00
  -2 -11   0  238.33   23.67
  -2 -11   1   24.17    9.02
   2 -11   1   26.09    9.22
  -2 -11  -1   15.69    6.65
   2 -11  -1   27.42    8.92
   2 -11   1   33.46   10.49
  -2 -11   1   24.64    7.90
  -2 -11  -1   16.58    6.22
   2 -11  -1   27.15    9.38
  -2 -11   2    7.72    4.21
   2 -11  -2    2.00    5.66
  -2 -11   2    0.76    2.08
   2 -11   2    0.22    3.42
   2 -11  -2   -6.66    6.06
  -2 -11  -2    0.70    1.97
  -2 -11  -2    4.69    4.21
   2 -11   2    0.37    2.51
   2 -11  -3   12.40    7.52
  -2 -11   3    1.21    2.55
   2 -11   3    1.30    2.84
  -2 -11  -3    1.99    5.08
  -2 -11   3    7.07    5.14
   2 -11  -3    7.28    4.77
   2 -11   3   -0.53    4.94
  -2 -11  -3    1.80    2.70
  -2 -11  -4  619.35   39.76
  -2 -11   4  610.16   42.49
  -2 -11  -4  609.75   42.96
   2 -11  -4  549.26   41.05
  -2 -11   4  544.09   35.73
   2 -11   4  540.74   40.06
   2 -11   4  566.25   38.61
   2 -11  -4  587.49   39.42
  -2 -11   5   17.88    6.90
   2 -11   5   17.23    6.23
  -2 -11   5    9.91    7.29
  -2 -11  -5   19.16    7.80
  -2 -11  -5   19.64    7.41
   2 -11  -5   19.14    8.57
   2 -11  -5    9.47    3.00
   2 -11   5   11.38    7.32
   2 -11  -6  114.28   17.78
  -2 -11   6  121.06   19.66
   2 -11  -6  104.49   18.19
   2 -11   6   70.91   14.97
  -2 -11  -6   95.17   15.58
   2 -11   6   82.78   14.99
  -2 -11   6  124.25   16.94
  -2  11   6  121.07   18.00
  -2 -11  -6  149.36   20.76
  -2 -11   7  240.01   28.12
  -2 -11   7  176.04   20.73
   2 -11  -7  176.11   21.06
   2 -11   7  191.32   22.20
  -2 -11  -7  220.78   25.28
   2 -11  -7  184.39   23.02
  -2 -11  -7  238.32   24.92
  -2  11   7  221.78   24.83
   2 -11   7  185.44   24.06
  -2 -11   8    8.40    5.25
   2 -11   8   12.99    7.90
  -2 -11  -8    5.95    4.28
  -2 -11   8    9.68    3.36
  -2  11   8    5.45    5.38
   2 -11  -8    3.98    4.54
  -2 -11  -8    9.73    7.26
   2 -11  -8    7.15    2.34
   2 -11   8   19.31    8.44
  -2 -11   9   40.40   11.68
   2 -11   9   54.06   12.58
   2 -11  -9   49.19   11.58
   2 -11  -9   27.90    8.73
  -2 -11  -9   53.17   13.60
  -2  11   9   44.73   12.25
  -2 -11   9   51.16   11.47
   2 -11   9   46.69   10.54
   2 -11  10  224.71   25.08
  -2 -11  10  223.36   26.42
   2 -11  10  214.27   25.23
   2 -11 -10  249.52   27.46
   2 -11 -10  196.24   24.37
  -2 -11 -10  193.05   24.31
  -2  11  10  219.72   25.24
  -2 -11  10  237.26   25.19
  -2 -11  11    7.51    6.12
   2 -11  11    7.50    5.04
   2 -11 -11    3.00    4.26
  -2 -11  11   -0.50    3.85
  -2 -11 -11    4.56    4.08
   2 -11 -11    4.02    4.50
  -2  11  11   -3.33    5.81
   2 -11  11   -1.92    4.47
   2 -11 -12   31.32    9.40
   2 -11  12   46.09   11.14
  -2 -11  12   54.17   12.40
  -2 -11 -12   38.13   11.12
   2 -11 -12   45.86   13.85
  -2  11  12   53.51   14.28
  -2 -11  12   36.63   10.97
   2 -11  12   42.45   11.09
  -2 -11  13   34.48   11.49
   2 -11  13   14.49    7.69
  -2 -11 -13   22.22    8.07
  -2 -11  13   23.96    6.19
   2 -11  13   27.23    8.82
   2 -11 -13   29.83    9.70
   2  11  13   16.43    4.92
  -2  11  13   23.45    7.75
  -2 -11  14  101.90   18.68
   2  11  14   83.30   16.30
  -2 -11 -14   73.74   15.38
   2 -11  14   71.50   13.80
  -2  11  14   58.84   14.91
  -2 -11  14   81.76   16.83
   2 -11 -14   70.60   13.78
   2 -11  14   91.21   16.50
  -2 -11  15    8.50    5.07
   2 -11  15    9.84    3.46
   2 -11  15   10.41    5.39
  -2 -11 -15   12.24    6.63
   2 -11 -15    4.84    4.54
  -2  11  15    8.30    7.00
   2  11  15   20.92    9.83
  -2 -11 -16   45.16   12.18
   2 -11  16   31.33   10.39
  -2 -11  16   23.69    7.66
   2 -11  16   28.95    9.73
   2 -11 -16   50.07   14.08
  -2  11  16   27.34    9.02
   2  11  16   28.40   10.79
   2 -11  16   26.38    8.62
   2 -11  17    3.43    6.93
  -2 -11  17   -3.35    2.78
   2 -11  17   -0.96    5.88
   2 -11 -17   -1.32    3.76
   2  11  17    6.42    6.15
  -2 -11 -17   -5.00    6.42
   2 -11  17   -1.70    1.87
   2 -11  18   25.36   11.32
  -2 -11  18   24.61    9.76
   2 -11  18   29.57   10.10
   2  11  18   31.38   12.90
  -2  11  18   39.22   11.84
  -2 -11 -18   21.49    9.55
   2 -11 -18   57.08   13.98
   2 -11  18   34.01   10.96
  -2 -11  19    1.05    4.88
   2  11  19    4.12    6.82
   2 -11  19    8.76    7.58
   2 -11 -19   -9.15    8.76
   2 -11  19    6.51    8.02
  -2 -11 -19    1.93    4.57
  -2  11  19    5.96    7.61
   2 -11  19    5.35    6.92
   2 -11  20   12.47    7.39
  -2 -11  20    7.73    4.80
   2 -11 -20    2.95    3.71
  -2 -11 -20   17.11   10.27
  -2  11  20   -0.78    6.10
   2  11  20    8.15    6.69
   2 -11  20   15.20    6.97
   2 -11  20   19.64   10.11
   2 -11  21   17.09    8.82
   2 -11  21    3.79    5.44
  -2 -11 -21    7.88    6.27
   2 -11 -21    7.51    2.71
  -2  11  21    2.07    5.77
   2  11  21    5.01    2.53
  -2 -11  21   15.68    9.57
   2 -11  21    8.94    7.33
  -2 -11 -22    2.89    3.19
  -2 -11  22   -1.65    3.61
   2 -11  22    0.15    3.14
   2 -11 -22    6.13    6.38
  -2  11  22    3.41    5.74
   2  11  22    8.81    5.03
   2 -11  22   -3.45    2.49
   2 -11  22   10.85    6.48
   2  11  23    5.18    5.17
  -2 -11  23    8.66    5.43
  -2 -11 -23   29.92   10.15
   2 -11  23   16.19    9.27
  -2  11  23    3.14    2.92
   2 -11  23   13.46    6.79
   2 -11 -23   31.92   12.41
   2 -11  23   17.88    6.76
  -2 -12   0   68.29   14.71
   2 -12   0   71.27   14.70
   2 -12   0   82.73   15.79
  -2 -12   0   40.12   10.53
  -2 -12  -1   23.66    8.64
  -2 -12   1    6.79    7.00
   2 -12   1   21.98    9.10
  -2 -12  -1   18.87    7.33
   2 -12  -1   15.73    7.51
   2 -12   1   23.29    8.12
  -2 -12   1   16.05    6.01
   2 -12  -1   29.37    9.12
   2 -12  -2   11.22    8.00
  -2 -12  -2   23.74    9.53
   2 -12   2   18.65    9.03
  -2 -12   2   23.88   10.79
   2 -12   2   18.17    8.14
  -2 -12  -2   12.93    6.15
   2 -12  -2   18.62    5.81
  -2 -12   2   23.96    8.33
   2 -12  -3   29.14    8.64
  -2 -12   3   18.56    9.76
   2 -12   3   36.27   11.17
  -2 -12   3   24.93    8.62
  -2 -12  -3   30.81   10.05
   2 -12  -3   27.16    8.74
   2 -12   3   42.10   11.69
  -2 -12  -3   15.88    6.97
   2 -12   4   18.17    7.78
  -2 -12   4   15.61    8.30
   2 -12   4   15.65    8.05
  -2 -12  -4    8.11    7.19
   2 -12  -4    4.49    3.62
   2 -12  -4    9.69    5.77
  -2 -12   4   12.71    5.83
  -2 -12  -4    5.28    3.20
  -2 -12   5   11.41    4.90
   2 -12   5    5.20    4.61
  -2 -12   5    9.96    5.88
   2 -12   5    3.12    3.81
  -2 -12  -5   13.66    7.47
   2 -12  -5   11.19    6.88
   2 -12  -5   10.45    5.94
  -2 -12  -5    4.98    1.84
   2 -12   6    1.69    4.41
  -2 -12   6    1.82    2.24
  -2 -12  -6    1.38    3.66
  -2 -12  -6    2.34    5.17
   2 -12  -6    1.12    2.75
   2 -12  -6    7.00    7.35
  -2 -12   6    2.53    3.90
   2 -12   6    6.86    8.34
   2 -12  -7    8.05    6.40
   2 -12   7    5.96    3.14
  -2 -12  -7    4.91    2.92
  -2 -12   7    6.25    2.86
   2 -12   7   11.53    6.86
  -2 -12  -7    7.14    6.13
   2 -12  -7    3.92    2.20
  -2 -12   7    9.64    6.45
  -2 -12   8    2.41    2.36
  -2 -12  -8   13.86    8.30
  -2 -12   8    7.82    6.09
   2 -12   8    1.82    3.82
   2 -12  -8    6.84    5.34
  -2 -12  -8    8.06    5.88
   2 -12  -8   14.97    7.93
   2 -12   8   -1.06    2.27
   2 -12   9   23.77    9.44
  -2 -12  -9   12.24    6.60
  -2 -12   9   28.93    9.75
  -2 -12  -9   16.27    7.44
   2 -12  -9   23.52    6.98
   2 -12  -9   20.44    8.48
  -2 -12   9   43.36   12.53
   2 -12   9   26.73    8.06
   2 -12  10    2.65    2.55
  -2 -12  10   -1.25    2.65
   2 -12 -10   -1.78    3.10
  -2 -12 -10    3.34    4.83
   2 -12 -10   -0.65    2.29
   2 -12  10    3.41    2.43
  -2 -12 -10   -4.92    2.15
   2 -12 -11   37.06    9.86
  -2 -12 -11   19.41    8.21
   2 -12 -11   19.30    7.91
   2 -12  11   21.68    8.55
   2 -12  11   19.12    7.73
  -2 -12  11   18.45    7.99
  -2 -12  12    0.36    3.27
   2 -12  12    4.49    5.01
  -2 -12 -12   10.11    5.04
   2 -12 -12   10.94    7.64
   2 -12 -12    4.72    6.88
   2 -12  12    6.69    6.30
  -2 -12  13    0.34    4.59
   2 -12  13    7.42    5.65
   2 -12 -13   -1.44    5.19
   2 -12  13    6.95    6.77
   2 -12 -13    2.43    2.44
  -2 -12 -13    9.49    6.71
  -2 -12  14   -1.61    5.59
   2 -12 -14   10.74    7.83
   2 -12  14    7.04    6.44
   2 -12  14   13.33    7.64
   2 -12 -14    5.67    6.71
  -2 -12 -14    6.01    5.44
  -2 -12  15   12.45    5.88
   2 -12  15   12.99    8.42
   2 -12  15    7.90    6.91
   2 -12 -15    1.54    5.90
   2 -12 -15   -0.85    3.14
  -2 -12 -15   18.66    8.74
   2 -12 -16    0.23    2.68
   2 -12  16    1.66    4.46
  -2 -12  16    5.18    3.28
   2 -12  16    5.33    3.62
  -2 -12 -16    2.12    6.13
   2  12  16   -4.65    3.70
   2 -12  16   11.14    7.74
   2 -12  17   -0.91    1.79
  -2 -12  17   -3.39    7.08
   2  12  17   -2.86    5.76
   2 -12  17    3.31    6.42
   2 -12 -17    1.95    3.28
  -2 -12 -17   -1.17    7.16
   2 -12  17   -1.11    3.61
   2 -12  18   -6.44    5.92
  -2 -12  18    8.02    6.34
   2 -12  18   -2.44    2.10
  -2 -12 -18    3.82    4.67
   2 -12 -18    2.99    5.11
   2  12  18    9.90    5.02
   2 -12  18   12.15    7.81
   2 -12  19    5.24    2.35
   2 -12  19    7.43    6.61
  -2 -12  19    3.42    3.80
   2 -12  19    0.98    4.01
  -2 -12 -19   13.58    8.49
   2  12  19   19.56   10.42
   2 -12  20   -4.38    2.51
  -2 -12  20    1.31    3.64
   2 -12 -20    6.78    3.49
  -2 -12 -20    3.01    5.18
   2  12  20   13.79    8.23
   2 -12  20   -2.31    3.39
   2 -12  20    0.27    5.33
  -2 -12  21   -5.66    5.06
   2 -12  21    4.04    7.71
   2 -12 -21   -4.41    6.83
  -2 -12 -21    8.51    5.61
   2  12  21    5.47    7.14
   2 -12  21    6.08    6.60
   2 -12  21    0.63    4.34
   2 -12  22    1.72    4.98
  -2 -12  22   -5.60    4.47
  -2 -12 -22   -5.02    5.32
   2 -12 -22  -14.16   10.43
   2  12  22   -4.24    5.82
   2 -12  22    1.83    5.43
   2 -12  22   -1.49    1.72
  -2 -13   0  190.99   24.17
  -2 -13   0  191.50   25.09
   2 -13   0  139.91   21.33
   2 -13   0  172.13   22.66
  -2 -13   1   42.89   11.55
  -2 -13   1   42.29   12.14
   2 -13   1   46.86   12.90
  -2 -13  -1   41.07   12.30
   2 -13  -1   55.52   12.91
   2 -13   1   46.99   13.03
  -2 -13  -1   32.51    9.98
   2 -13  -1   61.81   14.08
  -2 -13  -2   11.35    5.25
   2 -13  -2   11.23    4.96
  -2 -13   2    5.73    5.56
   2 -13   2    5.82    3.44
   2 -13  -2   13.06    7.32
  -2 -13   2    1.05    2.24
   2 -13   2    4.62    5.73
  -2 -13  -2    3.16    4.45
   2 -13  -3   19.10    7.84
  -2 -13  -3    6.70    5.68
  -2 -13   3    1.35    2.85
  -2 -13   3   18.39   11.01
   2 -13   3    6.35    4.13
  -2 -13  -3   17.60    9.23
   2 -13  -3   14.56    6.49
   2 -13   3    2.94    2.34
  -2 -13   4   27.77    8.81
  -2 -13   4   32.71   11.86
   2 -13  -4   42.86   11.91
   2 -13   4   29.68   10.66
  -2 -13  -4   44.09   11.99
  -2 -13  -4   24.87    8.13
   2 -13  -4    5.25    6.80
   2 -13   4   30.33   10.49
  -2 -13   5    9.10    7.42
   2 -13   5    2.49    3.59
  -2 -13   5    0.45    2.94
   2 -13   5    7.07    6.15
  -2 -13  -5   -3.00    4.17
   2 -13  -5    1.38    3.89
   2 -13  -5    0.52    4.38
  -2 -13  -5    8.54    4.77
   2 -13   6   30.96   10.39
  -2 -13   6   35.42   11.41
   2 -13   6   20.67    7.79
  -2 -13  -6   25.70    8.87
   2 -13  -6   27.79    9.62
   2 -13  -6   13.65    7.58
  -2 -13  -6   15.52    8.42
  -2 -13   7   99.09   18.52
   2 -13   7  111.66   19.65
  -2 -13  -7  113.58   19.07
   2 -13  -7  100.73   18.78
  -2 -13  -7   94.84   17.20
   2 -13   7  112.93   18.22
   2 -13  -7  113.21   19.19
  -2 -13   8    3.31    5.18
  -2 -13  -8    1.07    4.13
  -2 -13  -8   -4.52    3.55
   2 -13  -8   12.96    8.51
   2 -13   8    5.80    5.73
   2 -13   8    5.81    3.94
   2 -13  -8   12.85    7.93
   2 -13  -9   33.93   11.56
  -2 -13   9   42.27   11.66
   2 -13   9   22.66    8.24
  -2 -13  -9   33.23   10.01
   2 -13  -9   30.15   10.78
   2 -13   9   38.46   10.98
  -2 -13  -9   24.37    9.56
  -2 -13  10    9.76    8.73
   2 -13  10   15.48    5.56
  -2 -13 -10   17.18    7.20
   2 -13 -10   18.29    8.90
  -2 -13 -10    6.84    4.12
   2 -13 -10   14.73    9.67
   2 -13  10   13.86    6.10
  -2 -13  11   46.16   13.77
  -2 -13 -11   51.23   12.49
   2 -13 -11   63.18   15.42
   2 -13 -11   58.69   14.88
   2 -13  11   47.95   12.26
  -2 -13 -11   36.04   12.06
   2 -13  11   35.66   11.95
   2 -13 -12   12.56    6.37
  -2 -13  12   21.30    7.28
   2 -13  12   15.03    9.80
  -2 -13 -12   16.86    6.71
  -2 -13 -12   22.95    8.71
   2 -13  12   29.81   11.31
   2 -13 -12   27.75    9.01
  -2 -13  13   -4.36    7.60
   2 -13  13    6.68    5.37
   2 -13 -13    9.21    5.63
   2 -13 -13   -4.93    5.60
   2 -13  13   -0.86    3.83
  -2 -13 -13    2.05    4.33
  -2 -13 -13   -3.61    5.13
  -2 -13  14   -2.12    3.23
   2 -13  14   13.15    6.87
   2 -13  14   -4.99    6.22
  -2 -13 -14    0.83    3.62
   2 -13 -14    6.54    4.44
   2 -13 -14    1.60    5.50
  -2 -13  15   18.22    7.64
   2 -13 -15   10.30    7.21
   2 -13  15    6.74    5.23
   2 -13  15   16.28    8.45
  -2 -13 -15   16.08    5.21
   2 -13  16    0.77    5.11
  -2 -13  16    3.92    2.30
   2 -13  16   -2.10    3.12
  -2 -13 -16   -0.75    3.09
   2 -13 -16   -4.38    3.15
   2 -13 -16   -5.17    8.44
   2 -13  17   22.21   10.35
   2 -13  17   37.09   11.43
   2 -13 -17    8.03    6.75
  -2 -13  17   20.03    8.68
  -2 -13 -17    6.97    5.22
   2 -13 -17   16.16    6.45
   2 -13  18    4.46    5.65
  -2 -13  18    1.37    3.73
   2 -13  18   -3.97    7.82
   2 -13 -18    2.47    6.09
  -2 -13 -18    0.66    5.80
   2 -13 -18    8.70    6.52
   2 -13  19   -3.21    4.13
  -2 -13  19   14.36   11.20
   2 -13  19   -0.86    5.81
  -2 -13 -19   -1.99    3.73
   2  13  19    2.55    5.65
   2 -13 -19   -2.89    5.20
   2 -14   0   54.78   14.31
   2 -14   0   61.49   16.23
  -2 -14   0   61.16   15.79
  -2 -14   0   59.95   13.02
  -2 -14   1    0.26    3.28
   2 -14   1    6.03    4.79
  -2 -14  -1    1.09    4.42
   2 -14  -1    7.32    6.82
  -2 -14   1   -2.49    5.38
  -2 -14  -1   -1.90    2.87
   2 -14   1    2.56    2.82
   2 -14  -1    5.03    6.77
  -2 -14   2   -0.54    2.97
   2 -14   2    0.71    2.86
  -2 -14  -2    2.47    7.15
   2 -14  -2   -0.55    8.94
   2 -14   2    4.35    4.77
   2 -14  -2    4.26    5.27
  -2 -14  -2   -1.74    3.38
   2 -14  -3   21.58    8.37
  -2 -14  -3   26.30   11.76
  -2 -14   3   30.72    9.94
   2 -14   3   38.52   10.18
   2 -14   3   41.93   14.19
  -2 -14  -3   50.00   14.09
   2 -14  -3   16.58    7.65
   2 -14  -4   10.80    5.09
   2 -14   4   18.43    6.46
  -2 -14  -4    9.05    1.80
  -2 -14   4   22.84   10.55
   2 -14   4    6.90    5.88
  -2 -14  -4    9.83    7.75
   2 -14  -4   12.62    9.61
   2 -14  -5   -2.31    2.39
  -2 -14   5    6.00    6.66
   2 -14   5    2.36    2.61
  -2 -14  -5    5.57    3.29
  -2 -14  -5   -4.96    6.88
   2 -14  -5    1.08    5.22
   2 -14   5    9.20    6.96
  -2 -14   6   -0.66    4.36
   2 -14   6    7.99    5.18
   2 -14  -6    0.54    7.30
   2 -14  -6    3.93    4.24
  -2 -14  -6    1.88    4.62
  -2 -14  -6   -1.95    3.95
   2 -14   6   -1.25    1.50
   2 -14  -7   39.45   11.75
  -2 -14   7   35.21   13.26
   2 -14   7   12.47    9.36
  -2 -14  -7   21.79   11.34
   2 -14  -7   33.32   10.09
  -2 -14  -7   15.71    5.70
   2 -14   7   28.38    9.25
  -2 -14   8   23.30    8.93
   2 -14   8    7.46    7.37
   2 -14  -8   16.07    5.97
  -2 -14  -8   13.47    9.73
   2 -14  -8   -1.78    3.79
   2 -14   8   -1.95    3.56
  -2 -14  -8   20.03    9.14
  -2 -14  -9   -0.64    6.22
  -2 -14   9    1.39    4.81
   2 -14   9    6.39    6.11
  -2 -14  -9   -3.36    4.24
   2 -14  -9    5.15    3.48
   2 -14   9    7.68    5.17
   2 -14  -9    2.60    5.06
   2 -14  10    4.13    5.28
  -2 -14  10   -2.89    6.27
   2 -14  10    6.93    7.63
  -2 -14 -10    3.90    4.88
  -2 -14 -10   10.78    7.01
   2 -14 -10    4.22    2.96
   2 -14 -10   -2.13    5.75
  -2 -14  11    4.16    4.09
   2 -14  11   -0.96    2.61
   2 -14 -11    2.50    7.29
  -2 -14 -11   -4.53    5.30
  -2 -14 -11    6.09    6.73
   2 -14 -11    1.20    6.46
   2 -14  11    2.52    7.13
  -2 -14  12    4.75    2.95
   2 -14  12   -1.45    4.96
   2 -14 -12    2.62    3.80
  -2 -14 -12    3.44    3.67
   2 -14  12   -0.53    4.34
  -2 -14 -12   10.07    4.47
  -2 -14  13   24.38    8.73
   2 -14  13   12.06    5.57
  -2 -14 -13   21.25   10.34
  -2 -14 -13   15.48    7.75
   2 -14  13   10.68    7.59
   2 -14 -13   16.59    7.98
   2 -14 -13   12.90    6.83
  -2 -14  14   24.31    8.19
   2 -14  14    5.11    6.11
   2 -14  14   22.84    9.37
  -2 -14 -14    1.14    6.16
   2 -14 -14   19.61    8.66
   2 -14 -14   14.84    4.98
  -2 -14 -14   22.37    7.97
  -2 -14  15   -6.49    5.90
   2 -14  15    5.89    6.99
   2 -14 -15   -1.59    3.57
   2 -14  15    4.31    6.01
  -2 -14 -15   13.39    8.40
  -2 -14 -15   -7.90    8.33
   2 -14 -15   10.38    7.89
   2 -14  16    6.92    9.13
  -2 -14  16   -3.67    6.32
   2 -14 -16   -1.59    4.78
   2 -14  16   -4.58    2.22
  -2 -14 -16   -6.98    6.80
   2 -14 -16    5.92    5.29
  -2 -14 -16   14.88    9.40
   2 -15   0   23.76   10.63
  -2 -15   0    5.17    7.00
   2 -15   0   27.34   11.03
   2 -15  -1    7.48    5.88
  -2 -15   1    9.98    7.90
   2 -15   1    2.72    3.16
  -2 -15  -1    7.33    6.82
   2 -15  -1   19.86   11.02
   2 -15   1    0.73    3.72
  -2 -15   2    5.01    1.99
   2 -15   2   -6.44    8.73
   2 -15   2    4.41    5.01
  -2 -15  -2   17.53   10.42
   2 -15  -2   -2.89    6.54
   2 -15  -2    7.09    6.28
  -2 -15   3   38.72   13.65
   2 -15   3    6.61    7.03
  -2 -15  -3   20.77    8.92
   2 -15  -3   20.73    8.59
   2 -15   3   32.44   11.95
   2 -15  -3   34.35   11.29
   2 -15   4   42.17   12.85
  -2 -15   4   51.51   15.43
   2 -15   4   56.59   14.55
  -2 -15  -4   52.87   14.53
   2 -15  -4   50.19   14.08
   2 -15  -4   40.49   11.71
   2 -15   5   -0.11    1.99
   2 -15  -5    0.13    2.52
  -2 -15  -5   -3.96    6.53
  -2 -15   5    0.54    5.39
   2 -15   5   -1.61    4.34
  -2 -15  -5   -3.42    3.58
   2 -15  -5   -2.75    2.17
   2 -15  -6   34.12   10.91
  -2 -15   6   52.19   15.42
   2 -15   6   26.57    9.93
  -2 -15  -6   28.64   14.23
  -2 -15  -6   15.99    8.75
   2 -15  -6   21.50   11.47
   2 -15   6   27.02    9.81
   2 -15   7   41.85   13.84
   2 -15  -7   24.85    9.91
  -2 -15  -7   24.94   10.16
   2 -15  -7   36.51   10.91
  -2 -15  -7   39.79   13.39
  -2 -15   7   26.42   10.47
   2 -15   7   35.30   11.11
  -2 -15   8   79.33   18.25
   2 -15   8   96.28   19.43
   2 -15  -8   36.19   11.17
   2 -15  -8   86.54   19.30
  -2 -15  -8   39.50   13.28
  -2 -15  -8  114.65   21.39
   2 -15   8   77.56   16.73
  -2 -15  -9    6.65    2.51
  -2 -15   9    2.78    2.60
   2 -15   9   -2.55    5.94
   2 -15  -9    9.82    6.90
   2 -15  -9   -2.19    2.24
  -2 -15  -9   14.36    9.01
   2 -15   9    3.93    2.12
   2 -15  10    6.82    4.85
  -2 -15  10   10.34    5.88
   2 -15  10    3.34    3.10
  -2 -15 -10    5.37    4.48
   2 -15 -10    1.81    5.38
   2 -15 -10    0.14    4.89
  -2 -15 -10    2.59    5.80
   2 -15  11    2.61    4.87
  -2 -15 -11   15.25   10.90
  -2 -15  11    3.88    3.80
   2 -15  11    3.13    7.11
  -2 -15 -11   -5.88    7.38
   2 -15 -11    0.51    2.16
   2 -15 -11   -1.10    6.57
  -2 -15  12   11.86    6.90
   2 -15  12    1.76    3.72
  -2 -15 -12   10.80    8.63
  -2 -15 -12    4.44    1.99
   2 -15 -12    5.93    7.78
   2 -15  12   17.25    9.47
   2 -15 -12   17.84    8.36
  -2 -15  13   -3.69    3.41
   2 -15  13    8.55    9.40
   2 -15 -13    1.01    3.99
  -2 -15 -13    2.27    4.92
   2 -15  13   -2.23    2.11
   2 -15 -13   -5.30    7.76
  -2 -15 -13   -3.21    7.00
  -2 -16   0   11.20    8.00
   2 -16   0   27.21    8.30
   2 -16   0   30.04   10.31
  -2 -16   1    8.93    7.96
   2 -16   1   -7.09    7.88
  -2 -16  -1   -8.78    6.65
   2 -16  -1   -3.75    3.88
   2 -16   1   -5.34    4.61
   2 -16  -1    0.62    2.81
   2 -16  -2   -1.24    2.81
   2 -16   2   -0.25    8.49
  -2 -16   2   -0.52    5.53
  -2 -16  -2    7.95    2.91
   2 -16  -2   -7.54    8.40
   2 -16   2   -1.95    1.80
   2 -16   3   -0.88    3.07
  -2 -16   3   -2.98    5.33
   2 -16   3   -0.59    7.37
  -2 -16  -3   -2.44    2.31
   2 -16  -3    8.34    5.54
   2 -16  -3    8.22    8.84
   2 -16   4    0.75    3.15
  -2 -16   4   28.73   12.74
  -2 -16  -4   18.24    6.65
   2 -16  -4   14.36    7.98
   2 -16  -4   25.08    9.75
   2 -16   4    4.23    6.91
   2 -16  -5    5.14    5.05
  -2 -16   5   -9.76    9.13
   2 -16   5   -5.51    6.40
  -2 -16  -5   -2.60    5.53
   2 -16  -5   -2.83    3.89
   2 -16   5   -0.89    4.17
  -2 -16   6   15.61    5.04
   2 -16   6   21.55    7.69
  -2 -16  -6    6.97    3.66
   2 -16  -6   15.29    8.09
   2 -16   6   11.57    4.99
   2 -16  -6    6.31    5.23
   2 -16  -7   14.42    9.32
  -2 -16   7    4.76    3.64
   2 -16   7    2.05    8.18
  -2 -16  -7    7.27    7.04
   2 -16  -7    1.08    3.29
   2 -16   7    1.80    3.82
  -3   0   0    0.45    1.70
   3   0   0    2.36    1.35
   3   0  -1    1.63    1.49
  -3   0  -1   -0.70    2.26
   3   0   1   -0.15    0.60
  -3   0   1    0.48    1.58
   3   0   2  704.38   20.25
   3   0  -2  739.90   17.38
   3   0   3    1.72    1.82
  -3   0   3   -1.39    2.32
  -3   0   4   38.20    4.61
   3   0   4   44.82    6.11
  -3   0   4   36.59    6.67
  -3   0   5    2.36    2.69
  -3   0   5    0.09    0.45
   3   0   5    0.36    0.99
  -3   0   6   54.00    7.70
   3   0   6   53.85    7.57
  -3   0   6   50.51    6.15
  -3   0   7    0.11    1.42
  -3   0   7   -0.01    1.19
   3   0   7   -1.13    2.38
  -3   0   8    9.74    4.54
   3   0   8   11.50    4.56
  -3   0   8   12.38    4.12
  -3   0   9    2.28    2.77
  -3   0   9    1.01    2.19
   3   0   9    2.13    2.85
   3   0  10  108.22   12.66
  -3   0  10  116.38   13.66
  -3   0  10  116.63   12.07
  -3   0  11    0.23    0.77
  -3   0  11    2.60    4.75
   3   0  11    2.68    3.33
  -3   0  12    5.29    3.85
  -3   0  12   14.81    5.90
   3   0  12    7.07    3.21
  -3   0  13   -2.88    2.75
  -3   0  13    2.44    1.96
   3   0  13   -0.80    3.09
   3   0  14    0.38    2.64
  -3   0  14    2.56    3.26
   3   0  14   -1.89    2.45
  -3   0  14    0.24    4.38
   3   0  15    5.15    4.21
   3   0  15    0.48    1.06
  -3   0  15   -1.36    2.51
  -3   0  15    0.02    3.33
   3   0  16    1.30    2.77
  -3   0  16    3.58    2.58
  -3   0  16    2.80    1.94
   3   0  16    9.67    6.44
  -3   0  17   -0.15    2.96
   3   0  17    0.05    3.89
  -3   0  17    6.67    3.05
   3   0  17    0.71    2.07
   3   0  18  553.77   37.18
  -3   0  18  521.90   35.18
   3   0  18  523.93   36.53
  -3   0  18  553.24   35.50
  -3   0  19   -0.93    3.25
   3   0  19    3.29    4.95
  -3   0  19    0.67    3.66
   3   0  19    0.86    1.74
  -3   0  20    3.34    5.43
   3   0  20    0.14    4.82
  -3   0  20    2.16    5.13
   3   0  20    1.16    4.57
   3   0  21    0.83    5.43
  -3   0  21    0.47    3.71
   3   0  21    0.48    4.50
  -3   0  21    4.52    2.72
  -3   0  22   -0.43    4.55
   3   0  22    8.76    4.04
  -3   0  22   -5.61    7.66
   3   0  22    7.55    5.10
  -3   0  23   -5.69    4.17
   3   0  23   -1.97    3.22
  -3   0  23    1.53    3.85
   3   0  23   -1.30    1.79
  -3   0  24    3.50    4.11
   3   0  24    4.57    7.71
   3   0  24    0.45    3.97
  -3   0  24    5.99    3.86
  -3   0  25    2.49    2.63
  -3   0  25    5.87    4.92
   3   0  25    0.88    3.21
   3   0  25    1.26    2.80
  -3   0  26   13.82    8.67
   3   0  26   21.49    8.83
  -3   0  26    5.76    6.92
   3   0  26   28.01   11.16
  -3   0  27    4.02    5.26
   3   0  27    5.23    5.42
  -3   0  27    6.81    6.33
   3   0  27    0.39    3.14
  -3   0  28    1.48    5.91
   3   0  28    6.80    9.17
  -3   0  28    2.02    4.64
   3   0  28    4.81    6.61
  -3   0  29   -1.47    5.80
   3   0  29   -5.96    6.80
   3   0  29    1.48    6.86
  -3   0  29   -0.75    2.78
  -3   0  30    4.22    3.36
   3   0  30   11.72    7.28
   3   0  30    3.96    3.80
  -3   0  30   18.65    9.44
  -3   0  31  -10.96    9.74
   3   0  31    3.71    5.21
   3   0  31    6.93    6.95
  -3   0  31   -2.59    6.35
   3   1   0   -0.07    0.24
  -3  -1   0   -0.62    0.69
  -3   1   0    2.03    2.39
   3  -1   0   -0.26    1.04
  -3  -1   0   -0.90    1.76
   3  -1   1  806.56   23.34
   3   1   1  898.53   17.98
  -3   1  -1  828.53   30.55
  -3  -1   1  751.49   24.49
  -3  -1  -1  775.69   25.00
  -3   1   1  758.90   28.38
   3  -1  -1  826.23   22.79
  -3  -1  -1  737.83   18.15
  -3  -1   1  833.24   20.31
   3  -1  -2 1540.55   31.00
  -3  -1  -2 1595.27   25.31
   3   1   2 1448.31   26.92
   3  -1   2 1587.64   34.53
  -3   1   2 1604.58   42.66
  -3  -1   2 1444.03   35.31
  -3  -1   2 1662.47   31.32
  -3   1   3 3336.38   61.34
  -3  -1  -3 3526.73   38.78
   3   1   3 3270.35   44.99
   3  -1   3 3243.79   53.18
  -3  -1   3 3250.25   53.64
  -3  -1   3 3512.03   49.71
  -3  -1   4   13.26    3.71
  -3   1   4    6.73    2.43
   3  -1   4   11.80    2.95
   3   1   4   11.81    3.52
  -3  -1  -4   13.86    2.55
  -3   1   4   11.55    3.10
  -3  -1   4   13.10    3.45
  -3  -1   4    8.27    1.87
  -3  -1  -5  570.75   18.73
  -3  -1   5  479.06   15.93
  -3  -1   5  556.11   23.75
   3  -1   5  474.37   21.81
  -3   1   5  496.58   24.05
  -3  -1   6 2010.63   47.29
  -3   1   6 2021.57   49.57
   3  -1   6 1967.50   47.01
  -3   1   6 2032.06   42.83
   3   1   7  307.67   18.63
  -3  -1   7  284.86   18.86
   3  -1   7  304.77   19.58
  -3   1   7  306.89   17.41
  -3   1   7  280.18   19.30
  -3  -1   7  296.18   15.05
  -3   1   8  757.96   33.05
   3  -1   8  781.31   32.21
  -3  -1   8  857.03   33.25
   3   1   8  839.53   32.87
  -3   1   8  835.39   30.01
  -3  -1   8  829.66   27.41
   3   1   9  318.31   20.98
   3  -1   9  371.46   23.14
  -3   1   9  323.47   22.23
  -3  -1   9  295.86   20.52
  -3   1   9  344.27   20.54
  -3  -1   9  343.01   18.90
  -3  -1  10  847.62   31.12
   3   1  10  892.26   36.60
   3  -1  10  868.28   37.08
  -3  -1  10  833.31   35.28
  -3   1  10  856.84   36.92
  -3   1  10  873.19   34.19
  -3   1  11    1.24    1.32
  -3   1  11    7.16    3.88
  -3  -1  11    6.75    3.49
   3   1  11    8.92    4.44
  -3  -1  11    3.59    3.39
   3  -1  11    4.96    4.10
  -3  -1  12 1584.73   47.34
   3   1  12 1672.72   53.79
   3   1  12 1634.22   52.41
   3  -1  12 1644.53   54.13
  -3   1  12 1643.04   54.03
  -3  -1  12 1546.91   51.70
  -3   1  12 1602.89   50.23
  -3  -1  13  354.62   23.71
   3   1  13  406.34   27.59
   3  -1  13  416.93   28.26
   3   1  13  378.52   26.16
  -3  -1  13  365.53   25.75
  -3   1  13  418.53   27.91
  -3   1  13  383.95   25.40
  -3   1  14   26.75    6.32
   3   1  14   22.11    6.05
  -3  -1  14   13.93    5.25
  -3   1  14   13.10    4.97
  -3  -1  14   26.97    6.89
   3  -1  14   16.44    6.22
   3   1  14   20.07    6.98
  -3  -1  15  119.43   15.27
   3   1  15   85.10   13.09
   3  -1  15  129.01   15.66
  -3   1  15  134.01   17.31
  -3  -1  15  112.73   15.31
  -3   1  15  127.31   15.87
   3   1  15  120.55   15.42
   3  -1  15  145.74   17.67
   3   1  16 1067.50   48.26
  -3   1  16  870.47   42.63
  -3  -1  16  922.99   42.13
   3  -1  16  952.73   46.03
  -3   1  16  964.53   45.90
  -3  -1  16  867.93   43.57
   3   1  16  777.22   42.10
   3  -1  16  999.49   46.79
  -3  -1  17  133.29   17.80
   3   1  17  152.06   18.85
   3  -1  17  145.75   18.15
  -3   1  17  173.85   19.29
  -3  -1  17  110.36   15.61
   3   1  17  172.49   20.27
   3  -1  17  147.91   18.73
  -3   1  17  170.61   18.78
   3  -1  18    4.43    4.86
  -3   1  18    9.45    4.48
  -3  -1  18    6.86    4.39
  -3  -1  18    9.92    5.95
   3   1  18    1.74    3.93
  -3   1  18    5.71    2.70
   3   1  18    5.14    2.28
   3  -1  18    1.07    3.86
  -3   1  19   19.93    7.47
   3  -1  19   17.54    6.86
  -3  -1  19   15.69    6.47
   3   1  19   18.49    6.46
  -3   1  19    6.70    3.05
  -3  -1  19   29.08    9.67
   3   1  19   21.90    6.62
   3  -1  19   24.57    9.92
   3   1  20  347.36   30.12
   3  -1  20  341.67   29.89
  -3   1  20  302.33   27.86
  -3  -1  20  296.15   27.98
   3   1  20  339.80   30.24
   3  -1  20  353.65   30.39
  -3   1  20  412.14   32.36
  -3  -1  20  349.06   29.69
   3   1  21   22.06    6.48
  -3   1  21   32.46    9.62
  -3  -1  21   24.89    8.10
   3  -1  21   11.50    4.67
   3   1  21   29.82    9.45
  -3   1  21   18.90    7.25
  -3  -1  21   23.11    7.99
   3  -1  21   23.94    8.91
   3   1  22  147.45   21.10
   3  -1  22  107.59   17.45
   3  -1  22  123.98   19.48
  -3  -1  22   97.07   15.84
  -3   1  22  140.70   19.76
   3   1  22  101.52   18.62
  -3   1  22  106.18   16.84
  -3  -1  22  108.62   17.48
   3   1  23  252.95   27.19
   3  -1  23  224.60   26.56
  -3   1  23  279.89   29.24
  -3  -1  23  261.46   27.63
   3   1  23  226.81   26.12
   3  -1  23  231.68   26.19
  -3   1  23  267.95   27.83
  -3  -1  23  227.98   25.36
  -3   1  24   70.04   13.86
  -3  -1  24   50.37   13.62
   3   1  24   48.63   11.85
  -3  -1  24   65.87   14.08
   3  -1  24   51.67   12.44
  -3   1  24   69.67   14.96
   3   1  24   65.19   15.57
   3  -1  24   37.70   11.40
  -3  -1  25   -1.72    4.12
   3   1  25    1.62    4.95
   3  -1  25   -1.67    3.00
  -3   1  25    6.74    6.15
  -3  -1  25   -0.05    4.59
   3   1  25   -3.81    2.91
   3  -1  25   -2.84    1.84
  -3   1  25   -1.93    3.65
   3   1  26  135.30   20.31
   3  -1  26  105.37   17.49
  -3  -1  26   78.74   16.29
  -3   1  26  136.98   21.29
  -3  -1  26  108.19   18.83
   3   1  26  128.85   20.99
   3  -1  26  123.46   20.65
  -3   1  26  111.67   18.95
  -3   1  27   47.83   13.06
  -3  -1  27   34.64   10.86
   3   1  27   43.17   12.90
   3  -1  27   47.58   12.60
  -3   1  27   41.51   12.43
  -3  -1  27   46.61   12.79
   3   1  27   57.14   14.27
   3  -1  27   31.53   10.66
  -3   1  28   26.26   10.03
  -3  -1  28   19.63    8.33
   3   1  28    6.66    5.00
   3   1  28   12.83    6.28
   3  -1  28   19.33    8.77
  -3   1  28    2.49    5.04
  -3  -1  28   18.89    8.24
   3  -1  28   10.87    2.78
   3   1  29    3.15    6.32
  -3   1  29    5.35    5.66
  -3  -1  29   12.83    5.46
  -3  -1  29   21.13    8.65
   3   1  29   24.40   10.49
   3  -1  29    6.68    3.83
  -3   1  29   -7.07    7.63
   3  -1  29   -4.09    5.59
  -3  -1  30   33.10   10.64
  -3   1  30   52.78   14.90
   3   1  30   43.11   13.04
   3  -1  30   39.04   13.31
  -3   1  30   59.05   15.74
  -3  -1  30   49.73   13.82
   3   1  30   48.19   12.47
   3  -1  30   25.66    9.88
  -3   1  31   28.32    9.46
  -3  -1  31   31.40   10.17
   3   1  31   22.25    8.72
   3  -1  31   17.91   10.41
  -3   1  31   35.84   14.64
  -3  -1  31   53.21   14.16
   3   1  31   18.84    3.74
   3  -1  31   25.50   11.45
  -3  -2   0   -0.83    0.99
  -3   2   0   -1.39    3.41
   3  -2   0    0.72    0.85
  -3  -2   0    0.20    1.49
   3  -2   0    0.68    1.24
   3   2   1    1.62    1.07
  -3  -2   1    2.74    2.07
  -3  -2  -1   -0.96    1.03
   3  -2   1    3.04    1.32
   3  -2  -1    5.13    1.87
   3  -2   1   -0.21    1.45
  -3   2  -1    1.23    2.76
  -3  -2   1    0.26    1.36
  -3   2   1    2.90    2.77
   3  -2  -1    1.10    1.22
   3   2   2  196.66    9.50
  -3   2   2  188.69   14.89
   3  -2  -2  190.57   12.87
  -3  -2  -2  232.26   12.43
   3  -2   2  216.62    9.99
   3  -2  -2  200.31   11.23
   3  -2   2  218.19   14.23
  -3  -2   2  184.23   12.28
  -3  -2   2  214.12   12.45
  -3  -2   3  463.37   20.58
   3   2   3  464.62   17.10
   3  -2  -3  465.59   18.79
   3  -2   3  505.23   22.38
  -3  -2  -3  463.26   17.72
   3  -2  -3  457.58   20.35
  -3  -2   3  488.47   19.56
  -3   2   3  493.41   24.51
   3  -2   3  535.37   15.87
   3  -2   4  674.27   18.71
  -3  -2   4  706.77   25.87
   3   2   4  677.16   22.17
  -3  -2  -4  700.75   22.55
  -3  -2   4  636.15   23.30
  -3   2   4  696.74   29.56
  -3  -2   4  650.40   13.21
   3  -2   4  722.99   27.49
  -3  -2   5  303.42   11.49
   3   2   5  296.25   16.35
  -3  -2   5  292.41   17.30
  -3  -2  -5  340.60   16.59
  -3   2   5  346.63   18.50
  -3   2   5  361.63   21.49
  -3  -2   5  327.26   18.14
   3  -2   5  311.60   18.84
   3  -2   5  344.40   14.81
  -3  -2   6    0.01    1.61
   3  -2   6    5.04    3.38
  -3  -2   6    0.75    0.92
  -3  -2  -6    2.23    1.32
   3   2   6    1.36    1.73
  -3   2   6    3.47    2.90
   3  -2   6   -0.01    0.51
  -3  -2   6    0.93    1.75
  -3   2   6   -0.70    1.64
  -3  -2   7  230.41   13.00
   3   2   7  245.96   16.49
  -3   2   7  234.06   16.53
  -3  -2   7  234.34   16.48
  -3   2   7  227.16   17.82
   3  -2   7  248.35   17.77
  -3  -2  -7  177.82   13.36
  -3  -2   7  220.68   17.03
  -3  -2   8  350.88   17.61
   3   2   8  363.03   21.36
  -3  -2  -8  371.53   20.77
  -3   2   8  366.85   23.41
   3  -2   8  374.88   22.87
  -3  -2   8  337.66   20.89
  -3   2   8  347.75   21.04
  -3  -2   8  346.40   22.32
   3  -2   9    8.73    3.71
  -3  -2   9    4.70    3.07
   3   2   9    6.22    3.71
  -3   2   9    5.48    2.09
  -3  -2   9    6.50    3.45
  -3   2   9    5.75    3.76
  -3   2  10   -0.69    1.65
   3  -2  10    0.10    1.81
  -3  -2  10   -0.46    2.32
  -3  -2  10   -0.07    2.03
   3   2  10    1.71    1.05
  -3   2  10   -0.80    2.86
   3   2  10   -1.29    1.51
  -3   2  11   29.64    7.60
  -3  -2  11   33.46    6.20
   3   2  11   24.03    6.37
  -3   2  11   38.07    8.36
  -3  -2  11   38.84    7.74
   3   2  11   31.70    6.36
   3  -2  11   22.33    6.78
  -3  -2  12   76.92   10.48
  -3   2  12   61.17   10.77
   3   2  12   77.48   11.45
   3  -2  12   86.34   12.61
  -3  -2  12   93.17   12.60
  -3   2  12   79.48   11.50
   3   2  12   92.54   11.90
  -3   2  13   31.94    7.94
  -3  -2  13   47.82    8.63
   3   2  13   38.83    9.02
  -3   2  13   32.61    8.39
   3  -2  13   39.62    8.90
   3   2  13   33.98    7.86
  -3  -2  13   37.98    8.82
  -3  -2  14   68.14   10.49
   3   2  14   93.51   13.16
   3  -2  14   90.75   13.70
  -3   2  14   75.93   11.74
  -3  -2  14   85.64   12.65
   3   2  14   68.26   11.67
  -3   2  14   78.78   12.15
  -3  -2  15   77.33   12.07
   3   2  15   74.30   12.83
   3  -2  15   81.03   13.29
  -3   2  15   77.18   12.90
  -3  -2  15   68.85   12.04
   3   2  15   78.73   12.60
  -3   2  15   72.38   12.01
  -3  -2  16  110.66   14.37
   3   2  16   92.29   14.83
   3  -2  16  119.64   16.53
  -3   2  16  143.81   18.50
  -3  -2  16  121.50   16.99
   3   2  16  124.13   17.04
  -3   2  16  130.31   16.70
   3  -2  16  131.46   18.27
  -3   2  17   49.77   11.43
  -3  -2  17   80.42   13.40
   3  -2  17   72.46   13.40
   3  -2  17   46.63   10.23
   3   2  17   49.26   10.98
  -3   2  17   67.14   12.64
  -3  -2  17   49.39   10.75
   3   2  17   57.67   11.89
  -3  -2  18   84.17   13.35
   3   2  18  113.98   16.44
  -3   2  18  125.63   16.99
   3  -2  18  101.00   15.49
  -3   2  18  126.77   18.16
  -3  -2  18   84.32   14.44
   3   2  18   85.52   15.26
   3  -2  18   94.87   14.79
  -3   2  19    5.95    6.67
  -3  -2  19   -1.60    5.22
   3   2  19   -1.84    4.46
  -3  -2  19    5.81    6.26
   3  -2  19   -1.44    3.83
  -3   2  19    0.52    3.77
   3   2  19    3.28    5.35
   3  -2  19   -3.50    3.28
  -3   2  20   31.14    9.67
  -3  -2  20   34.88    8.33
   3   2  20   34.64    9.53
   3  -2  20   38.41   11.05
   3   2  20   19.23    7.39
  -3   2  20   45.18   11.09
  -3  -2  20   26.01    8.53
   3  -2  20   30.83    9.05
  -3  -2  21   64.10   13.45
  -3   2  21   54.47   13.23
   3  -2  21   62.13   13.60
   3   2  21   40.76    8.85
  -3   2  21   45.84   11.41
  -3  -2  21   40.85   11.46
   3   2  21   53.54   11.92
   3  -2  21   53.99   12.67
  -3   2  22   16.63    7.12
   3  -2  22   40.44   10.76
  -3  -2  22   20.39    8.50
   3   2  22   18.52    8.31
  -3   2  22   10.52    7.36
  -3  -2  22   15.22    6.64
   3   2  22   18.59    7.24
   3  -2  22   10.27    7.06
  -3   2  23    5.11    4.50
  -3  -2  23    6.09    5.63
   3   2  23   -1.36    1.89
   3  -2  23   -4.60    2.90
  -3   2  23   12.49    6.80
  -3  -2  23   -0.34    3.20
   3   2  23    7.34    6.79
   3  -2  23   10.71    5.71
  -3   2  24    1.68    2.48
  -3   2  24   -3.34    5.54
  -3  -2  24   -1.90    3.59
   3   2  24   -5.72    6.42
   3  -2  24   -3.31    2.57
  -3  -2  24    2.44    7.05
   3   2  24    4.52    6.44
   3  -2  24   -0.31    3.29
  -3  -2  25    3.94    2.87
   3   2  25    5.16    6.73
  -3   2  25    4.78    5.91
   3  -2  25   -0.05    2.15
  -3   2  25    8.94    6.09
  -3  -2  25    9.97    6.01
   3   2  25   -4.63    6.03
   3  -2  25    7.12    5.68
  -3   2  26   -1.67    4.63
  -3  -2  26   -2.52    5.48
   3   2  26    0.84    3.14
  -3  -2  26   -2.29    2.70
   3  -2  26   -0.50    3.04
  -3   2  26    0.42    2.53
   3   2  26    1.22    4.02
   3  -2  26   -1.86    7.15
  -3   2  27   16.14    6.64
  -3  -2  27   20.40   10.84
   3   2  27   23.28    8.74
   3  -2  27   28.79   11.02
   3  -2  27   15.64    7.14
  -3   2  27   25.62   10.77
  -3  -2  27   19.56    8.86
   3   2  27   12.97    8.83
  -3   2  28    0.86    4.08
  -3  -2  28   18.07   10.69
   3   2  28    6.07    6.21
   3  -2  28    8.40    7.48
   3  -2  28    6.25    6.00
  -3   2  28    6.68    6.86
  -3  -2  28    4.25    5.64
   3   2  28   10.38    6.08
  -3   2  29    3.26    5.32
  -3  -2  29   13.44    8.78
   3   2  29   -2.80    8.50
   3  -2  29    2.82    4.18
  -3  -2  29   -0.05    2.21
   3   2  29    6.99    6.36
  -3   2  29   -1.67    5.33
   3  -2  29   -1.00    3.12
  -3   2  30    1.34    4.27
  -3  -2  30   -7.21    6.21
   3   2  30   -0.03    4.44
   3  -2  30   -2.75    6.18
  -3   2  30   -5.95    7.92
  -3  -2  30   -6.38    7.16
   3   2  30    4.69    4.73
   3  -2  30    9.86    7.15
  -3   2  31    4.76    5.83
  -3  -2  31    1.06    5.74
   3   2  31   -4.50    7.05
   3  -2  31   -4.77    5.33
  -3   2  31   17.13    6.55
  -3  -2  31    0.93    4.09
   3   2  31   -6.42    6.21
   3  -2  31    6.01    6.53
   3  -3   0    0.10    2.16
  -3  -3   0    1.92    2.45
   3  -3   0   -0.84    1.27
  -3   3   0    2.30    1.65
  -3  -3   0   -0.11    0.41
  -3  -3   1   91.61   10.05
  -3  -3  -1   91.43    9.46
   3  -3   1   77.56    7.68
   3   3   1   69.66    6.00
   3  -3  -1   78.63    7.48
  -3  -3   1  103.85    7.75
  -3   3   1   72.03    9.69
   3  -3   1   93.46   10.30
  -3  -3   1   72.91    4.43
  -3   3  -1   97.83   11.82
   3  -3  -1   79.91    9.46
  -3  -3   2  847.49   30.72
   3  -3  -2  844.51   30.02
   3  -3   2  767.28   25.09
  -3  -3  -2  773.78   27.20
   3  -3  -2  823.30   25.70
   3  -3   2  760.21   29.23
  -3   3   2  891.04   34.39
   3   3   2  804.90   21.13
  -3  -3   2  809.41   22.30
   3  -3   3  133.05   10.25
  -3  -3  -3  154.30   11.95
   3  -3   3  107.50   11.18
   3  -3  -3  144.55   12.60
  -3   3   3   83.07   10.66
   3  -3  -3  120.02   10.66
  -3  -3   3  121.58    9.14
  -3  -3   3  132.55   11.68
  -3  -3   3  140.55    6.35
   3   3   3  156.89   10.46
  -3  -3   4  457.54   23.47
   3  -3   4  465.88   19.65
   3  -3   4  481.37   24.24
  -3  -3  -4  460.52   21.36
   3  -3  -4  446.69   21.19
  -3   3   4  476.60   25.43
  -3  -3   4  472.21   13.37
  -3  -3   4  425.28   18.34
   3   3   4  450.83   19.29
  -3  -3   5 3579.54   66.70
   3  -3   5 3619.01   55.59
  -3  -3   5 3486.62   42.14
  -3  -3  -5 3236.36   58.67
   3  -3  -5 3423.71   62.21
  -3   3   5 3552.10   71.23
   3  -3   5 3372.03   65.51
   3   3   5 3398.15   57.29
   3  -3   6  771.63   26.50
  -3  -3   6  783.95   32.34
  -3  -3   6  769.14   21.87
  -3  -3  -6  736.59   28.36
  -3   3   6  702.77   31.97
  -3  -3   6  724.24   27.41
  -3   3   6  757.66   30.93
   3  -3   6  791.40   32.35
   3   3   6  690.45   27.06
  -3  -3   7   80.31    7.80
  -3  -3   7   82.54   10.73
  -3   3   7   83.19   11.06
  -3  -3   7   95.74   10.40
  -3   3   7   86.64   11.12
   3  -3   7   85.22   10.95
   3   3   7   88.18    9.10
   3  -3   7   77.25    8.79
   3   3   7   91.23   10.10
   3   3   8  343.48   21.00
  -3  -3  -8  413.69   23.22
  -3  -3   8  347.37   17.77
  -3   3   8  321.53   22.53
   3  -3   8  362.88   23.25
  -3  -3   8  350.65   21.12
  -3   3   8  327.17   21.64
   3   3   8  333.73   18.89
   3  -3   8  299.80   18.61
  -3  -3   8  344.59   22.68
   3   3   9 1144.77   40.31
  -3  -3   9 1225.33   35.63
  -3  -3  -9 1060.47   38.71
  -3   3   9 1227.60   44.79
  -3  -3   9 1114.11   39.61
   3   3   9 1076.81   35.94
   3  -3   9 1193.52   43.38
  -3   3   9 1148.07   41.34
   3  -3   9 1145.75   37.62
  -3  -3   9 1176.37   43.04
   3   3  10  214.16   17.95
  -3   3  10  194.36   18.34
   3  -3  10  186.81   15.73
  -3  -3  10  168.64   14.09
   3   3  10  214.02   17.27
   3  -3  10  168.77   17.07
  -3  -3  10  169.18   15.87
  -3   3  10  197.26   17.52
  -3  -3 -10  208.07   17.78
  -3  -3  10  224.50   19.35
   3  -3  11   45.46    8.43
  -3   3  11   46.71    9.13
  -3  -3  11   43.57    7.47
  -3  -3  11   38.33    7.84
   3   3  11   40.42    8.71
   3   3  11   53.76    9.17
  -3  -3 -11   64.89   10.07
  -3   3  11   39.02    7.60
  -3  -3  11   53.81    9.98
  -3   3  12   -1.65    3.41
   3  -3  12   -1.80    3.62
   3   3  12   -1.83    2.48
  -3  -3  12    0.54    1.73
  -3   3  12   -2.76    3.70
  -3  -3 -12   -0.94    2.42
  -3  -3  12   -0.84    1.04
   3   3  12   -2.96    3.28
   3   3  13  465.25   29.61
  -3  -3  13  446.05   26.63
  -3  -3  13  398.39   27.40
   3  -3  13  429.41   30.05
  -3   3  13  403.37   28.35
  -3   3  13  355.17   26.02
   3   3  13  395.15   26.09
  -3   3  14    0.12    1.64
   3   3  14   -1.68    2.62
  -3  -3  14   -1.53    2.23
  -3   3  14   -1.13    2.94
  -3  -3  14    0.72    1.98
   3   3  14    0.14    2.14
   3  -3  14   -0.10    2.80
  -3   3  15  331.67   26.84
  -3  -3  15  314.94   24.31
  -3  -3  15  330.55   26.57
  -3   3  15  310.76   25.16
   3   3  15  345.95   26.77
   3   3  15  296.03   24.95
   3   3  16   -1.43    3.83
  -3  -3  16    1.14    3.35
  -3   3  16   -3.05    4.05
   3  -3  16    1.91    2.00
  -3  -3  16    0.44    3.30
   3   3  16    0.34    1.41
  -3   3  16    8.35    6.22
   3   3  17  375.58   29.27
  -3  -3  17  387.22   28.22
   3  -3  17  398.32   31.08
  -3   3  17  382.20   30.23
  -3  -3  17  368.54   30.01
   3   3  17  367.71   29.04
  -3   3  17  397.17   30.48
   3  -3  17  293.91   27.25
   3   3  18  137.91   17.84
  -3  -3  18  138.52   17.70
   3  -3  18  114.11   17.46
  -3   3  18  110.35   16.38
  -3  -3  18  135.40   18.40
   3   3  18   91.48   14.27
  -3   3  18  149.05   19.20
   3  -3  18  148.38   19.53
  -3  -3  19  143.34   18.90
   3  -3  19  149.18   19.54
   3  -3  19  173.29   21.70
  -3   3  19  158.69   21.12
   3   3  19  146.07   19.75
   3   3  19  125.62   18.66
  -3   3  19  146.66   19.22
  -3  -3  19  122.27   16.88
  -3   3  20   11.70    6.85
  -3   3  20   19.61    9.03
   3   3  20    3.53    3.81
  -3  -3  20    5.51    1.34
   3  -3  20   17.42    8.71
  -3  -3  20    4.70    5.17
   3   3  20    3.45    2.04
   3  -3  20   11.91    8.76
  -3   3  21   28.99   10.13
   3   3  21   41.17    9.72
  -3  -3  21   39.62   10.16
   3  -3  21   55.23   12.88
  -3   3  21   54.58   13.06
  -3  -3  21   45.02   10.93
   3   3  21   34.26   10.15
   3  -3  21   44.87   11.45
  -3   3  22   20.95    8.38
  -3   3  22   15.61    5.45
   3   3  22   30.56    9.94
  -3  -3  22   22.95    8.32
   3   3  22   18.93    6.93
   3  -3  22   11.61    6.82
  -3  -3  22   24.38    7.87
   3  -3  22   19.75    6.37
  -3  -3  23  116.33   17.86
   3   3  23   92.32   16.23
   3  -3  23   88.39   16.07
  -3   3  23   99.78   16.43
  -3   3  23   95.61   17.19
  -3  -3  23   91.74   15.45
   3   3  23  129.66   19.95
   3  -3  23  166.78   23.83
  -3   3  24    3.05    5.18
   3   3  24   -1.08    4.40
  -3  -3  24    8.95    8.79
   3  -3  24    0.64    2.00
  -3   3  24    9.96    7.92
  -3  -3  24    3.19    6.11
   3   3  24   17.87    9.80
   3  -3  24   -3.76    2.60
   3   3  25   -0.79    5.05
  -3   3  25    9.07    6.57
  -3  -3  25    4.48    1.93
   3  -3  25    4.59    4.23
  -3   3  25   14.61    7.09
  -3  -3  25   -1.38    4.55
   3   3  25    2.98    4.98
   3  -3  25    2.15    2.56
  -3   3  26   38.25   10.70
   3   3  26   26.82   10.48
  -3  -3  26   31.55   10.87
  -3  -3  26   46.75   14.08
   3  -3  26   16.58    7.81
   3   3  26   35.26   11.25
   3  -3  26   38.09   12.58
  -3   3  26   36.36   11.42
  -3   3  27   37.76   10.74
   3   3  27   64.44   15.51
  -3  -3  27   37.72   11.32
   3  -3  27   51.28   14.03
   3   3  27   49.30   13.00
  -3   3  27   56.05   14.24
  -3  -3  27   68.18   15.75
   3  -3  27   37.46   11.66
  -3   3  28   18.96    6.71
  -3  -3  28   22.04    8.66
   3   3  28    5.93    4.94
  -3  -3  28    8.45    6.94
  -3   3  28   25.23   11.03
   3  -3  28   19.14    9.78
   3  -3  28   11.46    6.81
   3   3  28    1.93    4.12
  -3   3  29   15.62    8.65
   3   3  29   -0.06    7.15
  -3   3  29   19.56    8.48
  -3  -3  29   19.73    9.92
   3  -3  29   10.43    8.14
  -3  -3  29   28.82   10.49
   3   3  29   15.07    9.19
   3  -3  29   18.56   10.43
   3   3  30   37.24   13.06
  -3  -3  30   43.28   13.07
  -3   3  30   17.91    9.99
   3  -3  30   36.08   10.12
  -3   3  30   22.62    7.55
  -3  -3  30   22.66   10.09
   3   3  30   41.06   13.81
   3  -3  30   42.67   13.41
  -3   3  31   56.44   13.64
   3   3  31   41.31   12.51
   3  -3  31   55.39   15.28
  -3   3  31   27.73    8.85
  -3  -3  31   28.42   11.72
  -3  -3  31   68.47   20.17
   3   3  31   40.09   13.34
   3  -3  31   20.37    6.03
   3  -4   0    1.60    1.11
  -3  -4   0    0.67    1.30
   3  -4   0   -0.12    1.51
  -3   4   0    1.81    2.04
  -3  -4   0    0.90    1.10
  -3  -4   1  324.72   20.73
  -3   4   1  349.18   23.06
   3  -4   1  300.46   19.47
  -3  -4  -1  318.75   19.97
   3  -4   1  289.37   16.98
   3  -4  -1  338.32   18.23
  -3  -4   1  304.84   11.36
  -3  -4   1  336.04   13.13
   3   4   1  299.60   13.63
   3  -4  -1  275.92   19.51
   3  -4  -2   -0.08    2.39
  -3  -4   2    0.89    1.11
  -3  -4   2    0.97    2.07
   3  -4  -2    1.59    2.04
   3   4   2    1.19    1.74
   3  -4   2    0.38    1.93
  -3  -4  -2   -1.45    1.58
   3  -4   2    1.10    0.89
  -3   4   2    2.28    2.24
  -3  -4   2    1.51    1.21
  -3  -4   3   71.79    9.73
   3  -4   3   59.93    8.35
  -3  -4  -3   50.69    7.74
   3  -4  -3   64.96    9.35
   3  -4   3   72.21    9.55
   3  -4  -3   65.44    8.68
  -3   4   3   68.36    9.98
  -3  -4   3   64.81    6.28
   3   4   3   62.23    7.23
   3   4   3   70.26    4.70
  -3  -4   3   61.98    5.54
  -3  -4   4 1094.08   39.56
   3  -4   4 1022.11   33.74
   3  -4   4 1047.68   38.29
  -3  -4  -4 1083.87   36.59
   3  -4  -4 1027.53   34.62
   3  -4  -4 1128.24   39.17
  -3  -4   4 1066.05   28.39
  -3  -4   4 1090.54   24.70
   3   4   4 1038.05   31.11
   3   4   4 1149.58   22.18
  -3   4   4 1091.41   41.00
  -3  -4   5   33.23    7.70
   3  -4   5   34.65    6.00
  -3  -4   5   39.10    5.03
   3  -4  -5   24.60    6.85
   3  -4   5   32.66    6.71
  -3  -4  -5   27.45    6.17
  -3  -4   5   31.52    5.09
   3   4   5   36.76    4.53
   3   4   5   38.86    6.58
  -3   4   5   34.63    7.61
  -3  -4   6  194.83   17.36
   3  -4   6  167.40   14.11
  -3   4   6  168.86   16.74
   3  -4   6  182.22   16.41
  -3   4   6  171.95   15.91
   3  -4  -6  151.83   14.42
  -3  -4  -6  222.39   17.32
  -3  -4   6  154.11   12.65
   3   4   6  168.21   10.85
   3   4   6  202.73   15.41
  -3  -4   6  177.78   11.84
  -3  -4   7  103.73   13.14
   3  -4   7  117.35   11.87
   3   4   7  113.38   12.10
  -3  -4  -7  111.82   12.50
  -3  -4   7  117.77   10.24
  -3   4   7  131.49   14.69
   3  -4  -7  119.44   12.90
  -3  -4   7  129.19   12.17
  -3   4   7  117.07   13.09
   3   4   7  116.18    9.97
   3  -4   7  112.39   13.08
   3  -4   8   69.50    9.53
   3   4   8   60.42    7.94
  -3  -4   8   35.67    7.86
  -3  -4   8   46.58    6.97
  -3  -4  -8   58.69    9.14
  -3   4   8   50.94    9.15
   3  -4  -8   69.95   10.72
  -3  -4   8   55.35    8.14
  -3   4   8   49.70    8.31
   3  -4   8   60.33   10.08
   3   4   8   48.74    8.53
  -3  -4   9  782.20   37.07
  -3  -4   9  800.48   29.75
  -3  -4  -9  770.59   35.24
  -3   4   9  748.81   35.98
  -3  -4   9  737.71   32.82
  -3   4   9  726.67   35.17
   3   4   9  766.09   29.90
   3  -4   9  798.72   36.82
   3   4   9  750.85   33.99
   3  -4   9  677.17   30.81
   3  -4  10    1.16    1.58
  -3  -4  10    5.45    3.36
  -3  -4  10    2.38    3.15
   3   4  10    4.30    3.62
   3  -4  10    1.70    3.29
  -3  -4 -10    0.51    2.51
  -3   4  10    3.50    3.27
  -3  -4  10    1.29    1.80
   3   4  10   -0.64    2.39
  -3   4  10    1.49    1.45
   3  -4  11   -2.00    3.19
   3  -4  11    0.71    2.93
   3   4  11   -0.19    2.35
  -3  -4  11    0.32    2.39
  -3   4  11   -0.61    2.82
  -3  -4 -11   -0.87    2.10
  -3  -4  11   -0.52    2.61
   3   4  11    0.29    2.19
  -3   4  11   -1.13    1.92
  -3  -4  11    0.86    2.62
   3  -4  12   16.37    5.76
  -3  -4  12   10.05    5.77
   3  -4  12   22.63    6.57
   3   4  12   15.19    5.13
  -3   4  12   24.25    7.46
  -3  -4 -12   17.06    5.30
  -3  -4  12   13.36    4.68
   3   4  12   10.53    4.05
  -3  -4  12   17.59    4.97
  -3   4  12   11.41    4.01
  -3  -4  13    5.94    2.80
   3  -4  13    8.08    4.91
   3   4  13   12.06    4.76
  -3  -4  13    4.12    1.69
  -3   4  13   18.55    7.68
  -3  -4  13    6.69    3.56
   3   4  13    4.45    3.86
  -3   4  13   11.77    4.40
  -3  -4 -13   21.36    7.31
   3  -4  14    4.54    3.10
   3   4  14    1.96    1.44
  -3  -4  14    1.89    3.40
   3   4  14    5.26    4.30
  -3  -4  14    2.56    3.60
  -3   4  14   -0.19    2.87
  -3  -4 -14    2.11    3.50
  -3  -4  14    5.58    2.16
  -3   4  14   -2.51    5.67
   3   4  15   -0.38    2.65
  -3  -4  15    1.65    2.48
  -3  -4 -15    2.73    1.80
  -3   4  15   -0.29    2.34
  -3  -4  15    2.11    3.02
   3   4  15   -1.22    1.92
   3  -4  15   -0.09    3.43
  -3   4  15    3.06    4.22
  -3   4  16   36.47    9.79
   3   4  16   21.33    5.76
  -3  -4 -16   24.60    7.03
  -3  -4  16   22.88    7.45
  -3   4  16   38.07    9.43
  -3  -4  16   16.48    4.79
   3   4  16   21.80    7.10
   3  -4  16   12.34    7.42
  -3   4  17    7.95    5.90
  -3   4  17   25.80    8.79
   3   4  17   16.97    6.40
  -3  -4 -17   16.61    7.02
   3   4  17    3.22    4.96
  -3  -4  17    5.57    2.88
   3  -4  17   11.92    6.63
  -3  -4  17   10.83    5.38
  -3   4  18   -2.53    4.70
   3  -4  18    4.17    5.81
   3   4  18    2.61    4.01
  -3   4  18   -2.14    4.72
  -3  -4  18   -1.56    2.19
   3   4  18   -1.47    2.51
  -3  -4 -18    1.97    1.74
  -3  -4  18   -0.08    2.52
   3  -4  18    7.45    6.34
   3   4  19    7.80    5.29
  -3   4  19    7.32    3.16
  -3   4  19   11.23    6.97
  -3  -4  19    4.58    4.82
   3  -4  19    3.66    3.78
  -3  -4  19   11.34    4.95
   3   4  19    3.15    2.26
   3  -4  19    5.32    2.94
  -3   4  20   54.31   11.98
   3   4  20   51.00   13.54
  -3  -4  20   47.81   11.11
  -3   4  20   82.47   15.76
   3  -4  20   51.42   12.65
  -3  -4  20   58.95   13.73
   3   4  20   44.50   11.37
   3  -4  20   59.75   13.30
  -3   4  21   12.08    7.06
   3   4  21   16.16    8.14
  -3  -4  21   16.27    7.62
  -3   4  21   21.37    9.11
   3  -4  21    7.96    5.79
   3  -4  21   14.44    6.88
  -3  -4  21   16.53    8.15
   3   4  21    7.47    7.85
  -3   4  22    0.53    3.01
  -3   4  22    4.31    6.09
   3   4  22   -3.84    4.74
   3  -4  22    0.53    3.88
  -3  -4  22    1.01    5.92
  -3  -4  22    5.44    5.48
   3   4  22    6.62    6.46
   3  -4  22   -0.02    4.07
  -3   4  23    1.10    4.48
   3   4  23    4.73    2.90
  -3  -4  23   -2.63    6.46
  -3  -4  23   14.67    6.12
   3  -4  23   -1.51    1.74
  -3   4  23   16.47    4.70
   3   4  23    0.87    4.66
   3  -4  23   19.85    7.06
  -3   4  24   -1.78    1.86
  -3   4  24    0.14    3.73
   3   4  24    0.71    2.47
  -3  -4  24    2.17    4.57
   3   4  24    1.56    3.36
   3  -4  24    3.34    6.31
  -3  -4  24    0.80    3.51
   3  -4  24   -2.69    6.02
  -3   4  25    0.10    4.56
  -3   4  25    5.01    2.78
   3   4  25   -0.05    2.71
  -3  -4  25   -0.27    3.52
   3  -4  25    3.52    4.13
  -3  -4  25    2.32    4.46
   3   4  25   -4.14    6.30
   3  -4  25    4.13    2.44
  -3   4  26    5.74    5.56
   3   4  26    9.90    5.58
  -3  -4  26    5.84    4.26
   3  -4  26    3.85    6.33
  -3   4  26    9.67    4.16
  -3  -4  26    8.01    6.58
   3  -4  26    4.30    2.87
   3   4  26    1.73    5.74
  -3   4  27    2.19    5.37
  -3  -4  27    3.13    8.06
  -3  -4  27    2.99    6.32
   3  -4  27   -0.08    1.78
   3  -4  27    1.28    4.23
  -3   4  27   -2.73    4.15
   3   4  27    9.67    8.01
   3   4  27   -0.29    5.84
  -3   4  28   -3.64    6.13
   3   4  28   13.12    9.44
  -3  -4  28    3.47    4.66
  -3   4  28    2.92    3.13
   3  -4  28   17.96    9.14
   3   4  28    7.07    5.30
  -3  -4  28   12.77    8.68
   3  -4  28    5.10    5.29
  -3   4  29    1.43    4.56
   3   4  29   -2.83    5.67
  -3  -4  29    5.79    7.78
  -3   4  29   -3.38    5.71
   3  -4  29    5.13    8.31
  -3  -4  29    3.94    4.46
   3   4  29    2.85    2.33
   3  -4  29    7.17    7.97
   3   4  30   18.41    8.84
  -3  -4 -30   21.89    7.90
   3  -4  30   15.07    7.41
  -3   4  30   22.50    9.83
  -3   4  30    2.70    5.52
  -3  -4  30   12.52    8.28
   3   4  30   18.51    7.65
   3  -4  30   11.85    5.73
  -3  -5   0    3.86    2.70
   3  -5   0    3.03    2.20
  -3  -5   0    3.08    2.72
   3  -5   0    1.53    1.10
  -3   5   0   -2.32    3.84
  -3  -5   1  323.03   22.82
  -3  -5  -1  325.84   22.19
   3  -5   1  313.38   19.77
   3  -5  -1  362.68   21.32
  -3  -5  -1  378.57   17.96
  -3   5   1  314.73   23.05
  -3  -5   1  337.36   16.18
   3  -5   1  316.44   21.84
   3  -5  -1  316.00   22.16
   3  -5  -2  536.19   28.87
  -3  -5   2  573.84   30.90
   3  -5   2  599.38   27.67
  -3  -5  -2  552.96   29.27
  -3  -5   2  554.11   15.40
   3  -5  -2  623.01   28.01
  -3  -5   2  582.60   21.53
   3  -5   2  599.32   30.96
   3   5   2  615.68   24.19
  -3   5   2  612.11   31.91
  -3   5   3   19.22    6.26
  -3  -5   3   26.16    7.15
  -3  -5   3   26.42    4.44
   3  -5   3   26.35    5.74
   3  -5  -3   29.94    6.79
   3  -5   3   20.52    6.48
  -3  -5  -3   20.34    6.08
   3  -5  -3   30.51    6.31
  -3  -5   3   21.08    3.65
   3   5   3   16.78    4.26
  -3   5   4   14.45    4.65
   3  -5   4   10.63    3.48
  -3  -5   4   12.71    4.86
   3  -5   4   10.45    4.25
  -3  -5  -4   12.31    3.94
   3  -5  -4   14.65    4.82
   3  -5  -4   19.44    5.34
  -3  -5   4   13.70    3.69
  -3  -5   4   17.57    3.35
   3   5   4   11.72    3.86
   3  -5   5  342.46   22.06
   3  -5  -5  333.43   22.67
  -3  -5   5  330.15   17.09
   3   5   5  352.50   20.61
   3  -5   5  350.59   23.49
  -3  -5  -5  303.31   21.28
   3  -5  -5  353.59   22.42
   3   5   5  311.97   11.27
  -3   5   5  330.25   23.85
  -3  -5   5  345.28   23.78
  -3  -5   5  316.94   16.73
   3  -5   6  305.26   21.33
   3  -5   6  356.11   24.19
  -3  -5   6  338.90   23.84
  -3  -5  -6  291.86   21.42
   3   5   6  281.38   13.50
   3  -5  -6  309.53   21.51
  -3  -5   6  307.00   17.17
  -3  -5   6  291.02   17.35
  -3   5   6  265.07   21.48
   3   5   6  276.61   19.20
  -3  -5   7  166.75   17.18
   3  -5   7  126.08   13.57
  -3   5   7  137.12   15.27
  -3  -5  -7  129.98   14.45
   3  -5  -7  146.71   15.30
  -3   5   7  111.71   14.22
  -3  -5   7  121.72   11.05
  -3  -5   7  118.05   12.08
   3   5   7  120.04    9.45
   3  -5   7  116.64   14.71
   3   5   7  116.74   12.46
  -3  -5   8  366.71   26.30
   3  -5   8  305.23   21.67
   3  -5   8  379.24   25.62
  -3   5   8  318.79   23.41
  -3  -5  -8  375.16   25.14
   3  -5  -8  378.77   25.48
  -3   5   8  336.91   24.70
  -3  -5   8  385.75   22.71
   3   5   8  300.00   17.46
  -3  -5   8  324.10   19.32
   3   5   8  339.99   22.97
   3   5   9    3.62    4.00
  -3  -5   9    0.96    1.81
   3  -5   9    1.64    1.34
  -3   5   9   -0.25    2.90
  -3  -5  -9   -1.77    2.97
   3  -5   9    3.37    4.18
  -3   5   9   -0.36    1.78
   3  -5  -9   -5.17    4.40
  -3  -5   9    0.76    2.16
   3   5   9    1.94    1.46
  -3  -5   9    0.99    0.74
   3  -5  10   22.03    5.63
  -3  -5  10   18.44    6.29
   3   5  10   14.88    4.08
   3  -5  10   16.09    6.08
   3   5  10   13.02    6.08
  -3  -5 -10   25.51    7.19
  -3   5  10   25.00    7.37
  -3  -5  10   25.00    6.03
   3  -5 -10   16.07    5.58
  -3   5  10   18.02    6.39
  -3  -5  10   27.09    5.80
  -3  -5  11  498.62   27.82
  -3  -5 -11  486.19   30.39
  -3  -5  11  458.32   29.29
   3  -5 -11  479.28   31.44
  -3   5  11  531.53   32.96
   3   5  11  476.10   26.16
  -3   5  11  477.00   30.66
   3  -5  11  469.32   30.11
   3   5  11  464.46   29.53
   3  -5  11  506.68   29.78
  -3  -5  11  532.34   33.25
   3  -5  12   38.02    8.72
  -3  -5  12   35.69    8.92
   3   5  12   34.15    8.91
  -3  -5 -12   28.09    7.72
   3  -5  12   30.25    8.11
   3  -5 -12   29.53    6.33
  -3   5  12   27.25    7.58
  -3  -5  12   24.39    6.41
  -3  -5  12   42.64    8.46
   3   5  12   26.81    6.26
  -3   5  12   33.42    8.73
   3  -5  13   36.87    8.97
  -3  -5  13   42.58    9.95
  -3  -5 -13   36.57    8.81
   3  -5  13   30.50    8.38
   3  -5 -13   47.62   10.64
  -3   5  13   42.79   10.03
  -3  -5  13   40.75    8.55
  -3  -5  13   54.79   10.38
   3   5  13   33.05    7.93
  -3   5  13   21.53    6.97
   3   5  13   31.57    6.60
   3  -5  14   21.00    7.30
  -3  -5  14    4.40    2.30
   3   5  14    8.47    5.45
   3  -5  14   15.69    7.06
  -3   5  14   16.46    6.42
  -3  -5 -14    8.34    5.04
  -3  -5  14   20.99    6.54
  -3  -5  14   28.68    7.88
   3   5  14    4.37    3.39
  -3   5  14    8.08    4.44
   3   5  15   53.38   10.48
  -3  -5 -15   50.67   11.79
  -3   5  15   60.15   12.78
  -3  -5  15   68.00   12.48
   3   5  15   48.96    9.80
  -3  -5  15   35.47    9.22
   3  -5  15   51.77   11.76
  -3   5  15   48.01    9.97
   3  -5  15   44.57    9.36
  -3  -5  15   60.55   12.64
  -3  -5  16  313.33   26.74
  -3  -5 -16  354.11   28.91
   3  -5  16  345.50   29.80
  -3   5  16  356.28   28.77
  -3  -5  16  331.01   28.77
   3   5  16  346.72   27.35
  -3   5  16  281.35   26.10
   3   5  16  293.45   27.06
  -3  -5  16  323.41   28.99
  -3  -5  17  123.22   17.01
   3  -5  17  152.48   19.12
  -3   5  17  138.16   18.64
  -3  -5  17  134.54   18.51
   3   5  17  136.63   17.44
  -3  -5 -17  166.77   20.76
  -3   5  17  108.89   16.02
   3   5  17  139.98   18.43
   3   5  18   15.77    5.86
  -3  -5  18   22.37    8.51
  -3  -5 -18   10.82    4.57
  -3   5  18   25.36    7.78
  -3  -5  18   20.93    9.41
   3   5  18   24.59    9.74
   3  -5  18   23.44    8.16
   3  -5  18   22.51    7.79
  -3   5  18   25.23    7.36
   3   5  19   21.86    8.51
  -3  -5 -19   14.73    7.34
  -3   5  19   10.44    4.39
  -3   5  19   17.82    8.14
  -3  -5  19   30.28    9.19
  -3  -5  19   20.09    7.76
   3   5  19   44.17   11.39
   3  -5  19   27.38    8.72
   3  -5  19    3.76    4.36
  -3  -5  20   84.56   15.65
   3   5  20   70.91   13.56
   3  -5  20   84.23   16.42
  -3   5  20   48.89   12.55
  -3  -5 -20   78.35   14.80
  -3   5  20   88.84   16.22
   3   5  20   85.87   15.87
  -3  -5  20   63.62   13.15
   3  -5  20   74.59   14.92
  -3  -5  21   85.77   15.96
   3  -5  21   77.51   16.74
  -3   5  21   97.81   16.60
  -3  -5 -21  100.65   17.56
   3   5  21  117.83   18.53
  -3   5  21   91.74   16.64
  -3  -5  21   71.39   15.20
   3  -5  21   91.17   16.60
   3   5  21  101.93   17.47
   3  -5  22   97.56   18.33
   3   5  22   65.10   13.53
  -3  -5  22   65.43   14.29
   3  -5  22  103.52   17.86
  -3   5  22  101.52   17.35
  -3  -5 -22   70.42   14.69
  -3  -5  22   85.11   16.27
   3   5  22   99.64   17.53
  -3   5  22   78.85   15.89
  -3  -5 -23    0.67    1.70
   3  -5  23    8.54    7.50
   3   5  23   -3.56    6.41
  -3  -5  23   -4.55    6.08
  -3   5  23    1.73    2.61
   3  -5  23    3.89    8.04
  -3  -5  23    0.98    3.27
   3   5  23   -1.88    2.96
  -3   5  23   -0.61    3.66
  -3  -5  24  207.95   26.00
   3  -5  24  208.23   26.50
  -3  -5  24  188.61   24.18
   3   5  24  236.19   28.24
  -3   5  24  210.70   25.83
   3  -5  24  241.94   28.39
   3   5  24  196.81   24.69
  -3   5  24  200.19   25.32
  -3   5  25    2.17    5.09
   3   5  25   -0.94    3.43
  -3  -5  25    5.64    8.68
  -3   5  25   -4.34    7.06
   3   5  25   -7.47    7.36
   3  -5  25   -0.75    6.50
  -3  -5 -25    5.46    5.11
  -3  -5  25    3.11    6.02
   3  -5  25    6.57    6.99
  -3   5  26   23.65    8.71
  -3  -5  26   58.62   16.81
  -3  -5 -26   40.43   13.35
   3   5  26   36.23   11.44
  -3   5  26   60.48   15.34
   3  -5  26   37.59   11.93
  -3  -5  26   42.52   12.75
   3   5  26   37.32    9.59
   3  -5  26   42.38   12.98
  -3   5  27    8.05    6.13
   3   5  27   21.66    9.73
   3  -5  27   38.28   12.64
  -3  -5 -27   18.80   10.31
  -3   5  27   13.70    8.94
  -3  -5  27   33.74   10.41
   3   5  27   25.12   12.30
   3  -5  27   16.33    8.17
  -3   5  28    7.83    4.26
   3   5  28   -2.43    6.19
   3  -5  28    9.67    7.56
   3   5  28    9.07    5.69
  -3  -5 -28    7.79    7.15
  -3   5  28   16.57    8.51
  -3  -5  28    8.51    4.15
   3  -5  28   16.40    8.47
  -3   5  29    1.14    6.62
   3   5  29    6.22    6.08
   3  -5  29    2.73    5.03
  -3  -5 -29    0.84    7.22
  -3   5  29   14.24    9.40
  -3  -5  29   -4.88    5.66
   3   5  29    0.67    5.05
   3  -5  29    3.91    4.62
  -3   5  30   30.76    9.28
   3   5  30   23.67   11.05
   3  -5  30   34.44   13.68
  -3  -5 -30   27.08    9.37
  -3   5  30   21.26    7.10
   3  -5  30   38.83   13.00
  -3  -5  30   43.11   13.49
   3   5  30   27.13   10.65
   3  -6   0   -0.85    1.87
  -3  -6   0    0.59    1.87
   3  -6   0    1.53    4.40
  -3  -6   0    1.10    1.57
  -3  -6   1    9.50    3.84
  -3  -6  -1   16.89    4.71
   3  -6   1   14.65    4.20
   3  -6  -1   17.11    5.64
   3  -6  -1    7.57    3.84
  -3   6   1    8.83    4.55
  -3  -6   1    3.34    1.22
   3  -6   1   14.68    5.52
  -3  -6  -1    8.84    3.20
  -3  -6   2  410.81   27.43
  -3  -6   2  367.71   19.81
   3  -6   2  376.24   24.37
  -3  -6  -2  414.34   27.20
   3  -6  -2  405.74   24.75
  -3   6   2  369.74   26.32
   3  -6   2  300.06   23.04
  -3  -6   2  333.32   10.55
   3  -6  -2  414.21   26.75
   3  -6  -3   30.95    6.97
  -3  -6   3   38.04    8.13
   3  -6  -3   38.63    7.90
   3  -6   3   35.05    7.56
  -3  -6   3   36.61    6.18
  -3  -6  -3   33.11    8.17
   3  -6   3   25.42    7.00
  -3   6   3   34.56    8.21
   3   6   3   18.49    4.99
  -3  -6   3   29.98    4.31
   3  -6   4   45.09    8.84
  -3  -6   4   35.12    6.36
  -3  -6   4   41.74    8.99
   3  -6   4   29.91    6.41
   3  -6  -4   42.86    8.40
  -3  -6   4   39.12    5.37
  -3  -6  -4   38.60    8.20
  -3   6   4   38.95    8.02
   3   6   4   43.20    7.65
   3  -6  -4   34.13    8.06
  -3  -6   5   65.37   11.69
   3  -6   5   63.00   10.54
  -3  -6  -5   52.97    9.43
   3  -6   5   53.24    9.48
   3  -6  -5   36.02    8.74
   3  -6  -5   54.19    9.78
  -3   6   5   38.41    8.24
   3   6   5   48.39    8.76
  -3  -6   5   46.86    6.49
  -3  -6   5   43.01    6.55
   3  -6   6  141.36   15.64
   3   6   6  102.66    6.52
   3  -6   6  116.34   14.47
  -3   6   6  114.75   14.88
  -3  -6  -6  112.03   14.24
   3  -6  -6  103.48   12.69
  -3  -6   6  135.39   15.62
   3   6   6  144.02   14.52
  -3  -6   6  119.31   11.68
  -3  -6   6  123.29   11.57
   3  -6  -6  108.35   13.64
  -3  -6   7    1.72    3.19
  -3  -6   7    0.38    1.48
  -3  -6  -7    2.70    4.61
   3  -6  -7   -0.29    1.93
  -3   6   7    4.77    5.04
   3   6   7   -0.34    0.90
   3  -6   7    4.10    2.79
   3  -6   7    0.59    3.77
  -3  -6   7   -0.91    2.01
   3   6   7    0.65    3.50
   3  -6   8   58.09   10.22
  -3  -6   8   57.92   10.42
   3  -6   8   59.33    9.75
  -3   6   8   69.97   12.10
  -3  -6  -8   47.56    9.61
  -3  -6   8   75.93   10.31
   3  -6  -8   65.73   11.03
  -3  -6   8   65.20    8.85
   3   6   8   51.45    9.20
   3   6   8   49.43    6.07
   3   6   9   23.27    6.79
  -3  -6   9   25.50    6.18
  -3  -6   9   22.13    5.73
   3  -6   9   11.28    3.67
  -3  -6   9   18.28    5.97
   3  -6   9   15.31    4.63
  -3   6   9   32.52    8.38
  -3  -6  -9   23.09    6.41
   3   6   9   16.35    4.41
   3  -6  -9   21.43    7.24
  -3   6   9   18.44    6.99
  -3  -6  10    5.21    3.89
   3   6  10    7.77    3.49
  -3  -6  10    8.37    3.12
   3  -6  10    5.29    3.15
  -3   6  10    7.47    3.75
   3  -6  10   14.66    5.53
  -3  -6 -10    9.80    5.77
   3   6  10    9.56    3.59
  -3   6  10   11.83    5.65
  -3  -6  10    6.52    2.83
   3  -6 -10    7.26    5.03
   3   6  11   10.88    5.44
  -3  -6 -11   12.89    5.51
   3  -6  11    8.29    3.71
  -3  -6  11   12.57    5.60
  -3   6  11   15.44    6.92
   3  -6  11   13.41    3.28
   3   6  11    9.86    4.36
  -3  -6  11    8.78    4.13
  -3   6  11    5.93    2.44
  -3  -6  11   11.50    4.76
   3  -6 -11   13.73    6.35
   3   6  12   -4.64    4.98
   3  -6  12    0.62    2.63
  -3  -6  12    1.42    3.06
  -3   6  12    2.93    1.57
   3  -6  12    0.15    2.37
   3  -6 -12   -1.26    3.18
  -3  -6 -12   -3.03    4.30
   3   6  12    5.28    4.37
  -3  -6  12   -0.46    3.66
  -3   6  12    0.75    4.32
  -3  -6  12    0.93    2.53
  -3  -6  13   36.31    9.69
   3   6  13   30.88    8.45
   3  -6  13   39.00    9.89
  -3  -6 -13   50.03   11.59
   3  -6 -13   36.09    7.40
   3   6  13   48.29    9.43
  -3  -6  13   44.31    9.32
  -3  -6  13   26.29    7.70
  -3   6  13   32.12    8.27
   3  -6  13   55.23   10.85
  -3   6  13   45.97   11.32
  -3  -6  14   50.87   11.49
   3  -6  14   73.93   13.35
  -3  -6  14   60.54   11.06
  -3  -6 -14   74.51   13.35
  -3   6  14   70.77   13.28
   3  -6 -14   65.03   12.10
   3   6  14   73.67   11.68
  -3  -6  14   66.85   12.56
   3   6  14   78.30   13.77
  -3   6  14   45.26   10.59
   3  -6  14   59.05   12.04
   3  -6  15   13.51    6.02
  -3  -6  15    9.24    6.50
   3   6  15    4.30    2.12
   3  -6  15    4.98    3.34
  -3   6  15    6.24    4.17
  -3  -6 -15   -0.40    1.69
   3  -6 -15   10.60    4.40
  -3  -6  15    8.02    4.97
   3   6  15    5.94    5.11
  -3  -6  15    3.13    3.66
  -3   6  15    2.64    3.53
   3  -6  16   -2.35    5.04
  -3  -6  16   -1.60    5.04
   3  -6  16    0.30    2.56
   3   6  16    5.20    4.07
  -3   6  16    1.34    3.94
  -3  -6 -16   -0.84    1.42
   3  -6 -16   -2.67    2.21
  -3  -6  16    1.94    2.10
   3   6  16    0.22    2.01
  -3  -6  16    0.94    3.49
  -3   6  16   -0.91    4.89
   3  -6  17   14.26    5.10
  -3  -6  17   19.22    9.33
   3   6  17    9.60    8.70
  -3  -6 -17   12.78    5.29
  -3  -6  17    4.69    2.92
   3  -6 -17   10.48    6.71
   3   6  17   17.76    6.63
  -3  -6  17   21.42    8.01
  -3   6  17   13.28    8.02
  -3   6  17    8.19    4.70
   3   6  18    5.65    1.57
  -3  -6 -18    3.21    3.23
  -3  -6  18    4.46    3.15
   3  -6 -18    5.96    2.92
  -3   6  18    3.73    1.81
   3   6  18   15.53    6.70
  -3  -6  18   10.16    5.52
  -3   6  18    5.09    3.79
  -3  -6  18    4.40    2.18
   3  -6  18    7.62    3.85
   3   6  19    2.44    1.62
  -3  -6  19    4.73    2.69
  -3   6  19    2.54    1.97
  -3  -6 -19    2.87    2.90
   3  -6 -19    7.61    9.35
   3   6  19    1.88    5.15
  -3  -6  19    7.50    5.44
   3  -6  19    1.75    4.08
  -3   6  19    0.98    3.41
   3  -6  19    4.85    4.99
   3   6  20   12.32    5.61
   3  -6 -20   18.29    5.40
  -3  -6  20    4.10    1.81
  -3  -6 -20    2.55    5.05
  -3   6  20    8.96    6.09
   3   6  20    7.74    5.50
  -3  -6  20   20.53    7.37
   3  -6  20   17.06    7.83
  -3   6  20   11.71    6.13
   3  -6  20    6.24    6.98
   3   6  21   -0.09    2.06
  -3  -6  21   10.12    6.06
  -3  -6 -21    5.42    7.39
  -3   6  21   -3.77    6.49
   3  -6 -21   -1.91    3.12
  -3   6  21    5.27    5.95
   3   6  21    0.58    3.23
  -3  -6  21   -2.04    2.71
   3  -6  21   -5.17    3.08
   3  -6  21    0.10    6.69
  -3  -6 -22    7.75    7.10
   3   6  22    4.04    4.21
   3  -6 -22    0.23    3.05
  -3  -6  22    5.66    5.79
   3   6  22    6.94    6.33
   3  -6  22    5.40    4.93
  -3  -6  22   -3.22    2.47
  -3   6  22   -1.21    1.97
   3  -6  22   -0.05    4.82
  -3   6  22   -7.98    4.79
   3   6  23   -0.79    5.12
  -3  -6  23   16.80   11.09
  -3  -6 -23    6.48    5.81
  -3   6  23   -4.04    5.62
   3  -6 -23    0.92    2.48
   3  -6  23    9.43    4.40
   3   6  23   -3.94    4.36
  -3  -6  23    6.05    4.99
   3  -6  23    6.82    6.97
  -3   6  23    2.77    5.14
  -3   6  24    9.29    7.63
   3  -6  24   -2.68    6.44
   3   6  24    6.03    4.36
  -3   6  24    6.02    3.11
   3  -6 -24    7.19    5.65
  -3  -6 -24    4.27    5.53
  -3  -6  24   10.26    3.11
   3  -6  24   14.60    8.57
   3   6  24   11.50    5.67
   3   6  25   -3.52    5.57
  -3   6  25    7.83    6.44
  -3  -6 -25   -9.03    8.35
   3  -6  25    2.53    7.20
  -3  -6  25   -0.82    5.64
   3  -6 -25    4.78    6.55
   3   6  25    3.96    4.85
   3  -6  25    1.58    4.40
  -3   6  25    4.65    5.24
  -3  -6 -26   -3.65    3.90
   3  -6 -26    1.92    5.31
   3   6  26   -6.28    6.83
   3  -6  26    4.64    5.80
  -3   6  26    3.38    2.20
   3   6  26    7.65    3.93
  -3  -6  26    0.61    4.24
   3  -6  26    0.03    7.47
  -3   6  26    2.95    5.59
   3   6  27   -5.58    6.80
  -3  -6 -27    3.12    5.30
  -3   6  27    7.38    3.30
   3  -6 -27   -3.91    6.65
   3  -6  27    1.33    5.35
   3   6  27    2.25    6.28
  -3  -6  27    1.56    2.84
   3  -6  27   -0.51    3.59
  -3   6  27    0.57    3.15
   3   6  28    1.31    2.83
   3  -6  28    0.74    2.99
  -3  -6 -28    6.23    4.18
  -3   6  28    0.62    2.92
   3  -6 -28    4.06    4.76
  -3  -6  28   12.73    8.65
   3  -6  28    6.22    2.02
  -3   6  28   -1.91    4.11
   3   6  29   34.67   12.00
   3  -6  29   19.84    8.99
  -3   6  29   33.93   11.02
   3  -6 -29   42.30   10.94
  -3  -6  29   27.63    8.88
   3  -6  29   19.62    9.28
  -3  -6 -29   16.18    8.26
  -3   6  29    9.35    6.70
   3  -7   0   -1.89    3.81
  -3  -7   0    1.47    1.80
  -3  -7   0   -0.70    2.60
   3  -7   0   -1.07    2.87
  -3  -7  -1  479.52   25.81
  -3  -7   1  521.52   32.58
  -3  -7  -1  568.01   33.31
   3  -7   1  511.64   30.76
   3  -7  -1  465.02   29.27
  -3   7   1  512.48   32.21
   3  -7   1  526.87   31.55
  -3  -7   1  492.90   25.30
   3  -7  -1  573.73   33.76
  -3  -7   2   10.66    3.80
  -3  -7  -2   19.85    5.66
   3  -7   2   27.42    7.68
  -3  -7  -2   15.59    5.57
   3  -7  -2   26.05    6.55
  -3   7   2   27.02    7.52
  -3  -7   2   24.07    6.16
   3  -7   2   19.60    7.42
   3  -7  -2   13.89    7.07
   3  -7  -3  681.44   36.02
  -3  -7   3  630.37   36.63
   3  -7   3  641.20   34.54
  -3  -7  -3  678.19   37.25
   3  -7  -3  661.11   34.65
  -3  -7   3  639.07   28.70
   3  -7   3  658.04   35.99
  -3   7   3  665.41   36.88
  -3  -7   4  924.73   45.25
   3  -7   4  942.82   42.95
   3  -7  -4  934.02   42.72
  -3  -7  -4  973.39   43.92
  -3  -7   4  947.59   34.94
  -3  -7   4  844.03   24.68
   3  -7  -4  979.89   42.91
   3  -7   4  964.38   42.76
  -3   7   4  912.91   43.36
  -3  -7   5  958.37   45.97
  -3  -7   5  837.31   33.86
   3  -7   5  955.01   43.18
  -3  -7  -5  899.24   42.39
   3  -7  -5  925.81   42.69
   3  -7   5  901.45   41.86
   3  -7  -5  897.29   40.94
  -3   7   5  840.45   41.22
  -3  -7   5  816.76   27.77
   3   7   5  869.53   37.69
  -3  -7   6  152.25   18.48
   3  -7   6  169.37   18.42
   3  -7   6  172.53   18.36
  -3  -7  -6  169.26   18.03
   3  -7  -6  144.98   16.99
   3  -7  -6  161.65   18.04
  -3   7   6  161.95   18.12
  -3  -7   6  121.54   12.19
   3   7   6  156.68   16.42
  -3  -7   6  153.96   14.33
  -3  -7   7    6.91    5.29
   3  -7   7    2.23    4.40
   3  -7  -7   -1.24    3.40
   3  -7  -7   -3.73    4.90
  -3  -7   7    0.65    0.82
  -3   7   7    0.24    1.49
   3   7   7    0.93    0.71
  -3  -7  -7   -0.06    2.73
  -3  -7   7    0.48    1.55
   3  -7   7    3.57    5.60
   3   7   7    0.36    3.16
  -3  -7   8  298.88   25.93
   3  -7   8  292.29   24.57
   3   7   8  260.25   21.97
  -3  -7  -8  305.47   25.30
   3  -7  -8  292.43   24.41
   3   7   8  231.88   12.89
  -3   7   8  260.29   24.07
  -3  -7   8  253.19   19.39
   3  -7   8  263.83   22.57
  -3  -7   8  258.14   19.86
  -3  -7   9  527.56   34.85
   3  -7   9  550.66   33.72
  -3   7   9  566.62   35.31
  -3  -7  -9  594.47   35.84
   3  -7  -9  589.50   35.38
   3   7   9  530.25   22.13
  -3  -7   9  551.09   29.37
  -3  -7   9  493.21   28.58
   3   7   9  497.14   31.22
   3  -7   9  572.00   35.06
  -3  -7  10   60.61   12.01
   3  -7  10   68.97   11.83
  -3  -7  10   60.23   10.15
  -3   7  10   76.58   13.90
   3   7  10   59.65    8.15
   3  -7 -10   56.47   10.96
  -3  -7 -10   56.01   10.70
  -3  -7  10   53.77    9.89
  -3   7  10   55.20   11.13
   3   7  10   68.47   11.60
   3  -7  10   61.90   11.59
  -3  -7  11    3.93    5.10
  -3  -7  11    5.50    5.62
   3  -7  11   -0.80    2.53
  -3   7  11   -0.11    2.58
   3  -7  11    1.14    2.14
   3  -7 -11    0.65    5.19
  -3  -7 -11    0.04    5.18
   3   7  11    5.03    2.99
  -3   7  11    6.93    5.45
  -3  -7  11    2.54    4.08
   3   7  11    6.12    4.07
   3  -7  12   72.10   13.17
  -3  -7  12   79.24   13.29
  -3  -7 -12   91.11   15.05
   3  -7 -12   79.70   13.67
  -3  -7  12  100.81   13.64
  -3   7  12  108.77   16.15
   3   7  12   79.83   10.73
  -3  -7  12   92.71   13.97
  -3   7  12   75.84   13.71
   3   7  12   87.96   14.04
   3  -7  12   98.90   15.04
   3  -7  13  757.93   41.73
  -3  -7  13  711.68   42.62
  -3   7  13  781.16   43.58
  -3  -7 -13  752.38   42.75
  -3  -7  13  708.68   38.56
   3   7  13  659.37   32.60
  -3  -7  13  752.12   41.24
  -3   7  13  754.39   43.40
   3  -7  13  719.99   41.31
   3   7  13  663.16   39.52
   3   7  14   21.46    8.13
   3  -7  14   16.55    6.71
  -3  -7  14   27.64    9.01
   3  -7  14   13.35    4.85
  -3  -7 -14   18.05    6.89
  -3   7  14   18.66    4.52
   3   7  14   17.37    5.89
   3  -7 -14   20.57    7.91
  -3  -7  14    6.80    3.75
  -3   7  14   12.37    7.60
  -3  -7  14   17.46    6.11
   3   7  15    6.59    2.51
   3  -7  15   -0.76    4.32
  -3  -7  15   11.02    6.72
   3  -7  15    5.96    1.74
  -3  -7 -15    6.60    4.06
   3  -7 -15    3.80    4.51
  -3   7  15   11.24    4.36
   3   7  15    7.54    4.92
  -3  -7  15   17.46    7.77
  -3  -7  15    3.21    2.17
  -3   7  15    7.78    6.47
   3   7  16   20.73    7.78
   3  -7  16   29.97    9.11
   3  -7  16   25.02    8.26
   3  -7 -16   23.98    9.26
  -3  -7 -16   31.98   10.08
  -3   7  16   28.67    7.88
  -3  -7  16   26.68    8.17
  -3  -7  16   16.13    6.16
   3   7  16   27.71    7.67
  -3  -7  16   38.27   11.68
  -3   7  16   31.98   10.92
   3   7  17  291.09   25.38
  -3  -7  17  299.46   27.60
  -3  -7 -17  270.80   28.27
   3  -7 -17  313.91   30.29
   3  -7  17  367.60   31.39
  -3   7  17  314.40   29.00
  -3  -7  17  335.61   30.70
  -3   7  17  321.85   29.80
   3   7  17  279.35   27.23
   3  -7  17  327.36   29.27
  -3  -7  17  286.89   29.09
   3  -7  18    8.30    8.18
  -3  -7  18    8.20    5.46
   3   7  18    6.53    6.18
  -3  -7 -18    6.69    6.72
  -3   7  18    7.12    4.41
  -3  -7  18    7.94    4.64
   3  -7 -18    2.82    5.33
   3   7  18   13.86    7.92
  -3  -7  18    2.62    3.95
  -3   7  18    2.71    3.84
   3  -7  18   -1.14    1.68
  -3  -7  19  179.37   23.02
  -3  -7  19  169.42   22.60
  -3  -7 -19  182.69   23.05
   3  -7  19  242.66   26.42
  -3   7  19  195.24   23.39
   3  -7 -19  250.50   27.83
  -3   7  19  229.94   25.86
   3   7  19  226.06   24.95
   3  -7  19  175.99   23.84
  -3  -7  19  210.66   25.99
   3   7  20   32.66   10.24
   3  -7 -20   31.39   10.73
  -3  -7 -20   31.85   10.72
  -3   7  20   23.26    8.61
  -3  -7  20   23.83   10.28
  -3   7  20   44.29   11.03
   3  -7  20   36.90   10.64
   3  -7  20   39.88   11.75
   3   7  21   33.27   10.60
  -3  -7 -21   46.02   15.78
  -3   7  21   43.33   11.04
   3  -7 -21   58.03   13.10
  -3  -7  21   58.73   13.89
   3  -7  21   54.64   13.32
  -3   7  21   63.36   13.43
   3  -7  21   41.73   11.40
   3   7  22   25.88    7.38
  -3   7  22   48.12   12.46
   3  -7 -22   13.42    7.99
  -3  -7  22   31.73   12.21
   3  -7  22   28.57   11.09
  -3  -7 -22   23.61   10.22
  -3   7  22   14.68    7.00
   3  -7  22   21.40    8.82
  -3  -7  23  225.48   28.34
   3  -7  23  220.10   27.85
   3  -7 -23  213.59   26.48
  -3   7  23  213.89   27.28
   3  -7  23  159.69   25.36
  -3   7  23  189.77   24.09
   3   7  23  222.10   27.42
   3   7  24    2.62    2.45
   3  -7 -24    9.90    7.27
  -3  -7 -24   -2.08    4.13
  -3   7  24   10.62    8.67
   3  -7  24    2.25    6.27
  -3  -7  24    2.64    5.60
  -3   7  24    4.56    5.63
   3  -7  24   -2.94    3.62
   3   7  25   43.07   12.49
  -3   7  25   21.58    8.56
   3  -7 -25   24.53   12.11
   3  -7  25   23.99    8.84
  -3  -7 -25   16.32    9.30
  -3  -7  25   29.65   11.00
  -3   7  25   19.55    6.78
   3  -7  25   26.67    8.92
   3   7  26   -2.58    4.06
  -3  -7 -26   -5.50    6.72
  -3   7  26   -3.65    5.91
   3  -7 -26   17.74   12.58
  -3  -7  26   -2.22    4.89
   3  -7  26   -2.33    3.70
  -3   7  26    2.11    4.25
   3  -7  26    3.33    5.44
   3  -7  27  198.01   26.81
  -3   7  27  178.41   26.02
   3  -7 -27  196.14   27.30
  -3  -7  27  147.94   23.66
  -3   7  27  153.44   23.65
   3  -7  27  181.10   25.75
   3   7  27  200.47   26.50
   3   7  28    6.62    4.47
  -3  -7 -28    2.75    6.08
   3  -7  28   17.06    7.74
  -3   7  28   -6.03    5.09
  -3  -7  28    9.81    8.71
   3  -7 -28    1.28    3.75
   3  -7  28    2.74    4.43
  -3   7  28   -0.11    1.99
   3  -8   0   -2.71    2.53
  -3  -8   0   -0.42    3.56
  -3  -8   0    0.14    2.42
   3  -8   0   -4.59    3.69
   3  -8  -1   11.46    3.75
  -3  -8   1   11.32    4.51
  -3  -8  -1   14.12    6.27
   3  -8   1   11.24    4.54
   3  -8  -1   21.43    7.11
   3  -8   1    9.17    4.70
  -3  -8  -1   13.93    5.30
  -3  -8   1   16.33    5.45
   3  -8  -2    2.82    3.86
  -3  -8   2   -5.58    4.72
  -3   8   2   -2.05    1.91
   3  -8   2    0.50    3.34
   3  -8   2    2.98    3.35
  -3  -8  -2    7.41    5.78
  -3  -8  -2    1.75    2.70
   3  -8  -2   -3.83    4.00
  -3  -8   2    0.11    0.95
  -3  -8   3  124.88   18.11
   3  -8   3  106.61   14.96
  -3  -8  -3  124.70   17.16
   3  -8  -3  117.51   15.70
   3  -8  -3  108.79   15.34
  -3  -8  -3  111.60   13.95
  -3   8   3  115.66   16.73
   3  -8   3  115.50   15.48
   3  -8  -4   31.84    6.76
   3  -8  -4   56.15   11.33
  -3  -8   4   35.41    6.78
   3  -8   4   70.35   12.12
  -3  -8  -4   55.72   11.87
  -3  -8   4   53.04   11.25
   3  -8   4   41.18    8.38
  -3   8   4   57.84   11.05
  -3  -8   5   40.87    8.00
   3  -8   5   28.65    9.24
  -3  -8   5   47.72   11.17
  -3  -8  -5   60.78   11.62
   3  -8   5   35.00    7.87
   3  -8  -5   59.80   12.30
  -3   8   5   37.33    9.62
   3  -8  -5   47.84   10.25
  -3  -8   6   57.12    9.77
   3  -8  -6   34.60    8.09
   3  -8   6   54.88   11.01
   3  -8   6   46.82   10.49
  -3  -8  -6   60.05   12.34
  -3  -8   6   78.82   14.68
   3  -8  -6   47.02   11.24
  -3   8   6   52.86   10.52
   3   8   6   47.64    9.67
  -3  -8   7   22.86    7.00
   3  -8   7   15.84    5.32
  -3  -8   7    4.73    3.48
  -3  -8  -7   11.93    4.91
   3  -8  -7   16.22    5.98
  -3   8   7    7.82    3.90
   3   8   7    9.35    4.49
   3  -8  -7    9.00    3.02
   3  -8   7   12.07    5.57
  -3  -8   8   96.82   15.14
   3  -8   8  100.87   14.52
   3  -8   8  111.02   15.66
  -3  -8  -8   98.57   14.82
  -3   8   8  106.63   16.31
   3   8   8   88.92   13.35
  -3  -8   8   75.33   11.07
   3  -8  -8   84.17   13.49
   3  -8   9  126.17   16.75
  -3  -8   9  122.74   17.09
   3  -8   9  108.20   15.52
   3   8   9  150.13   16.84
  -3  -8  -9  155.31   19.32
   3  -8  -9  150.33   18.81
  -3   8   9  135.01   19.31
  -3  -8   9  153.68   16.15
  -3  -8  10   28.18    9.83
   3  -8  10   20.59    7.01
  -3   8  10   34.23    7.48
  -3  -8  10   21.94    6.32
  -3  -8 -10   34.37    9.99
   3  -8  10   26.59    8.67
   3  -8 -10   37.52   10.57
  -3  -8  10   29.36    9.39
   3   8  10   23.73    6.58
   3  -8  11   16.31    5.93
  -3  -8  11    8.67    6.17
  -3  -8  11    4.73    3.07
   3  -8  11    2.46    2.00
  -3  -8  11    6.26    4.45
  -3  -8 -11    6.05    3.61
   3  -8 -11   12.78    5.26
  -3   8  11   13.91    5.65
   3   8  11    3.15    3.10
  -3  -8  12   24.32    8.03
  -3  -8  12   20.58    7.58
   3  -8  12   26.91    8.25
  -3  -8 -12   17.32    7.87
  -3   8  12   19.35    6.67
   3  -8  12   10.73    6.67
   3  -8 -12   18.83    6.91
  -3   8  12   13.55    6.45
  -3  -8  12   14.95    6.08
   3   8  12   16.39    5.97
  -3  -8  13    2.53    2.52
  -3  -8  13    6.87    3.48
  -3   8  13    2.41    2.24
   3  -8  13   12.77    6.33
  -3  -8 -13    6.90    3.93
   3  -8  13    3.91    3.87
   3  -8 -13   13.14    6.93
  -3   8  13    5.48    1.49
  -3  -8  13    2.15    4.33
   3   8  13    6.10    1.35
   3  -8  14    5.31    4.66
  -3  -8  14    0.95    2.83
   3  -8  14    0.42    2.51
  -3   8  14   -1.47    3.08
  -3  -8 -14    0.02    2.92
   3  -8 -14   -4.22    4.18
  -3   8  14    4.77    2.56
  -3  -8  14   -0.98    2.01
  -3  -8  14   -2.34    2.37
   3   8  14    1.42    4.92
  -3  -8  15   50.67   11.83
   3  -8  15   58.16   12.70
  -3  -8 -15   68.01   14.58
  -3  -8  15   73.49   13.65
   3  -8  15   73.43   14.05
   3  -8 -15   57.74   13.71
  -3   8  15   69.58   13.99
  -3   8  15   65.53   13.36
  -3  -8  15   53.42   11.70
   3   8  15   42.13   10.15
   3  -8  16    3.00    3.46
  -3  -8  16   -4.01    5.60
   3  -8  16    2.32    4.75
   3  -8 -16    2.88    4.59
  -3   8  16    2.94    4.09
  -3  -8 -16    7.49    5.71
  -3  -8  16    1.11    3.06
  -3   8  16    0.69    6.93
   3   8  16    7.85    7.06
   3  -8  17   34.63    9.36
  -3  -8  17   72.71   13.89
  -3  -8 -17   58.74   12.78
   3  -8  17   62.69   14.06
  -3   8  17   56.69   13.27
   3  -8 -17   71.63   14.27
   3   8  17   68.32   14.87
  -3  -8  17   60.68   13.29
  -3   8  17   54.47   12.40
   3   8  18    3.20    3.89
   3  -8  18    5.67    2.32
  -3  -8  18    4.44    4.96
   3  -8  18   11.34    6.12
   3  -8 -18    9.06    4.61
  -3   8  18    7.62    4.67
  -3  -8 -18   11.06    7.60
  -3  -8  18   -1.17    3.25
  -3   8  18   22.45    9.66
   3   8  19   14.08    9.30
   3  -8  19    3.51    5.45
   3  -8  19    1.78    3.65
  -3  -8  19    6.74    6.55
  -3  -8  19   -6.24    6.03
  -3  -8 -19    9.07    6.86
  -3   8  19   10.71    6.07
   3  -8 -19    5.91    4.87
  -3   8  19    5.93    2.26
   3  -8  19   11.84    4.96
   3   8  20   17.87    9.42
  -3  -8  20   19.26    8.39
  -3  -8 -20   19.20    7.05
   3  -8 -20   21.83    8.65
  -3  -8  20   23.66    9.29
  -3   8  20   22.98    9.81
   3  -8  20   31.30    9.50
   3  -8  20   15.51    6.94
  -3   8  20    7.58    7.57
   3   8  21    3.72    5.64
  -3   8  21    0.73    3.89
   3  -8 -21    1.53    4.95
  -3  -8 -21    0.43    2.76
  -3  -8  21   -0.84    3.37
  -3   8  21   -5.39    6.19
   3  -8  21    2.73    4.60
   3  -8  21    6.76    5.93
   3  -8  22    6.93    4.17
  -3  -8 -22    7.62    5.98
   3  -8 -22   -1.72    6.14
  -3   8  22   11.26    8.12
  -3  -8  22    6.28    2.38
   3   8  22   -2.02    4.92
  -3   8  22    8.86    5.47
   3  -8  22    8.09    4.81
   3   8  23    1.30    5.12
   3  -8 -23   -1.58    2.51
  -3  -8 -23   -2.96    4.84
  -3  -8  23   -3.77    5.31
   3  -8  23   -2.19    3.63
  -3   8  23   -0.10    3.15
   3  -8  23    6.85    6.41
  -3   8  23   -0.84    4.34
   3   8  24   21.32   10.15
   3  -8 -24   10.30    6.04
  -3   8  24   16.17    8.30
  -3  -8  24   21.30   11.09
   3  -8  24    4.40    2.27
  -3  -8 -24   14.68    8.38
  -3   8  24   13.44    6.83
   3  -8  24   11.23    7.25
   3   8  25    2.37    4.74
  -3  -8 -25    3.63    3.26
   3  -8 -25    3.45    6.24
  -3   8  25    2.16    2.62
   3  -8  25    0.58    1.66
  -3  -8  25    0.62    5.62
  -3   8  25    5.02    4.63
   3  -8  25   -4.00    5.71
   3  -8 -26    4.53    6.05
   3   8  26    7.63    3.84
   3  -8  26   12.72    7.56
  -3  -8 -26   -6.81    6.29
  -3   8  26   -6.88    8.96
  -3  -8  26   -3.86    5.97
  -3   8  26    4.91    4.69
   3  -8  26    4.43    8.27
   3  -8 -27    6.16   10.56
  -3   8  27   -1.02    4.32
   3  -8  27   -1.97    5.17
  -3  -8  27    3.48    5.70
   3   8  27   -3.53    6.46
  -3   8  27   -0.28    2.51
   3  -8  27    3.61    3.71
  -3  -8 -27    4.45    6.75
   3  -9   0    0.35    4.62
  -3  -9   0    3.26    3.17
  -3  -9   0   -2.43    3.99
   3  -9   0    1.79    2.75
  -3  -9  -1  645.14   40.22
   3  -9   1  621.81   38.46
   3  -9  -1  623.31   38.69
  -3  -9   1  599.35   33.18
   3  -9   1  628.07   38.46
   3  -9  -1  590.23   36.87
  -3  -9  -1  655.89   35.46
  -3  -9   1  664.59   40.77
  -3  -9  -2   53.91    9.95
  -3  -9  -2   63.35   12.76
  -3  -9   2   57.54   11.78
   3  -9   2   61.00   12.00
   3  -9  -2   55.82   11.07
  -3  -9   2   50.67   10.19
   3  -9   2   56.79   11.90
   3  -9  -2   63.63   12.18
   3  -9   3    4.86    3.36
  -3  -9   3    2.48    3.72
   3  -9   3   -2.93    5.72
  -3  -9   3   -0.39    3.11
  -3  -9  -3    1.92    3.84
   3  -9  -3    8.04    4.18
  -3  -9  -3    0.62    2.72
   3  -9  -3    5.52    5.55
  -3   9   3   -4.53    6.99
  -3  -9   4  175.45   21.09
   3  -9   4  202.06   22.73
  -3  -9  -4  199.73   22.40
   3  -9  -4  141.30   17.94
  -3  -9   4  182.53   18.19
  -3  -9  -4  144.40   16.58
   3  -9   4  188.41   20.78
  -3   9   4  173.14   20.50
   3  -9  -4  170.69   20.20
  -3  -9   5  901.13   49.12
   3  -9  -5  835.56   44.21
   3  -9   5  970.51   49.20
  -3  -9   5  976.31   42.29
  -3  -9  -5  892.95   47.87
   3  -9  -5  896.79   45.98
   3  -9   5  872.49   45.21
  -3  -9  -5  959.88   43.99
  -3   9   5  936.13   48.00
  -3  -9   6  197.07   22.73
  -3  -9   6  201.55   19.32
   3  -9   6  159.37   20.71
   3  -9  -6  209.30   22.62
  -3  -9  -6  189.07   22.35
   3  -9   6  172.48   20.38
   3  -9  -6  200.73   22.19
  -3   9   6  218.59   23.87
  -3  -9   7  141.33   19.26
   3  -9   7  121.22   17.20
   3  -9   7  167.04   20.32
  -3  -9  -7  188.12   21.53
   3  -9  -7  176.50   21.51
   3  -9  -7  154.48   19.22
  -3   9   7  136.32   18.70
  -3  -9   7  139.10   16.04
  -3  -9   8  118.72   17.29
   3  -9   8  137.37   18.33
   3  -9   8  131.50   18.28
  -3  -9  -8  123.71   18.38
   3  -9  -8  106.55   16.58
   3  -9  -8  153.06   19.08
   3   9   8  127.10   16.99
  -3  -9   8  102.75   14.38
  -3   9   8  138.18   18.09
   3  -9   9  355.89   29.05
  -3  -9  -9  337.15   29.04
   3  -9  -9  338.25   28.08
   3  -9  -9  386.93   31.31
  -3   9   9  339.35   29.42
   3   9   9  382.78   30.22
  -3  -9   9  310.29   25.18
  -3  -9   9  350.77   31.23
   3  -9   9  374.58   30.17
  -3  -9  10  149.18   20.76
   3  -9  10  149.91   20.26
  -3  -9 -10  195.10   22.90
   3  -9 -10  171.66   21.35
  -3  -9  10   94.26   14.61
   3   9  10  169.90   20.16
  -3   9  10  160.78   20.33
   3  -9 -10  105.43   16.96
   3  -9  10  162.43   20.59
  -3  -9  11   75.04   15.06
   3  -9  11   57.51   11.66
   3  -9 -11   66.48   13.25
   3  -9  11   54.68   11.39
  -3   9  11   54.10   11.48
  -3  -9  11   56.46   12.28
   3   9  11   52.47   11.92
  -3  -9 -11   60.39   12.20
  -3  -9  12   10.03    6.69
  -3  -9  12   -4.29    2.35
   3  -9  12    9.05    6.76
  -3  -9 -12   13.31    7.77
   3  -9  12   12.67    7.47
  -3   9  12    5.71    3.48
   3  -9 -12   10.21    6.08
   3   9  12    9.76    6.69
  -3  -9  13   83.27   14.94
   3  -9  13  120.15   18.08
  -3   9  13  130.80   19.19
  -3  -9 -13  105.59   17.38
   3  -9 -13  125.25   18.93
   3   9  13  138.41   18.69
   3  -9  13  122.97   18.15
   3  -9  14   68.67   14.01
  -3  -9  14   53.90   12.50
   3  -9 -14   52.63   12.36
   3  -9  14   62.39   12.62
  -3   9  14   60.54   13.35
  -3  -9 -14   58.69   13.50
  -3   9  14   92.65   16.09
   3   9  14   73.16   13.96
   3  -9  15   10.57    7.51
  -3  -9  15   11.23    7.92
   3  -9  15    4.71    2.94
  -3   9  15   16.49    6.50
  -3  -9 -15    9.92    6.24
   3  -9 -15    3.31    2.83
  -3   9  15   -2.95    4.69
   3   9  15    6.19    6.10
  -3  -9 -16  232.62   26.02
   3  -9 -16  230.43   25.66
  -3   9  16  182.26   23.54
   3  -9  16  224.68   25.07
  -3   9  16  279.05   27.96
   3   9  16  240.96   26.43
   3  -9  16  223.18   25.79
  -3  -9  16  191.07   24.34
  -3  -9 -17  183.69   24.34
   3  -9 -17  180.69   22.98
  -3   9  17  180.05   23.64
   3  -9  17  195.85   24.21
  -3   9  17  168.34   21.78
   3   9  17  182.03   23.07
   3  -9  17  162.40   22.28
  -3  -9  17  164.71   22.76
   3  -9  18    3.57    3.44
  -3  -9  18    6.06    6.05
   3  -9  18   -4.62    4.17
   3  -9 -18    2.32    2.06
  -3  -9 -18    6.09    4.97
  -3   9  18   -1.24    2.54
  -3   9  18    0.26    3.48
   3   9  18    0.64    1.77
  -3   9  19   86.07   16.84
  -3  -9 -19  122.85   20.35
   3  -9 -19  128.09   21.56
   3  -9  19  119.38   19.65
  -3   9  19  107.58   19.35
   3   9  19  144.27   21.10
   3  -9  19  146.16   20.83
   3  -9  19  117.22   19.08
  -3  -9  19  128.00   20.15
   3  -9  20   67.58   15.08
   3  -9  20   60.15   14.22
  -3  -9  20   70.28   14.80
  -3  -9 -20   82.14   16.68
   3  -9 -20   98.19   18.06
  -3   9  20   85.78   17.42
   3   9  20   93.04   17.45
  -3   9  20   61.73   14.91
   3  -9  20   64.23   14.70
  -3  -9  21   46.43   12.97
  -3  -9 -21   34.78   12.16
  -3   9  21   42.30   13.75
   3  -9 -21   45.58   13.13
  -3   9  21   31.80    9.86
   3  -9  21   59.31   13.09
   3   9  21   51.79   13.86
   3  -9  21   68.26   16.05
  -3  -9 -22    3.53    4.29
   3  -9 -22   -1.04    1.97
  -3   9  22   -1.03    2.44
  -3   9  22    4.61    7.33
   3   9  22   -4.74    3.88
   3  -9  22   -2.03    3.18
   3  -9  22    9.47    6.67
  -3  -9  22    2.30    5.33
  -3   9  23  149.27   22.70
   3  -9  23  161.92   23.70
  -3   9  23  158.08   23.27
   3   9  23  149.15   23.12
   3  -9  23  166.97   24.89
   3  -9 -24   32.76   11.23
  -3   9  24   34.12   11.15
  -3  -9 -24   32.39   10.44
   3  -9  24   37.83   13.05
  -3   9  24   17.75    9.36
   3  -9  24   23.43    9.54
   3   9  24    0.47    2.31
  -3  -9 -25    7.95    6.11
   3  -9 -25   15.16    7.94
  -3   9  25    3.46    5.05
   3  -9  25   13.50    6.85
  -3   9  25   32.73   10.84
   3  -9  25   29.20   10.06
   3   9  25   14.01    6.93
  -3  -9 -26   14.02    6.64
  -3   9  26    9.87    4.56
   3  -9  26   21.36    9.67
  -3   9  26    6.92    6.65
   3  -9  26   18.01    9.62
   3   9  26   17.48    9.05
  -3 -10   0   -1.50    2.09
  -3 -10   0    0.98    4.19
   3 -10   0   -0.30    4.35
   3 -10   0    5.55    4.67
   3 -10  -1    8.09    5.49
   3 -10   1    1.57    4.26
  -3 -10  -1    1.46    2.26
  -3 -10   1    1.56    3.56
  -3 -10  -1    9.70    5.13
   3 -10   1    2.01    3.70
   3 -10  -1   10.13    6.35
  -3 -10   1    4.24    2.16
   3 -10  -2    1.71    5.27
  -3 -10   2    2.67    5.41
   3 -10   2   -0.18    3.55
  -3 -10  -2    5.80    5.38
   3 -10  -2    3.28    4.79
  -3 -10   2    0.16    4.10
   3 -10   2    2.68    4.88
  -3 -10  -2    2.12    2.06
  -3 -10   3    8.34    5.36
   3 -10   3   20.11    8.66
  -3 -10   3   17.52    7.25
  -3 -10  -3   21.69    5.22
   3 -10  -3   27.55    8.96
   3 -10  -3    7.97    4.28
   3 -10   3    9.65    6.39
  -3 -10  -3   11.24    4.49
  -3 -10   4    8.55    3.68
  -3 -10   4   11.65    3.75
   3 -10  -4    1.37    3.78
   3 -10   4    2.32    6.32
   3 -10   4    8.36    2.89
  -3  10   4   14.00    7.37
  -3 -10  -4    4.04    4.51
   3 -10  -4   10.67    6.71
  -3 -10  -4    4.50    3.78
  -3 -10  -5   -5.78    4.19
   3 -10   5    1.37    3.85
  -3 -10   5    7.93    7.01
   3 -10   5    5.97    5.03
  -3  10   5    0.48    2.72
  -3 -10  -5    1.87    5.67
   3 -10  -5    0.48    4.00
   3 -10  -5    4.99    5.27
  -3 -10   5   -4.48    3.99
   3 -10   6    3.94    3.00
  -3 -10  -6    9.20    5.17
   3 -10  -6   -0.12    3.45
  -3 -10   6    3.57    3.78
   3 -10   6   -0.85    4.69
  -3 -10  -6    5.78    4.35
   3 -10  -6   12.66    6.07
  -3  10   6    1.08    2.77
  -3 -10   6    4.78    3.77
  -3 -10   7   75.51   15.52
   3 -10   7   44.57   10.53
  -3 -10  -7   51.93   13.00
   3 -10  -7   31.82    9.68
   3 -10  -7   45.60   11.43
  -3  10   7   50.88   12.59
   3 -10   7   51.66   11.45
  -3 -10   7   57.80   12.34
  -3 -10   8  123.78   19.23
   3 -10   8  136.42   19.40
   3 -10   8  144.93   19.86
   3 -10  -8  137.80   18.64
  -3 -10  -8  138.43   19.86
  -3  10   8  159.57   20.29
   3 -10  -8  126.21   19.24
   3 -10  -9   57.09   13.38
   3 -10   9   59.85   12.42
  -3 -10   9   54.23   13.17
   3 -10   9   62.01   13.45
   3 -10  -9   64.59   13.86
  -3 -10  -9   56.39   13.65
  -3  10   9   58.50   13.80
  -3 -10  10   57.89   13.51
   3 -10  10   44.56   10.36
   3 -10 -10   62.22   14.66
  -3  10  10   31.59    9.91
  -3 -10 -10   42.41   11.05
   3 -10  10   45.90   11.53
   3  10  10   52.64   11.92
   3 -10 -10   42.75   11.29
   3 -10 -11    0.56    3.80
  -3 -10  11    1.64    1.86
   3 -10  11   -2.03    2.08
   3 -10 -11    2.35    3.96
   3 -10  11    2.61    4.05
  -3  10  11    1.87    3.38
   3  10  11   -1.88    5.11
  -3 -10 -11    4.07    3.92
   3 -10 -12   -4.64    5.53
  -3 -10  12    4.83    3.38
   3 -10  12   -3.63    3.21
   3 -10  12   -1.34    1.68
  -3  10  12   -0.20    3.07
  -3 -10 -12   -4.61    4.89
   3  10  12   -1.36    3.23
   3 -10  13   18.17    6.92
  -3 -10  13    5.75    5.56
  -3 -10 -13    3.70    4.48
   3 -10  13   11.64    6.87
   3 -10 -13    7.46    5.37
   3  10  13    8.20    5.15
  -3  10  13   -0.80    3.25
  -3 -10  14   13.74    4.98
   3 -10  14   26.60    8.97
   3 -10  14   31.63   10.58
   3 -10 -14   11.68    6.50
  -3  10  14   21.37    8.17
  -3 -10 -14   15.58    8.00
   3  10  14   22.17    8.74
   3 -10  15   -3.64    3.84
  -3 -10  15    4.76    2.65
   3 -10  15   -1.39    4.15
   3 -10 -15    5.84    7.20
  -3  10  15    7.18    6.20
   3  10  15    2.14    5.36
  -3 -10 -15    6.44    6.02
   3 -10  16   33.97   10.89
   3 -10 -16   32.25   10.94
   3 -10  16   18.60    7.79
  -3 -10 -16   27.14   10.64
  -3  10  16   58.38   14.19
  -3 -10  16   19.30    8.91
   3  10  16   23.27    7.95
   3 -10  17   15.40    7.54
  -3 -10  17   26.18    7.09
   3 -10  17   23.18    9.03
  -3 -10 -17   22.67    7.87
   3 -10 -17   26.16    8.91
  -3  10  17   25.89    6.51
  -3  10  17   18.99    8.83
   3  10  17   13.71    6.68
   3 -10  18   27.82    8.00
  -3 -10  18   32.85   11.78
   3 -10  18   39.38   12.44
   3 -10 -18   40.70   12.67
  -3  10  18   28.92   11.41
  -3  10  18   47.02   11.25
  -3 -10 -18   43.79   12.61
   3  10  18   28.00    8.23
  -3 -10  19   -3.49    2.94
   3 -10  19   16.98    8.26
  -3  10  19   21.20   10.04
   3 -10 -19   19.33    9.56
   3 -10  19   -1.21    3.96
  -3  10  19   14.77    7.35
   3  10  19   14.57    8.86
  -3 -10 -19   16.78    7.95
   3 -10  19    9.38    7.45
   3 -10  20    8.45    4.09
  -3 -10  20   23.79   10.88
   3 -10  20   18.93   10.16
  -3  10  20    4.35    4.11
  -3 -10 -20    6.16    4.83
   3 -10 -20   16.69    8.11
  -3  10  20   15.58    9.81
   3  10  20   30.13   10.86
   3 -10  20   33.60   10.99
   3 -10  21    0.51    1.68
   3 -10  21    8.58    5.92
   3 -10 -21    0.05    2.41
  -3 -10 -21    0.11    3.64
  -3 -10  21    6.00    5.58
  -3  10  21   12.35    7.51
   3 -10  21    3.93    2.40
   3  10  21    8.08    2.94
  -3  10  21    7.25    6.46
  -3 -10  22   23.27    7.88
  -3  10  22    8.59    3.26
   3 -10 -22   28.89    8.77
  -3 -10 -22   17.46    6.78
  -3  10  22   11.92    7.17
   3  10  22   33.39   11.07
   3 -10  22   40.59   14.04
   3 -10  22   33.38   11.13
   3 -10 -23    6.25    6.76
  -3  10  23   -7.07    6.71
  -3 -10 -23   16.35    8.98
  -3  10  23    2.17    2.73
   3 -10  23    6.83    6.65
   3  10  23    4.38    4.03
   3 -10  23   -0.21    5.21
  -3  10  24   -0.37    3.91
  -3 -10 -24   -5.70    4.99
   3 -10 -24   -3.83    7.06
  -3  10  24    4.39    4.93
   3 -10  24    0.40    2.95
   3  10  24    6.99    8.33
   3 -10  24    4.62    6.30
   3 -10  25   18.22    9.11
  -3  10  25   19.63    9.67
   3 -10 -25   36.37   10.72
  -3 -10 -25   40.25   13.65
  -3  10  25   18.95    9.36
   3 -10  25   26.14    8.54
   3  10  25    1.20    4.18
  -3 -11   0    2.68    4.48
   3 -11   0   11.09    5.62
   3 -11   0    5.05    2.64
  -3 -11   0    0.50    2.45
  -3 -11  -1   24.46    7.53
  -3 -11   1   41.23   10.64
  -3 -11  -1   15.42    6.34
   3 -11   1   35.22    9.73
   3 -11  -1   43.64   10.73
  -3 -11   1   38.27    9.17
   3 -11   1   34.72   10.11
   3 -11  -1   41.89    9.37
  -3 -11   2  154.27   22.03
   3 -11   2  149.31   20.30
  -3 -11  -2  191.64   24.41
   3 -11  -2  168.91   22.35
  -3 -11   2  150.56   18.59
   3 -11   2  196.37   23.11
   3 -11  -2  168.18   21.57
  -3 -11  -2  150.49   19.87
  -3 -11  -3   14.24    4.53
  -3 -11   3   18.45    8.07
   3 -11  -3   12.71    7.92
   3 -11   3   19.51    8.73
  -3 -11  -3   37.88   11.07
  -3 -11   3   44.87   11.18
   3 -11  -3   24.14    8.53
   3 -11   3   12.76    5.13
  -3 -11   4   45.72   13.41
   3 -11   4   44.37   11.21
   3 -11   4   38.17    9.93
  -3 -11  -4   38.61   12.16
   3 -11  -4   46.62   12.99
   3 -11  -4   39.79    9.85
  -3 -11  -4   43.94   11.45
   3 -11   5   53.87   12.90
  -3 -11   5   40.90   11.05
   3 -11   5   29.51   10.61
  -3 -11  -5   28.93    8.80
  -3 -11  -5   36.18   10.78
   3 -11  -5   59.63   13.37
   3 -11  -5   32.50    9.53
   3 -11   6   95.78   16.25
  -3 -11  -6   82.73   15.76
  -3 -11   6   71.34   13.30
  -3 -11  -6   77.88   13.57
   3 -11   6   63.40   13.66
   3 -11  -6   68.81   14.55
  -3  11   6   49.91   11.77
   3 -11  -6   82.72   15.67
   3 -11  -7   -0.50    4.44
  -3 -11   7    1.05    4.28
   3 -11   7   -1.35    3.94
  -3 -11  -7    9.63    6.71
  -3 -11  -7    6.33    1.85
   3 -11  -7   -2.71    6.45
  -3  11   7    3.23    3.97
   3 -11   7   11.08    8.04
  -3 -11   8   -0.55    3.69
   3 -11   8   11.03    8.16
   3 -11  -8    8.35    7.59
  -3 -11  -8   -0.21    2.77
  -3 -11  -8    3.88    4.42
  -3  11   8    0.66    2.90
   3 -11  -8    3.27    2.94
   3 -11   8    8.60    5.70
  -3 -11   9   -3.71    4.93
   3 -11   9   12.27    8.31
  -3 -11  -9   11.59    4.98
  -3  11   9    2.14    5.33
   3 -11  -9    9.36    8.33
   3 -11   9    4.02    4.02
   3 -11  -9    4.80    1.93
   3 -11 -10   16.48    5.60
  -3 -11  10    2.16    4.57
   3 -11  10   13.68    7.86
  -3 -11 -10   10.49    5.68
   3 -11 -10    2.72    3.25
  -3  11  10   11.58    7.24
   3 -11  10   26.57    9.38
  -3 -11  11    1.22    2.26
   3 -11  11    4.32    5.76
  -3 -11 -11   -2.90    2.93
   3 -11 -11    1.04    4.21
  -3  11  11    6.52    6.18
   3 -11  11    0.78    4.50
   3 -11 -11    6.44    4.51
  -3 -11  12  249.17   27.61
  -3 -11 -12  250.40   28.21
   3 -11 -12  275.50   29.60
   3 -11 -12  201.78   24.57
  -3  11  12  259.86   28.43
   3  11  12  297.58   29.46
   3 -11  12  295.15   29.65
   3 -11  12  269.66   28.63
  -3 -11  13   11.12    7.54
   3 -11  13   21.79    8.00
   3 -11  13   18.43    7.35
  -3  11  13   15.20    7.58
  -3 -11 -13   12.32    6.77
   3 -11 -13   11.13    5.42
   3  11  13    7.79    6.25
   3 -11 -13   12.56    5.33
  -3 -11  14   35.16   11.16
   3 -11  14   25.54    9.75
   3 -11 -14   37.82   10.18
   3 -11  14   24.88    9.18
  -3 -11 -14   35.12   11.53
   3 -11 -14   41.07   11.77
  -3  11  14   36.37   11.11
   3  11  14   22.43    8.36
   3 -11  15   36.42   11.13
   3 -11  15   21.69    9.33
  -3 -11 -15   21.44    8.40
  -3 -11  15   19.93    8.26
  -3  11  15   22.44   10.05
   3 -11 -15    9.40    4.76
   3  11  15   22.57    8.57
   3 -11 -16   16.84    6.35
   3 -11  16   16.70    7.74
  -3 -11  16   16.69    9.18
   3 -11  16   25.11    8.86
  -3 -11 -16    5.85    2.32
  -3  11  16    8.35    3.03
   3  11  16   15.96    7.35
   3 -11  17    3.96    5.30
  -3 -11  17   -0.47    4.07
   3 -11  17    3.06    6.57
  -3 -11 -17    9.21    7.24
   3 -11 -17    8.24    5.37
   3  11  17    1.31    3.26
  -3  11  17   -1.83    2.41
   3 -11  18   -3.29    2.58
  -3 -11  18    3.82    4.98
   3 -11  18    3.50    2.33
  -3  11  18   -4.53   10.07
   3 -11 -18   -5.89    6.77
  -3 -11 -18   -0.65    6.50
   3  11  18    6.67    6.99
   3 -11  19   16.57    8.90
  -3 -11  19   20.60    8.80
   3 -11  19   13.16    6.93
  -3 -11 -19   39.04   11.89
   3 -11 -19   17.36    7.83
  -3  11  19   28.68   10.31
   3  11  19   30.47   11.01
   3 -11  19   25.08    9.61
  -3 -11  20   76.88   16.02
   3 -11  20   81.29   15.86
  -3 -11 -20   90.21   17.59
   3 -11 -20   80.29   16.14
  -3  11  20   91.51   17.83
   3 -11  20  110.16   20.37
   3  11  20   76.05   16.20
   3 -11  20  108.76   20.21
   3 -11  21    0.31    2.93
   3 -11  21    5.95    2.21
  -3 -11  21    3.32    5.28
   3 -11 -21    5.08    3.22
  -3  11  21    2.90    5.08
  -3  11  21   15.33    6.87
   3  11  21   12.42    8.86
   3 -11  21    1.07    4.56
  -3 -11 -21    9.24    4.62
  -3  11  22   74.40   18.24
  -3 -11 -22  110.02   20.77
   3  11  22  105.38   19.49
   3 -11  22  103.85   18.72
   3 -11 -22   83.65   17.07
  -3  11  22   98.87   20.15
   3 -11  22  123.11   21.82
   3 -11  22  117.89   20.71
  -3 -11  22  106.03   20.01
  -3 -11 -23    3.03    5.53
   3 -11  23    1.09    3.73
   3 -11 -23    0.98    5.06
  -3  11  23   -4.48    3.97
   3  11  23    1.82    3.74
   3 -11  23   -9.75    8.75
  -3 -11  23   -1.88    5.16
  -3 -12   0    4.04    4.80
   3 -12   0    1.89    3.67
   3 -12   0    2.37    3.86
  -3 -12   1   29.93    8.87
  -3 -12  -1   13.98    7.77
   3 -12   1   26.24    8.83
   3 -12  -1   13.32    6.42
   3 -12   1   10.85    6.04
   3 -12  -1   30.43    9.62
  -3 -12  -2    4.81    1.48
  -3 -12   2   20.60   10.36
   3 -12   2   13.07    5.60
  -3 -12  -2   15.01    6.17
   3 -12  -2    0.53    4.44
   3 -12   2   15.05    6.64
   3 -12  -2   19.45    7.60
   3 -12  -3    1.06    3.30
  -3 -12   3   -6.24    8.80
   3 -12   3    3.21    3.63
   3 -12   3    0.40    5.67
  -3 -12  -3   -3.83    6.00
  -3 -12  -3    1.49    2.65
   3 -12  -3    6.21    4.29
   3 -12   4    4.72    6.02
  -3 -12   4   -0.33    3.95
   3 -12   4    0.78    2.08
   3 -12  -4   -3.58    2.13
  -3 -12  -4    2.06    5.47
   3 -12  -4    4.21    2.90
  -3 -12  -4    3.33    2.62
   3 -12   5    3.96    6.07
  -3 -12   5    5.17    6.96
   3 -12   5   -0.60    2.93
  -3 -12  -5    9.30    5.82
   3 -12  -5    5.03    2.28
   3 -12  -5    5.97    7.40
  -3 -12  -5   -1.70    1.83
   3 -12   6    7.21    6.07
  -3 -12  -6   -4.51    5.23
  -3 -12   6    6.70    6.95
   3 -12   6    2.43    4.32
  -3 -12  -6   15.87    9.39
   3 -12  -6    9.96    8.22
   3 -12  -6    2.99    4.69
  -3  12   7    9.54    2.87
  -3 -12   7   16.76    6.69
   3 -12   7   -5.25    7.71
  -3 -12  -7    0.90    6.63
   3 -12  -7    7.03    7.32
  -3 -12  -7    5.66    4.87
   3 -12  -7   14.89    7.03
   3 -12   7   11.79    7.51
   3 -12  -8    2.81    2.91
  -3 -12  -8    1.85    3.57
  -3 -12   8    4.85    6.21
   3 -12   8   -3.00    3.74
  -3 -12  -8   -1.50    1.87
   3 -12  -8    5.89    5.15
  -3  12   8    7.38   10.15
   3 -12   8   11.31    7.45
  -3  12   9   24.40    9.11
  -3 -12   9   22.18    9.62
   3 -12   9   25.73   10.39
   3 -12  -9   25.26    9.59
  -3 -12  -9   26.39    8.99
   3 -12  -9   32.48   10.69
   3 -12   9   25.20    9.72
  -3 -12  -9    6.12    7.21
  -3 -12  10    8.40    6.36
   3 -12  10   15.45    8.86
   3 -12 -10   23.24    8.18
  -3 -12 -10   13.57    7.06
   3 -12 -10   15.66    8.12
   3 -12  10   15.42    6.56
  -3 -12 -10    3.35    4.62
  -3  12  10   10.76    8.00
  -3 -12  11   -2.19    2.83
   3 -12  11    5.52    5.24
  -3 -12 -11    9.42    8.72
   3 -12 -11   -3.57    3.66
   3 -12  11    3.15    7.52
  -3  12  11    0.03    3.53
   3 -12 -11   -2.98    3.96
   3 -12 -12   31.77    9.57
  -3 -12  12   16.64    8.22
   3 -12  12   10.79    6.09
   3 -12 -12   32.57   11.40
  -3 -12 -12    7.31    2.94
   3 -12  12   14.82    7.31
  -3  12  12   15.06    8.94
  -3 -12  13    6.79    5.60
   3 -12  13   -4.75    7.32
   3 -12 -13    2.51    4.03
   3 -12  13    1.96    2.71
  -3 -12 -13   -3.54    2.07
   3 -12 -13    4.35    6.38
  -3  12  13    3.13    6.93
  -3 -12  14   11.94    6.80
   3 -12  14    9.85    6.54
   3 -12  14    5.59    2.55
  -3 -12 -14    2.51    5.05
   3 -12 -14   15.26    9.46
   3 -12 -14    5.51    4.15
  -3 -12  15    6.74    2.97
   3 -12  15   -0.56    3.35
   3 -12  15   12.74    7.77
   3 -12 -15   -0.23    3.46
   3 -12 -15   11.86    7.87
  -3 -12 -15    6.74    6.19
   3  12  15    7.62    5.48
   3 -12  16   -3.02    2.21
  -3 -12  16    5.36    5.76
   3 -12  16    1.48    2.83
   3 -12 -16   -0.56    2.10
   3 -12 -16   -7.41    6.09
  -3 -12 -16    2.13    2.64
   3  12  16   -0.77    5.88
   3 -12  17   64.81   14.48
  -3 -12  17   42.92   12.12
  -3 -12 -17   52.50   14.26
   3 -12 -17   64.38   14.70
   3 -12  17   64.26   15.01
   3 -12 -17   69.91   15.63
   3  12  17   46.50   13.39
   3 -12  18   14.63    8.92
  -3 -12  18    3.53    3.63
   3 -12 -18   15.54    8.94
   3 -12  18   -7.22    7.71
  -3 -12 -18    8.15    6.79
   3  12  18   -3.13    6.36
   3 -12  18    0.85    5.56
   3 -12  19   -1.51    4.95
  -3 -12  19   -5.20    5.33
   3 -12  19   -0.38    2.17
  -3 -12 -19    5.35    3.47
   3 -12 -19    5.92    4.10
   3  12  19   11.82    7.84
   3 -12  19    6.15    7.10
   3 -12  20    5.38    3.83
  -3 -12  20    0.03    3.84
   3 -12  20   -1.32    6.34
  -3 -12 -20    2.40    2.01
   3 -12 -20    8.61    5.24
   3  12  20   -5.75    8.87
   3 -12  20   -0.70    5.44
   3 -12  21    0.80    5.44
  -3 -12  21   -3.44    7.31
   3 -12  21    0.38    4.83
   3 -12 -21    6.29    5.54
  -3 -12 -21    7.98    7.39
   3  12  21   -7.46    4.88
   3 -12  21   -2.00    4.07
   3 -13   0    1.52    2.68
  -3 -13   0    0.46    4.82
   3 -13   0    5.09    6.28
  -3 -13   1  111.18   20.46
  -3 -13  -1  132.16   21.53
   3 -13   1  115.85   20.28
   3 -13  -1  102.72   19.04
   3 -13   1  125.73   19.38
   3 -13  -1   54.97   12.40
  -3 -13   2  121.63   20.34
   3 -13   2  113.28   19.77
  -3 -13  -2  129.95   20.67
   3 -13  -2  136.48   21.49
   3 -13   2  146.67   20.85
   3 -13  -2  121.97   19.55
  -3 -13   3    7.17    6.50
   3 -13   3    5.44    4.08
   3 -13   3   -1.86    2.26
  -3 -13  -3    5.76    5.70
   3 -13  -3   -7.53    8.63
   3 -13  -3    2.09    3.40
   3 -13  -4   45.55   11.57
   3 -13   4   62.33   13.53
  -3 -13   4   15.39    7.75
   3 -13   4   53.57   13.73
  -3 -13  -4   59.98   15.38
   3 -13  -4   40.04   11.09
  -3 -13   5   76.56   16.17
   3 -13   5   68.54   15.21
   3 -13  -5   73.87   14.93
   3 -13   5   74.34   14.89
  -3 -13  -5   61.32   16.06
   3 -13  -5   58.56   14.21
  -3 -13   6   -1.63    2.40
   3 -13   6   -3.13    1.76
  -3 -13  -6   -1.44    3.34
   3 -13  -6    0.72    4.13
   3 -13  -6    0.56    3.34
   3 -13   6    2.93    5.59
  -3 -13  -7   18.23    9.66
  -3 -13   7   15.13    8.11
   3 -13   7   27.04   11.20
  -3 -13  -7   13.76    4.62
   3 -13  -7   14.62    6.67
   3 -13  -7    6.83    4.85
   3 -13   7   14.66    6.18
  -3 -13   8   37.06   11.37
   3 -13   8   26.96   10.04
  -3 -13  -8   39.54   11.48
  -3 -13  -8   22.84    8.66
   3 -13  -8   26.74   11.86
   3 -13  -8   18.57    8.05
   3 -13   8   18.51    8.51
   3 -13   9   79.75   15.31
   3 -13  -9   53.28   12.58
  -3 -13   9   61.50   14.92
   3 -13   9   63.97   15.05
  -3 -13  -9   53.64   15.05
   3 -13  -9   65.77   14.98
  -3 -13  -9   67.20   15.54
   3 -13 -10    2.86    6.51
  -3 -13 -10   -0.28    3.80
  -3 -13  10    5.55    6.86
   3 -13  10   -4.91    3.62
   3 -13  10   -4.13    5.63
  -3 -13 -10   12.31    9.65
   3 -13 -10   -2.73    2.54
  -3 -13  11   29.41    9.78
   3 -13  11   23.67    8.64
   3 -13 -11   33.76   11.13
  -3 -13 -11   36.80   11.76
   3 -13 -11   32.43   12.55
  -3 -13 -11   35.71   10.61
   3 -13  11   33.30   12.32
  -3 -13  12    0.66    2.94
   3 -13  12   13.98    7.58
  -3 -13 -12    2.25    3.77
  -3 -13 -12   18.17    7.23
   3 -13 -12   19.98    8.17
   3 -13 -12   11.05    6.69
   3 -13  12    9.88    6.87
  -3 -13  13  138.33   22.24
   3 -13  13   98.29   18.70
   3 -13 -13  102.57   18.24
  -3 -13 -13  122.77   21.56
   3 -13 -13  124.52   20.11
   3 -13  13   94.18   17.36
  -3 -13 -13  105.90   18.63
  -3 -13  14   -9.02    7.20
   3 -13  14   -9.43    8.16
   3 -13  14    6.45    6.74
  -3 -13 -14    7.94    9.57
   3 -13 -14    4.99    2.07
   3 -13 -14   -1.10    2.81
  -3 -13  15    5.38    1.83
   3 -13  15   14.55    7.80
   3 -13 -15    7.28    5.31
   3 -13  15   12.78    9.19
  -3 -13 -15   19.83    9.59
   3 -13 -15   19.34   10.83
   3 -13  16    7.72    4.97
  -3 -13  16   12.07    7.17
   3 -13 -16    7.45    5.17
   3 -13  16   16.28    8.23
  -3 -13 -16   -0.60    6.46
   3 -13 -16   12.83    8.26
   3 -13  17    8.64    5.90
  -3 -13  17   16.06    8.73
   3 -13  17   19.14    9.07
   3 -13 -17    6.33    3.10
  -3 -13 -17   17.75    7.44
   3 -13 -17   12.28    7.05
   3 -13  18   11.83    9.23
  -3 -13  18    3.18    6.03
   3 -13  18   -2.74    5.80
   3 -13 -18    2.16    4.36
  -3 -13 -18   -5.87    5.82
   3 -13 -18    9.36    7.30
  -3 -14   0   -8.12    9.55
   3 -14   0   -1.32    2.95
   3 -14   0    4.48    3.49
  -3 -14   1    9.07    4.19
   3 -14   1   26.59   10.66
  -3 -14  -1   26.69   10.81
   3 -14  -1   15.82    6.60
   3 -14   1   20.25    7.15
   3 -14  -1   30.36   10.08
  -3 -14   2   12.90    4.84
   3 -14   2    4.95    7.06
  -3 -14  -2   -1.74    2.67
   3 -14   2    7.59    5.51
   3 -14  -2    6.78    7.60
   3 -14  -2  -11.86    9.02
   3 -14   3   -0.97    2.32
  -3 -14   3    3.09    4.63
   3 -14   3   -1.93    4.71
  -3 -14  -3    7.26    5.23
   3 -14  -3   13.58    9.43
   3 -14  -3   -7.21    6.08
   3 -14   4    0.15    3.38
  -3 -14   4   -6.73    6.03
   3 -14   4   -6.38    6.12
  -3 -14  -4    3.16    5.90
   3 -14  -4    2.47    4.43
   3 -14  -4    1.37    3.46
   3 -14   5   -5.16    5.49
   3 -14  -5    4.36    5.11
  -3 -14   5   16.88    9.54
   3 -14   5   -4.23    3.99
  -3 -14  -5    6.16    6.28
   3 -14  -5    4.20    4.45
  -3 -14   6   40.16   12.71
   3 -14  -6   31.04   10.01
   3 -14   6   15.31    9.34
  -3 -14  -6   29.21   11.50
   3 -14  -6   29.95    8.81
   3 -14   6   17.07    8.67
  -3 -14   7   10.85    5.68
   3 -14   7   15.26    9.50
   3 -14  -7   10.89    3.57
  -3 -14  -7   -4.67    6.27
   3 -14  -7   22.11    8.56
   3 -14   7   -0.54    4.05
  -3 -14   8   19.22    8.55
   3 -14   8    8.97    6.51
  -3 -14  -8   21.06   10.66
   3 -14  -8   -3.53    8.06
   3 -14  -8    0.45    2.81
   3 -14   8    8.90    4.38
   3 -14  -9    4.47    6.17
  -3 -14   9   -3.92    3.27
   3 -14   9   -5.46    6.97
  -3 -14  -9    5.22    7.49
   3 -14  -9    1.16    5.92
   3 -14   9    3.00    3.88
  -3 -14  10   28.40   11.59
   3 -14  10    5.61    6.52
  -3 -14 -10    5.54    4.80
   3 -14 -10    6.22    2.93
   3 -14  10   11.85    8.05
   3 -14 -10    9.48    6.50
  -3 -14  11    6.37    6.45
   3 -14  11   12.33    8.72
  -3 -14 -11   -1.34    2.43
   3 -14 -11   -5.75    5.82
   3 -14  11    1.96    7.27
   3 -14 -11   11.91    7.87
   3 -14 -12    0.35    5.35
  -3 -14  12    3.21    5.29
   3 -14  12   -5.22    6.40
  -3 -14 -12    6.25    5.17
   3 -14 -12   15.98    6.78
   3 -14  12    5.80    2.00
  -3 -14  13    8.55    6.98
   3 -14  13    5.43    6.31
   3 -14 -13    4.28    2.51
  -3 -14 -13    2.09    5.36
  -3 -14 -13  -14.69    7.33
   3 -14  13    4.33    7.92
   3 -14 -13   -1.32    6.51
  -3 -14  14   10.43    4.29
   3 -14  14   11.14    8.85
   3 -14 -14    2.26    4.92
   3 -14  14   11.62    6.52
  -3 -14 -14    0.18    3.86
   3 -14 -14   -0.03    4.02
  -3 -14  15   -5.08    6.90
   3 -14  15   -1.32    2.88
   3 -14  15   11.41    8.62
  -3 -14 -15    6.37    3.14
   3 -14 -15   -4.86    5.47
   3 -14 -15   -1.57    4.58
  -3 -14 -15   10.63    9.49
  -3 -15   0    3.46    5.34
   3 -15   0   -4.05    4.20
   3 -15   0    1.54    3.71
  -3 -15   1   24.68   10.03
   3 -15   1   20.17    8.33
  -3 -15  -1   15.39    8.82
   3 -15  -1   11.41    6.66
   3 -15   1   14.83    1.82
   3 -15  -1   12.09    6.97
  -3 -15   2  134.41   23.02
   3 -15   2  145.72   23.04
  -3 -15  -2  176.27   26.50
   3 -15  -2  137.75   22.54
   3 -15   2  124.98   20.48
   3 -15  -2  149.58   23.17
   3 -15   3   38.13   11.29
  -3 -15   3   26.82   10.88
   3 -15   3   22.59    9.55
  -3 -15  -3   13.23    9.90
   3 -15  -3   17.81    9.69
   3 -15  -3   39.75   13.05
  -3 -15   4  117.47   22.99
  -3 -15  -4   97.32   19.88
   3 -15   4  104.05   20.81
   3 -15   4  104.06   18.34
   3 -15  -4   70.23   17.32
   3 -15  -4   90.46   18.45
   3 -15   5   -2.35    2.54
  -3 -15   5    1.43    4.51
   3 -15   5   -5.44    8.71
  -3 -15  -5   -5.45    6.30
   3 -15  -5   -0.98    6.05
   3 -15  -5   -0.79    2.88
  -3 -15   6  102.41   20.90
   3 -15   6  103.69   20.93
   3 -15  -6  101.42   20.80
   3 -15  -6  136.28   21.64
  -3 -15  -6   84.41   19.27
   3 -15   6   78.15   16.00
   3 -15  -7   16.11    8.93
  -3 -15   7    0.33    5.57
   3 -15   7   -0.31    6.98
  -3 -15  -7    9.53    6.01
   3 -15  -7    6.90    6.93
   3 -15   7    6.80    3.99
  -3 -15   8   12.81    5.70
   3 -15   8    6.36    3.48
   3 -15  -8   11.21    5.64
  -3 -15  -8   32.12   11.87
   3 -15  -8   26.35   11.01
   3 -15   8   19.17    8.08
  -3 -15   9    9.23    6.31
   3 -15   9   12.90    6.78
  -3 -15  -9    2.82    2.89
   3 -15  -9    4.11    2.49
   3 -15  -9   20.95   11.41
   3 -15   9    4.12    6.91
   3 -15 -10   10.08    7.54
  -3 -15  10   15.89    6.71
   3 -15  10    8.89    5.38
  -3 -15 -10   12.25    6.56
   3 -15 -10    4.44    2.97
   3 -15  10   13.34    6.20
  -3 -15  11    0.98    4.87
   3 -15  11    2.39    5.88
  -3 -15 -11   -2.09    5.12
   3 -15 -11   -6.32    7.74
   3 -15 -11    5.01    5.42
   3 -15  11    7.29    4.72
  -3 -16   0    0.25    6.71
   3 -16   0   -8.70    9.55
   3 -16   0   -0.63    4.83
  -3 -16   1   -0.66    6.84
   3 -16   1   13.95    7.62
   3 -16   1   11.79    6.77
  -3 -16  -1    8.27    6.95
   3 -16  -1   11.21    7.25
   3 -16  -1   24.01    8.81
   3 -16   2   10.89    5.42
  -3 -16   2   11.03    7.01
   3 -16   2   -0.32    5.15
  -3 -16  -2   11.25    8.79
   3 -16  -2    7.51    5.36
   3 -16  -2    2.53    2.71
   3 -16   3   -1.05    3.98
  -3 -16   3   -0.19    5.61
   3 -16   3    7.34   10.28
  -3 -16  -3    2.99    4.27
   3 -16  -3    8.34    7.46
   3 -16  -3   -3.84    6.15
   3 -16   4    5.75    2.59
  -3 -16   4   -2.63    7.15
   3 -16   4    0.99    6.15
  -3 -16  -4    4.48    5.94
   3 -16  -4   -2.73    5.69
   3 -16  -4   -8.12    6.71
   4   0   0 6566.03   61.82
  -4   0   0 6382.14   90.13
   4   0  -1   -0.47    1.12
   4   0   1    0.85    1.11
  -4   0  -1    3.14    0.89
  -4   0   1    4.07    3.08
  -4   0   2  538.94   26.01
   4   0  -2  504.11   16.49
   4   0   3    2.35    0.79
  -4   0   3    1.76    2.68
   4   0  -3   -0.59    0.84
   4   0  -4  427.88   16.45
   4   0   4  509.04   22.00
  -4   0   4  476.54   25.47
  -4   0   5   -0.11    1.01
  -4   0   5    2.34    1.96
  -4   0  -5    0.67    0.93
   4   0   5   -0.03    1.87
  -4   0   6   86.29   11.38
  -4   0   6   64.39    7.10
  -4   0   7    1.05    1.37
  -4   0   7    1.48    1.37
   4   0   7   -1.55    2.23
   4   0   8  402.24   23.97
  -4   0   8  331.30   22.55
  -4   0   8  347.98   18.75
  -4   0   9   -1.70    2.68
  -4   0   9    1.70    3.14
   4   0   9   -1.03    1.09
  -4   0  10  227.26   20.27
   4   0  10  272.76   21.23
  -4   0  10  218.07   16.63
  -4   0  11    4.26    3.62
   4   0  11   -0.27    1.83
  -4   0  11    0.10    3.33
   4   0  12  227.37   20.36
  -4   0  12  174.54   18.62
  -4   0  12  196.95   17.41
  -4   0  13   -3.12    3.44
  -4   0  13   -0.72    1.73
   4   0  13    1.23    2.63
   4   0  14 2040.87   65.53
  -4   0  14 1961.47   64.07
  -4   0  14 1927.57   58.59
  -4   0  15    2.88    2.60
   4   0  15   -2.07    1.52
  -4   0  15   -0.24    2.02
   4   0  16  324.12   27.70
  -4   0  16  335.00   28.06
   4   0  16  323.74   27.70
  -4   0  16  309.25   25.45
  -4   0  17    0.53    1.27
  -4   0  17   -0.39    2.80
   4   0  17    1.30    3.91
   4   0  17    2.66    5.58
   4   0  18   44.82   11.40
  -4   0  18   32.78    8.99
  -4   0  18   56.18   12.21
   4   0  18   67.26   12.80
  -4   0  19    2.87    4.52
   4   0  19    1.28    1.81
  -4   0  19   -2.81    2.83
   4   0  19   -3.63    5.78
  -4   0  20   45.84   10.88
   4   0  20   56.18   12.02
  -4   0  20   59.93   12.38
   4   0  20   51.69   11.24
   4   0  21    0.45    3.74
  -4   0  21   -1.76    4.13
  -4   0  21    8.86    6.67
   4   0  21    1.08    5.50
  -4   0  22   54.94   13.31
  -4   0  22   83.69   16.39
   4   0  22   67.89   14.68
   4   0  22   65.30   14.05
  -4   0  23    1.98    1.82
   4   0  23   -7.65    5.48
  -4   0  23   -3.10    3.00
   4   0  23    4.70    5.17
  -4   0  24   -2.18    4.47
   4   0  24    9.22    6.24
  -4   0  24    3.70    4.40
   4   0  24    6.49    5.81
  -4   0  25   -2.65    3.54
   4   0  25   -0.22    4.63
  -4   0  25   -2.15    2.21
   4   0  25    2.46    3.74
  -4   0  26    1.42    2.62
  -4   0  26    1.11    3.47
   4   0  26   -3.72    5.73
   4   0  26    7.82    6.19
  -4   0  27   -0.24    3.94
   4   0  27   -2.19    6.04
  -4   0  27   -3.87    5.39
   4   0  27   -5.20    8.50
  -4   0  28   28.96    9.54
   4   0  28   69.82   15.97
  -4   0  28   48.62   13.41
   4   0  28   57.82   15.23
  -4   0  29   -5.70    4.86
   4   0  29   11.85    7.72
  -4   0  29   -5.75    8.52
   4   0  29   -0.99    4.32
  -4   0  30   37.90   12.66
   4   0  30   38.11   11.98
  -4   0  30   40.45   12.03
   4   0  30   59.21   16.25
  -4   0  31   10.90    8.77
  -4   0  31   -3.75    3.17
   4   0  31   -1.91    5.22
   4   0  31   -2.81    5.97
  -4  -1   0  233.68   10.28
   4   1   0  210.25    8.84
   4  -1   0  184.44   12.39
  -4   1   0  166.17   15.39
  -4  -1   0  209.02   15.48
  -4  -1  -1  393.19   12.86
   4  -1   1  415.12   18.90
   4   1   1  413.00   14.71
  -4   1  -1  405.31   24.25
  -4  -1  -1  394.70   21.38
  -4   1   1  383.76   22.76
   4  -1  -1  377.03   11.79
   4  -1  -1  412.88   17.98
   4   1  -1  415.51   10.95
  -4  -1   1  418.42   21.80
  -4  -1   1  356.00   14.24
   4  -1   2  234.48   14.21
   4   1  -2  247.80    7.97
  -4  -1  -2  279.50   11.11
   4   1   2  258.03   12.73
  -4   1   2  249.67   18.47
  -4  -1   2  251.56   17.28
   4  -1  -2  265.20   14.58
  -4  -1   2  231.34   12.59
   4   1  -3   83.46    5.15
  -4  -1  -3   87.27    5.91
   4   1   3   73.75    7.38
   4  -1  -3   89.14    8.67
  -4   1   3   85.75   11.01
   4  -1   3   95.52    9.54
  -4  -1   3   98.69    8.77
  -4   1   4 2096.12   54.76
   4   1  -4 2161.26   27.91
   4   1   4 2137.68   43.18
   4  -1  -4 2206.43   42.62
  -4  -1   4 2216.14   51.51
   4  -1   4 2047.14   47.03
  -4  -1   5  247.17   10.91
  -4  -1   5  277.67   18.64
   4   1   5  293.97   16.95
  -4  -1  -5  289.65   12.95
  -4   1   5  288.00   20.51
   4  -1   5  247.64   16.76
  -4   1   6   32.51    7.62
   4  -1   6   13.59    4.02
   4   1   6   36.92    6.56
  -4  -1   6   29.01    6.47
  -4  -1  -6   32.78    4.96
  -4   1   6   31.93    5.34
  -4  -1   6   20.67    3.39
   4  -1   7  122.97   13.09
   4   1   7  114.77   11.82
  -4  -1  -7  119.12   10.42
  -4   1   7  165.78   15.89
  -4  -1   7  119.19   12.96
  -4   1   7  121.06   11.20
  -4  -1   7  139.43    9.83
   4   1   8  729.28   31.70
  -4  -1   8  871.03   36.56
   4  -1   8  783.27   33.99
  -4   1   8  796.26   36.00
  -4  -1   8  826.67   27.50
  -4  -1   9   10.00    3.21
   4   1   9   12.55    5.57
  -4   1   9    3.25    1.86
  -4  -1   9    5.19    4.63
   4  -1   9   15.27    4.69
  -4   1   9   12.26    3.30
   4   1  10  189.30   17.47
   4  -1  10  218.64   19.22
  -4   1  10  203.17   19.14
  -4  -1  10  210.99   18.92
  -4   1  10  189.22   16.53
  -4  -1  10  190.38   14.63
   4   1  11  137.38   15.45
   4  -1  11  125.85   15.24
  -4   1  11  125.90   15.85
  -4  -1  11  140.52   15.49
  -4   1  11  126.98   13.55
  -4  -1  11  142.33   13.41
  -4  -1  12  142.29   16.61
   4   1  12  205.31   19.16
   4  -1  12  166.66   17.58
  -4   1  12  170.69   18.15
  -4   1  12  177.15   16.95
  -4  -1  12  149.89   15.09
   4   1  13   80.10   12.47
   4  -1  13   74.96   11.82
  -4   1  13  100.92   14.58
  -4  -1  13   82.32   12.67
  -4   1  13   76.40   11.22
  -4  -1  13   69.04   10.89
   4   1  14  507.20   32.22
   4  -1  14  491.22   32.24
  -4   1  14  496.65   32.50
  -4  -1  14  516.30   32.67
  -4   1  14  424.40   28.21
   4   1  14  479.27   31.70
  -4  -1  14  475.52   28.97
   4   1  15 1373.59   55.02
   4  -1  15 1250.40   53.29
  -4   1  15 1213.85   52.11
  -4  -1  15 1176.35   50.46
  -4   1  15 1223.23   50.90
   4   1  15 1255.33   52.02
  -4  -1  15 1276.67   48.50
   4   1  16  258.54   24.61
   4  -1  16  219.96   22.87
  -4   1  16  226.24   22.44
  -4  -1  16  256.90   24.26
  -4   1  16  257.48   23.68
   4   1  16  248.63   24.05
  -4  -1  16  247.68   22.42
  -4   1  17   44.74   10.04
  -4  -1  17   26.16    8.36
   4   1  17   14.61    6.89
   4  -1  17   24.60    7.95
  -4   1  17   30.10    8.77
  -4  -1  17   36.06    8.62
   4   1  17   38.41    7.77
   4  -1  17   21.07    7.21
   4   1  18  335.99   29.83
   4  -1  18  324.98   28.99
   4   1  18  323.78   28.80
  -4   1  18  353.44   30.08
  -4  -1  18  281.90   25.95
  -4   1  18  381.25   29.55
   4  -1  18  367.01   30.60
  -4  -1  18  359.49   28.82
  -4   1  19    1.34    5.31
  -4  -1  19   -1.23    2.39
   4   1  19    4.26    4.63
   4  -1  19   -0.63    2.70
  -4   1  19    0.44    4.24
  -4  -1  19   -4.06    5.35
   4   1  19   -1.59    4.85
   4  -1  19   -1.79    2.03
  -4   1  20   38.76   11.02
  -4  -1  20   22.74    6.96
  -4  -1  20   12.39    6.50
   4  -1  20   17.42    9.05
   4   1  20   44.73   11.62
   4  -1  20   15.84    6.68
  -4   1  20   12.26    4.16
   4   1  20   17.30    6.47
  -4   1  21   52.79   12.02
  -4  -1  21   66.89   13.49
   4   1  21   66.50   13.79
   4  -1  21   63.39   14.29
  -4  -1  21   69.00   14.85
  -4   1  21   50.28   11.65
   4   1  21   53.64   12.37
   4  -1  21   60.53   14.22
   4   1  22  278.76   28.55
   4  -1  22  237.46   26.23
  -4  -1  22  247.33   27.02
   4   1  22  266.02   28.35
   4  -1  22  284.84   29.12
  -4   1  22  325.16   30.53
  -4   1  22  249.42   27.03
  -4  -1  22  257.57   27.95
  -4   1  23   -0.85    3.95
  -4  -1  23    2.18    2.19
  -4  -1  23    8.17    6.33
   4   1  23   -1.33    1.49
  -4   1  23    0.16    4.26
   4  -1  23    4.70    6.31
   4   1  23    6.09    8.35
   4  -1  23   -2.63    4.07
  -4   1  24    4.18    3.07
  -4  -1  24   11.23    5.99
   4   1  24   11.72    4.44
   4  -1  24    4.62    2.77
  -4   1  24   22.19    8.97
  -4  -1  24   23.59    8.57
   4   1  24   14.02    7.82
   4  -1  24    6.45    6.18
  -4  -1  25   77.22   16.27
   4   1  25   78.94   14.95
   4  -1  25   77.59   15.93
  -4  -1  25   86.89   16.34
  -4   1  25   73.77   15.39
   4   1  25   95.50   19.01
  -4   1  25   95.12   17.94
   4  -1  25   60.02   14.57
   4   1  26  175.30   23.26
   4  -1  26  212.87   26.59
  -4   1  26  159.65   23.06
  -4  -1  26  144.84   21.85
   4   1  26  164.94   23.61
   4  -1  26  175.89   24.83
  -4   1  26  148.15   21.51
  -4  -1  26  137.08   21.51
  -4   1  27    3.62    4.57
  -4  -1  27    2.25    7.75
   4   1  27   -3.27    3.73
   4  -1  27    4.27    4.72
  -4   1  27    9.89    7.63
  -4  -1  27    8.37    5.39
   4   1  27    2.99    4.21
   4  -1  27   -2.41    6.88
  -4  -1  28   75.39   15.39
  -4   1  28   59.83   15.37
  -4  -1  28   56.13   13.93
   4   1  28   62.09   15.71
  -4   1  28   83.47   18.17
   4  -1  28   62.78   13.35
   4   1  28   45.75   12.63
   4  -1  28   53.63   14.61
  -4   1  29   15.34    3.80
  -4  -1  29   31.70   12.92
   4   1  29   28.91   11.07
   4  -1  29   20.45    9.69
  -4   1  29    9.89    5.39
  -4  -1  29   29.88   12.05
   4   1  29   31.10   12.03
   4  -1  29   20.80    8.44
   4   1  30    6.04    3.21
  -4   1  30   12.36    8.13
  -4  -1  30  -13.88    7.19
   4   1  30   17.45    7.78
   4  -1  30   -2.94    6.15
  -4  -1  30    9.46    6.48
   4  -1  30   -4.51    4.67
  -4   1  30   13.36    7.61
  -4   1  31   17.74    9.14
   4   1  31   48.46   12.98
   4  -1  31   17.05    9.96
  -4   1  31   39.11   11.76
  -4  -1  31   12.43    5.77
   4   1  31   46.66   15.94
   4  -1  31   25.02   11.42
  -4  -2   0  447.11   21.24
  -4  -2   0  423.43   19.02
   4  -2   0  468.34   13.85
   4  -2   0  436.33   21.34
  -4   2   0  456.41   26.41
  -4  -2   1    6.54    2.38
  -4  -2   1   12.92    3.78
   4  -2   1    7.22    2.23
  -4  -2  -1    7.51    2.66
   4   2   1    6.76    1.68
   4  -2   1    8.51    1.77
   4  -2  -1    2.97    0.75
  -4   2  -1    5.63    2.81
  -4   2   1    8.48    3.86
   4  -2  -1    7.74    4.08
  -4  -2   2  432.18   19.73
   4  -2   2  442.74   12.55
   4   2   2  415.46   14.77
  -4  -2  -2  470.36   18.56
   4  -2   2  433.18   21.70
  -4  -2   2  448.68   21.92
  -4   2   2  418.26   24.88
   4  -2  -2  431.50   16.75
   4  -2  -2  407.70   20.47
   4  -2   3 1005.18   18.82
  -4  -2   3  972.84   30.40
   4  -2  -3 1027.64   32.52
   4  -2   3 1015.97   33.93
   4   2   3 1066.02   26.44
  -4  -2  -3  844.42   25.33
  -4   2   3  962.90   37.79
  -4  -2   3  957.46   32.13
   4  -2  -3  929.20   26.94
   4   2   4 1686.60   36.88
  -4   2   4 1856.05   53.84
  -4  -2  -4 1764.06   36.35
   4  -2  -4 1773.29   43.83
  -4  -2   4 1829.01   45.01
   4  -2   4 1685.62   44.90
   4  -2   4 1740.44   26.84
  -4  -2   4 1824.51   43.95
   4   2   5   89.62    9.45
  -4  -2  -5  101.53    9.05
  -4   2   5  100.01   12.59
  -4  -2   5  119.03   12.07
   4  -2   5  105.04   11.63
  -4  -2   5  121.74   12.10
   4   2   6  185.84   14.13
  -4  -2  -6  190.57   12.98
  -4   2   6  223.53   18.94
  -4  -2   6  197.60   15.64
   4  -2   6  208.56   16.57
  -4  -2   6  168.28    9.31
  -4  -2   6  204.07   16.55
  -4   2   7  717.57   34.16
  -4  -2  -7  730.29   27.00
  -4  -2   7  701.96   30.90
   4  -2   7  710.35   31.86
  -4   2   7  724.17   30.17
  -4  -2   7  726.46   21.29
  -4  -2   7  805.36   33.68
   4   2   8  110.38   12.38
  -4   2   8  149.32   15.88
  -4  -2  -8  195.97   14.50
  -4  -2   8  168.24   15.83
   4  -2   8  128.23   13.92
  -4   2   8  148.96   13.93
  -4  -2   8  136.31   10.13
   4  -2   9    3.65    0.81
  -4  -2   9   13.68    4.04
  -4   2   9    9.82    5.22
   4   2   9    4.64    2.29
  -4  -2  -9   12.85    4.46
  -4  -2   9    6.23    3.15
  -4   2   9    5.93    1.90
   4  -2  10    8.69    3.80
  -4  -2  10   12.67    3.40
   4   2  10   16.66    6.22
  -4   2  10   13.86    4.56
  -4  -2 -10   18.98    5.34
  -4  -2  10    9.96    4.99
  -4   2  10    9.29    3.95
   4   2  11   69.81   10.94
  -4   2  11   60.26   10.87
  -4  -2 -11   48.58    8.93
  -4  -2  11   64.01   10.52
  -4   2  11   83.42   11.87
   4  -2  11   67.82   11.32
  -4  -2  11   58.19    8.57
   4   2  12  129.87   15.35
  -4   2  12  103.55   14.04
  -4  -2  12  133.51   15.41
   4  -2  12  110.19   14.52
  -4   2  12  124.31   14.58
   4   2  12  126.88   15.02
  -4  -2  12  119.59   13.23
   4   2  13   97.49   14.03
  -4  -2  13   80.79   12.57
   4  -2  13   79.00   12.56
  -4   2  13  103.48   14.69
  -4   2  13   93.56   13.30
   4   2  13   79.02   12.20
  -4  -2  13   77.48   10.95
   4   2  14   58.30   12.03
  -4  -2  14   44.20    8.39
   4  -2  14   63.77   12.56
  -4   2  14   36.68    8.88
  -4  -2  14   47.97    9.45
  -4   2  14   58.94   11.04
   4   2  14   56.03   10.70
   4   2  15  127.82   16.62
   4  -2  15  150.70   18.81
  -4   2  15  119.47   16.57
  -4  -2  15  129.14   16.95
  -4   2  15  120.69   15.65
   4   2  15  133.84   17.12
  -4  -2  15  129.44   15.21
   4   2  16   71.61   12.91
  -4   2  16   67.37   12.52
  -4  -2  16   67.26   12.83
   4  -2  16   57.27   12.09
  -4   2  16   66.11   12.67
   4   2  16   64.74   12.87
  -4  -2  16   56.16   10.39
   4   2  17   79.23   15.00
  -4  -2  17   52.56   10.53
   4  -2  17   83.60   14.49
  -4  -2  17   72.94   13.41
  -4   2  17   71.33   12.76
  -4   2  17   67.20   13.11
   4   2  17   74.12   12.97
   4   2  18  187.71   21.82
   4  -2  18  182.11   21.45
  -4  -2  18  192.26   21.43
  -4   2  18  173.79   20.80
   4   2  18  172.75   20.49
  -4   2  18  165.10   20.56
   4  -2  18  151.93   20.51
  -4  -2  18  177.31   20.02
  -4   2  19    4.04    2.96
  -4  -2  19    0.28    3.14
   4   2  19   -0.42    2.72
   4  -2  19    9.64    6.58
  -4   2  19   -1.35    2.41
  -4  -2  19    7.90    4.38
   4   2  19    5.59    2.82
   4  -2  19    3.59    5.84
  -4   2  20    1.13    3.15
  -4  -2  20   -0.41    2.24
   4   2  20    1.84    3.24
   4  -2  20    4.13    5.78
  -4   2  20    5.46    4.36
  -4  -2  20    5.46    2.92
   4   2  20    5.17    6.12
   4  -2  20   -0.44    5.17
  -4   2  21   16.80    8.17
  -4  -2  21   34.99    9.37
   4   2  21   36.81   10.50
   4  -2  21   12.88    6.03
  -4   2  21   35.23    9.77
  -4  -2  21   24.72    8.18
   4   2  21   14.46    7.86
   4  -2  21   25.03    8.93
  -4   2  22    4.66    5.86
  -4  -2  22    8.62    6.21
   4   2  22   12.47    8.23
   4   2  22    2.18    6.30
   4  -2  22    0.66    3.50
  -4   2  22    4.28    2.76
  -4  -2  22    4.11    5.68
   4  -2  22    2.69    5.48
  -4   2  23   20.63   10.51
  -4  -2  23   13.71    6.50
   4   2  23   12.14    3.33
   4  -2  23    4.65    5.01
  -4   2  23    2.78    2.28
  -4  -2  23   13.83    7.34
   4   2  23    8.41    7.04
   4  -2  23   15.65    8.04
  -4   2  24    7.91    7.20
  -4  -2  24   -5.66    7.68
   4   2  24   10.53    6.55
   4  -2  24    4.07    5.68
  -4   2  24   -0.05    3.99
  -4  -2  24    0.36    4.08
   4   2  24    7.56    5.66
   4  -2  24   -4.62    5.82
  -4   2  25   -2.83    5.97
  -4  -2  25    2.61    3.21
   4   2  25   -2.15    4.28
  -4   2  25   -3.87    3.03
  -4  -2  25    0.62    3.34
   4  -2  25   -0.30    3.01
   4   2  25   -4.61    4.24
   4  -2  25   -0.15    5.24
  -4   2  26   26.72   10.09
  -4  -2  26   13.28    5.30
   4   2  26   24.09    9.34
   4  -2  26   31.07   10.35
  -4   2  26    2.57    3.63
  -4  -2  26   24.03    9.72
   4   2  26   41.65   13.04
   4  -2  26   27.35    9.71
  -4   2  27   17.61   10.30
  -4  -2  27   28.75   14.18
   4   2  27    2.14    5.99
   4  -2  27   -5.52    6.35
  -4   2  27   -5.34    6.08
  -4  -2  27    6.28    5.66
   4   2  27    5.97    4.89
   4  -2  27    3.60    6.81
  -4   2  28   -7.03    7.73
   4   2  28   -5.25    6.70
   4  -2  28   -4.10    3.92
  -4   2  28    3.24    4.06
  -4  -2  28   -1.79    5.72
   4   2  28   -2.10    5.76
   4  -2  28   -3.93    4.68
  -4   2  29    5.58    6.27
   4   2  29   15.99    6.35
   4  -2  29   19.24    9.36
  -4   2  29   22.10    9.59
  -4  -2  29   33.46   12.51
   4   2  29   27.61   11.28
   4  -2  29   17.87    6.18
  -4   2  30    1.26    6.13
   4   2  30    1.52    3.84
   4  -2  30   -1.90    4.82
  -4   2  30   10.11    6.85
  -4  -2  30    0.14    4.36
   4   2  30   -8.64    8.74
   4  -2  30   20.26   11.67
  -4  -3   0 1401.62   39.61
  -4   3   0 1307.02   47.37
  -4  -3   0 1452.31   35.32
   4  -3   0 1343.93   30.57
   4  -3   0 1270.48   40.32
   4  -3  -1   20.68    4.95
   4  -3   1   20.12    4.03
  -4  -3   1   13.86    3.02
  -4  -3  -1   18.53    4.42
   4  -3  -1   24.31    4.05
  -4   3  -1   16.31    5.34
   4  -3   1   16.44    4.78
   4   3   1   15.67    2.37
  -4   3   1   31.88    7.83
  -4  -3   1   25.89    4.81
  -4  -3   2   50.18    7.72
   4  -3   2   49.31    5.75
  -4  -3  -2   37.81    6.20
   4  -3   2   52.25    7.96
   4  -3  -2   49.98    6.44
  -4  -3   2   37.11    5.86
  -4   3   2   45.49    9.36
   4   3   2   45.23    4.79
   4  -3  -2   50.85    7.76
  -4  -3   3  455.44   23.38
   4  -3   3  442.76   17.87
   4  -3  -3  464.25   23.78
   4  -3   3  437.90   23.96
  -4  -3  -3  434.09   21.40
   4  -3  -3  447.41   20.39
  -4   3   3  462.78   27.34
   4   3   3  439.55   17.61
  -4  -3   4    4.96    2.03
  -4  -3   4    2.88    1.11
   4  -3   4    2.04    1.08
   4   3   4    3.44    2.23
  -4  -3  -4    3.23    1.67
   4  -3  -4    4.68    3.27
  -4   3   4    9.91    4.45
   4  -3  -4    4.19    3.04
   4  -3   4    4.04    3.38
  -4  -3   5  285.90   19.16
   4  -3   5  275.64   14.19
  -4  -3  -5  310.08   18.30
  -4  -3   5  233.31   16.19
  -4   3   5  231.16   19.95
   4  -3  -5  245.61   16.88
   4  -3  -5  228.45   17.08
   4   3   5  215.42   14.79
   4  -3   5  266.64   19.13
  -4  -3   6  867.39   35.36
  -4  -3  -6 1004.98   33.41
  -4   3   6  960.10   40.63
  -4  -3   6  896.97   32.93
   4  -3   6  956.87   28.36
   4  -3   6  920.63   37.12
   4   3   6  924.77   32.52
   4   3   7   96.07   10.95
  -4  -3   7  107.50    7.76
  -4  -3  -7  100.14   10.74
  -4   3   7  103.20   13.88
  -4  -3   7  102.00   11.86
   4  -3   7  109.45   13.09
  -4   3   7  106.52   12.28
   4  -3   7  113.33   10.61
  -4  -3   7   93.50   11.95
   4   3   8  135.47   13.46
  -4  -3   8  128.09    9.75
  -4  -3  -8  133.52   13.11
  -4  -3   8  116.83   13.24
  -4   3   8  142.13   14.53
   4  -3   8  121.48   13.95
  -4   3   8  124.25   15.06
   4  -3   8  121.07   11.38
  -4  -3   8  151.63   15.73
   4   3   9  132.08   13.90
  -4  -3   9  119.60   10.51
  -4   3   9  117.66   14.32
  -4  -3   9  110.64   12.89
   4  -3   9  104.17   13.49
  -4   3   9  131.49   14.16
  -4  -3   9  115.61   14.35
  -4  -3  10   46.22    9.08
   4   3  10   45.01    8.36
  -4  -3  10   35.75    5.92
  -4  -3 -10   28.37    8.20
   4  -3  10   47.21    9.63
  -4   3  10   28.52    8.71
  -4  -3  10   42.69    7.68
   4   3  10   38.47    7.33
  -4   3  10   30.64    7.37
   4   3  11  271.88   21.17
  -4  -3  11  250.13   17.48
  -4  -3 -11  208.87   18.48
  -4   3  11  235.00   21.53
   4  -3  11  243.56   21.35
  -4   3  11  219.92   20.22
   4   3  11  225.91   19.85
  -4  -3  11  239.72   20.47
  -4  -3  11  243.57   21.59
   4  -3  12   27.37    6.65
   4   3  12   30.98    8.54
  -4  -3  12   32.28    6.45
  -4  -3 -12   39.42    7.45
  -4  -3  12   31.45    6.84
  -4   3  12   21.41    6.89
  -4   3  12   36.78    7.66
   4   3  12   32.70    8.35
   4  -3  13   10.59    3.87
   4   3  13   18.35    6.24
  -4  -3  13   14.47    5.06
  -4   3  13    8.16    3.84
  -4  -3 -13    4.20    2.53
  -4  -3  13   10.23    5.01
   4   3  13   16.05    6.41
  -4   3  13   28.50    7.48
  -4  -3  14    3.65    4.09
   4   3  14    1.91    3.56
  -4  -3 -14    2.89    2.30
  -4  -3  14    4.52    2.61
  -4   3  14    6.36    5.11
   4   3  14    8.86    3.93
   4  -3  14   -1.91    2.53
  -4   3  14    2.59    2.24
   4   3  15   81.60   13.63
  -4  -3  15  119.34   14.57
   4  -3  15   92.05   14.35
  -4   3  15  102.06   15.32
  -4  -3 -15   76.15   13.87
  -4  -3  15  111.85   15.85
  -4   3  15  113.50   15.31
   4   3  15  108.86   15.61
   4   3  16    1.36    3.31
   4   3  16    3.21    4.65
  -4  -3  16    1.54    2.49
  -4   3  16   -0.15    2.91
  -4  -3 -16   -0.32    4.48
  -4  -3  16   -0.76    4.25
   4  -3  16    0.64    3.05
  -4   3  16    3.05    4.99
   4   3  17  172.55   19.97
  -4  -3  17  142.08   17.55
  -4  -3  17  125.05   17.29
   4  -3  17  195.26   22.30
  -4   3  17  157.97   20.34
  -4   3  17  143.86   18.49
   4   3  17  169.32   19.53
   4   3  18   90.52   15.31
  -4  -3  18   73.23   12.51
  -4   3  18   81.76   14.45
  -4  -3  18   82.51   13.70
  -4   3  18   84.89   15.00
   4   3  18   81.52   14.00
   4  -3  18   53.35   11.92
   4   3  19  117.92   17.17
  -4  -3  19   92.86   15.23
   4  -3  19  109.23   17.50
  -4   3  19  116.06   18.22
  -4  -3  19   92.91   15.01
   4   3  19  110.05   17.28
  -4   3  19   86.45   15.43
   4  -3  19   98.20   18.51
   4   3  20   36.89   10.07
  -4  -3  20   38.55   10.29
  -4   3  20   70.57   14.12
   4  -3  20   63.01   14.02
  -4  -3  20   42.87    9.18
  -4   3  20   66.09   13.19
   4   3  20   76.20   14.63
   4  -3  20   66.88   13.96
  -4  -3  21  439.79   34.47
   4   3  21  393.35   33.38
   4  -3  21  483.13   36.96
  -4   3  21  486.83   37.40
  -4  -3  21  453.63   36.13
   4   3  21  497.51   37.94
  -4   3  21  425.74   34.75
   4  -3  21  455.81   36.86
  -4   3  22    2.78    5.56
  -4  -3  22    4.23    3.27
   4   3  22    0.48    5.22
   4  -3  22    2.57    7.31
  -4   3  22   -0.58    4.12
  -4  -3  22    8.66    3.45
   4   3  22   -5.02    6.37
   4  -3  22   -0.36    3.22
  -4   3  23   38.53   10.90
  -4  -3  23   30.34    8.92
   4   3  23   38.85   11.74
   4  -3  23   42.81   11.55
  -4   3  23   59.62   13.93
  -4  -3  23   57.81   13.52
   4   3  23   27.52   10.03
   4  -3  23   34.18   11.99
  -4   3  24   -1.66    1.54
   4  -3  24    2.21    2.69
   4   3  24   -8.72    6.87
  -4   3  24    3.75    5.67
  -4  -3  24   -1.63    3.63
   4   3  24   -0.75    5.25
   4  -3  24   -1.04    2.16
  -4   3  25   48.91   13.49
  -4  -3  25   -0.92    6.98
   4   3  25   41.08    9.96
   4  -3  25   44.18   11.81
  -4   3  25   42.33   13.80
  -4  -3  25   58.67   15.23
   4   3  25   67.15   15.37
   4  -3  25   62.65   15.11
  -4   3  26   28.80    9.63
   4   3  26   28.26    9.78
   4  -3  26   35.65   12.07
  -4   3  26   30.27    9.57
  -4  -3  26   10.48    7.99
   4   3  26   16.07    8.47
   4  -3  26   11.41    6.71
  -4   3  27    6.93    6.18
  -4   3  27    9.40    6.60
   4   3  27    4.57    2.55
   4  -3  27    5.33    4.70
  -4  -3  27   14.26    7.84
   4   3  27   13.81    9.85
   4  -3  27   13.08    8.20
  -4   3  28   -3.94    2.20
   4  -3  28   16.02    8.64
   4   3  28    1.05    2.22
  -4   3  28    7.84    3.73
  -4  -3  28    6.26    3.56
   4   3  28   -2.34    6.54
   4  -3  28    4.90    8.35
  -4   3  29   61.42   14.58
   4   3  29   93.74   18.92
  -4   3  29   87.85   18.02
   4  -3  29   86.49   16.68
  -4  -3  29   94.49   18.68
   4   3  29   71.16   16.09
   4  -3  29   55.72   15.76
  -4   3  30    3.28    6.65
   4   3  30    6.63    6.73
   4  -3  30    0.48    2.88
  -4   3  30    2.34    5.84
  -4  -3  30   -2.78    3.81
   4   3  30    4.06    4.26
   4  -3  30    2.99    5.99
  -4  -4   0   19.56    2.96
  -4  -4   0   29.76    6.40
   4  -4   0   19.24    4.66
  -4  -4   0   25.03    4.20
  -4   4   0   10.84    4.68
   4  -4   0   14.39    4.16
   4  -4  -1   16.61    5.63
  -4  -4   1   25.57    6.23
   4  -4  -1   24.50    5.43
  -4  -4  -1   24.00    5.17
   4  -4   1   21.75    5.01
  -4  -4   1   22.33    2.65
  -4   4   1   28.47    6.74
  -4  -4   1   21.26    3.74
   4  -4   1   23.50    6.11
   4   4   1   22.92    3.51
  -4  -4   2  145.27   14.51
   4  -4   2  120.53   11.51
  -4  -4  -2  138.35   13.56
   4  -4  -2  132.09   11.54
  -4  -4   2  149.82   11.28
   4  -4   2  126.71   13.75
  -4   4   2   97.29   12.65
   4   4   2  133.85    9.56
   4  -4  -2  146.73   14.57
  -4  -4   3   51.83    8.70
   4  -4  -3   53.13    8.71
   4  -4   3   38.28    6.39
  -4  -4  -3   58.52    9.15
   4  -4   3   50.01    8.61
  -4   4   3   41.35    8.97
   4  -4  -3   51.56    7.58
  -4  -4   3   44.46    6.30
   4   4   3   51.14    6.15
  -4  -4   4  130.75   14.09
   4  -4   4  151.80   12.93
   4  -4  -4  137.10   14.44
   4  -4   4  163.59   15.84
  -4  -4  -4  133.45   13.26
  -4  -4   4  146.07    6.52
   4  -4  -4  147.58   13.15
  -4  -4   4  149.39   12.12
   4   4   4  134.90   11.37
  -4   4   4  159.97   16.71
  -4  -4   5  894.58   37.32
   4  -4   5  852.87   30.12
   4  -4   5  924.02   38.37
  -4  -4   5  839.95   18.68
   4  -4  -5  782.90   34.72
   4  -4  -5  833.18   33.79
  -4   4   5  880.23   40.61
  -4  -4   5  900.60   30.97
   4   4   5  850.80   30.04
   4  -4   6  139.38   15.02
  -4  -4   6  136.85   15.06
   4  -4   6  130.28   12.18
  -4  -4   6  112.41    7.95
  -4  -4  -6  119.18   12.61
   4  -4  -6  150.91   14.57
  -4   4   6  147.07   16.48
  -4  -4   6  144.93   13.16
   4   4   6  111.49   11.61
   4  -4   7  226.48   16.35
  -4  -4   7  276.22   21.12
   4  -4   7  232.00   20.21
  -4  -4   7  239.44   13.41
  -4  -4  -7  265.62   19.61
   4  -4  -7  274.19   20.45
  -4  -4   7  224.68   17.13
  -4   4   7  236.04   20.96
   4   4   7  245.18   15.29
   4   4   7  248.77   18.17
   4  -4   8    5.17    2.85
  -4  -4   8    1.82    3.81
   4   4   8    0.50    2.01
   4  -4   8    5.29    4.22
  -4  -4   8   -2.36    2.46
  -4  -4  -8    5.04    3.27
  -4   4   8    1.31    4.76
   4  -4  -8    1.19    2.11
  -4   4   8    4.97    4.07
  -4  -4   8   -1.12    1.29
   4   4   8    4.62    0.94
   4  -4   9    0.47    1.18
  -4  -4   9    1.02    1.04
   4   4   9    0.50    1.60
   4  -4   9    3.02    2.68
  -4   4   9    3.97    4.53
  -4  -4   9   -0.20    0.79
   4  -4  -9   -0.21    1.05
  -4  -4   9    0.01    1.08
  -4   4   9    4.25    1.59
  -4  -4  -9    1.97    3.21
   4   4   9   -0.68    1.52
  -4  -4  10   38.16    9.12
  -4  -4  10   40.60    6.41
   4  -4  10   36.89    8.72
  -4  -4 -10   51.68    8.96
  -4   4  10   44.30    9.95
  -4   4  10   49.67    9.42
  -4  -4  10   32.20    7.41
   4   4  10   43.71    7.94
   4   4  10   68.50   10.32
   4  -4  10   51.83    9.05
  -4  -4  11   25.93    8.21
   4  -4  11   10.50    5.91
   4   4  11   15.18    4.88
  -4  -4 -11    5.34    5.96
  -4   4  11    8.47    1.56
  -4  -4  11   15.33    4.57
  -4   4  11   28.63    7.05
  -4  -4  11   13.76    4.48
   4   4  11   18.45    5.12
   4  -4  11   16.52    5.04
  -4  -4  12    6.99    3.99
   4  -4  12    3.61    3.80
   4   4  12    1.87    4.04
  -4  -4  12   -0.47    1.55
  -4  -4 -12    4.81    4.31
  -4   4  12   -0.79    3.46
  -4  -4  12    2.17    3.11
  -4   4  12   -3.35    2.49
   4   4  12    0.93    2.57
   4  -4  13   19.27    6.93
   4   4  13   10.00    4.88
  -4  -4  13    8.08    4.01
  -4  -4 -13    9.48    4.97
  -4   4  13    3.87    2.24
  -4  -4  13    4.82    2.00
  -4   4  13   20.56    7.22
   4   4  13    5.18    2.65
  -4  -4  13   -2.82    4.43
  -4  -4  14  118.49   14.10
  -4  -4 -14  118.89   16.41
   4  -4  14   99.48   15.74
  -4  -4  14   96.47   14.29
  -4   4  14  134.38   17.42
   4   4  14   96.54   14.14
  -4   4  14  102.14   15.08
   4   4  14  105.86   15.80
   4   4  15   39.53   10.11
  -4  -4  15   32.57    7.99
  -4  -4 -15   39.70    9.62
  -4   4  15   55.71   10.61
  -4  -4  15   31.55    8.15
   4   4  15   29.57    7.76
  -4   4  15   33.50    7.39
   4  -4  15   52.16   12.45
   4   4  16   43.06   10.27
  -4  -4  16   30.32    7.42
  -4  -4 -16   43.80   10.08
  -4   4  16   27.48    7.30
  -4  -4  16   21.81    7.36
   4   4  16   36.91    9.37
   4  -4  16   27.43   10.05
  -4   4  16   24.68    7.80
   4   4  17   33.84   10.58
  -4  -4  17   17.04    6.41
  -4  -4 -17   18.79    5.91
  -4   4  17   12.51    7.37
  -4  -4  17   11.14    5.47
   4   4  17   38.65   10.45
   4  -4  17   17.40    8.54
  -4   4  17   28.34    9.45
   4   4  18   44.61   11.59
  -4  -4  18   38.48    9.51
  -4  -4 -18   28.34    9.26
  -4   4  18   42.68   11.57
  -4  -4  18   61.41   11.15
   4  -4  18   50.54   12.03
   4   4  18   33.23    7.07
  -4   4  18   53.75   12.51
  -4  -4  19  131.37   17.37
   4  -4  19  111.20   16.50
  -4   4  19  143.29   19.37
  -4  -4 -19  127.55   19.33
  -4  -4  19  149.30   19.90
   4   4  19  147.88   19.83
  -4   4  19  126.72   17.86
   4   4  19  141.67   20.02
  -4  -4 -20   15.87    8.83
   4   4  20    2.12    3.56
  -4  -4  20    1.41    4.10
  -4  -4  20   -2.60    4.98
   4  -4  20    3.75    5.41
  -4   4  20   -2.55    4.78
   4   4  20    3.05    3.92
   4  -4  20    3.59    5.73
  -4   4  20    1.76    4.43
   4   4  21   13.89    6.47
  -4  -4  21   20.91   10.22
  -4  -4 -21   17.21    7.66
  -4   4  21   16.55    6.01
   4  -4  21   20.45    8.30
  -4  -4  21    7.27    7.28
   4   4  21   10.35    6.17
   4  -4  21    8.06    7.09
  -4   4  21   15.87    7.83
   4   4  22   31.99    9.45
  -4  -4 -22    9.53    5.35
  -4   4  22   42.12   11.53
   4  -4  22   43.57   12.95
  -4  -4  22   15.58    5.71
   4   4  22   24.12    8.46
   4  -4  22   20.34    5.03
  -4   4  22   32.92    9.52
   4   4  23    1.42    3.48
  -4  -4 -23    6.97    2.79
   4  -4  23   -2.26    3.70
  -4   4  23   -3.36    4.48
  -4  -4  23    2.29    5.31
   4   4  23    0.94    5.30
   4  -4  23    1.53    5.89
  -4   4  23    4.34    6.57
  -4   4  24    0.22    3.63
   4   4  24   -1.91    4.85
   4  -4  24   -3.47    7.06
  -4  -4 -24    9.04    6.72
  -4   4  24    8.59    7.33
  -4  -4  24   -2.47    2.23
   4   4  24    0.62    7.30
   4  -4  24   -2.07    2.30
  -4   4  25   -3.47    2.75
   4   4  25    2.84    4.72
   4  -4  25   10.93    6.45
  -4   4  25   10.64    7.32
  -4  -4 -25    4.97    5.97
  -4  -4  25    7.55    4.30
   4   4  25    1.24    2.35
   4  -4  25    2.77    2.48
  -4   4  26    1.07    3.45
   4   4  26    1.11    4.98
   4  -4  26    3.08    5.25
  -4  -4 -26   -3.07    3.52
  -4   4  26    1.89    3.62
  -4  -4  26    0.45    3.84
   4   4  26   -2.29    3.10
   4  -4  26   -3.47    3.67
  -4   4  27    5.11    5.21
  -4   4  27    7.31    3.22
   4   4  27   -5.45    7.57
   4  -4  27    3.84    7.26
  -4  -4 -27    5.03    5.45
  -4  -4  27    3.72    4.18
   4   4  27    8.53    9.85
   4  -4  27    4.63    4.28
  -4   4  28   14.94    8.76
   4   4  28    9.55    5.62
  -4   4  28    0.28    3.96
  -4  -4 -28   28.62   12.51
  -4  -4  28    7.26    7.16
   4   4  28   -0.75    4.97
   4  -4  28   10.18    7.22
   4  -4  28   12.76    7.66
   4   4  29    6.21    5.05
   4  -4  29   -0.17    5.58
  -4   4  29   -6.25    6.91
  -4  -4  29   -2.18    2.98
   4   4  29    2.59    4.37
  -4  -4 -29   -0.37    4.27
   4  -4  29   -2.18    4.93
  -4   4  29    1.14    5.42
  -4   4  30   -5.55    7.66
   4   4  30   23.63   11.00
   4  -4  30    0.26    3.78
  -4  -4 -30    2.80    5.23
  -4  -4  30    2.29    2.94
   4   4  30    8.40   10.28
   4  -4  30   12.55    8.35
  -4   4  30    0.70    2.93
  -4  -5   0  316.44   22.59
   4  -5   0  343.69   20.81
  -4   5   0  340.71   26.15
   4  -5   0  307.23   22.52
  -4  -5   0  302.52   14.66
   4  -5  -1    6.05    3.99
  -4  -5   1    2.60    4.01
  -4  -5  -1   -0.02    2.16
   4  -5   1   -0.75    1.96
   4  -5  -1    5.66    3.32
  -4  -5   1    1.28    1.44
  -4   5   1    2.23    3.25
   4  -5   1   -0.13    2.45
  -4  -5   1   -0.59    1.00
  -4  -5  -1    0.09    0.84
  -4  -5   2  160.85   16.76
   4  -5   2  157.06   14.04
  -4  -5  -2  199.08   17.84
  -4  -5   2  160.77    9.28
   4  -5  -2  189.17   15.65
   4  -5   2  182.43   17.44
  -4   5   2  161.14   17.48
  -4  -5   2  151.66   10.05
   4   5   2  190.52   12.70
   4  -5  -2  191.04   18.08
  -4  -5   3  291.67   22.28
   4  -5   3  272.05   19.03
  -4  -5  -3  215.51   18.72
   4  -5  -3  229.09   17.25
   4  -5   3  255.91   20.58
  -4   5   3  229.14   20.36
  -4  -5   3  228.15   13.52
   4   5   3  273.74   16.26
   4   5   3  206.62    8.19
  -4  -5   3  222.26   10.77
   4  -5  -3  241.11   19.98
  -4  -5   4  119.02   14.34
   4  -5   4  109.51   12.05
   4  -5  -4  105.92   13.39
  -4  -5  -4   96.36   12.41
   4  -5   4  125.72   14.15
   4  -5  -4   98.86   11.65
  -4   5   4  132.21   15.51
  -4  -5   4  102.50    9.32
  -4  -5   4  101.01    7.64
   4   5   4   97.89   10.35
   4   5   4   83.59    5.92
  -4  -5   5   94.22   12.99
   4  -5   5   95.60   11.13
   4  -5   5   95.08   12.72
  -4  -5  -5  107.60   12.79
   4  -5  -5  108.44   13.75
   4  -5  -5  100.09   12.09
  -4   5   5   74.63   11.41
  -4  -5   5  105.16    8.22
  -4  -5   5  114.39   10.72
   4   5   5  123.55   11.97
   4  -5  -6    7.98    4.60
  -4  -5   6    5.00    2.59
   4  -5   6    9.82    4.10
   4  -5  -6    8.67    3.59
  -4  -5  -6   15.51    5.38
  -4   5   6   14.88    6.29
   4   5   6   16.55    4.09
  -4  -5   6   13.21    3.33
   4  -5   6   14.61    5.64
   4   5   6   10.20    3.16
  -4  -5   6   13.20    2.99
   4   5   7    2.07    2.03
  -4  -5   7    9.21    4.84
   4  -5   7   12.39    4.63
  -4  -5  -7    3.00    3.27
   4  -5   7    3.94    1.48
  -4   5   7    2.07    2.47
  -4  -5   7    2.31    1.81
  -4  -5   7    9.13    2.51
   4  -5  -7    3.63    3.78
   4   5   7    2.51    1.31
  -4  -5   8  225.31   20.67
   4  -5   8  235.53   18.48
  -4  -5  -8  242.61   20.09
  -4  -5   8  231.47   14.94
   4  -5  -8  224.57   20.02
  -4   5   8  244.01   22.55
  -4  -5   8  241.82   18.51
   4   5   8  217.41   15.11
   4   5   8  228.40   19.04
   4  -5   8  232.53   21.23
   4  -5   9  183.20   16.80
  -4  -5   9  162.01   18.05
  -4  -5   9  157.57   13.32
  -4  -5  -9  198.64   18.30
  -4   5   9  155.85   17.75
   4  -5  -9  164.04   17.70
  -4   5   9  164.37   19.01
  -4  -5   9  150.09   15.23
   4   5   9  169.84   14.08
   4   5   9  156.38   15.98
   4  -5   9  181.41   19.16
  -4  -5  10  342.10   20.77
  -4  -5 -10  369.83   26.60
   4  -5 -10  353.24   26.51
  -4   5  10  411.91   29.76
  -4  -5  10  328.34   24.25
   4   5  10  320.92   20.93
  -4   5  10  291.49   24.59
   4  -5  10  360.08   26.65
   4   5  10  340.11   25.12
   4  -5  10  361.01   24.29
  -4  -5  10  348.89   27.04
  -4  -5  11   43.63    9.69
   4   5  11   32.88    7.65
  -4  -5  11   52.00    8.76
   4  -5 -11   41.04    9.70
   4  -5  11   43.95   10.08
  -4  -5 -11   33.71    7.78
  -4   5  11   56.58   11.15
   4   5  11   43.44    7.73
  -4  -5  11   37.08    8.45
  -4   5  11   34.99    8.44
   4  -5  11   54.27    9.52
   4  -5  12   90.81   14.42
  -4  -5  12   98.44   12.39
  -4  -5 -12  103.42   14.52
  -4   5  12   98.07   14.65
   4  -5 -12  119.77   17.20
  -4  -5  12   91.14   13.14
  -4   5  12   99.23   14.70
   4   5  12   99.05   12.29
   4   5  12   82.82   12.92
   4  -5  12   97.78   13.42
  -4  -5  12  119.49   16.36
   4  -5  13   33.17    8.27
  -4  -5  13   21.36    6.54
   4   5  13   21.66    6.16
   4   5  13   13.19    4.70
   4  -5  13    5.99    2.31
  -4  -5  13   17.79    5.53
  -4  -5 -13   20.30    7.12
   4  -5 -13   32.97    8.57
  -4  -5  13   36.69    9.40
  -4   5  13   16.38    6.33
  -4   5  13   34.04    9.27
  -4  -5  14  536.92   30.64
  -4   5  14  509.68   35.37
  -4  -5 -14  522.39   34.11
   4  -5  14  498.54   34.46
  -4  -5  14  463.71   31.44
   4   5  14  512.82   31.50
  -4   5  14  490.20   33.99
   4   5  14  567.05   35.87
  -4  -5  14  530.38   36.48
  -4  -5  15    8.98    5.40
   4  -5  15    0.19    5.06
   4   5  15    4.81    3.14
  -4  -5 -15   -3.46    5.08
  -4   5  15    7.00    5.45
  -4  -5  15    1.90    3.44
  -4  -5  15   -0.05    2.13
   4   5  15    4.44    5.08
  -4   5  15    5.30    4.76
  -4  -5  16  137.61   17.69
   4  -5  16  172.91   21.57
  -4   5  16  158.41   20.37
  -4  -5  16  150.65   19.30
   4   5  16  145.28   18.36
  -4  -5 -16  159.09   19.66
   4   5  16  162.95   20.74
   4  -5  17   31.22   14.08
  -4   5  17   60.70   12.76
  -4  -5  17   71.22   13.15
  -4  -5 -17   69.48   12.92
  -4   5  17   68.78   13.76
   4   5  17   45.37   10.43
   4   5  17   79.58   14.42
   4  -5  18   94.21   17.01
  -4  -5 -18  108.49   17.04
  -4  -5  18   91.28   16.12
   4   5  18   87.89   15.08
  -4   5  18   82.84   15.00
   4   5  18  105.17   16.89
  -4   5  18   76.21   15.26
   4   5  19    1.17    4.80
  -4  -5 -19    4.09    5.60
  -4   5  19    6.49    6.92
  -4  -5  19    5.23    4.23
   4   5  19   12.35    6.42
   4  -5  19   -2.56    2.04
  -4   5  19    1.47    4.06
   4   5  20   80.55   14.80
   4  -5  20   89.15   15.81
  -4  -5 -20   84.88   15.98
  -4   5  20   87.60   17.22
  -4  -5  20   77.20   15.48
  -4   5  20   79.68   15.76
   4   5  20   82.12   15.41
   4  -5  20   91.32   15.51
   4   5  21    3.38    5.97
  -4  -5 -21    6.12    3.45
  -4   5  21   17.92    8.53
  -4  -5  21    9.01    6.11
   4  -5  21   12.03    6.50
   4   5  21    1.47    3.23
  -4   5  21    4.26    5.18
   4  -5  21    5.00    3.43
   4  -5  22  138.17   20.62
  -4  -5 -22  180.57   23.37
  -4   5  22  124.67   19.45
  -4  -5  22  156.33   22.19
   4   5  22  176.92   23.77
  -4   5  22  143.06   21.25
   4  -5  22  160.24   22.68
   4   5  22  150.49   22.16
  -4  -5  23   18.41    8.87
   4   5  23    9.77    3.31
   4  -5  23   26.06    9.53
  -4  -5 -23   37.10   11.01
  -4   5  23   34.13   11.00
   4   5  23   27.51    9.76
   4  -5  23   13.21    6.27
  -4   5  23    7.82    5.56
   4   5  24   52.53   14.51
  -4  -5 -24   43.29   12.91
  -4   5  24   43.28   11.96
   4  -5  24   42.45   10.86
  -4  -5  24   80.89   16.27
   4   5  24   29.50    9.03
   4  -5  24   60.64   15.71
  -4   5  24   58.52   13.65
   4   5  25   31.65   11.34
  -4  -5 -25    4.68    4.43
   4  -5  25   19.45    9.10
  -4   5  25   30.19   10.11
  -4  -5  25   27.86    9.82
   4   5  25   15.98    9.43
   4  -5  25   19.15    8.41
  -4   5  25    9.39    6.70
   4   5  26    8.76    5.29
   4  -5  26   -2.23    5.52
  -4  -5 -26   -4.41    4.24
  -4  -5  26   -6.07    7.92
  -4   5  26   -0.16    5.14
   4   5  26   -4.94    7.02
   4  -5  26    2.46    3.64
  -4   5  26   -3.73    5.71
  -4   5  27    1.09    5.28
   4   5  27    7.14    7.50
   4  -5  27   -5.45    7.95
  -4  -5 -27   -6.13    7.22
  -4  -5  27    6.62    6.49
   4   5  27   -5.28    5.51
   4  -5  27   -3.29    7.87
  -4   5  27   -3.88    6.38
   4   5  28    3.88    3.73
  -4  -5 -28    0.99    4.29
  -4   5  28   16.76    8.03
   4  -5  28   16.03    7.82
  -4  -5  28   14.84    5.76
   4   5  28   15.94    9.19
   4  -5  28    7.64    6.07
  -4   5  28   18.28    6.91
   4   5  29   17.76    7.64
   4  -5  29    8.42    3.74
  -4  -5 -29   11.19    9.25
  -4   5  29   19.38    7.28
  -4  -5  29    3.79    2.98
   4  -5  29   17.53    8.02
  -4   5  29   12.58    6.61
  -4  -6   0  232.20   20.78
   4  -6   0  228.49   18.93
   4  -6   0  276.21   22.18
  -4  -6   0  226.97   14.95
  -4   6   1   42.54    8.47
  -4  -6   1   32.76    7.72
  -4  -6  -1   30.21    8.35
   4  -6   1   36.59    7.75
  -4  -6  -1   30.04    5.12
   4  -6  -1   39.40    7.70
   4  -6   1   36.01    9.12
  -4  -6   1   37.54    5.36
   4  -6  -1   50.26   10.55
  -4  -6   2  141.87   15.98
   4  -6   2  137.95   14.73
  -4  -6  -2  138.72   16.63
   4  -6  -2  141.09   14.59
  -4  -6   2  133.33   10.68
  -4   6   2  141.13   17.56
  -4  -6   2  133.49    7.82
   4  -6   2  168.04   18.00
   4  -6  -2  133.32   15.38
  -4  -6   3    9.14    5.13
   4  -6   3    7.99    4.69
   4  -6   3   10.53    4.23
  -4  -6  -3    1.26    3.76
   4  -6  -3    3.08    2.71
  -4   6   3    4.02    3.29
   4   6   3    0.49    1.70
   4  -6  -3    2.36    3.46
  -4  -6   3    7.44    2.26
  -4  -6   3    3.66    1.73
  -4  -6   4  238.15   21.79
   4  -6  -4  234.00   20.76
   4  -6   4  229.24   19.00
  -4  -6  -4  237.75   21.35
  -4  -6   4  189.19   12.40
   4  -6   4  250.71   21.51
   4  -6  -4  210.53   18.49
  -4   6   4  180.45   19.81
   4   6   4  207.60   16.31
  -4  -6   4  214.65   13.39
   4  -6   5   15.91    3.39
  -4  -6   5   35.63    8.13
   4  -6   5   34.19    7.60
  -4  -6   5   25.91    4.55
  -4  -6  -5   30.27    8.14
  -4   6   5   45.60   10.37
   4  -6  -5   32.39    6.97
  -4  -6   5   34.01    5.82
   4  -6  -5   18.66    6.46
   4   6   5   31.95    6.74
  -4  -6   6  206.95   20.91
   4  -6   6  224.63   19.43
   4  -6   6  223.80   20.76
  -4  -6  -6  206.51   19.08
   4  -6  -6  186.92   19.46
   4  -6  -6  217.57   19.85
  -4   6   6  209.12   21.03
  -4  -6   6  185.10   14.85
  -4  -6   6  190.93   13.55
   4   6   6  230.63    9.42
   4   6   6  208.80   17.69
  -4  -6   7   41.93    9.55
   4  -6   7   27.34    7.00
  -4  -6  -7   48.25    9.09
   4  -6  -7   30.43    7.86
  -4  -6   7   44.33    6.83
  -4   6   7   35.26    7.88
   4  -6  -7   25.83    7.16
  -4  -6   7   44.94    7.56
   4   6   7   31.23    4.43
   4  -6   7   38.25    8.54
   4   6   7   28.00    6.28
  -4  -6   8   -0.48    3.23
   4  -6   8    4.87    3.73
  -4   6   8   -4.08    3.40
  -4  -6  -8   -2.86    3.27
   4  -6  -8    3.40    4.52
   4  -6   8   -0.58    3.98
  -4  -6   8   -3.92    3.18
   4   6   8    0.44    1.17
  -4  -6   8    2.04    3.16
   4   6   8    0.75    2.29
  -4   6   9    9.08    5.14
   4   6   9    7.98    3.68
  -4  -6   9   18.34    6.50
   4  -6   9   12.26    4.52
  -4  -6  -9   13.24    5.39
   4  -6   9   18.88    7.12
   4  -6  -9   19.58    5.97
  -4  -6   9    9.71    2.29
   4   6   9   15.71    4.84
  -4  -6   9    5.73    3.96
   4  -6  10   46.87    9.40
   4   6  10   27.48    7.93
  -4  -6  10   40.36   10.35
   4  -6 -10   17.02    8.18
  -4  -6  10   43.37    8.30
   4  -6  10   36.85    9.35
  -4  -6 -10   43.33    9.39
  -4  -6  10   50.99    9.47
   4   6  10   33.97    6.33
   4   6  11   38.71    8.91
   4  -6  11   34.84    8.62
  -4  -6  11   20.90    7.82
  -4  -6  11   43.04    9.28
   4  -6  11   26.27    7.52
  -4  -6 -11   40.49    9.84
  -4   6  11   18.13    6.25
   4  -6 -11   38.76   10.27
  -4  -6  11   41.39    9.24
  -4   6  11   34.89    9.44
   4   6  11   25.30    6.25
  -4  -6 -12  186.26   20.90
  -4   6  12  223.15   23.29
   4  -6 -12  210.72   21.35
  -4  -6  12  214.54   20.54
   4   6  12  198.77   17.71
  -4   6  12  238.88   23.47
   4  -6  12  222.28   23.30
   4   6  12  192.66   20.29
   4  -6  12  211.23   20.97
  -4  -6  12  174.64   20.55
   4  -6  13   -2.41    3.61
  -4  -6  13   -1.93    3.25
   4   6  13    3.46    2.61
  -4   6  13   -2.64    3.78
   4  -6  13    5.02    4.54
  -4  -6 -13    0.73    2.49
   4  -6 -13   -2.57    2.67
  -4  -6  13    6.21    4.67
  -4   6  13   -1.91    4.16
   4   6  13   -0.24    1.29
   4  -6  14   21.21    4.77
  -4  -6  14   19.96    6.65
   4   6  14   20.30    7.22
   4  -6  14    8.43    5.38
  -4  -6 -14   20.32    5.90
  -4   6  14   20.01    7.50
   4  -6 -14    5.71    3.81
  -4  -6  14   14.40    5.54
   4   6  14   31.34    7.64
  -4   6  14    6.66    4.82
   4  -6  15  321.64   29.36
  -4  -6 -15  373.70   30.58
   4  -6 -15  383.85   31.57
  -4  -6  15  323.31   27.91
   4   6  15  369.27   27.94
  -4   6  15  365.30   31.03
  -4   6  15  340.42   29.49
   4   6  15  405.70   31.75
   4  -6  15  333.40   27.54
  -4  -6  15  347.69   30.58
  -4  -6  16    1.75    4.34
   4  -6  16    2.58    4.55
   4   6  16    6.84    3.74
  -4  -6 -16   -0.72    3.22
  -4   6  16    0.81    2.48
   4  -6 -16    5.03    4.45
  -4  -6  16   -1.74    2.34
   4   6  16   -1.17    2.50
  -4   6  16    8.35    3.50
   4  -6  17   50.91   12.49
   4   6  17   39.28    9.18
  -4  -6 -17   33.03   10.38
  -4   6  17   33.76   10.12
   4  -6 -17   17.30    7.74
  -4  -6  17   27.77    8.02
   4   6  17   17.33    6.68
  -4   6  17   25.92    8.09
  -4  -6  17   22.57    7.65
   4   6  18   64.53   13.87
  -4  -6 -18   34.30   12.15
  -4   6  18   50.33   12.23
   4  -6 -18   24.68    9.93
  -4  -6  18   35.54   10.32
   4   6  18   35.77    9.55
  -4   6  18   50.34   12.82
   4  -6  18   28.27   11.22
   4   6  19   17.68    7.61
  -4  -6 -19    2.81    5.37
  -4   6  19    8.35    4.67
   4  -6 -19   16.26    8.11
  -4  -6  19   -0.27    5.46
   4   6  19    1.43    3.42
  -4   6  19    8.91    5.91
   4  -6  19   13.52    6.57
   4   6  20   11.09    6.44
   4  -6 -20    6.40    6.26
  -4  -6  20    7.54    5.38
  -4  -6 -20   10.27    7.85
  -4   6  20    5.88    5.86
   4   6  20    5.05    5.33
   4  -6  20    1.47    1.87
  -4   6  20    8.17    7.41
   4   6  21   64.95   14.47
  -4  -6 -21   61.19   14.85
  -4   6  21   83.10   15.50
   4  -6 -21   66.43   15.69
  -4  -6  21   58.40   13.25
   4   6  21   64.67   12.53
   4  -6  21   66.79   14.48
  -4   6  21   32.33    9.15
   4  -6  21   52.27   13.41
   4   6  22    6.39    5.06
  -4  -6 -22   13.25    7.26
  -4   6  22   14.83    3.94
   4  -6 -22    8.53    5.17
  -4  -6  22   17.27   10.34
   4  -6  22   20.74    8.18
  -4   6  22   18.80   11.19
   4  -6  22    9.28    5.44
   4   6  23    9.43    2.46
   4  -6 -23   11.30    8.20
  -4  -6 -23    6.70    6.79
  -4   6  23   18.27    9.22
  -4  -6  23   12.20    6.25
   4  -6  23   14.11    7.91
  -4   6  23   11.55    5.56
   4  -6  23   12.86    5.99
   4   6  24   16.06    9.74
  -4   6  24    4.85    3.43
  -4  -6 -24    0.78    2.20
   4  -6 -24    7.23    6.47
   4  -6  24   14.66    9.19
  -4  -6  24   -5.08    5.36
  -4   6  24   -0.10    3.25
   4  -6  24   17.46    6.81
   4   6  25    1.29    6.89
  -4  -6 -25    0.45    3.82
  -4   6  25    0.34    1.97
   4  -6 -25    3.87    6.49
   4  -6  25    7.13    7.23
  -4  -6  25    5.37    5.05
  -4   6  25   -4.20    4.70
   4  -6  25    1.72    2.76
   4   6  26   76.71   16.53
  -4  -6 -26   35.87   11.31
  -4   6  26   77.17   16.71
   4  -6  26   42.52   12.53
   4  -6 -26   71.91   16.87
  -4  -6  26   60.13   15.26
   4  -6  26   51.10   14.94
  -4   6  26   56.31   14.24
   4   6  27   16.93    9.47
  -4  -6 -27   18.59    7.90
   4  -6  27   13.93    8.26
  -4   6  27   23.88    9.38
   4  -6 -27   12.88    6.96
  -4  -6  27    6.73    5.51
   4  -6  27    4.70    1.94
  -4   6  27   18.39    8.70
  -4   6  28   -4.50    5.39
   4   6  28    9.88    8.87
   4  -6  28    0.97    2.59
  -4  -6 -28    2.17    4.49
  -4   6  28    6.00    3.79
   4  -6 -28   -0.63    6.23
  -4  -6  28   -6.25    4.83
   4  -6  28    6.72    6.86
  -4  -7   0   67.95   12.32
   4  -7   0   62.63   11.11
   4  -7   0   64.12   11.09
  -4  -7   0   64.68    9.02
  -4  -7  -1  139.02   13.38
  -4  -7   1  154.12   18.16
  -4  -7  -1  132.41   16.96
   4  -7   1  132.17   15.19
   4  -7  -1  147.99   16.61
  -4   7   1  156.27   18.56
   4  -7   1  132.47   16.91
  -4  -7   1  140.00   12.94
   4  -7  -1  149.72   16.90
  -4  -7   2   30.78    8.78
   4  -7   2   25.35    5.84
   4  -7  -2   27.58    8.49
  -4  -7  -2   20.16    7.35
  -4  -7   2   15.99    3.99
   4  -7  -2   21.80    6.53
  -4   7   2   27.96    8.94
   4  -7   2   19.79    6.12
  -4  -7  -2   25.84    6.03
  -4  -7   3 1510.49   58.73
   4  -7   3 1524.19   53.76
  -4  -7  -3 1476.96   56.04
  -4  -7   3 1507.63   40.74
   4  -7  -3 1356.54   50.31
   4  -7   3 1454.71   54.51
  -4   7   3 1549.45   59.90
   4  -7  -3 1485.03   55.69
   4  -7  -4  392.02   28.89
  -4  -7   4  390.33   21.96
  -4  -7   4  426.87   31.01
   4  -7   4  432.31   28.89
  -4  -7  -4  458.89   31.65
   4  -7  -4  419.97   28.41
   4  -7   4  451.12   29.98
  -4   7   4  434.84   31.08
   4  -7   5   46.16    9.71
  -4  -7   5   51.14   10.70
  -4  -7  -5   52.49   11.12
   4  -7   5   77.31   12.00
   4  -7  -5   45.66    8.72
   4  -7  -5   49.16    9.84
  -4   7   5   55.86   12.22
   4   7   5   51.69    9.11
  -4  -7   5   69.66    9.40
  -4  -7   6  103.19   15.69
   4  -7   6   87.65   12.91
   4  -7   6   93.11   14.51
   4  -7  -6   86.97   13.47
  -4  -7  -6   97.31   14.54
   4  -7  -6   91.86   12.91
  -4   7   6   88.59   14.75
   4   7   6   95.02   12.96
  -4  -7   6   75.80    9.99
  -4  -7   7  265.17   24.72
   4  -7   7  285.86   24.20
   4  -7   7  282.36   24.99
  -4  -7  -7  267.66   24.12
   4  -7  -7  240.38   22.95
   4  -7  -7  284.82   24.05
  -4   7   7  274.97   25.30
   4   7   7  249.25   21.30
  -4  -7   8    1.85    3.93
   4  -7   8    3.10    3.07
   4  -7  -8    4.80    3.78
  -4  -7  -8   -1.87    3.30
   4  -7   8   -0.95    3.32
  -4   7   8   -2.23    3.73
   4  -7  -8    0.10    2.30
   4   7   8    0.14    2.69
  -4  -7   9    7.14    3.37
   4  -7   9   12.39    6.26
   4  -7  -9   -0.74    3.51
  -4   7   9   13.16    7.25
   4  -7   9   13.29    7.16
  -4  -7  -9   10.87    5.55
  -4  -7   9   -0.78    2.69
   4   7   9    5.30    3.70
  -4  -7 -10    9.54    4.76
  -4  -7  10   17.43    7.03
   4  -7  10   12.78    5.27
   4  -7 -10   15.17    3.69
  -4   7  10   12.72    6.02
   4  -7  10   11.69    1.46
  -4  -7  10    7.05    3.46
   4   7  10    8.20    3.38
  -4  -7  11  423.62   31.95
   4  -7  11  412.43   30.15
  -4  -7 -11  404.25   30.82
   4  -7 -11  456.47   32.52
  -4   7  11  416.06   32.78
  -4  -7  11  388.48   27.61
   4   7  11  349.11   27.94
   4  -7  11  449.87   31.72
   4   7  12   12.02    5.32
   4  -7  12    2.35    1.33
  -4  -7  12    5.82    5.95
   4  -7  12    5.32    3.59
  -4  -7 -12    8.36    5.40
  -4   7  12   12.37    3.45
   4  -7 -12    2.30    4.01
  -4  -7  12    9.80    6.03
   4  -7 -13  235.21   24.77
  -4   7  13  286.52   27.71
  -4  -7  13  229.14   23.16
  -4   7  13  245.05   24.41
   4  -7  13  265.94   25.29
   4   7  13  244.46   24.01
   4  -7  13  236.41   23.80
  -4  -7  13  221.17   24.51
   4   7  14   42.35    9.71
   4  -7  14   38.39   10.20
  -4  -7  14   41.65    9.66
   4  -7  14   31.28   10.63
  -4  -7 -14   47.36   11.41
  -4   7  14   36.08    9.38
   4  -7 -14   20.20    7.03
  -4  -7  14   25.19    7.64
  -4   7  14   34.41   10.02
  -4  -7 -15  308.42   29.06
  -4   7  15  374.14   31.99
   4  -7  15  281.78   27.29
  -4  -7  15  311.52   27.43
  -4   7  15  322.85   29.75
   4   7  15  310.74   28.76
   4  -7 -15  283.34   27.90
   4  -7  15  252.89   25.25
  -4  -7  15  308.67   29.36
   4  -7  16   23.81    5.86
  -4  -7  16   19.85    7.49
   4   7  16   25.78    9.30
  -4  -7 -16   37.95   10.59
   4  -7  16   18.17    6.77
  -4   7  16   26.50   10.18
   4  -7 -16   23.26    6.11
  -4  -7  16   28.03    8.62
  -4   7  16    4.27    2.10
  -4  -7  17   14.02    9.08
   4   7  17    6.73    1.86
   4  -7  17   14.10    2.23
  -4  -7 -17   21.34    9.32
  -4   7  17   21.28    8.12
   4  -7 -17   20.91    7.66
  -4  -7  17   17.70    6.43
  -4   7  17   22.47    7.50
   4  -7  17   13.85    6.35
  -4  -7  18   37.42   11.58
   4  -7  18   39.94    9.91
   4   7  18   38.98   10.97
  -4  -7 -18   33.99   10.63
  -4   7  18   41.12   11.93
   4  -7 -18   25.86    7.17
  -4   7  18   45.83   11.24
  -4  -7  18   29.35   10.30
   4   7  19   25.88    6.94
  -4  -7 -19   31.64    9.60
  -4   7  19   44.11   11.09
   4  -7 -19   38.34   12.26
  -4  -7  19   45.77   12.16
  -4   7  19   50.64   12.62
  -4  -7  19   42.00   12.28
   4  -7  19   28.06    9.43
   4   7  20    3.24    5.68
   4  -7 -20    3.42    2.33
  -4  -7 -20    7.42    3.22
  -4   7  20   10.20    5.36
  -4  -7  20    4.42    1.97
  -4   7  20    3.85    1.55
   4  -7  20   12.84    7.40
  -4  -7 -21  181.11   23.58
   4  -7 -21  212.39   26.38
  -4   7  21  179.30   24.85
   4  -7  21  198.86   26.47
  -4  -7  21  158.95   22.24
   4   7  21  157.06   22.55
   4  -7  21  165.23   21.96
   4   7  22   23.67    8.28
  -4  -7 -22   22.15   10.73
  -4   7  22   19.33    7.74
   4  -7 -22   13.58    5.68
  -4  -7  22   10.51    4.19
   4  -7  22   18.29    7.52
  -4   7  22   23.60    7.92
   4  -7  22   16.07    6.25
   4   7  23   26.55    9.20
  -4  -7 -23    9.43    9.14
   4  -7 -23   21.08   10.29
  -4  -7  23   30.16   11.49
   4  -7  23    2.50    3.26
  -4   7  23   13.40    8.31
  -4   7  23    8.91    5.95
   4  -7  23   20.48   11.15
   4   7  24   27.89   10.19
  -4  -7 -24   48.55   15.08
  -4   7  24   47.01   13.55
   4  -7 -24   18.44    7.07
  -4  -7  24   37.96   12.03
   4  -7  24   49.80   13.51
  -4   7  24   26.25    8.85
   4  -7  24   52.94   13.60
   4   7  25   56.83   14.87
  -4  -7 -25   64.95   15.38
  -4   7  25   60.78   15.02
   4  -7 -25   69.61   15.59
   4  -7  25   62.36   15.00
  -4  -7  25   73.08   16.64
   4  -7  25   93.61   19.06
  -4   7  25   85.13   17.33
   4   7  26    3.64    5.55
  -4  -7 -26   -6.82    7.02
  -4   7  26   -4.02    6.96
   4  -7 -26    2.60    3.40
   4  -7  26    0.03    2.17
  -4  -7  26   -3.06    5.20
  -4   7  26    2.38    8.23
   4  -7  26   -5.25    5.85
   4   7  27    1.46    3.11
   4  -7  27    3.03    6.42
  -4  -7 -27   -3.02    6.37
  -4   7  27   -7.19    8.23
   4  -7 -27   12.74    8.75
  -4  -7  27    5.21    6.28
  -4   7  27   16.08    6.49
   4  -7  27    2.42    4.67
  -4  -8   0  189.35   21.09
   4  -8   0  198.29   20.67
   4  -8   0  164.37   19.52
  -4  -8   0  183.62   16.56
   4  -8  -1    5.36    2.01
  -4  -8   1    6.91    1.74
  -4  -8  -1    8.65    5.73
   4  -8   1   10.10    5.07
   4  -8  -1    5.19    3.70
  -4  -8  -1    9.20    3.55
   4  -8   1   14.08    7.01
  -4  -8   1   13.66    4.77
  -4  -8  -2    0.67    3.11
   4  -8  -2   -1.23    2.78
  -4  -8   2    2.61    5.57
   4  -8   2    2.28    2.59
  -4  -8  -2   -0.20    2.04
  -4  -8   2    4.80    3.22
   4  -8  -2   -0.49    4.00
  -4   8   2   -1.51    1.50
   4  -8   2    1.28    3.35
  -4  -8   3  268.14   25.63
   4  -8   3  260.64   23.72
  -4  -8  -3  246.26   24.35
   4  -8  -3  284.46   24.44
  -4  -8  -3  265.56   20.98
   4  -8   3  310.42   26.26
  -4   8   3  268.10   26.34
   4  -8  -3  270.27   24.87
  -4  -8   4   88.75   14.68
   4  -8   4  106.17   15.59
  -4  -8  -4   75.07   11.31
  -4  -8  -4  102.64   15.61
   4  -8  -4   89.80   13.83
   4  -8   4   62.61   12.88
  -4   8   4   65.01   12.13
   4  -8  -4   75.12   13.18
   4  -8  -5   -0.46    2.40
   4  -8   5    1.29    3.95
  -4  -8   5    6.35    5.96
   4  -8   5    1.02    2.58
  -4  -8  -5    8.44    6.83
   4  -8  -5   -0.29    4.56
  -4   8   5    2.34    5.28
   4  -8   6   60.14   11.75
  -4  -8   6   57.56   12.09
   4  -8   6   66.65   12.91
  -4  -8  -6   81.69   14.77
   4  -8  -6   55.66   12.84
   4  -8  -6   52.48   11.06
  -4   8   6   74.07   13.69
   4   8   6   51.33   10.12
  -4  -8   7  155.45   18.99
   4  -8   7  149.51   18.55
   4  -8   7  186.20   20.90
   4  -8  -7  190.98   20.78
  -4  -8  -7  129.26   17.70
   4  -8  -7  155.15   19.06
  -4   8   7  141.97   19.11
   4   8   7  179.09   18.49
  -4  -8   8  110.60   16.60
   4  -8   8  102.71   14.62
   4  -8   8  128.58   17.24
  -4  -8  -8  128.13   18.46
   4  -8  -8  107.91   16.25
   4  -8  -8   96.43   15.43
  -4   8   8  110.95   16.94
   4   8   8  122.91   15.54
   4  -8  -9   18.96    6.23
  -4  -8   9   40.36   12.05
   4  -8   9   31.81    9.47
  -4  -8  -9   13.93    8.92
   4  -8  -9   35.17    9.73
  -4   8   9   27.72    8.41
   4  -8   9   44.28   10.33
   4   8   9   26.26    8.23
  -4  -8  10    3.09    4.32
   4  -8  10    6.39    5.15
  -4  -8 -10    8.45    4.21
   4  -8  10   15.29    6.28
  -4   8  10    1.64    3.99
   4  -8 -10   13.35    7.03
   4  -8 -10   11.31    4.89
   4   8  10    9.02    5.06
  -4  -8  11   23.92    9.44
   4  -8  11   24.22    8.25
   4  -8  11   20.07    6.79
  -4  -8 -11   13.58    5.74
   4  -8 -11   35.50    9.35
  -4   8  11   42.40   11.11
   4   8  11   32.24    8.41
  -4  -8  12   13.45    6.99
   4  -8  12   11.96    5.24
   4  -8  12   16.99    8.43
  -4  -8 -12    5.23    2.91
  -4   8  12   12.70    4.91
   4  -8 -12   17.88    8.44
   4   8  12   18.22    7.06
   4  -8  13    8.11    5.57
  -4  -8  13   13.59    6.80
   4  -8  13    9.78    3.04
  -4  -8 -13   13.59    5.98
  -4   8  13    7.24    7.40
   4  -8 -13    6.75    2.21
   4   8  13   21.09    6.88
   4  -8  14    8.50    5.56
  -4  -8  14   11.00    5.26
   4  -8  14    5.57    2.73
  -4  -8 -14    1.23    2.68
  -4   8  14   -0.29    1.61
   4  -8 -14    8.31    8.83
   4   8  14   10.38    4.51
   4  -8  15   22.51    6.32
  -4  -8  15   45.25   12.15
   4  -8  15   40.97    9.00
  -4   8  15   27.56    9.58
   4  -8 -15   25.54   10.35
  -4   8  15   27.07    7.54
  -4  -8 -15   43.41   11.61
   4   8  15   29.62   10.22
   4  -8  16   26.36    9.01
  -4  -8  16    7.35    6.44
   4  -8  16    0.40    2.50
  -4  -8 -16   24.61    9.06
  -4   8  16   10.85    8.25
   4  -8 -16    9.02    5.28
  -4   8  16   25.30    9.82
   4   8  16   13.60    7.11
   4   8  17   63.44   13.48
   4  -8  17   89.12   15.55
  -4  -8  17   64.63   14.08
   4  -8 -17   99.28   18.16
  -4  -8 -17   68.68   14.55
   4  -8  17   96.83   16.90
  -4   8  17   87.65   17.32
  -4   8  17   88.17   16.06
   4   8  18   18.97    7.51
   4  -8  18    7.63    5.47
  -4  -8  18    4.99    3.37
  -4   8  18   14.15    8.70
   4  -8  18   10.71    8.88
  -4  -8 -18    5.71    2.55
   4  -8 -18   10.14    7.45
  -4   8  18    9.27    6.12
   4   8  19   13.65    5.37
  -4  -8  19   26.06    7.65
   4  -8  19   18.40    8.20
  -4  -8 -19   17.24    9.32
   4  -8 -19   26.52    8.49
  -4   8  19   16.14    7.92
  -4   8  19   31.04   10.96
   4   8  20   -0.51    3.99
  -4  -8 -20    3.72    2.08
  -4   8  20    8.18    6.78
  -4  -8  20   -4.31    3.74
  -4   8  20    2.18    1.99
   4  -8 -20   -3.68    3.33
  -4  -8  20   -1.65    3.63
   4  -8  20    3.12    4.56
   4  -8  21   73.34   18.77
  -4   8  21  125.85   20.54
  -4  -8 -21   66.70   16.45
   4  -8 -21   94.34   18.22
  -4   8  21   87.10   16.76
   4   8  21   79.30   16.96
   4  -8  21   97.16   18.30
   4   8  22    6.99    4.68
  -4  -8 -22   -0.35    4.26
  -4   8  22    6.83    3.86
   4  -8 -22    5.14    2.95
  -4   8  22   10.59    7.12
   4  -8  22    6.44    6.40
   4  -8  22   -1.11    3.31
   4   8  23   17.78    6.74
  -4  -8 -23   17.87   10.27
  -4   8  23   27.86   11.73
   4  -8 -23    6.95    6.12
  -4  -8  23   -9.50    4.92
  -4   8  23   19.18    7.91
   4  -8  23   16.56    8.41
   4  -8  23   15.32    6.60
   4   8  24    3.35    3.15
  -4   8  24    9.03    4.02
  -4  -8 -24   -8.11    7.63
  -4  -8  24   -5.56    5.41
   4  -8  24    4.48    5.01
  -4   8  24    2.04    4.67
   4  -8  24    6.64    4.40
   4   8  25   56.16   15.76
  -4  -8 -25   36.53   10.84
  -4   8  25   67.78   17.06
   4  -8 -25   78.30   17.28
   4  -8  25   31.79   10.52
  -4   8  25   54.71   13.06
   4  -8  25   35.88   12.29
   4   8  26   10.10    8.69
  -4  -8 -26   11.55    8.27
  -4   8  26   -6.02    5.86
   4  -8 -26    0.26    4.68
   4  -8  26    3.78    4.60
  -4  -8  26   -8.55    5.67
  -4   8  26   -2.08    3.62
   4  -8  26    3.82    7.69
  -4  -9   0  562.54   38.21
   4  -9   0  584.86   37.89
   4  -9   0  623.74   38.59
  -4  -9   1  224.47   24.52
  -4  -9  -1  175.29   21.83
   4  -9   1  254.93   24.79
   4  -9  -1  239.99   24.28
   4  -9   1  195.46   21.79
   4  -9  -1  249.86   23.80
  -4  -9  -1  235.05   21.43
  -4  -9   2  253.60   25.67
   4  -9   2  196.63   21.69
  -4  -9  -2  219.71   23.96
   4  -9  -2  227.27   23.68
   4  -9   2  272.73   26.17
   4  -9  -2  243.06   24.00
  -4  -9   3  401.48   32.87
  -4  -9  -3  336.59   25.69
   4  -9   3  421.23   32.02
  -4  -9  -3  441.79   33.64
   4  -9  -3  390.16   30.54
   4  -9   3  385.10   30.40
  -4   9   3  398.93   32.46
   4  -9  -3  413.55   31.23
  -4  -9   4  458.13   35.52
   4  -9   4  455.39   34.52
  -4  -9  -4  474.71   35.18
   4  -9  -4  483.10   33.57
  -4  -9  -4  408.64   28.67
  -4   9   4  474.52   36.06
   4  -9   4  440.62   32.32
   4  -9  -4  463.03   33.95
   4  -9   5    2.72    2.28
  -4  -9   5    2.81    4.05
   4  -9   5    1.08    2.63
  -4  -9  -5   -0.17    3.24
   4  -9  -5   -1.19    3.86
  -4  -9  -5    0.79    2.18
  -4   9   5   -1.22    4.37
   4  -9  -5   -1.20    3.40
  -4  -9   6  165.41   21.21
   4  -9  -6  129.43   19.21
   4  -9   6  161.42   19.83
  -4   9   6  181.16   21.95
   4  -9   6  175.07   20.90
  -4  -9  -6  121.56   18.47
   4  -9  -6  147.49   19.46
  -4  -9   7  589.34   40.11
  -4   9   7  597.14   40.91
   4  -9   7  602.94   39.29
   4  -9   7  541.42   37.07
   4  -9  -7  564.97   37.99
  -4  -9  -7  577.02   39.83
   4  -9  -7  642.16   40.29
   4  -9   8   68.69   13.62
  -4  -9   8   58.96   12.45
   4  -9  -8   74.78   15.11
  -4  -9  -8   41.80   10.62
  -4   9   8   63.30   12.20
   4  -9  -8   60.97   11.17
   4  -9   8   43.17   10.45
   4   9   8   52.50   11.26
   4  -9   9   79.52   14.95
  -4  -9   9   68.14   13.56
  -4  -9  -9   83.78   15.33
   4  -9  -9   76.90   14.52
   4  -9   9   37.16   11.17
   4  -9  -9   61.74   12.28
  -4   9   9   51.69   12.74
   4   9   9   62.85   12.75
   4  -9 -10   19.22    8.48
  -4  -9  10    6.37    3.62
   4  -9  10    6.76    3.50
  -4  -9 -10   19.86    9.56
   4  -9  10   12.19    5.66
  -4   9  10    1.85    2.98
   4  -9 -10   10.75    4.17
   4   9  10   13.29    6.32
   4  -9  11   74.08   14.72
  -4  -9  11   73.80   13.90
  -4  -9 -11   69.51   14.47
  -4   9  11  114.75   17.87
   4  -9 -11   69.72   13.31
   4   9  11   74.48   13.71
   4  -9 -11   69.56   12.87
   4  -9  11   68.68   13.50
  -4  -9  12   12.61    7.02
   4  -9  12    4.70    2.94
   4  -9  12   10.88    7.29
  -4  -9 -12   13.92    7.45
   4  -9 -12    4.28    4.66
   4  -9 -12   17.89    8.39
  -4   9  12    1.45    4.83
   4   9  12   12.18    3.59
   4  -9  13    8.37    4.37
  -4  -9  13    8.93    7.38
   4  -9  13   22.36    7.44
   4  -9 -13   16.38    6.44
  -4   9  13   16.13    8.70
  -4  -9 -13    0.75    6.86
   4   9  13    5.61    5.24
   4  -9  14   43.22   11.76
  -4  -9  14   64.17   13.70
   4  -9 -14   79.52   15.68
  -4  -9 -14   61.40   14.31
  -4   9  14   58.95   13.30
   4  -9  14   70.45   15.01
   4   9  14   46.28   11.07
  -4  -9 -15  114.83   18.67
   4  -9 -15  107.10   17.46
  -4   9  15  112.10   18.41
   4  -9  15  134.44   19.95
   4   9  15   90.00   16.16
   4  -9  15  113.59   18.19
  -4  -9  15   87.58   16.04
   4  -9  16    2.42    2.39
  -4  -9  16   11.51    6.96
   4  -9  16    9.22    7.00
  -4  -9 -16    0.42    3.66
  -4   9  16   -0.84    3.80
   4  -9 -16    0.94    5.60
   4   9  16   -1.67    4.75
  -4  -9 -17  131.48   20.33
   4  -9 -17  115.89   18.80
  -4   9  17  139.24   22.08
   4  -9  17  111.67   18.48
  -4   9  17  119.30   20.12
   4   9  17   89.99   15.74
   4  -9  17  121.51   19.30
  -4  -9  17  117.50   19.89
   4  -9  18   76.39   16.16
  -4  -9  18   48.38   13.97
   4  -9  18   54.78   13.65
  -4  -9 -18   53.94   12.22
  -4   9  18   39.38   11.35
   4  -9 -18   40.34   11.50
  -4   9  18   41.48   10.65
   4   9  18   43.04   11.33
   4  -9  19    0.10    2.01
  -4  -9  19   -4.55    4.87
   4  -9  19    1.91    3.27
   4  -9 -19   -4.40    7.22
  -4  -9 -19    0.24    2.73
  -4   9  19   -4.68    3.14
  -4   9  19    4.25    5.61
   4   9  19   -4.25    5.41
  -4  -9  20    1.50    3.15
   4  -9  20    5.77    4.50
  -4  -9 -20   -0.30    3.13
  -4   9  20    3.35    3.05
   4  -9 -20   -0.78    4.12
  -4   9  20    2.08    4.28
   4   9  20   -3.99    4.92
  -4  -9 -21   84.09   18.62
  -4   9  21   48.54   12.53
   4  -9 -21   72.54   16.40
  -4   9  21   48.24   13.92
   4  -9  21   86.99   17.73
  -4  -9  21   93.97   18.62
   4   9  21   58.19   13.80
   4  -9  21   22.29    8.22
  -4  -9 -22   63.57   15.06
  -4   9  22   53.32   13.71
   4  -9 -22   33.76   11.29
  -4   9  22   81.86   16.21
   4  -9  22   68.68   15.84
   4  -9  22   52.57   13.70
   4   9  22   62.38   15.03
  -4   9  23    7.00    3.32
   4  -9 -23   14.91    7.91
  -4  -9 -23   11.26    8.82
  -4   9  23   11.50    7.93
   4  -9  23    1.45    3.83
   4  -9  23    0.60    5.31
   4   9  23    8.94    6.47
  -4  -9 -24   11.23    6.06
  -4   9  24   26.52   11.65
   4  -9 -24   15.25    8.25
  -4   9  24   -4.69    6.50
   4  -9  24   12.91    6.75
   4  -9  24    5.04    5.74
   4   9  24    7.11    3.63
  -4  -9 -25   -0.87    4.71
  -4   9  25    5.52    2.78
   4  -9 -25   17.76    7.86
   4  -9  25   -3.61    5.69
  -4   9  25    5.82    4.53
   4  -9  25    6.35    7.28
   4   9  25    4.79    5.37
  -4 -10   0   40.95   11.23
   4 -10   0   45.34   11.32
   4 -10   0   29.19   10.25
  -4 -10   1   26.48    9.22
  -4 -10  -1   20.04    9.14
   4 -10   1    8.20    3.92
   4 -10  -1    6.58    4.57
   4 -10   1    7.84    4.62
   4 -10  -1    3.25    5.98
   4 -10  -2    9.39    5.71
   4 -10   2   20.32    8.63
  -4 -10   2    4.60    2.99
   4 -10   2    5.72    1.69
  -4 -10  -2   10.11    5.91
   4 -10  -2    5.16    5.22
   4 -10  -3   -1.61    4.10
  -4 -10   3   -0.93    4.02
   4 -10   3    0.94    5.99
  -4 -10  -3   -1.24    1.89
   4 -10   3    3.56    2.93
   4 -10  -3    0.25    4.48
   4 -10   4   -2.41    5.72
  -4 -10   4    6.96    5.31
   4 -10   4    3.42    6.07
  -4 -10  -4    8.33    6.49
   4 -10  -4   -8.32    7.93
   4 -10  -4    0.75    1.54
  -4  10   4    0.83    5.80
   4 -10  -5   -6.98    5.99
   4 -10   5    0.79    4.25
  -4 -10   5    0.79    4.29
   4 -10   5   -3.98    5.03
  -4 -10  -5    1.81    3.66
   4 -10  -5   -2.66    2.16
  -4  10   5    2.17    3.86
  -4 -10  -5    2.92    3.32
  -4 -10   6  167.68   23.07
   4 -10   6  161.74   21.73
  -4 -10  -6  110.27   17.89
   4 -10   6  135.36   18.83
   4 -10  -6  161.18   20.56
  -4  10   6  139.92   20.81
  -4 -10  -6  154.66   19.37
   4 -10  -6  173.53   21.21
   4 -10  -7    3.93    4.56
  -4 -10   7    2.47    3.10
   4 -10   7    4.90    3.89
  -4 -10  -7   -1.98    2.82
  -4  10   7   13.87    8.10
   4 -10  -7    5.71    6.24
   4 -10   7    1.36    4.38
  -4 -10   8  182.87   22.99
   4 -10   8  181.94   22.82
   4 -10   8  195.56   21.79
   4 -10  -8  150.35   20.56
  -4 -10  -8  170.85   21.58
   4 -10  -8  160.00   21.22
  -4  10   8  145.67   20.82
   4 -10  -9   -0.46    2.50
  -4 -10   9    2.02    2.89
   4 -10   9   -0.39    4.03
  -4 -10  -9   -4.24    1.72
  -4  10   9   -0.42    3.44
   4 -10  -9   -0.58    1.49
   4 -10   9    5.47    6.13
   4 -10 -10   -7.34    4.11
  -4 -10  10   -3.66    4.07
   4 -10  10    0.73    3.54
   4  10  10    4.27    5.01
  -4 -10 -10    2.89    2.89
   4 -10 -10    9.13    7.18
  -4  10  10    6.35    4.43
   4 -10  10   -3.70    4.62
   4 -10  11  105.35   17.74
  -4 -10  11   75.03   14.68
  -4 -10 -11   98.66   16.74
   4 -10 -11   76.25   15.01
  -4  10  11  111.81   18.01
   4 -10 -11   86.74   15.19
   4  10  11   83.93   15.68
   4 -10  11   70.43   14.67
  -4 -10  12    4.85    1.69
   4 -10  12   14.07    7.61
  -4  10  12   21.03   10.59
   4 -10 -12    9.74    7.98
  -4 -10 -12   23.23    8.66
   4  10  12    5.63    4.11
   4 -10  12   12.02    4.55
   4 -10 -12   11.81    6.41
   4 -10 -13   13.58    6.82
  -4 -10  13   10.22    5.12
   4 -10  13    2.48    3.45
   4 -10 -13   -0.52    5.02
   4 -10  13    1.62    2.93
  -4 -10 -13   -1.03    5.29
  -4  10  13    7.97    3.92
   4  10  13   -0.25    4.55
  -4 -10 -14    6.63    6.17
   4 -10  14    6.76    3.41
  -4 -10  14   12.04    7.61
   4 -10 -14    9.13    4.88
   4 -10  14    6.41    3.32
  -4  10  14   -0.10    5.64
   4 -10 -14   10.26    8.46
   4  10  14    8.24    6.21
   4 -10  15    3.09    3.61
  -4 -10  15    3.86    6.10
   4 -10  15   -4.08    5.19
  -4  10  15    6.02    3.90
  -4 -10 -15   -1.13    3.49
   4  10  15    2.08    3.85
   4 -10 -15   -6.26    4.11
   4 -10  16   16.31    8.14
  -4 -10  16   10.29    6.09
   4 -10  16   18.90    7.22
  -4 -10 -16   22.40    8.29
  -4  10  16   14.68    8.97
   4  10  16    9.99    8.59
   4 -10 -16   19.67    7.64
   4 -10  17    5.28    3.33
  -4 -10  17    0.43    2.42
   4 -10  17    4.90    2.90
  -4  10  17   12.75    8.66
  -4 -10 -17    3.67    5.09
   4 -10 -17    8.11    6.85
   4  10  17    5.96    6.72
   4 -10  18   12.23    9.09
  -4 -10  18   27.46    9.14
   4 -10  18   33.18    9.72
  -4 -10 -18   28.02   10.57
   4 -10 -18   40.00   11.95
  -4  10  18   31.84   10.08
   4  10  18   12.11    7.42
   4 -10  19   13.78    6.56
  -4 -10  19    1.11    4.56
   4 -10  19   19.86    9.29
  -4  10  19   25.47    8.65
   4 -10 -19    0.05    2.09
  -4 -10 -19   10.58    4.25
   4  10  19    9.97    7.91
   4 -10  20   13.50    8.13
  -4 -10  20    9.89    6.00
   4 -10  20   15.00    9.04
  -4 -10 -20   -1.89    4.28
  -4  10  20    5.38    4.89
   4 -10 -20   16.16    7.90
   4  10  20   15.89    8.58
   4 -10  21   -8.55    6.42
  -4 -10  21    0.67    3.50
  -4 -10 -21    2.35    3.68
   4 -10 -21    4.54    6.85
  -4  10  21   -4.93    6.48
  -4  10  21    2.71    2.28
   4  10  21   12.15    6.87
   4 -10  21   12.27    6.80
   4 -10 -22   50.18   14.38
  -4  10  22   56.74   12.95
  -4 -10 -22   39.86   12.90
  -4  10  22   39.98   11.74
   4  10  22   67.78   15.99
   4 -10  22   60.05   14.69
   4 -10  22   26.44   13.89
  -4 -10  22   88.78   17.96
  -4 -10 -23    0.71    5.05
   4 -10 -23    6.47    6.12
  -4  10  23    4.44    7.88
  -4  10  23    5.02    4.65
   4 -10  23    0.78    3.41
   4  10  23    2.33    2.82
   4 -10  23    1.52    4.48
   4 -10 -24    3.38    2.11
  -4  10  24    0.93    5.43
  -4  10  24    2.92    4.77
  -4 -10 -24    4.15    6.79
   4 -10  24   10.95    7.91
   4  10  24    5.23    3.48
   4 -10  24    6.83    4.41
  -4 -11   0  283.07   29.33
   4 -11   0  265.41   27.74
   4 -11   0  262.19   26.71
  -4 -11   1   23.62    7.30
  -4 -11  -1   19.87    7.89
   4 -11   1   32.57   10.82
   4 -11  -1   19.40    6.97
   4 -11   1   35.49   10.29
   4 -11  -1   40.90   11.15
  -4 -11   2    3.66    3.40
   4 -11   2    5.29    3.14
  -4 -11  -2   -0.22    5.74
   4 -11  -2    6.48    4.29
   4 -11   2    7.81    4.21
   4 -11  -2    1.71    2.71
   4 -11  -3   52.18   10.93
  -4 -11   3   37.76   12.05
   4 -11   3   30.76    9.35
   4 -11   3   45.26   12.00
  -4 -11  -3   17.26    6.65
   4 -11  -3   31.86    9.45
  -4 -11   4  307.82   32.13
   4 -11   4  368.04   34.23
  -4 -11  -4  373.89   33.87
   4 -11  -4  356.08   32.62
   4 -11   4  296.22   28.38
   4 -11  -4  335.09   30.89
  -4 -11   5   61.98   15.05
   4 -11   5   80.96   15.79
   4 -11   5   77.76   14.47
  -4 -11  -5   61.18   13.22
   4 -11  -5   57.26   12.93
   4 -11  -5   71.85   14.46
  -4 -11   6  280.73   30.25
   4 -11   6  274.08   29.38
  -4 -11  -6  229.16   27.32
   4 -11   6  245.28   25.95
   4 -11  -6  224.96   25.33
   4 -11  -6  289.95   29.37
  -4  11   6  246.67   28.41
  -4 -11   7    8.15    2.74
   4 -11   7   14.83    7.82
  -4  11   7    9.24    6.62
  -4 -11  -7    4.00    4.78
   4 -11  -7   14.45    5.65
   4 -11  -7   16.65    6.40
   4 -11   7    6.53    4.96
   4 -11  -8   16.22    8.63
  -4  11   8    6.38    5.90
  -4 -11   8    3.51    2.59
   4 -11   8    2.75    4.25
  -4 -11  -8   11.99    6.31
   4 -11  -8    0.51    1.65
   4 -11   8    2.35    4.86
  -4 -11   9   31.01   10.85
   4 -11   9   19.52    7.50
   4 -11  -9   12.91    5.59
   4 -11  -9   16.82    7.54
  -4 -11  -9   20.48    8.85
  -4  11   9   22.16   10.00
   4 -11   9   31.31   10.17
  -4 -11  10  194.66   26.23
   4 -11  10  194.32   24.48
  -4  11  10  193.47   25.47
   4 -11 -10  192.41   24.11
  -4 -11 -10  159.09   22.71
   4 -11 -10  192.61   24.37
   4 -11  10  188.94   24.41
  -4 -11  11   -1.38    2.67
   4 -11  11   -0.02    5.07
  -4 -11 -11   -1.66    3.21
  -4  11  11   -2.68    4.00
   4 -11  11    9.06    5.78
   4 -11 -11   -3.80    6.86
   4 -11 -11    1.12    6.55
   4 -11 -12   16.30    7.95
  -4 -11  12   33.11   11.28
   4 -11  12   31.13   10.64
   4 -11  12   22.01    7.22
  -4 -11 -12   21.30    9.90
  -4  11  12   14.87    5.50
   4  11  12   22.44    7.62
   4 -11 -12    9.82    6.34
   4 -11 -13   22.33    9.11
  -4 -11  13    6.24    5.02
   4 -11  13   12.33    5.16
   4 -11  13   16.54    7.75
  -4 -11 -13   14.35    6.45
   4 -11 -13   12.49    8.12
  -4  11  13    7.03    5.65
   4  11  13    9.95    7.26
  -4 -11  14   81.06   15.66
   4 -11  14   71.56   14.87
   4 -11 -14   76.06   15.23
  -4 -11 -14   93.88   18.73
   4 -11 -14   85.51   16.29
  -4  11  14  110.03   19.33
   4 -11  14   90.83   15.93
   4  11  14   65.38   14.87
   4 -11  15   -2.06    5.08
  -4 -11  15   -3.43    5.54
   4 -11  15   -3.39    6.59
  -4 -11 -15    0.18    2.79
   4 -11 -15    0.74    5.81
  -4  11  15   10.86    5.61
   4 -11 -15    1.43    4.80
   4  11  15    2.78    3.02
   4 -11  16   -4.85    5.31
  -4 -11  16    3.95    5.92
   4 -11  16    0.17    2.89
  -4 -11 -16    5.06    7.61
   4 -11 -16    2.59    4.11
  -4  11  16   -3.40    6.10
   4 -11 -16   -3.14    2.35
   4  11  16   -0.18    4.34
  -4 -11 -17   -3.83    4.37
   4 -11  17   -1.44    6.55
  -4 -11  17    5.46    6.33
   4 -11  17    0.68    5.14
   4 -11 -17   -1.10    3.66
  -4  11  17   -0.71    4.65
   4  11  17   -1.30    4.66
   4 -11  18   11.36    8.04
  -4 -11  18   19.40    8.03
   4 -11  18   16.73    7.77
   4 -11 -18   22.03    8.17
  -4  11  18   14.23    6.60
  -4 -11 -18   25.76   10.18
   4  11  18   13.74    5.48
   4 -11  19    6.64    6.95
  -4 -11  19   -1.31    2.79
  -4  11  19   -2.19    6.19
   4 -11  19   -5.83    4.16
  -4 -11 -19    8.51    4.77
   4 -11 -19    1.11    3.46
   4  11  19   -3.68    6.64
   4 -11  20    9.56    6.07
  -4 -11  20    2.32    4.14
   4 -11  20   15.98    8.87
  -4 -11 -20    3.83    2.86
   4 -11 -20    8.93    7.99
  -4  11  20    5.89    4.07
   4  11  20   -1.71    4.78
   4 -11  20    8.46    7.16
  -4 -11  21    1.60    4.70
   4 -11  21   11.81    6.08
   4 -11 -21   -7.57    5.78
  -4  11  21    9.33    7.34
  -4 -11 -21    0.74    4.74
   4  11  21   10.24    7.55
   4 -11  21    0.77    5.76
   4 -11  21    9.23    6.64
  -4 -11  22    0.58    2.97
  -4 -11 -22    1.62    3.02
   4 -11 -22    7.52    4.58
  -4  11  22   -1.02    3.73
   4  11  22    7.63    5.07
   4 -11  22   14.39    8.60
   4 -11  22   22.15    7.39
   4 -12   0   34.38    9.78
  -4 -12   0   21.55    7.88
   4 -12   0   33.76   10.64
  -4 -12   1    2.77    4.46
  -4 -12  -1   -5.87    4.71
   4 -12   1    8.06    8.54
   4 -12  -1    6.05    5.38
   4 -12   1    3.57    7.27
   4 -12  -1   -3.65    4.38
  -4 -12   2   14.55    8.15
   4 -12   2   -1.57    4.28
  -4 -12  -2   -3.10    5.34
   4 -12  -2    6.88    4.45
   4 -12   2    9.67    5.12
   4 -12  -2    7.98    6.28
  -4 -12   3   41.75   12.26
   4 -12   3   49.76   11.04
   4 -12   3   72.06   16.36
  -4 -12  -3   38.65    9.18
   4 -12  -3   75.35   15.94
   4 -12  -3   28.56    9.76
   4 -12  -4    1.51    3.58
   4 -12   4    8.28    7.03
  -4 -12   4    0.21    3.61
   4 -12   4   -1.58    6.27
  -4 -12  -4    1.79    3.36
   4 -12  -4    2.25    4.72
   4 -12   5   15.47    5.82
  -4 -12   5    2.79    5.93
   4 -12   5    1.54    2.40
   4 -12  -5    4.05    3.21
  -4 -12  -5   -1.85    3.08
   4 -12  -5   -2.26    7.27
  -4 -12   6   34.23   12.14
   4 -12   6   40.38   11.86
  -4 -12  -6   37.84   10.72
   4 -12  -6   21.22    7.91
   4 -12  -6   18.03    5.25
   4 -12   6   23.19    9.33
  -4 -12   7   18.52    8.07
  -4  12   7    8.93    3.85
   4 -12   7    7.37    9.32
  -4 -12  -7    8.99    6.46
   4 -12  -7    9.43    3.95
   4 -12  -7   15.96    7.14
   4 -12   7   17.26    9.17
  -4 -12   8    4.75    2.88
   4 -12   8    2.20    3.02
  -4 -12  -8    4.86    3.79
   4 -12  -8   12.58    6.05
  -4  12   8   22.57    7.89
   4 -12  -8   24.32    8.74
   4 -12   8   16.95    5.99
  -4  12   9    2.44    7.25
  -4 -12   9   11.90    9.34
   4 -12   9   26.73   10.83
  -4 -12  -9   13.91    2.75
   4 -12  -9   22.01    8.78
   4 -12   9   30.20    9.74
   4 -12  -9   21.07    7.81
   4 -12 -10   17.21    6.88
  -4 -12  10    6.20    5.69
   4 -12  10    5.13    4.95
  -4 -12 -10   10.37    5.66
   4 -12 -10   28.73   10.23
  -4  12  10   15.73    5.88
   4 -12  10    8.84    5.14
  -4 -12  11    8.43    2.40
   4 -12  11   22.39   10.10
   4 -12 -11   27.16    9.68
  -4 -12 -11   12.77    6.61
  -4  12  11   27.39   11.24
   4 -12 -11   16.39   10.30
   4 -12  11   27.17   10.38
  -4 -12  12   17.39    8.47
   4 -12  12    5.96    8.05
  -4 -12 -12    1.01    4.32
   4 -12 -12    9.58    6.37
   4 -12  12    5.93    5.67
  -4  12  12    6.26    7.59
   4 -12 -12    0.40    3.17
  -4  12  13   -3.18    7.23
  -4 -12  13    5.63    5.75
   4 -12  13   11.26    7.75
   4 -12  13    5.67    4.96
  -4 -12 -13   -9.67    8.18
   4 -12 -13   -2.32    1.95
   4 -12 -13   -3.28    6.52
   4 -12 -14   21.71    6.66
   4 -12 -14   19.17    7.33
  -4 -12  14   31.39   10.99
   4 -12  14   33.88   11.90
   4 -12  14   20.54    7.50
  -4 -12 -14   41.03   12.97
  -4  12  14   27.62   10.48
   4 -12  15    0.52    6.32
  -4 -12  15   -4.12    5.14
   4 -12  15   -0.56    2.65
   4 -12 -15   -1.33    3.56
  -4 -12 -15    3.43    5.08
   4 -12 -15    5.54    6.95
   4  12  15   22.85   18.35
  -4  12  15    6.67    7.09
   4 -12  16    7.75    7.72
  -4 -12  16   -0.08    4.11
   4 -12  16   -2.97    6.92
   4 -12 -16    9.41    7.25
  -4 -12 -16   -4.20    5.27
  -4  12  16   -0.21    6.28
   4 -12 -16   -0.26    3.23
   4  12  16    1.01    3.30
   4 -12  17   13.54    8.18
  -4 -12  17   -2.62    5.86
   4 -12 -17    2.46    2.81
  -4 -12 -17   -6.35    5.39
   4 -12  17   -5.18    3.77
   4 -12 -17   -4.65    4.26
  -4  12  17   -4.48    8.99
   4  12  17    2.71    2.72
   4 -12  18    8.98    6.88
  -4 -12  18    5.35    2.29
   4 -12  18    8.34    5.59
  -4 -12 -18   12.05    4.94
   4 -12 -18   16.48    8.83
  -4  12  18   20.09   10.33
   4 -12 -18   19.86    8.79
   4  12  18   12.20    4.86
   4 -12  19    9.81    7.88
  -4 -12  19   11.42    5.92
   4 -12  19   17.27    9.64
   4 -12 -19   13.36    7.38
  -4 -12 -19   26.24   10.43
   4 -12 -19   13.13   10.35
  -4  12  19   19.18   10.50
   4  12  19    8.16    7.67
   4 -12  20    3.27    3.85
  -4 -12  20   14.28    8.83
   4 -12  20   13.03   10.41
  -4 -12 -20   12.11    9.28
   4 -12 -20   -1.15    1.93
   4 -12 -20   11.88    9.10
   4  12  20   -3.36    5.84
   4 -12  20   -2.45    4.16
  -4 -13   0    8.92    4.12
   4 -13   0   12.63    5.76
  -4 -13   1   40.94   13.20
  -4 -13  -1   18.74    7.69
   4 -13   1   37.31   11.24
   4 -13  -1   40.40   12.42
   4 -13   1   32.93   11.20
   4 -13  -1   36.98    9.02
  -4 -13   2   17.62    7.33
   4 -13   2    8.71    4.96
  -4 -13  -2    6.76    6.50
   4 -13   2   10.17    5.09
   4 -13  -2    3.27    3.41
   4 -13  -2    6.58    4.52
  -4 -13   3  134.90   22.59
   4 -13   3  162.90   26.12
  -4 -13  -3  136.83   22.37
   4 -13  -3  124.70   20.78
   4 -13   3  154.51   21.96
   4 -13  -3  133.02   20.38
   4 -13   4    6.30    5.19
  -4 -13   4   -3.92    3.07
   4 -13   4    5.07    8.93
  -4 -13  -4    2.50    3.61
   4 -13  -4    1.19    3.94
   4 -13  -4    4.29    3.19
   4 -13   5    2.42    4.72
   4 -13  -5    6.88    5.60
  -4 -13   5    6.36    5.04
   4 -13   5    7.77    7.50
  -4 -13  -5   12.47    8.15
   4 -13  -5   15.10    7.51
  -4 -13   6    4.86    5.19
   4 -13   6    3.83    3.26
   4 -13  -6   -0.90    3.53
  -4 -13  -6   16.21    7.49
   4 -13  -6    6.73    5.79
   4 -13   6    0.41    4.24
  -4 -13   7   52.90   13.57
   4 -13   7   57.76   13.65
  -4 -13  -7   69.63   17.02
   4 -13  -7   43.38   11.94
   4 -13  -7   53.32   14.15
   4 -13   7   54.75   12.11
  -4 -13   8   49.31   13.68
   4 -13   8   51.40   13.13
  -4 -13  -8   42.22   12.16
   4 -13  -8   45.77   13.11
   4 -13   8   52.97   11.72
   4 -13  -8   60.60   14.62
  -4 -13   9   -0.08    4.11
   4 -13   9   13.53    7.48
  -4 -13  -9   14.01    8.88
   4 -13  -9   20.09    7.39
  -4  13   9   -1.17    5.44
   4 -13  -9    1.08    3.92
   4 -13   9    5.06    2.27
  -4 -13  10    1.82    4.17
   4 -13  10   11.87    7.24
  -4 -13 -10    0.52    5.57
   4 -13 -10    6.19    4.93
   4 -13  10   -7.50    7.87
   4 -13 -10    5.25    2.41
  -4 -13  11    8.74    7.30
   4 -13  11    0.98    4.40
  -4 -13 -11   -4.10    6.50
   4 -13 -11    2.64    4.27
   4 -13  11   -0.13    3.99
   4 -13 -11    2.47    3.09
  -4 -13  12   52.66   13.31
   4 -13  12   64.40   16.01
   4 -13 -12   68.33   14.65
  -4 -13 -12   44.76   14.49
   4 -13 -12   26.91   10.79
   4 -13  12   67.06   15.09
  -4 -13  13   21.44    9.90
   4 -13  13   14.70    6.58
   4 -13 -13   -5.74    5.50
  -4 -13 -13    9.52    6.94
   4 -13  13    5.59    7.78
   4 -13 -13   15.61    6.58
  -4 -13  14   -6.87    8.13
   4 -13  14   -1.60    3.53
   4 -13  14    2.73    3.49
  -4 -13 -14    5.56    7.14
   4 -13 -14   -5.11    5.60
   4 -13 -14   -1.07    4.69
   4 -13  15   25.27   10.35
  -4 -13  15   29.80   10.45
   4 -13  15   37.61   11.30
  -4 -13 -15   25.00    8.63
   4 -13 -15   38.35   12.80
   4 -13 -15   42.60   12.91
   4 -13  16    4.82    6.21
  -4 -13  16    8.35    7.88
   4 -13  16    7.48    5.58
  -4 -13 -16   10.47    8.14
   4 -13 -16   24.27    9.32
   4 -13 -16   -0.82    2.45
   4 -13  17   12.24    8.90
  -4 -13  17   18.22    7.67
   4 -13 -17   10.16    6.70
   4 -13  17    4.16    3.95
  -4 -13 -17   -1.00    3.37
   4 -13 -17    0.06    4.39
  -4 -14   0   94.43   19.99
   4 -14   0   79.50   17.93
   4 -14   0   81.53   16.81
  -4 -14   1   28.97   11.82
  -4 -14  -1   10.02    6.54
   4 -14   1   18.30    9.51
   4 -14  -1   24.19    9.64
   4 -14   1   10.62    5.61
   4 -14  -1    6.67    5.47
  -4 -14   2    5.43    6.95
   4 -14   2    5.52    6.30
   4 -14   2    4.45    4.68
  -4 -14  -2   11.13    2.21
   4 -14  -2   -1.24    5.77
   4 -14  -2    6.81    8.14
   4 -14   3   14.13    7.32
  -4 -14   3   15.55    7.94
   4 -14   3    8.82    5.51
  -4 -14  -3    3.32    4.86
   4 -14  -3   -1.24    4.44
   4 -14  -3    8.03    6.53
   4 -14   4    1.14    3.37
  -4 -14   4   -8.19    7.15
   4 -14   4   -0.88    6.91
  -4 -14  -4    3.02    7.90
   4 -14  -4    6.58    7.32
   4 -14  -4    3.41    5.32
   4 -14   5    4.22    5.59
  -4 -14   5    8.91    8.63
   4 -14   5   -4.93    5.70
  -4 -14  -5    2.24    6.32
   4 -14  -5   -0.64    2.82
   4 -14  -5    1.02    3.34
   4 -14  -6   36.40   10.63
  -4 -14   6   41.20   11.22
   4 -14   6   27.11    9.35
  -4 -14  -6   30.09   11.57
   4 -14  -6   52.66   15.25
   4 -14   6   44.81   11.89
  -4 -14   7   30.37    8.75
   4 -14  -7   13.13    8.53
   4 -14   7    9.01    4.97
  -4 -14  -7   16.56    9.47
   4 -14  -7   17.38    5.66
   4 -14   7    7.84    5.57
  -4 -14   8   24.60    8.27
   4 -14   8   13.16    8.97
   4 -14  -8    6.18    4.10
  -4 -14  -8   18.03    8.42
   4 -14  -8    9.80    6.93
   4 -14   8   11.28    6.62
  -4 -14   9   -5.10    6.29
   4 -14   9   -3.35    5.14
  -4 -14  -9    4.35    2.90
   4 -14  -9    2.23    4.42
   4 -14   9    5.63    4.23
  -4 -14  10   10.23    9.45
   4 -14  10    7.31    9.71
  -4 -14 -10    0.58    3.52
   4 -14 -10    1.23    2.47
   4 -14 -10    5.99    3.60
   4 -14  10    5.40    4.16
  -4 -14  11   -0.96    5.06
   4 -14  11    2.20    2.14
  -4 -14 -11    0.99    2.91
   4 -14 -11    4.18    6.97
   4 -14  11   -6.99    6.14
   4 -14 -11   -5.79    8.98
  -4 -14  12    4.50    7.47
   4 -14  12    0.57    4.36
  -4 -14 -12    2.68    4.95
   4 -14 -12    3.97    3.57
   4 -14  12    7.84    6.12
   4 -14 -12   12.65    3.67
  -4 -14  13   27.56   11.58
   4 -14  13   32.77   11.79
  -4 -14 -13   30.24   10.08
   4 -14  13   38.35   11.90
   4 -14 -13   26.69   10.47
   4 -14 -13   48.38   13.00
   4 -14 -14   -1.94    6.44
  -4 -14  14    3.06    3.78
   4 -14  14   -2.08    5.34
   4 -14  14   -3.58    2.96
  -4 -14 -14    6.37    5.05
   4 -14 -14   -7.10    4.41
   4 -15   0    9.47    6.09
   4 -15   0   14.80    5.87
  -4 -15   1   -4.09    7.19
  -4 -15  -1    1.11    5.88
   4 -15   1    4.59    5.35
   4 -15   1    9.57    7.00
   4 -15  -1    1.64    6.92
   4 -15   2   17.04    7.02
  -4 -15   2    3.68    2.36
   4 -15   2    1.04    5.71
  -4 -15  -2   -5.24    7.33
   4 -15  -2   14.16    8.22
   4 -15  -2    6.85    4.41
   4 -15   3   -3.87    1.53
  -4 -15   3    7.37    6.83
   4 -15   3   -2.12    4.32
  -4 -15  -3   11.86    9.21
   4 -15  -3    8.71    7.03
   4 -15  -3    2.83    4.97
  -4 -15   4   66.40   16.98
   4 -15   4   54.95   13.72
   4 -15   4   73.76   15.85
  -4 -15  -4   52.57   15.49
   4 -15  -4   65.46   15.87
   4 -15  -4   44.83   13.22
  -4 -15   5   -4.76    6.90
   4 -15   5    4.54    3.71
  -4 -15  -5   -8.08    7.97
   4 -15  -5   -2.76    6.73
   4 -15  -5    8.26    7.42
   4 -15   5   -2.08    4.28
  -4 -15   6   25.97   10.76
   4 -15   6   43.07   13.73
  -4 -15  -6   23.23    9.57
   4 -15  -6   30.53   10.57
   4 -15   6   31.47   10.04
   4 -15  -6   32.38   10.65
   4 -15  -7   -3.38    6.05
  -4 -15   7   14.70    8.03
   4 -15   7    0.98    3.07
  -4 -15  -7    0.53    3.97
   4 -15  -7    1.64    7.40
   4 -15   7    3.56    6.00
   4 -15  -8   44.53   11.48
  -4 -15   8   24.55    9.41
   4 -15   8   31.66   12.27
  -4 -15  -8   38.78   12.98
   4 -15  -8   48.21   15.12
   4 -15   8   58.21   14.97
  -4 -15   9   -2.45    3.18
   4 -15   9    9.08    8.26
   4 -15  -9    3.29    4.71
  -4 -15  -9    5.01    5.15
   4 -15  -9   -6.68    4.68
   4 -15   9   -1.92    5.40
   5   0   0    0.60    1.35
  -5   0   0   -1.15    3.32
   5   0   1   -0.59    1.05
  -5   0  -1   -1.43    3.96
  -5   0   1    2.13    1.70
   5   0  -1    0.32    0.82
   5   0  -2  992.88   25.67
  -5   0   2  976.77   38.76
   5   0   2  974.54   29.70
   5   0   3    0.60    1.59
  -5   0   3    1.24    2.44
   5   0  -3    1.09    1.13
   5   0   4 1615.18   42.81
  -5   0   4 1607.42   51.68
   5   0  -4 1500.12   32.83
   5   0  -5    1.08    1.22
  -5   0   5   -1.07    3.89
   5   0   5    1.27    0.97
   5   0   6 1246.73   40.39
  -5   0   6 1293.21   46.96
  -5   0   7   -2.34    3.14
  -5   0  -7   -1.06    1.40
   5   0   7   -1.63    2.58
   5   0   8  298.10   21.66
  -5   0   8  313.54   24.03
  -5   0   8  306.60   18.05
  -5   0   9   -0.09    2.11
   5   0   9   -0.38    4.04
  -5   0   9   -0.09    1.65
   5   0  10  130.71   15.27
  -5   0  10  135.78   16.26
  -5   0  10  126.16   12.63
  -5   0  11    2.65    2.48
   5   0  11   -0.25    2.76
  -5   0  11   -0.12    2.05
   5   0  12  486.66   31.76
  -5   0  12  473.57   31.29
  -5   0  12  533.37   28.35
  -5   0  13   -1.40    2.10
   5   0  13    1.47    2.34
  -5   0  13   -1.28    2.58
   5   0  14  133.54   17.67
  -5   0  14  124.44   16.91
  -5   0  14  118.57   14.43
  -5   0  15   -1.96    2.49
  -5   0  15    3.55    6.34
   5   0  15   -2.27    1.47
   5   0  16  612.59   39.13
  -5   0  16  662.03   40.92
  -5   0  16  610.37   36.03
  -5   0  17    1.80    4.06
   5   0  17    2.75    3.61
  -5   0  17   -2.60    3.33
  -5   0  18   24.07    7.73
   5   0  18   20.15    8.02
  -5   0  18   44.49   10.86
   5   0  18   48.72   10.96
  -5   0  19    1.97    3.02
  -5   0  19    0.13    3.36
   5   0  19    0.38    5.32
   5   0  19   -0.41    4.27
   5   0  20  103.19   17.56
  -5   0  20  140.82   19.88
  -5   0  20  159.64   21.25
   5   0  20  140.13   20.33
  -5   0  21   -3.23    5.40
   5   0  21    5.72    7.06
  -5   0  21   -0.32    4.09
   5   0  21   -5.20    5.48
  -5   0  22   22.60    8.16
   5   0  22   13.03    5.81
  -5   0  22   15.17    5.74
   5   0  22   29.01    9.66
  -5   0  23    5.38    5.76
   5   0  23    2.80    4.40
  -5   0  23   -0.72    3.63
   5   0  23    6.17    7.74
   5   0  24  299.05   31.00
  -5   0  24  276.76   30.15
   5   0  24  237.99   28.37
  -5   0  24  290.98   30.69
   5   0  25   -3.74    3.63
  -5   0  25    6.48    4.45
   5   0  25   -5.33    4.89
   5   0  26  123.13   20.28
  -5   0  26   81.77   16.40
   5   0  26  137.45   21.82
   5   0  27    0.45    4.18
  -5   0  27   -3.83    5.95
   5   0  27   -5.19    8.45
   5   0  28   29.44    7.94
  -5   0  28   36.49    9.06
   5   0  28   50.10   14.35
   5   0  29   -1.22    5.61
  -5   0  29    8.63    7.63
   5   0  29   -4.13    5.45
   5   0  30   61.03   14.52
  -5   0  30   84.99   18.83
   5   0  30   61.83   14.54
   5   1   0   -0.59    0.68
  -5  -1   0    1.19    1.39
  -5   1   0    4.48    3.25
  -5  -1   0    0.94    2.63
   5  -1   0    1.14    1.42
   5  -1   1  112.05   10.76
   5  -1  -1  139.22    6.98
   5  -1  -1  138.19   11.35
  -5  -1  -1  123.81   13.64
  -5   1  -1  137.63   15.05
  -5   1   1  160.36   16.42
  -5  -1   1  122.81   13.38
   5   1  -1  122.50    7.44
  -5  -1  -1  137.18    7.17
  -5  -1  -2    2.69    0.59
   5   1  -2    2.44    0.74
   5  -1   2    3.78    2.63
  -5   1   2    5.45    3.22
   5  -1  -2    3.66    1.30
   5   1   2    4.31    2.05
  -5  -1  -3   14.33    2.43
   5  -1  -3   17.89    3.95
   5   1  -3   18.01    2.86
  -5   1   3   13.38    5.30
   5  -1   3   14.01    3.58
  -5  -1   3   20.32    5.84
   5   1   3   12.61    3.52
  -5  -1  -4   13.92    2.52
   5  -1   4   13.72    4.39
  -5   1   4   17.51    6.01
  -5  -1   4    4.80    2.49
   5  -1  -4   10.36    3.29
   5   1  -4   11.38    2.19
   5   1   4   11.45    3.23
   5  -1   5    5.82    3.35
  -5  -1  -5    7.40    2.27
   5  -1  -5   15.71    4.15
  -5   1   5    6.61    4.31
  -5  -1   5   13.49    5.04
   5   1   5   15.39    4.20
   5   1  -5   10.07    2.28
   5   1   6  410.48   22.61
  -5  -1  -6  359.42   14.83
   5  -1  -6  322.07   18.49
  -5   1   6  389.63   26.31
  -5  -1   6  386.53   24.57
   5  -1   6  392.68   23.14
   5   1   7   38.20    7.36
  -5  -1  -7   34.54    5.00
  -5   1   7   53.71   10.26
  -5  -1   7   44.61    8.63
   5  -1   7   46.00    8.03
  -5  -1   7   35.01    4.88
   5  -1   8   10.60    3.10
  -5   1   8   22.19    7.22
  -5  -1   8   20.20    5.36
   5   1   8   26.84    6.38
  -5   1   8   17.54    5.07
  -5  -1   8   18.98    4.05
  -5  -1  -8   20.65    4.62
  -5   1   9   75.10    9.96
   5   1   9   51.78    9.36
   5  -1   9   65.15   10.64
  -5  -1  -9   68.35    8.44
  -5  -1   9   80.91   12.44
  -5   1   9   35.77    7.44
  -5  -1   9   66.25    7.87
   5   1  10  566.51   31.80
  -5   1  10  556.34   33.02
  -5  -1  10  544.92   31.68
  -5   1  10  510.94   26.81
  -5  -1  10  559.59   25.39
   5  -1  11   49.63    9.85
   5   1  11   27.08    7.40
  -5   1  11   35.86    8.94
  -5  -1  11   28.71    8.29
  -5   1  11   51.23    9.12
  -5  -1  11   42.01    6.96
   5   1  12  223.04   20.61
   5  -1  12  205.35   20.34
  -5   1  12  235.73   22.12
  -5  -1  12  165.37   18.43
  -5   1  12  212.03   18.75
  -5  -1  12  195.82   16.85
   5   1  13  388.42   27.92
   5  -1  13  360.92   28.56
  -5   1  13  378.60   28.77
  -5  -1  13  328.93   26.81
  -5   1  13  317.36   23.54
  -5  -1  13  301.48   23.00
   5   1  14  115.78   16.32
   5  -1  14  158.33   18.89
  -5  -1  14  135.16   16.93
  -5   1  14  123.79   16.96
  -5   1  14  154.92   17.71
  -5  -1  14  139.61   15.57
  -5   1  15    2.44    2.54
  -5  -1  15    2.95    3.46
  -5   1  15   10.21    5.31
   5   1  15    6.84    3.81
  -5  -1  15   10.10    7.42
   5  -1  15   10.72    5.46
   5   1  16  216.24   23.04
   5  -1  16  183.60   21.72
  -5   1  16  197.48   22.26
  -5  -1  16  194.71   21.75
  -5   1  16  153.26   18.18
  -5  -1  16  172.36   19.12
   5   1  16  212.62   23.33
  -5   1  17   19.20    6.87
  -5  -1  17   31.46    8.60
   5   1  17   33.75    9.06
   5  -1  17   23.09    7.22
  -5   1  17   21.45    7.57
  -5  -1  17   31.70   10.27
   5   1  17   40.66   10.46
  -5   1  18   22.02    7.24
  -5  -1  18   18.13    6.97
   5   1  18   20.33    6.47
   5  -1  18   35.10   11.03
  -5   1  18   15.64    7.84
  -5  -1  18   17.36    7.13
   5   1  18   38.12   10.50
  -5   1  19   12.19    4.21
  -5  -1  19   10.93    5.31
   5   1  19    7.10    2.02
   5  -1  19   25.43    7.71
  -5   1  19    9.44    5.52
  -5  -1  19   12.26    7.21
   5   1  19   10.97    3.98
   5  -1  19   10.07    2.25
  -5   1  20   66.16   12.99
   5   1  20   80.90   14.94
   5  -1  20   95.70   16.82
  -5   1  20   83.68   15.22
  -5  -1  20   87.66   16.40
   5   1  20  106.36   16.58
   5  -1  20  101.53   17.48
  -5  -1  20   97.71   15.80
  -5   1  21   27.76   10.11
  -5  -1  21   41.96   11.36
   5   1  21   60.59   13.22
  -5  -1  21   56.52   11.73
   5  -1  21   56.70   12.97
  -5   1  21   56.55   12.45
   5   1  21   35.63    9.29
   5  -1  21   50.77   11.65
  -5   1  22   -3.36    4.44
  -5  -1  22   15.02   10.10
  -5  -1  22    0.65    5.41
   5   1  22    2.39    4.15
   5  -1  22    2.12    4.31
  -5   1  22    0.05    3.09
   5   1  22   -4.96    6.32
   5  -1  22    1.77    5.19
  -5   1  23   81.56   15.76
   5  -1  23   87.99   17.36
   5   1  23   71.46   14.94
  -5   1  23   70.68   15.62
  -5  -1  23   88.62   16.89
   5   1  23   85.69   17.03
   5  -1  23   92.95   17.33
   5   1  24  120.10   19.62
   5  -1  24  115.72   19.49
  -5   1  24  167.17   23.65
  -5  -1  24  124.33   20.91
   5   1  24  124.44   20.04
  -5   1  24  131.14   19.49
   5  -1  24  121.91   19.63
  -5   1  25    2.16    4.52
   5   1  25   10.01    2.69
   5  -1  25    4.65    2.26
  -5   1  25    6.73    6.27
  -5  -1  25    6.33    6.68
   5   1  25    1.84    3.16
   5  -1  25    4.15    2.79
  -5   1  26   31.75   11.57
   5  -1  26   31.13   10.91
   5   1  26   38.80   12.39
  -5   1  26   21.68   10.29
  -5  -1  26   38.70   11.27
   5   1  26   44.55   13.08
   5  -1  26   15.30    9.37
  -5   1  27    7.44    7.18
   5   1  27    6.07    5.77
   5  -1  27   21.94    9.91
  -5   1  27   26.88   10.59
  -5  -1  27   14.16    9.15
   5   1  27   14.63    7.66
   5  -1  27   23.53    8.64
  -5   1  28   -7.76    5.22
   5   1  28   -3.50    4.55
   5  -1  28    1.96    4.74
  -5   1  28   -3.11    3.82
  -5  -1  28   -5.68    6.22
   5   1  28    4.91    9.95
   5  -1  28    3.13    7.96
   5   1  29   11.10    5.06
   5  -1  29   15.04    8.67
  -5   1  29   -1.58    5.78
  -5  -1  29    3.16    6.14
   5   1  29    3.76    3.14
   5  -1  29   24.06   10.38
  -5  -1  30   25.01   10.73
   5   1  30   46.45   13.65
   5  -1  30   37.22   13.01
  -5   1  30   42.03   10.58
   5   1  30   53.66   15.17
   5  -1  30   47.12   13.64
  -5  -2   0    0.72    1.15
   5  -2   0   -1.04    1.41
   5  -2   0   -0.20    0.61
  -5  -2   0   -0.89    1.52
  -5  -2   1   78.11    8.38
  -5  -2  -1  119.40    9.45
  -5  -2   1   82.28   10.31
   5  -2   1   79.01   10.09
   5  -2  -1   94.43    6.90
  -5   2   1   77.72   11.83
  -5   2  -1   95.88   12.99
   5  -2  -1   76.27    9.54
  -5  -2  -2   82.53    8.02
   5   2   2   90.18    7.29
   5  -2   2   85.12   10.44
   5  -2  -2   86.66    7.42
  -5   2   2   91.73   13.03
  -5  -2   2   90.65   10.87
   5  -2  -2   66.37    8.71
  -5  -2   2   94.39    9.49
  -5  -2  -3  954.71   27.66
  -5   2   3  930.79   40.50
  -5  -2   3  981.05   37.43
   5  -2  -3  906.13   26.98
   5  -2  -3 1007.46   34.64
  -5  -2   3  913.12   31.25
   5   2   4  752.90   26.34
  -5  -2  -4  648.35   22.77
  -5  -2   4  677.42   30.82
  -5   2   4  700.11   35.72
   5  -2   4  757.80   32.23
   5  -2  -4  667.90   28.68
  -5  -2   4  741.56   29.26
   5   2   5  742.48   27.88
   5  -2  -5  702.38   29.60
  -5  -2  -5  751.37   25.02
  -5   2   5  769.13   37.94
  -5  -2   5  844.19   35.49
   5  -2   5  720.58   32.40
  -5  -2   5  740.12   30.52
   5   2   6  723.57   29.05
  -5  -2  -6  548.41   22.20
   5  -2  -6  636.08   28.85
  -5   2   6  663.28   35.43
  -5  -2   6  617.90   30.60
   5  -2   6  664.14   31.30
  -5  -2   6  701.25   31.69
   5   2   7   82.23   10.77
  -5  -2  -7   94.43    9.64
  -5  -2   7   77.98   10.85
   5  -2   7   81.32   11.51
  -5  -2   7   92.64    6.77
  -5   2   7   95.88   13.29
   5  -2   8    5.58    4.12
  -5  -2  -8    1.55    1.80
  -5   2   8    4.23    3.10
  -5  -2   8    2.65    3.15
   5   2   8    1.12    0.82
  -5  -2   8    2.63    1.99
   5   2   9  616.85   31.12
  -5  -2  -9  596.17   26.58
  -5   2   9  543.05   33.06
  -5  -2   9  509.54   29.87
   5  -2   9  480.65   29.75
  -5   2   9  482.27   27.33
  -5  -2   9  441.38   19.32
   5   2  10  125.28   14.94
   5  -2  10  164.43   17.65
  -5   2  10  157.78   17.83
  -5   2  10  147.93   15.80
  -5  -2  10  125.78   11.93
  -5  -2  10  184.38   18.36
   5   2  11   51.37   10.08
  -5  -2  11   52.52   10.78
  -5  -2 -11   48.87    8.81
   5  -2  11   69.92   12.24
  -5   2  11   42.29    9.62
  -5  -2  11   60.16    8.97
  -5   2  11   38.06    8.52
   5   2  12  133.64   16.16
  -5  -2 -12  125.87   14.45
  -5   2  12  168.63   19.08
  -5  -2  12  144.36   17.15
  -5  -2  12  141.54   13.93
   5  -2  12  144.54   17.83
   5   2  13  571.46   34.93
   5  -2  13  589.66   36.83
  -5  -2  13  515.85   33.27
  -5  -2 -13  519.79   31.02
  -5   2  13  548.01   32.94
  -5  -2  13  583.82   29.44
  -5  -2  14   45.61    8.30
   5   2  14   36.40    9.13
  -5  -2 -14   49.46   10.21
  -5  -2  14   31.37    8.98
   5  -2  14   41.47    9.92
  -5   2  14   26.94    7.38
  -5   2  14   39.65    9.82
   5   2  14   27.24    7.34
   5   2  15  161.13   19.15
   5  -2  15  153.85   19.34
  -5  -2 -15  201.62   20.60
  -5   2  15  194.06   21.87
  -5  -2  15  184.83   20.73
  -5   2  15  187.36   19.74
   5   2  15  177.02   20.75
  -5  -2  15  182.94   17.75
   5   2  16  114.13   16.44
   5  -2  16   95.44   14.78
  -5   2  16   93.58   15.21
  -5  -2  16  103.62   15.61
  -5   2  16  104.12   15.46
   5   2  16  108.79   15.67
  -5  -2  16   87.31   13.10
   5   2  17  179.22   21.70
   5  -2  17  189.03   22.44
  -5   2  17  150.30   19.87
  -5  -2  17  175.36   21.75
  -5   2  17  177.29   20.02
   5   2  17  152.18   20.32
  -5  -2  17  169.67   19.23
   5   2  18  100.46   16.31
   5  -2  18  163.91   20.21
  -5   2  18  117.87   17.97
  -5  -2  18  131.87   19.71
  -5   2  18  115.55   17.17
   5   2  18  134.00   20.29
  -5  -2  18  145.08   19.04
  -5   2  19   49.81   12.19
   5   2  19   47.56   11.48
  -5   2  19   17.16    5.61
   5  -2  19   55.57   12.07
  -5  -2  19   36.07   10.65
   5   2  19   41.17   10.70
   5   2  20  182.74   22.56
   5  -2  20  145.85   20.27
  -5   2  20  202.08   23.68
  -5  -2  20  161.01   21.83
  -5   2  20  168.91   21.21
   5   2  20  152.65   21.02
   5  -2  20  159.88   22.21
  -5   2  21   26.45    8.96
   5   2  21   47.98   11.61
   5  -2  21   57.70   13.56
  -5   2  21   32.88   10.46
  -5  -2  21    5.44    4.76
   5   2  21   24.20    7.06
   5  -2  21   29.72   10.67
  -5   2  22   17.23    7.47
   5   2  22   34.28    9.04
  -5   2  22   22.87    8.30
   5  -2  22   20.56    8.31
  -5  -2  22   25.85    7.79
   5   2  22   14.38    6.28
   5  -2  22   26.69    8.56
  -5   2  23   20.84    8.17
   5   2  23   19.49    6.24
   5  -2  23   20.78    9.81
  -5   2  23   28.20    8.94
  -5  -2  23   31.87   11.03
   5   2  23   19.20    8.44
   5  -2  23   39.11   11.70
  -5   2  24   21.00    8.99
   5   2  24    9.56    6.73
   5  -2  24   18.33    7.73
  -5   2  24   20.03    8.32
  -5  -2  24   24.78    8.77
   5   2  24    5.04    3.84
   5  -2  24   26.33   10.98
  -5   2  25    1.61    6.30
   5   2  25    2.80    6.17
  -5   2  25    7.05    2.86
  -5  -2  25    1.18    2.28
   5  -2  25   -0.03    2.76
   5   2  25   -2.58    8.11
   5  -2  25   -1.35    3.41
  -5   2  26    6.13    5.93
   5   2  26   16.26   10.15
   5  -2  26   25.03    9.81
  -5   2  26    7.31    6.45
  -5  -2  26   10.14    5.29
   5   2  26   23.68   10.80
   5  -2  26   -4.34    2.21
  -5   2  27   89.59   18.07
   5   2  27   75.09   15.52
   5  -2  27   90.95   18.04
  -5   2  27   85.22   17.49
  -5  -2  27   74.56   16.29
   5   2  27   75.03   17.85
   5  -2  27   55.20   15.18
  -5   2  28    0.03    3.63
   5   2  28   -3.52    5.84
   5  -2  28   -3.02    4.67
  -5   2  28   12.72    9.57
  -5  -2  28    5.88    8.11
   5   2  28    8.44    4.08
   5  -2  28    0.51    5.53
  -5   2  29    5.89    4.54
   5   2  29    3.10    3.08
   5  -2  29   22.23    8.49
  -5   2  29   20.41    8.81
  -5  -2  29    7.41    8.77
   5   2  29   -6.81    4.34
   5  -2  29   11.00    7.77
  -5  -3   0    3.39    3.04
   5  -3   0    1.60    1.30
   5  -3   0   -0.04    1.08
  -5  -3   0   -0.98    1.73
  -5   3   0   -4.46    5.14
  -5  -3   1    6.48    2.59
   5  -3   1    8.96    3.59
  -5  -3  -1    9.01    3.78
   5  -3   1    6.70    1.93
   5  -3  -1   10.98    2.87
  -5   3   1    9.57    4.88
  -5  -3   1    4.59    2.32
  -5   3  -1   12.48    4.11
   5  -3  -1    6.74    2.68
   5   3   1    9.04    1.80
  -5  -3   2  216.39   16.42
   5  -3   2  204.04   11.38
  -5  -3  -2  254.43   16.86
   5  -3   2  244.55   18.80
   5  -3  -2  236.28   14.00
  -5   3   2  242.58   21.59
  -5  -3   2  246.11   17.43
   5  -3  -2  230.84   18.19
   5   3   2  224.73   11.14
  -5  -3   3    0.52    2.13
   5  -3   3   -0.46    0.37
   5   3   3    0.62    1.15
  -5  -3  -3    5.07    3.79
   5  -3  -3   -0.35    0.86
  -5   3   3   -0.79    2.09
  -5  -3   3   -0.47    2.04
   5  -3  -3   -1.23    1.44
   5  -3   3    5.33    3.27
   5  -3   4    0.65    1.17
  -5  -3   4   -0.36    2.73
   5   3   4    0.31    0.95
  -5  -3  -4    1.80    3.01
  -5   3   4   -0.15    2.79
  -5  -3   4    3.25    2.12
   5  -3  -4    0.19    1.06
   5  -3   4   -0.52    1.69
   5  -3  -4   -0.37    2.58
   5  -3  -5  254.85   19.57
  -5  -3  -5  237.26   16.79
  -5   3   5  247.25   22.83
   5  -3  -5  345.59   20.28
  -5  -3   5  252.40   18.56
   5  -3   5  303.41   21.56
   5  -3   5  291.83   13.37
   5   3   5  269.85   16.62
  -5  -3   5  300.20   20.92
   5   3   6   54.57    8.19
  -5  -3   6   34.53    7.24
  -5  -3  -6   33.34    6.32
   5  -3  -6   55.13    9.26
   5  -3   6   35.64    7.66
   5  -3  -6   47.25    7.42
  -5  -3   6   59.53    9.75
  -5   3   6   31.59    8.11
   5  -3   6   35.90    5.08
   5   3   7  264.03   18.40
  -5   3   7  233.06   21.53
   5  -3  -7  193.96   17.19
  -5  -3   7  221.41   18.49
   5  -3   7  215.22   19.24
  -5  -3   7  222.30   19.02
  -5  -3   8   12.78    4.69
   5  -3   8   14.89    5.11
   5   3   8   11.73    4.61
  -5  -3  -8   19.27    4.54
  -5   3   8    5.68    3.66
  -5  -3   8    7.04    3.77
  -5  -3   8   14.88    3.37
  -5  -3   9   28.43    7.75
   5   3   9   33.78    7.96
   5  -3   9   28.61    7.39
  -5   3   9   40.06    9.78
  -5  -3  -9   32.89    6.87
  -5  -3   9   31.42    8.54
  -5   3   9   27.30    7.23
  -5  -3   9   37.02    6.02
  -5  -3  10   16.29    4.54
   5  -3  10   10.19    5.11
   5   3  10    9.01    4.56
  -5  -3 -10   21.47    5.69
  -5   3  10   12.53    5.31
  -5  -3  10   14.92    5.36
  -5   3  10    7.00    2.51
   5  -3  11    3.83    4.22
   5   3  11    0.42    3.49
  -5  -3 -11    1.55    1.24
  -5   3  11    9.23    4.14
  -5  -3  11   -1.54    4.41
  -5   3  11    8.50    3.29
   5  -3  12   11.71    5.81
  -5  -3  12    0.94    1.15
   5   3  12    4.90    3.36
  -5  -3 -12    0.42    1.44
  -5   3  12    7.71    5.94
  -5  -3  12    4.93    5.26
  -5   3  12    2.40    1.99
   5   3  12    1.61    1.59
   5   3  13  194.41   19.71
  -5   3  13  182.77   19.77
   5  -3  13  176.12   20.76
  -5   3  13  191.11   20.65
  -5  -3  13  182.43   20.00
  -5  -3 -13  246.99   21.43
   5   3  13  193.90   19.42
  -5  -3 -14    3.48    1.80
   5   3  14   -0.30    2.37
  -5   3  14   -1.71    3.91
  -5  -3  14   -4.25    5.25
  -5   3  14   -0.63    3.05
   5   3  14   -2.84    3.66
   5  -3  14    7.29    5.43
   5   3  15  175.66   19.94
  -5  -3 -15  145.68   18.03
  -5   3  15  172.92   21.07
  -5  -3  15  157.72   20.09
  -5   3  15  184.30   20.05
   5   3  15  176.89   20.27
   5   3  16   36.33   10.00
  -5   3  16   26.81    8.82
  -5  -3 -16   17.92    5.96
  -5  -3  16   29.54    8.92
   5  -3  16   17.70    7.20
  -5   3  16   23.20    7.69
   5   3  16   26.46    7.60
   5   3  17    7.98    5.23
  -5  -3 -17    1.24    3.30
  -5   3  17   -0.06    3.52
  -5  -3  17   -2.46    2.78
   5  -3  17   -1.56    4.59
   5   3  17    7.67    5.27
  -5   3  17    2.87    2.31
   5   3  18    6.95    3.97
  -5   3  18    1.82    6.41
  -5  -3 -18    1.39    4.28
  -5  -3  18   -3.60    2.48
   5  -3  18   10.18    7.38
   5   3  18   -0.08    2.48
  -5   3  18    0.93    4.37
  -5  -3 -19   36.19    9.67
   5   3  19   12.57    7.27
  -5   3  19   16.07    5.50
  -5  -3  19   26.89    7.01
   5  -3  19   23.98    9.10
   5   3  19   23.83    8.44
  -5   3  19   16.59    8.34
  -5  -3 -20   12.69    7.03
   5   3  20   18.14    6.76
  -5   3  20   15.15    6.59
   5  -3  20   17.62    6.43
  -5  -3  20   13.80    8.03
   5   3  20   13.42    7.90
  -5   3  20   17.94    7.92
   5   3  21   13.50    5.27
  -5   3  21   16.06    7.22
  -5  -3 -21    1.94    2.90
   5  -3  21   15.40    4.64
  -5  -3  21   10.52    4.58
   5   3  21    2.94    4.51
   5  -3  21   11.85    8.99
  -5   3  21    7.40    3.18
   5   3  22   11.34    5.10
   5  -3  22    0.07    2.21
  -5   3  22   13.99    9.33
  -5  -3 -22   -0.74    7.30
  -5  -3  22    5.03    3.21
   5   3  22    1.18    2.92
   5  -3  22    6.06    6.73
  -5   3  22    7.90    5.67
   5   3  23   29.15    8.81
   5  -3  23   17.40    9.66
  -5   3  23   20.31    5.66
  -5  -3 -23   16.50    7.95
  -5  -3  23   20.57    8.97
   5   3  23   22.32   10.81
   5  -3  23   13.27    4.70
  -5   3  23   33.62   10.35
   5   3  24   76.10   15.75
   5  -3  24   92.97   16.79
  -5   3  24   67.79   14.24
  -5  -3  24   56.77   14.19
  -5   3  24   83.06   16.35
   5   3  24   82.82   15.97
   5  -3  24   80.37   16.38
   5   3  25   25.04    7.84
   5  -3  25   11.31    8.31
  -5   3  25   10.94    9.00
  -5  -3  25   11.50    6.46
   5   3  25   14.03    8.79
   5  -3  25   10.51    7.08
  -5   3  25    9.87    6.48
   5   3  26   -1.28    5.48
   5  -3  26   -0.68    5.27
  -5   3  26    7.00    7.79
  -5  -3  26   -0.88    5.21
   5   3  26   -1.06    2.59
   5  -3  26   -0.05    6.71
  -5   3  26   -4.28    4.66
   5   3  27   47.73   12.34
   5  -3  27   46.29   14.42
  -5   3  27   51.25   14.49
  -5  -3  27   26.97    9.57
   5   3  27   24.99   10.91
   5  -3  27   39.13   11.07
  -5   3  27   46.70   13.24
   5   3  28   -2.30    7.10
   5  -3  28   -3.88    4.77
  -5   3  28    2.11    4.60
  -5  -3  28    0.14    2.41
   5   3  28  -10.33    7.00
   5  -3  28    1.22    4.88
  -5   3  28   -2.01    2.83
   5   3  29   12.25    4.67
   5  -3  29   14.97    5.52
  -5   3  29   18.09    6.79
  -5  -3  29    6.24    5.92
   5   3  29   21.23    9.70
   5  -3  29   10.12    5.55
  -5   3  29   22.89    9.39
  -5  -4   0    1.36    3.97
   5  -4   0   -0.10    1.54
  -5   4   0    0.08    1.34
   5  -4   0   -0.80    2.28
  -5  -4   1  298.42   21.24
  -5  -4  -1  317.35   21.33
   5  -4   1  298.50   16.95
   5  -4  -1  289.96   16.81
  -5  -4   1  327.80   18.68
   5  -4   1  296.26   21.66
  -5   4   1  318.13   25.91
   5  -4  -1  280.77   21.11
  -5   4   2    5.52    5.26
   5  -4  -2   10.03    4.14
  -5  -4   2    7.40    4.29
   5  -4   2    5.19    3.55
   5  -4   2    5.00    2.83
  -5  -4  -2    8.50    4.10
   5  -4  -2    2.44    2.12
  -5  -4   2    9.95    3.31
   5   4   2    5.83    1.57
   5  -4   3    5.18    1.66
  -5  -4   3    4.69    3.09
   5  -4   3    7.24    3.55
  -5  -4  -3    3.23    1.22
   5  -4  -3    3.95    2.88
  -5   4   3    2.97    3.51
   5  -4  -3    2.07    0.98
  -5  -4   3    4.07    2.58
   5   4   3    1.76    0.73
  -5  -4   4   63.16    9.76
   5  -4   4   77.26    8.38
  -5  -4   4   75.16   10.05
   5  -4   4   80.99   12.11
  -5  -4  -4   82.47   10.64
   5  -4  -4   78.03    9.77
  -5   4   4   75.42   12.68
   5   4   4   87.28    9.30
   5  -4  -4   86.18   11.72
   5  -4   5   29.69    5.29
  -5  -4   5   27.32    7.09
   5  -4  -5   33.56    7.82
  -5  -4  -5   22.90    6.15
   5  -4  -5   32.87    6.99
  -5   4   5   30.13    7.79
  -5  -4   5   36.25    6.74
   5  -4   5   29.83    7.14
   5   4   5   42.70    6.68
   5  -4   6  396.61   20.55
  -5  -4   6  461.94   28.26
  -5  -4  -6  441.12   25.55
   5  -4  -6  468.89   28.66
   5  -4  -6  464.32   26.02
  -5   4   6  450.80   31.19
  -5  -4   6  486.91   26.01
   5   4   6  420.66   24.14
   5  -4   6  495.13   30.16
   5  -4  -7  421.96   27.12
  -5   4   7  412.53   29.80
  -5  -4   7  408.17   24.55
   5  -4   7  397.53   27.53
   5   4   7  401.04   23.53
   5  -4  -7  377.43   24.26
   5  -4   7  416.86   22.27
  -5  -4   7  450.57   28.39
  -5   4   8  108.11   15.16
  -5  -4  -8  126.92   14.10
   5  -4  -8  113.41   13.76
  -5  -4   8   87.77   12.06
   5  -4   8  103.22   14.41
   5   4   8  123.61   13.53
   5  -4   8  103.48   10.85
  -5  -4   8   91.53   13.15
   5  -4   9   46.08    9.49
  -5  -4  -9   54.69    9.54
  -5   4   9   74.04   12.68
   5  -4  -9   65.50   10.54
  -5  -4   9   71.80   11.54
   5   4   9   57.48    9.91
   5  -4   9   46.24    7.82
  -5  -4   9   71.52   11.78
  -5  -4  10    0.99    2.65
  -5  -4  10   -1.01    1.39
   5   4  10   -0.73    1.98
   5  -4  10    1.29    5.23
  -5  -4 -10   -1.45    3.21
  -5   4  10    1.51    3.44
   5  -4 -10   -0.34    2.78
   5   4  10    3.33    4.29
  -5  -4  11    4.21    3.10
   5  -4  11    2.50    4.05
   5   4  11   10.32    5.09
  -5  -4  11    2.62    1.79
  -5  -4 -11    6.01    4.20
  -5   4  11    3.76    4.11
  -5   4  11    2.25    3.16
   5   4  11    3.32    2.93
  -5  -4 -12  160.63   17.69
  -5  -4  12  179.39   18.83
   5  -4  12  169.44   19.07
  -5   4  12  152.05   18.19
  -5   4  12  165.31   19.60
   5   4  12  153.24   16.51
   5   4  12  145.28   17.40
  -5  -4  12  159.80   19.62
   5  -4  13   22.55    8.47
   5   4  13   17.55    6.14
  -5  -4 -13   13.05    6.11
  -5   4  13   16.12    7.48
  -5  -4  13   22.96    7.28
  -5   4  13   11.73    5.62
   5   4  13   29.68    7.70
   5  -4  14   50.35   11.85
   5   4  14   54.10   10.81
  -5  -4 -14   47.17    9.28
  -5  -4  14   60.51   12.50
  -5   4  14   45.46   11.70
   5   4  14   58.95   10.97
  -5   4  14   47.30   10.28
   5   4  15   14.30    6.79
  -5  -4 -15    2.96    2.93
  -5   4  15   14.96    6.40
  -5  -4  15    4.54    3.83
  -5   4  15   12.92    5.63
   5   4  15    5.19    4.03
   5  -4  15    9.83    6.37
   5  -4  16  227.34   24.89
  -5   4  16  237.16   24.42
  -5  -4  16  229.76   23.57
  -5   4  16  175.37   21.05
   5   4  16  186.97   21.05
   5   4  16  181.38   20.70
  -5  -4 -17   73.90   13.21
   5  -4  17  130.13   18.39
  -5   4  17  115.50   18.76
  -5  -4  17  106.93   16.98
  -5   4  17  118.52   17.41
   5   4  17  123.59   18.14
   5   4  17  118.14   17.55
   5   4  18    2.96    4.64
  -5  -4 -18    2.91    3.71
  -5   4  18   20.60    9.80
  -5  -4  18    1.63    3.64
   5  -4  18   -0.59    2.32
   5   4  18    6.87    4.97
  -5   4  18   11.49    8.65
   5   4  19   64.38   13.78
  -5  -4 -19   47.62   11.95
  -5   4  19   25.59    9.14
  -5  -4  19   47.61   12.52
  -5   4  19   65.53   13.86
   5  -4  19   68.34   14.00
   5   4  19   47.06   12.62
   5   4  20    7.64    2.31
  -5  -4  20   11.62    5.71
  -5  -4 -20   11.64    7.24
  -5   4  20   12.11    6.94
   5  -4  20    4.38    4.82
   5   4  20    4.54    5.13
  -5   4  20    4.37    2.98
   5   4  21    7.59    4.44
  -5  -4 -21   20.84    8.25
  -5   4  21   14.45    8.51
  -5  -4  21    1.07    3.14
   5  -4  21    8.81    6.77
   5   4  21   22.65    9.54
  -5   4  21   14.21    6.88
   5  -4  21   13.02    6.36
   5   4  22   -8.31    5.86
  -5  -4 -22   -2.33    5.32
  -5   4  22    3.57    7.07
   5  -4  22    1.84    5.53
  -5  -4  22   10.31    6.10
   5   4  22    0.02    2.74
  -5   4  22    0.59    3.73
   5  -4  22   -0.70    5.13
   5  -4  23  336.77   33.12
  -5  -4 -23  287.67   31.91
  -5   4  23  309.92   31.07
  -5  -4  23  287.13   30.80
   5   4  23  313.62   32.73
  -5   4  23  311.60   31.89
   5  -4  23  332.73   32.12
   5   4  23  282.23   30.81
   5   4  24   -0.50    4.54
   5  -4  24   -4.20    5.77
  -5  -4 -24    9.08   11.18
  -5   4  24    2.88    4.94
  -5  -4  24    7.55    4.46
   5   4  24   -2.70    3.83
   5  -4  24    0.90    5.63
  -5   4  24    6.93    5.76
   5   4  25   11.55    6.29
   5  -4  25    2.07    5.84
  -5   4  25   -3.03    3.32
  -5  -4  25   11.70    6.85
   5   4  25   -1.78    6.56
   5  -4  25    1.93    7.69
  -5   4  25    0.45    2.37
   5   4  26   13.25    8.35
   5  -4  26   26.26   10.25
  -5   4  26   20.11    8.11
  -5  -4  26   11.50    7.55
   5   4  26   28.69    7.66
   5  -4  26   24.24    8.99
  -5   4  26   23.68   11.07
   5   4  27    8.32    8.56
   5  -4  27   -1.72    2.50
  -5   4  27    7.92    6.82
  -5  -4  27   13.83    8.52
   5   4  27    2.73    7.32
   5  -4  27   -2.40    2.55
  -5   4  27    0.95    4.57
   5   4  28    3.89    4.60
   5  -4  28    1.31    3.09
  -5   4  28    6.07    5.01
  -5  -4  28    1.51    6.47
   5   4  28    0.03    5.87
   5  -4  28   -0.37    4.10
  -5   4  28    2.41    5.23
   5   4  29    2.68    5.27
   5  -4  29    2.87    4.70
  -5   4  29   -8.18    6.54
  -5  -4  29   -9.90    8.68
   5   4  29   -4.06    7.07
   5  -4  29   -6.05    4.82
  -5   4  29    6.85    8.44
  -5   5   0   -2.55    2.35
  -5  -5   0   -0.11    3.13
   5  -5   0   -2.64    2.56
   5  -5   0    1.47    1.71
  -5  -5   1  362.29   26.13
  -5  -5  -1  392.50   26.06
   5  -5   1  411.39   23.13
   5  -5  -1  398.33   22.66
  -5  -5   1  362.74   18.43
   5  -5   1  384.93   26.49
  -5   5   1  421.51   30.78
   5  -5  -1  432.29   28.03
  -5  -5   2  197.39   19.10
   5  -5   2  202.56   16.12
  -5  -5  -2  188.43   17.93
   5  -5  -2  201.18   16.32
   5  -5   2  203.78   19.39
  -5   5   2  204.76   21.45
  -5  -5   2  179.38   13.03
   5  -5  -2  238.86   20.69
   5  -5   3   10.41    5.35
  -5  -5   3    0.66    0.96
   5  -5   3    3.76    2.11
  -5  -5  -3    3.55    2.40
   5  -5  -3    4.19    1.85
   5  -5  -3   11.73    4.79
  -5   5   3    4.46    1.64
  -5  -5   3    5.44    2.50
   5   5   3    9.43    3.05
   5  -5   4   29.52    6.93
  -5  -5   4   24.55    7.55
  -5  -5  -4   32.40    7.26
   5  -5  -4   18.62    5.12
  -5  -5   4   30.18    6.15
   5  -5  -4   20.01    6.16
   5   5   4   29.52    5.26
  -5   5   4   17.37    6.58
   5  -5   4   29.88    6.44
  -5  -5   5   81.72   12.11
   5  -5   5   85.52   10.75
   5  -5  -5   83.48   12.55
   5  -5   5   62.92   10.12
  -5  -5  -5   91.88   12.46
   5  -5  -5   84.69   11.39
  -5   5   5   84.84   15.05
  -5  -5   5   82.87    9.97
   5   5   5   69.39    9.10
  -5  -5   6  236.25   21.37
   5  -5   6  218.02   16.95
   5  -5   6  251.94   21.78
   5  -5  -6  198.13   19.63
  -5  -5  -6  216.00   19.54
   5  -5  -6  230.96   19.10
  -5   5   6  226.00   22.94
  -5  -5   6  228.83   17.44
   5   5   6  237.26   18.03
  -5  -5   7  172.29   18.86
   5  -5   7  181.73   15.44
  -5  -5  -7  200.11   18.09
   5  -5  -7  189.98   19.48
   5  -5  -7  189.02   18.05
  -5   5   7  145.84   19.51
  -5  -5   7  226.41   17.83
   5   5   7  172.76   16.12
   5   5   7  206.05   14.43
   5  -5   7  185.86   19.74
   5  -5   8  108.31   12.30
  -5  -5   8  116.03   15.47
  -5  -5  -8   83.53   12.60
   5  -5  -8  123.17   15.33
  -5   5   8  128.01   17.39
   5  -5  -8   99.76   14.15
  -5  -5   8  117.19   13.77
   5   5   8  100.35   10.66
   5   5   8  109.89   13.29
   5  -5   8  101.70   14.73
   5  -5   9   10.41    5.28
  -5  -5   9   14.87    5.43
   5   5   9   18.89    5.41
   5  -5   9   20.39    8.25
  -5   5   9   18.67    7.33
   5  -5  -9    3.53    2.28
  -5  -5   9    8.59    4.16
  -5  -5  -9    9.26    5.03
   5   5   9   14.32    4.47
   5  -5  10    7.28    2.95
  -5  -5  10   10.91    4.63
   5   5  10   10.16    4.83
   5  -5  10    6.34    3.31
  -5  -5 -10   11.34    6.37
  -5   5  10   10.84    4.60
   5  -5 -10   17.35    6.64
  -5  -5  10   10.54    5.04
   5   5  10    8.07    3.93
  -5  -5 -11   70.77   12.47
   5  -5 -11   72.26   12.43
  -5  -5  11   65.53   11.88
  -5   5  11   72.70   13.19
   5  -5  11   65.21   11.98
   5   5  11   73.12   11.46
   5   5  11   69.95   12.49
   5  -5  11   65.85   10.62
  -5  -5  11   63.98   12.35
   5  -5 -12  228.85   23.70
  -5  -5 -12  275.04   23.70
  -5   5  12  218.98   23.15
  -5  -5  12  260.77   23.34
   5  -5  12  270.37   25.47
  -5   5  12  278.63   24.85
   5   5  12  247.90   21.02
   5   5  12  233.80   22.64
   5  -5  12  236.49   21.61
  -5  -5  12  241.86   24.14
  -5  -5  13    2.46    2.71
   5  -5  13   -1.11    2.34
   5   5  13    3.01    4.07
  -5  -5 -13    4.73    1.31
  -5   5  13   -0.79    2.72
   5  -5 -13    5.98    3.51
  -5  -5  13   -1.18    1.33
  -5   5  13   -0.47    3.42
   5   5  13    0.01    1.12
   5  -5  14   10.32    5.38
   5   5  14    8.63    7.04
  -5  -5 -14    6.31    4.66
  -5   5  14    9.79    5.24
   5  -5 -14    3.21    3.54
  -5  -5  14    6.22    2.49
  -5   5  14   -0.28    3.41
   5   5  14    2.98    3.18
  -5  -5  14    3.80    3.99
   5  -5  15    4.88    5.79
   5   5  15    7.27    4.23
  -5  -5 -15   10.43    5.51
  -5   5  15   13.80    6.06
   5  -5 -15   16.87    5.66
  -5  -5  15    7.86    5.35
  -5   5  15    9.54    5.90
   5   5  15   14.55    5.18
   5  -5  16   30.55    9.49
   5   5  16   21.35    7.51
  -5  -5 -16   45.18   11.39
  -5   5  16   41.46   11.15
  -5  -5  16   51.30   11.68
  -5   5  16   45.17   10.58
   5   5  16   22.26    7.62
   5   5  17   -1.03    2.99
  -5  -5 -17   -1.69    2.35
  -5   5  17   -2.97    2.37
  -5  -5  17    3.38    5.72
  -5   5  17    0.02    2.85
   5   5  17    1.83    5.49
   5  -5  17    1.95    3.31
   5   5  18   22.41    8.63
  -5  -5 -18    6.83    5.20
  -5   5  18   27.27    8.50
  -5  -5  18   22.14    6.28
   5   5  18   20.35    6.46
  -5   5  18    7.43    6.94
   5  -5  18    7.59    5.72
   5   5  19    1.88    6.72
  -5  -5 -19   -1.61    4.81
  -5   5  19    0.73    3.48
  -5  -5  19    5.08    4.43
   5   5  19    8.46    4.04
  -5   5  19    0.24    4.70
   5  -5  19   -4.82    3.39
   5   5  20    1.38    3.17
  -5  -5 -20    0.07    4.52
  -5   5  20   -1.29    5.37
  -5  -5  20   -5.47    5.97
   5  -5  20   -0.02    2.06
   5   5  20   -3.04    5.11
  -5   5  20    2.99    3.95
   5  -5  21  115.65   18.60
  -5  -5 -21   54.65   15.16
  -5   5  21   67.31   15.03
   5   5  21  117.90   18.05
  -5  -5  21   82.46   15.70
  -5   5  21   63.12   14.59
   5   5  21  101.07   17.94
   5   5  22    3.07    6.98
  -5  -5 -22   16.66    5.04
  -5   5  22    9.77    5.46
  -5  -5  22    6.47    6.60
   5  -5  22    8.73    7.77
   5   5  22   11.40    7.03
  -5   5  22   11.50    9.33
   5  -5  22    1.09    4.43
   5   5  23   61.49   15.70
  -5  -5 -23   29.39   12.23
  -5   5  23   53.73   13.81
   5  -5  23   56.98   13.03
  -5  -5  23   39.96   11.72
  -5   5  23   29.07   12.18
   5  -5  23   37.44    9.53
   5   5  24   53.81   13.85
  -5  -5 -24   44.69   12.94
  -5   5  24   47.28   12.39
   5  -5  24   62.25   14.16
  -5  -5  24   55.28   13.47
  -5   5  24   48.65   13.81
   5  -5  24   48.26   12.26
   5   5  25   -2.98    2.06
  -5  -5 -25   -2.16    5.18
  -5   5  25   -0.66    2.62
   5  -5  25    1.26    5.34
  -5  -5  25    5.00    4.94
  -5   5  25   -4.17    4.85
   5  -5  25    5.76    8.67
   5   5  26   13.04    4.36
   5  -5  26   20.14   10.02
  -5   5  26    9.87    2.45
  -5  -5  26   21.00    8.17
  -5   5  26   10.40    6.17
   5  -5  26    6.98    6.43
   5   5  27   -3.18    7.12
   5  -5  27    3.63    3.95
  -5  -5  27   15.37    7.30
  -5   5  27   15.30    8.94
  -5   5  27    5.51    3.47
   5  -5  27    4.53    6.51
   5   5  28   10.23    3.43
   5  -5  28   26.05   10.91
  -5   5  28   33.59   12.12
  -5  -5  28   11.77    7.63
  -5   5  28    8.47    4.51
   5  -5  28   26.14   10.53
  -5  -6   0    0.32    2.23
   5  -6   0    4.51    4.11
   5  -6   0   -1.71    3.39
  -5  -6   1  538.18   33.18
  -5  -6  -1  515.20   32.18
   5  -6   1  485.33   27.56
   5  -6  -1  554.35   30.01
   5  -6   1  480.92   30.84
  -5   6   1  538.78   35.99
   5  -6  -1  478.30   30.62
  -5  -6   2  232.95   22.48
   5  -6   2  252.88   20.04
  -5  -6  -2  248.12   22.43
   5  -6  -2  247.60   19.85
   5  -6   2  198.54   19.89
  -5   6   2  275.72   25.18
   5  -6  -2  271.61   23.28
  -5  -6   3  349.57   27.16
   5  -6   3  321.97   23.12
  -5  -6  -3  291.33   24.16
   5  -6  -3  327.41   23.13
   5  -6   3  282.69   23.90
   5  -6  -3  277.77   23.60
  -5   6   3  305.37   27.65
  -5  -6   4  116.40   15.31
   5  -6   4   99.30   12.74
  -5  -6  -4  108.03   14.96
   5  -6   4   95.16   13.75
   5  -6  -4   96.17   12.96
  -5   6   4   80.45   14.59
   5   6   4   74.08    9.92
   5  -6  -4  112.98   15.26
  -5  -6   5  153.50   17.95
   5  -6  -5  163.06   18.73
   5  -6   5  170.43   17.21
   5  -6   5  153.50   17.80
  -5  -6  -5  163.36   18.36
   5  -6  -5  166.07   17.35
  -5   6   5  172.33   19.99
   5   6   5  155.07   14.45
  -5  -6   6    7.43    3.19
   5  -6   6   12.83    3.97
   5  -6  -6    8.52    4.90
  -5  -6  -6   10.95    5.60
  -5  -6   6   25.03    7.03
  -5   6   6   14.35    6.31
   5  -6  -6   20.18    6.37
   5  -6   6   20.24    7.82
   5   6   6   12.30    4.58
  -5  -6   7   30.72    7.60
   5  -6   7   15.20    4.76
  -5  -6  -7   26.93    8.62
  -5   6   7   22.56    6.91
   5  -6  -7   19.88    6.12
  -5  -6   7   30.46    6.50
   5  -6   7   37.46    8.33
   5  -6  -7   11.57    5.86
   5   6   7   16.72    6.38
   5   6   8   26.80    6.38
   5  -6   8   44.97    8.62
  -5  -6   8   44.72   10.14
   5  -6  -8   59.60   10.91
  -5  -6  -8   43.82    9.49
   5  -6  -8   38.89    9.77
  -5   6   8   44.66   10.69
  -5  -6   8   48.20    8.84
   5  -6   8   37.24    9.93
   5  -6   9  240.90   20.77
  -5  -6   9  245.01   23.33
  -5  -6  -9  308.60   25.62
   5  -6  -9  285.91   24.34
  -5   6   9  291.21   26.63
   5  -6  -9  265.68   24.90
  -5  -6   9  264.61   21.43
   5   6   9  274.45   22.39
   5  -6   9  317.47   26.61
   5   6  10    2.17    2.95
   5  -6  10    1.81    3.28
  -5  -6  10    6.94    7.66
   5  -6  10    7.04    5.27
  -5  -6 -10    5.13    2.62
  -5   6  10    7.14    3.82
   5  -6 -10    0.58    1.74
  -5  -6  10    6.14    2.87
   5  -6  11   43.89    8.44
  -5  -6  11   49.23   11.39
   5  -6  11   45.50   11.17
  -5  -6 -11   46.80   10.60
  -5   6  11   56.22   12.13
   5  -6 -11   30.88    7.55
  -5  -6  11   33.15    7.82
   5   6  11   57.37   11.48
  -5  -6 -12  137.76   18.30
  -5   6  12  187.48   22.31
   5  -6 -12  163.32   20.29
  -5  -6  12  150.57   17.77
   5  -6  12  190.76   21.77
   5   6  12  180.24   20.35
   5  -6  12  148.83   17.02
  -5  -6  12  189.32   21.70
   5  -6  13   51.43   10.92
  -5  -6  13   51.58   11.52
  -5  -6 -13   58.06   11.99
   5  -6 -13   71.67   14.34
  -5   6  13   50.50   12.01
   5  -6  13   65.04   13.44
  -5   6  13   50.07   10.93
  -5  -6  13   59.47   11.65
   5   6  13   69.90   12.86
  -5  -6  14    7.78    3.54
   5   6  14    8.79    4.05
   5  -6  14    4.24    5.08
  -5  -6 -14   12.60    6.95
  -5   6  14   11.68    8.17
   5  -6 -14   -2.36    3.97
  -5  -6  14   12.29    7.51
  -5   6  14   -1.09    3.91
   5  -6  14    6.72    5.00
  -5  -6 -15  172.45   20.59
   5  -6 -15  183.82   22.43
  -5   6  15  172.97   22.03
   5  -6  15  171.76   22.53
  -5  -6  15  161.18   19.84
  -5   6  15  194.13   22.67
   5   6  15  173.51   20.73
  -5  -6  15  158.65   20.80
   5  -6  16    2.66    4.26
   5   6  16    6.62    5.32
  -5  -6 -16    4.49    6.14
  -5   6  16   -0.24    3.44
   5  -6 -16    4.66    4.06
  -5  -6  16    3.32    5.77
  -5   6  16   -1.62    4.33
  -5  -6  16    3.97    6.99
   5  -6  17    9.12    5.93
   5   6  17    4.73    4.91
  -5  -6 -17    2.72    2.39
  -5   6  17    1.86    6.29
   5  -6 -17    3.04    4.16
  -5  -6  17   -0.46    2.31
  -5   6  17    4.22    4.29
   5   6  18    1.22    2.19
  -5  -6 -18   -0.90    4.67
  -5   6  18   -1.51    2.00
   5  -6 -18    9.44    7.90
  -5  -6  18   -0.73    3.49
  -5   6  18   -2.27    2.51
   5  -6  18   -0.66    2.24
   5   6  19   11.15    7.13
  -5  -6 -19   10.95    6.10
  -5   6  19   10.53    6.30
   5  -6 -19    8.73    5.08
  -5   6  19    4.88    6.23
   5  -6  19   26.41    9.38
  -5  -6 -20  202.34   25.56
   5  -6  20  206.76   25.60
  -5   6  20  207.54   25.69
   5  -6 -20  179.59   24.94
  -5  -6  20  204.81   24.82
  -5   6  20  181.38   24.25
   5   6  20  227.76   26.76
   5   6  21    5.89    6.00
  -5  -6 -21   -4.83    1.67
  -5   6  21    0.82    3.78
   5  -6 -21    4.11    7.36
  -5  -6  21   -1.50    3.23
   5  -6  21    9.91    7.19
  -5   6  21    1.34    4.43
   5  -6  22  173.08   24.32
  -5  -6 -22   82.56   20.49
   5  -6 -22  168.37   24.14
  -5   6  22  148.59   23.26
  -5  -6  22  181.78   23.42
  -5   6  22  173.88   24.06
   5   6  22  156.59   22.43
   5  -6  22  136.52   22.32
   5   6  23   17.43    9.28
  -5  -6 -23   15.21    5.45
  -5   6  23   43.77   13.47
   5  -6 -23   15.28    8.78
  -5  -6  23   28.50   10.35
   5  -6  23   17.35    8.73
  -5   6  23   24.91    8.03
   5  -6  23   24.94   10.17
   5   6  24   45.88   12.41
  -5  -6 -24   26.60   10.02
  -5   6  24   59.70   15.47
   5  -6 -24   55.72   15.57
  -5  -6  24   21.10   10.54
   5  -6  24   41.09   12.72
  -5   6  24   24.15    9.18
   5  -6  24   22.24    7.94
   5   6  25   22.70   10.55
  -5   6  25   -4.14    6.83
   5  -6 -25   -1.45    4.40
   5  -6  25    7.26    7.14
  -5  -6  25   -0.56    8.03
  -5   6  25    2.90    5.18
   5  -6  25   13.27    8.71
   5   6  26   13.49    8.37
  -5   6  26    3.02    4.96
   5  -6 -26   -0.41    6.21
   5  -6  26    9.16    7.19
  -5  -6  26   12.77    6.64
  -5   6  26    5.89    2.46
   5  -6  26    8.82    3.13
   5   6  27   16.65    8.27
  -5   6  27   19.23    6.65
   5  -6  27   31.97   10.98
   5  -6 -27    7.31    6.21
  -5  -6  27    6.85    3.87
  -5   6  27   32.83   12.35
   5  -6  27   34.85   11.85
  -5  -7   0    1.04    4.18
   5  -7   0    2.20    2.27
   5  -7   0   -2.64    4.10
  -5  -7  -1   66.70   11.96
   5  -7  -1   56.16   10.55
  -5  -7   1   58.02   11.20
   5  -7   1   42.50    8.90
   5  -7   1   57.31   11.18
   5  -7  -1   32.71    9.44
  -5  -7   2  465.79   33.33
   5  -7   2  547.56   32.32
  -5  -7  -2  464.11   32.34
   5  -7  -2  525.50   31.94
   5  -7   2  526.28   33.85
  -5   7   2  528.98   37.06
   5  -7  -2  458.36   32.29
  -5  -7   3  143.97   18.94
   5  -7   3  174.66   18.44
  -5  -7  -3  200.71   21.22
   5  -7  -3  202.20   19.45
   5  -7   3  195.11   20.38
  -5   7   3  207.08   23.51
   5  -7  -3  205.47   21.58
  -5  -7   4  179.14   20.71
   5  -7   4  154.02   17.00
  -5  -7  -4  154.28   18.81
   5  -7  -4  141.05   16.24
   5  -7   4  169.17   19.62
  -5   7   4  159.29   19.94
   5  -7  -4  132.34   16.96
  -5  -7   5   40.34   10.06
  -5  -7  -5   56.41   12.31
   5  -7   5   42.24    9.22
   5  -7  -5   55.93   10.41
  -5   7   5   54.26   11.12
   5   7   5   44.44    8.55
   5  -7   5   46.12    9.52
   5  -7  -5   68.35   12.33
   5  -7  -6    1.13    4.26
  -5  -7   6    5.45    3.36
   5  -7   6   -1.77    1.74
  -5  -7  -6   -3.40    4.04
  -5   7   6    2.02    3.82
   5  -7  -6    1.94    4.03
   5   7   6   -0.18    1.15
   5  -7   6    8.60    5.84
  -5  -7   7    2.54    3.72
   5  -7   7    2.19    4.53
  -5  -7  -7    2.81    3.68
   5  -7  -7    1.04    1.33
  -5   7   7   -2.86    3.73
   5  -7  -7    0.82    4.22
   5  -7   7    8.12    5.77
   5   7   7   -1.47    1.54
   5  -7   8   75.70   12.13
  -5  -7   8   52.49   10.76
  -5  -7  -8   68.70   12.12
   5  -7  -8   58.04   11.36
  -5   7   8   69.77   14.42
   5   7   8   69.43   11.33
   5  -7  -8   67.04   11.82
   5  -7   8   79.32   13.40
  -5  -7   9  188.15   21.96
   5  -7   9  202.00   20.40
  -5  -7  -9  209.25   22.12
   5  -7  -9  187.31   21.56
   5  -7  -9  237.85   23.27
  -5   7   9  169.98   20.35
   5   7   9  180.48   19.19
   5  -7   9  210.92   22.15
  -5  -7  10    7.23    5.48
   5  -7  10   -0.45    2.52
   5  -7  10   -2.95    4.06
   5  -7 -10   13.47    7.20
  -5   7  10    5.12    4.35
   5  -7 -10   -0.80    2.32
  -5  -7 -10    3.35    3.79
   5   7  10    2.70    1.65
   5  -7  11   91.76   14.62
  -5  -7  11   68.05   13.49
  -5  -7 -11   74.42   14.08
   5  -7 -11   85.48   14.17
   5  -7  11   65.23   12.57
   5  -7 -11   89.48   15.12
  -5   7  11   81.29   16.30
   5   7  11   46.07   10.40
   5   7  12   23.63    7.48
   5  -7  12   30.38    8.74
  -5  -7  12   25.64    9.65
   5  -7  12   19.36    3.41
  -5   7  12   31.00    9.67
   5  -7 -12   32.22    9.63
  -5  -7 -12   13.06    5.79
  -5  -7 -13   80.26   14.45
   5  -7 -13   76.09   14.35
  -5   7  13  117.16   18.10
   5  -7  13   91.83   15.85
   5   7  13   94.59   14.20
   5  -7  13   81.49   13.97
  -5  -7  13   95.63   16.18
   5   7  14   67.23   13.08
  -5  -7  14   60.81   13.41
   5  -7  14   67.37   12.60
  -5  -7 -14   81.14   13.84
  -5   7  14   89.59   16.56
   5  -7  14   71.26   14.37
   5  -7  15   21.87    7.67
  -5  -7  15   12.50    4.65
   5   7  15   30.51   10.49
   5  -7  15   20.41    7.14
  -5  -7 -15    8.75    5.99
  -5   7  15   10.71    8.18
   5  -7 -15   13.40    5.45
  -5   7  15    6.77    3.82
  -5  -7  16   31.06   10.78
   5   7  16   14.50    4.89
   5  -7  16   19.01    7.69
  -5  -7 -16   16.61    5.91
  -5   7  16   13.91    7.31
   5  -7 -16    7.50    2.42
  -5  -7  16    3.22    5.36
  -5   7  16   23.84    8.21
   5  -7  16   20.36    6.86
  -5  -7  17    5.58    5.52
   5   7  17    2.93    3.90
   5  -7  17    2.23    4.21
  -5  -7 -17    9.03    6.06
  -5   7  17    0.65    1.86
   5  -7 -17    9.89    3.96
  -5  -7  17    7.56    8.25
  -5   7  17    6.24    5.55
   5  -7  18   -1.02    2.61
   5   7  18   -1.73    4.16
  -5  -7 -18   -0.93    4.62
  -5   7  18   -2.49    1.78
   5  -7 -18    1.56    2.98
  -5   7  18   -4.57    7.53
  -5  -7  18    0.62    2.37
   5  -7  19   11.42    5.85
   5   7  19    7.11    3.85
  -5  -7 -19   15.82    8.20
  -5   7  19    7.66    9.18
   5  -7 -19    5.16    5.81
  -5  -7  19    3.31    7.61
  -5   7  19    5.34    2.09
   5   7  20   11.52    6.40
  -5  -7 -20   -7.13    7.35
  -5   7  20   -5.94    4.83
   5  -7 -20   -3.92    4.80
  -5  -7  20    0.45    4.11
  -5   7  20   -3.49    6.09
   5  -7  20   -2.14    5.30
   5   7  21   14.32    7.35
  -5  -7 -21    6.93    5.93
  -5   7  21   15.77    7.57
   5  -7 -21   12.82    8.02
  -5  -7  21   15.83    7.40
  -5   7  21    9.41    3.36
   5  -7  21   17.49    9.05
   5   7  22    2.85    2.96
  -5   7  22    4.46    5.79
   5  -7 -22   -0.70    3.62
  -5  -7  22    0.45    3.36
  -5   7  22    3.92    5.00
   5  -7  22    0.39    2.10
  -5  -7 -22    2.28    5.78
   5  -7  22   -2.60    3.25
   5   7  23    2.20    2.74
  -5  -7 -23   -0.44    5.17
  -5   7  23    5.69    7.71
   5  -7 -23   14.36    8.86
  -5  -7  23   -0.38    2.11
   5  -7  23   13.34    7.81
  -5   7  23    4.25    5.05
   5  -7  23    9.75    6.96
   5   7  24   10.08    6.16
  -5  -7 -24    3.57    5.18
  -5   7  24   12.49    6.83
   5  -7 -24   10.54    7.17
  -5  -7  24    8.99    6.76
   5  -7  24    5.65    1.96
  -5   7  24    3.05    4.54
   5  -7  24   30.65   12.20
   5   7  25   11.38    4.19
  -5   7  25   17.03    7.17
   5  -7 -25    4.38    4.26
  -5  -7  25    9.42    5.87
   5  -7  25   12.20    7.39
  -5   7  25   13.22    6.21
   5  -7  25    7.19    5.06
   5   7  26    5.59    6.09
  -5   7  26   11.36    5.28
   5  -7 -26    0.53    3.96
   5  -7  26    0.03    4.99
  -5  -7  26    3.17    4.08
  -5   7  26    3.11    4.98
   5  -7  26   19.91    8.07
  -5  -8   0    2.96    5.63
   5  -8   0   -1.97    3.56
   5  -8   0    1.46    1.50
  -5  -8   1  731.94   43.26
  -5  -8  -1  733.34   43.06
   5  -8   1  654.63   38.11
   5  -8  -1  649.93   38.15
   5  -8   1  681.12   40.17
   5  -8  -1  710.35   41.04
  -5  -8   2  103.94   16.13
   5  -8   2  105.03   14.93
  -5  -8  -2  137.98   18.57
   5  -8  -2  112.16   15.46
   5  -8   2  157.71   19.84
  -5   8   2  128.45   18.33
   5  -8  -2  129.37   17.61
   5  -8  -3    3.94    3.54
  -5  -8   3    7.02    4.92
   5  -8   3    6.38    1.90
   5  -8   3    5.56    3.41
  -5  -8  -3    4.51    5.07
   5  -8  -3    6.10    1.68
  -5   8   3    1.19    1.67
   5  -8   4   33.34    9.51
  -5  -8   4   27.07    9.36
   5  -8   4   42.10    9.60
  -5  -8  -4   20.58    7.47
   5  -8  -4   39.08    9.62
   5  -8  -4   18.87    5.07
  -5   8   4   25.20    9.30
  -5  -8   5 1273.69   57.07
   5  -8   5 1172.76   51.73
  -5  -8  -5 1135.36   53.59
   5  -8   5 1271.31   54.56
   5  -8  -5 1217.64   52.89
  -5   8   5 1168.28   57.70
   5  -8  -5 1182.21   53.90
   5  -8  -6   33.60    9.27
  -5  -8   6   29.03    9.04
   5  -8   6   24.45    7.48
  -5  -8  -6   39.15    9.50
   5   8   6   24.29    6.45
   5  -8  -6   25.54    8.51
   5  -8   6   31.39    8.65
  -5   8   6   33.03   10.12
  -5  -8   7    7.97    5.26
   5  -8  -7   -1.31    2.35
   5  -8   7    1.92    2.52
  -5  -8  -7    1.28    2.06
   5  -8  -7    2.64    4.51
  -5   8   7    2.41    3.89
   5  -8   7    3.00    4.43
   5   8   7   -1.08    4.07
  -5  -8   8   25.05    8.42
   5  -8   8   20.41    7.39
  -5  -8  -8   19.29    8.31
   5  -8  -8   31.53    9.61
   5  -8  -8   19.83    8.05
  -5   8   8   23.24    7.80
   5  -8   8   27.42    8.64
   5   8   8   23.42    7.58
  -5  -8   9  579.84   39.81
   5  -8   9  571.98   36.76
  -5  -8  -9  649.52   41.88
   5  -8  -9  546.07   37.87
   5  -8  -9  574.32   37.50
  -5   8   9  593.55   40.77
   5   8   9  591.30   36.39
   5  -8   9  582.55   38.63
  -5  -8  10   69.16   13.67
   5  -8  10  106.02   16.46
  -5  -8 -10  103.28   16.49
   5  -8 -10   73.71   13.41
   5  -8 -10   93.86   15.00
  -5   8  10   65.63   13.34
   5   8  10  102.28   16.19
   5  -8  10   79.92   14.14
   5  -8 -11   41.00   11.62
  -5  -8  11   26.80    8.40
   5  -8  11   32.48    8.28
   5  -8  11   48.91   12.32
  -5  -8 -11   48.05   11.44
  -5   8  11   44.61   12.37
   5  -8 -11   50.52   12.47
   5   8  11   28.36    8.42
   5  -8  12   46.94   10.42
  -5  -8  12   49.33   11.55
   5  -8 -12   37.41    9.71
   5  -8  12   30.66    7.72
  -5  -8 -12   45.64   11.29
  -5   8  12   31.00    9.44
   5  -8 -12   57.58   13.06
   5   8  12   34.30   10.12
  -5  -8 -13  189.74   23.49
   5  -8 -13  174.68   22.17
  -5   8  13  205.54   25.69
   5   8  13  221.55   24.72
   5  -8  13  228.70   25.22
   5  -8  13  200.14   23.56
  -5  -8  13  276.39   27.88
   5  -8  14   -2.55    5.52
  -5  -8  14   -2.80    4.28
   5  -8  14   -2.36    4.71
  -5  -8 -14   -4.61    4.38
  -5   8  14   -5.23    4.24
   5  -8 -14    4.96    5.35
   5   8  14   -2.49    2.62
   5  -8  15    6.13    4.69
  -5  -8  15    9.87    6.63
   5  -8  15   14.08    8.95
   5  -8 -15   19.35    9.45
  -5  -8 -15   13.61    7.49
  -5   8  15    6.19    6.99
   5   8  15    2.10    3.44
   5  -8  16   -3.66    3.97
  -5  -8  16    3.48    1.59
   5  -8 -16   10.11    4.45
   5  -8  16    7.20    4.59
  -5  -8 -16   -0.97    3.02
  -5   8  16    2.05    4.41
   5   8  16   10.43    7.89
  -5  -8 -17  147.67   21.75
   5  -8 -17  138.34   20.87
  -5   8  17  191.89   24.10
   5  -8  17  165.08   22.82
   5   8  17  177.36   22.68
   5  -8  17  157.73   20.93
  -5  -8  17  130.64   20.84
   5   8  18    1.98    5.57
  -5  -8  18    6.88    5.42
   5  -8  18    0.56    3.49
  -5  -8 -18   -2.53    3.01
  -5   8  18   -3.39    5.08
   5  -8 -18   -0.83    3.02
  -5   8  18    5.28    2.13
   5  -8  19  117.13   19.90
  -5  -8 -19  113.21   19.50
   5  -8 -19   78.74   20.10
  -5   8  19  127.71   22.28
  -5   8  19  106.22   18.60
   5   8  19  104.83   18.49
  -5  -8  19  124.36   20.87
   5   8  20    3.66    5.69
  -5  -8 -20   -1.63    5.43
  -5   8  20   15.44    6.80
   5  -8 -20    7.64    6.97
  -5   8  20   -1.22    4.12
   5  -8  20    5.66    6.68
   5   8  21   45.81   13.18
  -5  -8 -21   27.79    9.56
  -5   8  21   38.66   11.62
   5  -8 -21   45.56   12.13
  -5   8  21   71.37   14.26
   5  -8  21    9.80    8.85
   5   8  22    6.56    7.75
  -5  -8 -22    4.10    3.66
  -5   8  22    3.06    6.43
   5  -8 -22    5.50    3.55
  -5   8  22   -0.96    3.49
   5  -8  22    6.30    6.06
   5  -8  22    1.85    4.20
   5   8  23  103.88   19.10
  -5  -8 -23   80.24   17.86
   5  -8  23  108.39   19.52
   5  -8 -23  108.02   21.29
  -5   8  23   77.13   16.16
  -5   8  23   91.99   18.70
   5  -8  23  107.81   19.45
   5   8  24    6.62    7.19
  -5  -8 -24   -6.04    6.87
  -5   8  24    5.36    6.76
   5  -8 -24    3.34    5.27
  -5   8  24   -1.78    6.11
   5  -8  24    6.52    6.30
   5  -8  24   -2.90    5.11
   5   8  25   16.98    9.53
  -5  -8 -25   15.93   11.44
  -5   8  25   -2.23    4.12
   5  -8 -25    6.96    7.68
   5  -8  25    3.65    4.89
  -5   8  25    3.29    4.12
   5  -8  25    3.79    8.19
  -5  -9   0   -0.15    3.29
   5  -9   0    1.07    3.53
   5  -9   0   -2.93    5.96
  -5  -9   1  292.13   29.02
  -5  -9  -1  295.24   28.01
   5  -9   1  276.33   26.47
   5  -9  -1  260.63   25.86
   5  -9   1  288.93   26.93
   5  -9  -1  284.01   26.84
  -5  -9   2   13.13    6.51
   5  -9   2   11.32    3.70
  -5  -9  -2    3.12    4.29
   5  -9  -2   -0.55    5.71
   5  -9   2   12.37    4.96
   5  -9  -2   15.52    5.36
   5  -9  -3   12.22    6.40
  -5  -9   3   13.30    7.03
   5  -9   3   -2.55    4.47
   5  -9   3    1.12    2.14
  -5  -9  -3   -0.09    3.04
   5  -9  -3    9.19    6.04
  -5   9   3    8.42    5.19
   5  -9   4   34.35    9.53
  -5  -9   4   42.10   11.44
   5  -9   4   40.20   10.83
   5  -9  -4   34.05    9.22
  -5  -9  -4   25.60    8.13
   5  -9  -4   58.56   12.56
  -5   9   4   52.16   11.63
  -5  -9   5   60.66   13.84
   5  -9   5   57.80   12.87
   5  -9   5   69.34   13.97
  -5  -9  -5   63.93   13.41
   5  -9  -5   51.48   11.96
   5  -9  -5   59.37   12.92
  -5   9   5   69.18   14.37
  -5  -9   6  168.23   22.00
   5  -9   6  124.37   18.42
   5  -9   6  133.75   18.61
  -5  -9  -6  139.43   19.77
   5  -9  -6  151.74   19.47
  -5   9   6  115.75   19.73
   5  -9  -6  115.41   17.86
  -5  -9   7   -0.75    3.36
   5  -9   7   -2.71    4.85
  -5  -9  -7   -0.40    3.42
   5  -9  -7   -3.84    4.67
  -5   9   7   -0.95    4.85
   5  -9   7   -2.22    5.54
   5  -9  -7    3.09    7.50
  -5  -9   8   15.40    7.77
   5  -9  -8   29.77    8.86
   5  -9   8   24.17    9.26
  -5  -9  -8   18.15    8.32
   5  -9  -8   12.79    8.14
  -5   9   8   22.77    8.02
   5   9   8   27.40    7.45
   5  -9   8   12.72    6.65
  -5  -9   9   26.79    8.93
   5  -9   9   49.55   11.21
   5  -9  -9   29.52    9.44
  -5  -9  -9   37.95   10.47
   5  -9  -9   33.48    9.68
  -5   9   9   43.21   12.00
   5  -9   9   27.38    8.03
   5   9   9   21.70    7.22
  -5  -9  10   27.39    9.56
   5  -9  10   17.81    7.31
  -5  -9 -10   15.96    6.89
   5  -9 -10   16.24    6.23
  -5   9  10    4.58    5.42
   5  -9  10   23.05    8.38
   5  -9 -10   14.14    6.22
   5   9  10   11.31    6.46
  -5  -9  11   32.39    9.09
   5  -9  11   27.05    8.09
   5  -9 -11   35.99   10.99
  -5  -9 -11   26.86    8.67
   5  -9 -11   29.71    8.82
  -5   9  11   30.35   11.40
   5   9  11   29.27    8.04
   5  -9  11   37.43   10.89
   5  -9  12   88.28   15.20
  -5  -9  12  109.74   18.36
  -5  -9 -12  101.22   17.82
  -5   9  12  106.96   19.81
   5  -9 -12   61.67   14.95
   5  -9 -12   68.95   13.47
   5   9  12  103.43   16.86
   5  -9  12   68.76   14.15
   5  -9  13   -3.09    5.11
  -5  -9  13    1.11    2.56
   5  -9  13    5.55    5.31
   5  -9 -13   -3.55    2.39
  -5  -9 -13    3.67    4.35
  -5   9  13   -0.70    3.28
   5  -9 -13    4.68    5.73
   5   9  13    0.09    4.75
   5  -9  14    7.16    6.17
  -5  -9  14    4.74    1.51
   5  -9  14    2.94    3.98
  -5  -9 -14    9.24    5.16
  -5   9  14    3.54    6.12
   5  -9 -14    7.06    3.43
   5  -9 -14    6.61    7.71
   5   9  14    8.20    7.94
   5  -9  15   37.92    9.96
  -5  -9  15   25.44    8.73
   5  -9  15   33.73    9.83
  -5  -9 -15   46.79   11.69
  -5   9  15   37.47    9.88
   5  -9 -15   31.76    8.74
   5   9  15   55.41   13.91
   5  -9  16   29.44   10.25
  -5  -9  16   15.57    7.33
   5  -9  16   37.65   10.76
  -5   9  16   13.99    5.33
   5  -9 -16   26.99    8.65
  -5  -9 -16   42.31   13.13
   5   9  16   13.86    4.83
   5  -9  17    3.52    4.83
  -5  -9  17    4.59    5.23
   5  -9  17    7.90    6.84
  -5  -9 -17    7.34    2.68
  -5   9  17   25.88    8.85
   5  -9 -17    6.89    4.91
   5   9  17   10.58    8.75
  -5  -9  18    0.29    1.61
   5  -9  18   -1.75    2.16
  -5  -9 -18   -8.04    6.95
  -5   9  18   -6.20    2.93
   5  -9 -18   -2.69    4.85
   5   9  18   -2.15    4.49
   5  -9  18   -2.14    3.74
  -5  -9  19   -1.20    6.68
   5  -9  19    2.70    4.35
  -5  -9 -19    5.55    6.35
  -5   9  19   -0.50    5.02
   5  -9 -19   -5.31    5.86
   5   9  19   -5.21    5.83
   5  -9  20   31.34    9.53
  -5   9  20   22.25    8.00
   5  -9 -20   35.98   12.32
  -5  -9 -20    9.91    7.16
   5   9  20   22.39    8.71
  -5  -9  20   14.61    5.28
  -5  -9 -21    4.27    5.61
  -5   9  21   -1.95    2.69
   5  -9 -21    3.02    3.95
  -5   9  21    4.35    5.77
   5   9  21    0.85    5.27
   5  -9  21    2.06    3.81
  -5  -9 -22   -0.67    2.05
  -5   9  22   -3.50    4.41
   5  -9 -22    2.56    4.53
  -5   9  22    7.45    6.77
   5  -9  22    0.38    2.65
   5  -9  22   -2.00    4.52
   5   9  22    1.37    7.03
  -5  -9 -23    3.02    5.91
  -5   9  23    2.47    4.52
   5  -9 -23   -5.65    7.41
  -5   9  23    0.75    5.00
   5  -9  23    7.53    4.97
   5  -9  23   -4.69    2.15
   5   9  23    2.32    3.48
  -5  -9 -24   -0.12    4.26
  -5   9  24    2.73    5.38
   5  -9 -24    1.82    3.30
  -5   9  24    6.64    5.96
   5  -9  24   12.37    5.44
   5  -9  24    2.72    3.54
   5   9  24    7.30    6.27
  -5 -10   0   -0.02    6.65
   5 -10   0    0.92    4.61
   5 -10   0   -2.58    3.33
  -5 -10  -1   78.08   15.43
  -5 -10   1   54.43   12.96
   5 -10   1   40.90   10.75
   5 -10  -1   74.18   14.08
   5 -10   1   65.39   13.52
   5 -10  -1   84.17   15.29
  -5 -10   2  187.61   23.40
   5 -10   2  169.68   22.04
  -5 -10  -2  137.98   21.07
   5 -10  -2  168.51   21.76
   5 -10   2  149.92   20.19
   5 -10  -2  156.61   20.89
  -5 -10   3  140.41   21.32
   5 -10   3  116.27   18.80
  -5 -10  -3  140.10   20.89
   5 -10  -3  176.03   22.18
   5 -10   3  160.25   19.90
   5 -10  -3  175.69   21.68
  -5 -10   4  331.09   32.50
   5 -10   4  303.77   29.47
  -5 -10  -4  351.76   33.32
   5 -10  -4  310.15   30.06
   5 -10   4  398.28   32.69
   5 -10  -4  319.98   29.68
  -5 -10   5  264.26   28.71
   5 -10   5  259.12   27.16
  -5 -10  -5  308.75   30.90
   5 -10  -5  270.43   27.73
   5 -10   5  280.06   28.06
  -5  10   5  235.56   27.19
   5 -10  -5  257.21   27.19
  -5 -10   6  223.91   26.54
   5 -10   6  197.51   23.37
   5 -10   6  171.90   20.93
  -5 -10  -6  217.71   25.16
   5 -10  -6  179.86   22.36
  -5  10   6  250.19   27.71
   5 -10  -6  172.82   22.23
  -5 -10   7    2.32    4.56
   5 -10   7   -5.29    5.65
   5 -10  -7    2.81    2.73
  -5 -10  -7   11.44    6.56
  -5  10   7   12.69    7.47
   5 -10  -7    8.13    5.39
   5 -10   7   12.42    6.84
  -5 -10   8   28.51   10.08
   5 -10   8   12.03    5.58
  -5 -10  -8   15.00    6.22
  -5  10   8   21.91    9.32
   5 -10   8   10.58    6.55
   5 -10  -8   21.30    8.03
   5 -10  -8   23.89    9.87
   5 -10  -9   -2.10    2.84
  -5 -10   9   -3.19    5.54
   5 -10   9    3.18    7.37
  -5 -10  -9    2.23    5.83
   5 -10  -9   -0.43    3.09
  -5  10   9   -0.70    3.94
   5 -10   9    2.28    2.66
  -5 -10  10    2.82    6.51
   5 -10  10    5.45    4.18
   5 -10 -10    6.33    7.09
  -5 -10 -10    0.73    4.60
   5 -10 -10   -0.72    4.77
  -5  10  10    6.44    8.31
   5 -10  10    6.12    3.45
   5  10  10    3.09    4.12
  -5 -10  11   49.71   11.18
   5 -10  11   29.11   10.65
  -5 -10 -11   50.11   12.89
   5 -10  11   57.27   12.89
   5 -10 -11   29.08   10.48
  -5  10  11   44.63   10.88
   5 -10 -11   56.96   12.89
   5  10  11   64.53   13.57
   5 -10 -12   37.66    9.78
  -5 -10  12   18.55    6.99
   5 -10  12   22.08    9.02
  -5 -10 -12   27.70   10.99
   5 -10  12   25.52    9.88
   5 -10 -12   27.35    8.95
  -5  10  12   18.83    8.72
   5  10  12   24.00   10.76
   5 -10  13   88.05   16.92
  -5 -10  13   89.41   16.70
  -5 -10 -13   80.70   17.69
   5 -10 -13   70.06   14.95
   5 -10  13   67.73   14.21
   5 -10 -13   75.56   15.18
  -5  10  13   84.73   18.11
   5  10  13   66.35   14.08
   5 -10  14   -0.53    4.98
  -5 -10  14    9.07    7.11
   5 -10  14   -2.21    2.21
  -5 -10 -14   -4.37    2.96
   5 -10 -14   10.73    7.99
  -5  10  14   -1.49    4.00
   5 -10 -14   -0.68    1.99
   5  10  14   -3.11    3.57
   5 -10  15   -5.32    5.34
  -5 -10  15    3.93    5.13
   5 -10  15   -3.58    2.46
   5 -10 -15    4.59    5.70
  -5 -10 -15   -0.50    3.44
   5 -10 -15   -0.15    2.95
  -5  10  15    9.48    8.08
   5  10  15    4.44    3.68
   5 -10  16   50.23   13.16
  -5 -10  16   57.68   13.08
  -5 -10 -16   99.51   18.71
   5 -10 -16   75.75   15.32
   5 -10 -16  100.84   18.37
  -5  10  16   64.23   15.53
   5 -10  16   67.96   15.06
   5  10  16   66.59   14.60
   5 -10  17   -5.98    5.30
  -5 -10  17    0.98    4.35
   5 -10  17   10.62    5.84
   5 -10 -17   12.19    7.87
  -5 -10 -17   -0.14    2.84
   5 -10 -17    3.99    5.03
  -5  10  17    4.94    6.31
   5  10  17    9.52    4.93
  -5 -10  18   -0.81    3.43
   5 -10  18   -5.98    4.95
  -5 -10 -18    3.74    4.89
  -5  10  18   -6.15    6.94
   5 -10 -18   -1.53    2.57
   5  10  18   -2.47    6.98
  -5 -10  19   16.58    8.54
   5 -10  19    9.62    8.30
  -5 -10 -19   -4.14    4.21
  -5  10  19    6.27    7.47
   5 -10 -19   -5.38    7.90
   5  10  19    7.46    6.68
  -5 -10  20   28.56   10.80
   5 -10  20   48.62   13.14
  -5  10  20   40.87   15.35
   5 -10 -20   42.37   13.01
  -5 -10 -20   33.43   10.16
   5  10  20   47.84   12.65
   5 -10  21   -6.86    5.86
  -5 -10 -21    9.01    4.98
  -5  10  21   12.92    7.67
   5 -10 -21    3.05    4.05
   5  10  21   -3.55    6.60
  -5 -10  21   15.22   10.15
  -5 -10 -22   43.85   12.40
  -5  10  22   68.87   17.18
   5 -10 -22   43.34   12.83
   5  10  22   49.77   13.32
   5 -10  22   48.89   13.25
   5 -10  22   32.30   15.27
  -5 -11   0    0.52    1.56
   5 -11   0   -0.02    1.75
   5 -11   0   -2.17    4.25
  -5 -11   1   -1.24    5.21
  -5 -11  -1    2.37    4.86
   5 -11   1   -4.80    4.98
   5 -11  -1    0.21    4.62
   5 -11   1    1.61    2.27
   5 -11  -1   -1.27    4.90
  -5 -11   2   78.02   16.91
  -5 -11  -2  103.27   17.50
   5 -11  -2   99.34   17.41
   5 -11   2   77.10   14.45
   5 -11   2   72.85   14.66
   5 -11  -2  101.44   16.96
  -5 -11   3   15.39    7.78
   5 -11   3   21.63    7.39
   5 -11   3   21.01    9.67
   5 -11  -3   26.56    8.77
   5 -11  -3   33.55   11.11
   5 -11  -4    0.89    3.59
   5 -11   4    2.06    5.65
  -5 -11   4    0.26    3.39
   5 -11   4   -1.93    3.82
  -5 -11  -4    6.68    1.89
   5 -11  -4   -0.29    2.50
   5 -11   5    1.92    1.90
  -5 -11   5   10.77    8.61
   5 -11  -5   12.57    5.16
   5 -11   5    0.20    1.96
  -5 -11  -5   15.74    6.87
   5 -11  -5    0.21    4.96
  -5 -11   6    5.54    8.74
   5 -11   6    8.43    2.01
   5 -11  -6   10.61    7.23
  -5 -11  -6   -7.56    7.24
   5 -11  -6    2.87    3.12
  -5  11   6   -4.53    7.80
   5 -11   6    3.71    3.94
  -5 -11   7   63.47   13.26
   5 -11   7   62.78   13.90
  -5 -11  -7   60.42   14.20
   5 -11  -7   60.52   14.15
   5 -11  -7   43.70   11.63
  -5  11   7   36.41   12.50
   5 -11   7   55.03   12.79
  -5 -11   8   14.54    8.98
   5 -11   8   21.70    9.03
  -5 -11  -8   19.83    8.82
   5 -11  -8   18.67    7.52
  -5  11   8   28.35   10.20
   5 -11  -8   19.00    4.50
   5 -11   8   34.00    9.58
   5 -11   9   68.98   14.67
  -5 -11   9   67.51   14.74
   5 -11   9   56.91   13.36
  -5 -11  -9   46.93   13.08
   5 -11  -9   74.44   13.65
  -5  11   9   63.81   14.62
   5 -11  -9   75.19   15.21
   5 -11 -10   35.38    9.38
  -5 -11  10   53.00   12.40
   5 -11  10   29.23    9.42
  -5 -11 -10   21.25   11.82
   5 -11 -10   40.68   12.17
  -5  11  10   33.60   11.62
   5 -11  10   46.13   12.50
  -5 -11  11   67.61   16.41
   5 -11  11   39.97   11.41
   5 -11 -11   33.41    9.81
  -5 -11 -11   33.44    9.34
   5 -11 -11   58.39   13.59
  -5  11  11   44.63   11.60
   5 -11  11   74.05   15.07
  -5 -11  12   42.21   11.89
   5 -11  12   41.93   13.10
  -5 -11 -12   25.49    6.97
   5 -11 -12   35.15   11.39
   5 -11  12   52.58   13.34
   5 -11 -12   45.97   12.22
  -5  11  12   60.16   13.95
  -5 -11  13   -3.13    5.46
   5 -11  13    1.07    5.68
   5 -11  13   -6.38    4.48
  -5 -11 -13    0.73    2.85
   5 -11 -13    4.67    6.15
  -5  11  13   16.45   12.85
   5 -11 -13    4.39    3.79
   5 -11 -14   -4.20    4.87
   5 -11  14    0.73    2.40
  -5 -11  14    0.50    3.01
   5 -11  14    2.41    4.26
  -5 -11 -14   -4.81    6.39
   5 -11 -14   -3.01    2.70
  -5  11  14    3.90    2.50
   5  11  14   -1.84    5.58
   5 -11  15    3.18    2.46
  -5 -11  15    5.69    4.32
   5 -11  15    5.00    1.61
   5 -11 -15    2.19    4.71
  -5 -11 -15   19.88    7.54
  -5  11  15   12.83    7.45
   5  11  15    3.94    6.25
   5 -11 -15    8.98    6.28
  -5 -11  16   46.54   12.81
   5 -11  16   41.27   11.46
  -5 -11 -16   28.73    8.06
   5 -11 -16   29.63    8.09
  -5  11  16   28.91   10.52
   5 -11 -16   34.81   11.59
   5  11  16   15.68    8.26
   5 -11 -17   11.01    7.30
  -5 -11  17   13.63    7.23
   5 -11  17   16.59    9.12
  -5 -11 -17   -0.80    4.21
   5 -11 -17    9.32    6.31
  -5  11  17   23.60    9.94
   5  11  17    1.49    6.70
  -5 -11  18    5.19    5.60
   5 -11  18   -5.07    4.47
  -5 -11 -18    6.73    5.14
   5 -11 -18   -4.53    2.63
  -5  11  18    9.29    9.25
   5 -11 -18   -0.93    3.95
   5  11  18    0.59    5.37
  -5 -11  19    2.36    5.12
   5 -11  19    2.17    7.06
   5 -11 -19    5.13    6.78
  -5 -11 -19    4.73    7.27
   5 -11 -19   10.37    8.86
  -5  11  19   14.78   10.29
   5  11  19    9.97    6.61
   5 -11 -20    2.43    5.69
  -5 -11  20   13.67    7.91
   5 -11  20   17.86    8.73
  -5 -11 -20   16.66   10.80
   5 -11 -20   22.31   10.05
  -5  11  20    3.67    7.21
   5  11  20   13.56    8.69
  -5 -11  21   -1.33    2.74
   5 -11  21    2.54    8.21
  -5 -11 -21   -0.40    5.58
   5 -11 -21   -6.27    7.97
  -5  11  21   -7.03    4.84
   5  11  21   -3.92    3.63
  -5 -12   0   -3.60    5.72
   5 -12   0    8.12    6.88
   5 -12   0   -2.62    4.93
  -5 -12   1   19.96    9.04
  -5 -12  -1   14.92    5.53
   5 -12   1   36.70   11.87
   5 -12  -1   13.86    7.48
   5 -12   1   32.49   10.08
  -5 -12   2   14.98    9.54
   5 -12   2   17.91    8.86
  -5 -12  -2    7.54    7.83
   5 -12   2   15.33    7.92
   5 -12  -2   16.90    7.95
   5 -12  -2    3.13    4.09
   5 -12   3   -3.58    5.77
  -5 -12   3    7.94    7.60
   5 -12   3    4.66    3.35
  -5 -12  -3    1.82    4.26
   5 -12  -3   20.97   10.19
   5 -12  -3    7.00    5.28
   5 -12   4   12.15    6.57
  -5 -12   4    9.14    6.28
   5 -12   4   12.28    9.01
  -5 -12  -4    1.01    8.38
   5 -12  -4    5.37    3.12
   5 -12  -4    5.35    1.54
   5 -12   5   44.88   12.08
   5 -12  -5   25.16   10.46
  -5 -12   5   36.36   11.92
   5 -12   5   54.24   13.26
  -5 -12  -5   56.76   15.28
   5 -12  -5   60.64   13.89
  -5 -12   6   13.70    7.55
   5 -12   6   11.21    7.31
   5 -12  -6    6.58    3.29
  -5 -12  -6    3.71    5.58
   5 -12  -6    5.10    5.78
   5 -12   6    8.59    5.34
  -5 -12   7    6.98    2.31
   5 -12   7   -6.03    6.44
   5 -12  -7   10.51    6.05
  -5 -12  -7  -11.24    8.68
   5 -12  -7   -0.24    2.36
   5 -12   7    1.44    4.37
  -5 -12   8   49.04   13.99
   5 -12   8   28.65   11.28
  -5 -12  -8   31.82    9.39
   5 -12  -8   57.91   14.62
   5 -12  -8   32.66   11.77
  -5  12   8   38.25   12.77
   5 -12   8   32.85   10.92
  -5 -12   9   -3.43    4.09
   5 -12   9   -0.82    6.17
  -5 -12  -9   -0.73    5.29
   5 -12  -9    6.30    6.26
  -5  12   9   -4.85    6.79
   5 -12  -9    7.87    6.73
   5 -12   9   -4.66    4.06
  -5 -12  10   39.06   11.57
   5 -12  10   14.96    8.82
  -5 -12 -10   17.51    7.53
   5 -12 -10   37.28   11.12
  -5  12  10   16.27    9.65
   5 -12  10   30.73   10.22
   5 -12 -10   26.20    8.51
  -5 -12  11    5.21    7.08
   5 -12  11   -8.47    6.46
  -5 -12 -11   14.45    7.12
   5 -12 -11   -6.08    6.14
   5 -12  11    3.31    3.91
   5 -12 -11   -3.82    3.39
  -5  12  11   -0.74    3.18
   5 -12 -12   94.83   18.03
  -5 -12  12   81.53   16.48
   5 -12  12   67.37   16.27
  -5 -12 -12   58.17   14.55
   5 -12  12   55.87   13.56
  -5  12  12   70.95   16.64
   5 -12 -12   71.66   17.15
  -5 -12  13   32.94   11.42
   5 -12  13   48.74   14.16
   5 -12 -13   37.72   10.59
  -5 -12 -13   56.06   15.77
   5 -12  13   25.92    8.16
   5 -12 -13   39.96   11.38
  -5  12  13   30.09   11.46
  -5 -12  14   -1.52    6.28
   5 -12  14   12.17    7.53
  -5 -12 -14   11.23    6.51
   5 -12 -14   12.30    6.65
   5 -12 -14   11.00    6.74
  -5  12  14   13.60    5.65
  -5 -12  15   15.07    8.11
   5 -12  15    4.13    4.48
  -5 -12 -15   -1.60    7.21
   5 -12 -15   -2.62    3.12
  -5  12  15   -7.41   10.41
   5 -12 -15   -2.98    6.17
  -5 -12  16    5.01    3.40
   5 -12  16   19.33    7.15
  -5 -12 -16    9.72    7.88
   5 -12 -16   10.43    6.78
  -5  12  16   10.96    6.39
   5 -12 -16   17.35    7.06
  -5 -12  17   11.78    6.46
   5 -12 -17   23.85    9.27
   5 -12  17   18.34    9.66
  -5 -12 -17   11.38    4.03
   5 -12 -17    5.80    2.97
  -5  12  17    8.67    3.58
  -5 -12  18   16.07    6.68
   5 -12  18   22.78    7.82
   5 -12 -18   19.09    9.08
  -5 -12 -18    6.40    5.15
   5 -12 -18    9.23    4.09
  -5  12  18   15.21   10.05
  -5 -13   0   -4.64    7.69
   5 -13   0   -4.11    5.71
   5 -13   0    6.65    5.39
  -5 -13   1   23.37    9.88
  -5 -13  -1   24.80    8.90
   5 -13   1   32.11   13.32
   5 -13  -1   19.89    9.37
   5 -13   1   15.81    7.75
   5 -13  -1   20.56    7.48
  -5 -13   2   15.71    9.51
   5 -13   2    6.78    6.83
   5 -13   2    8.87   10.27
  -5 -13  -2   -0.79    2.89
   5 -13  -2    0.95    6.14
   5 -13  -2   16.67    9.83
   5 -13   3   10.32    7.73
  -5 -13   3    3.19    4.49
  -5 -13  -3   -0.84    3.64
   5 -13  -3   17.79   10.11
   5 -13  -3    6.48    2.42
   5 -13   4   18.65    6.73
  -5 -13   4    5.73    8.45
   5 -13   4   17.81   10.20
  -5 -13  -4    9.06    5.24
   5 -13  -4    3.26    4.86
   5 -13  -4   11.80    6.48
  -5 -13   5    4.11    4.18
   5 -13   5    8.99    6.44
  -5 -13  -5   -3.57    5.93
   5 -13  -5    1.39    5.51
   5 -13  -5    4.64    4.00
   5 -13   5    0.74    2.50
   5 -13  -6   -2.22    4.23
  -5 -13   6   13.65    7.81
   5 -13   6    9.04    7.48
  -5 -13  -6    4.17    7.49
   5 -13  -6   -2.71    6.05
   5 -13   6    1.45    3.72
  -5 -13   7    0.70    4.91
   5 -13  -7   -4.18    4.38
   5 -13   7   -5.72    7.26
  -5 -13  -7    5.63    5.74
   5 -13  -7   -2.55    5.11
   5 -13   7    0.48    3.06
  -5 -13   8   10.83    9.22
   5 -13   8    7.10    8.32
   5 -13  -8    5.76    2.83
  -5 -13  -8   14.14    6.81
   5 -13  -8   20.27    8.95
   5 -13   8   18.08    8.82
  -5 -13   9   40.90   12.05
   5 -13   9   41.03   12.66
  -5 -13  -9   78.16   17.01
   5 -13  -9   60.54   15.32
   5 -13  -9   43.33   11.01
  -5  13   9   69.83   16.01
   5 -13   9   39.48   10.99
  -5 -13  10    6.73    7.04
   5 -13  10   13.13    7.44
  -5 -13 -10   19.86   10.34
   5 -13 -10    7.64    6.27
  -5  13  10    6.63    5.30
   5 -13 -10   12.96    6.73
   5 -13  10   12.82    7.81
  -5 -13  11   -3.39    2.90
   5 -13  11   -4.69    7.53
  -5 -13 -11   -2.44    6.20
   5 -13 -11   -0.06    2.78
  -5  13  11   -3.23    5.10
   5 -13  11    0.46    2.90
   5 -13 -11   -4.41    5.90
  -5 -13  12   26.12   12.58
  -5 -13 -12   18.11    8.12
   5 -13 -12   28.53    9.22
   5 -13  12   31.33   10.41
  -5  13  12   21.10   10.63
   5 -13 -12   32.44   11.78
  -5 -13  13    9.96    6.66
  -5 -13 -13   -1.47    4.55
   5 -13  13    4.48    5.37
   5 -13 -13    4.28    5.59
  -5  13  13    2.07    2.77
   5 -13 -13   17.03    8.73
  -5 -13  14   37.98   11.02
   5 -13 -14   23.27    9.56
   5 -13  14   27.42    9.42
  -5 -13 -14   37.04   11.67
   5 -13 -14   38.71   11.00
  -5  13  14   34.63   11.51
  -5 -13  15   -4.69    4.41
   5 -13 -15    7.80    6.75
   5 -13  15    2.77    4.32
  -5 -13 -15    9.80    8.73
   5 -13 -15   11.64    8.30
  -5  13  15   -9.27    7.86
  -5 -13  16    9.69    3.13
   5 -13  16    2.76    4.29
  -5 -13 -16   12.06    5.74
   5 -13 -16   -1.02    4.49
  -5 -14   0   -1.67    4.96
   5 -14   0    0.91    5.28
   5 -14   0   -0.59    3.13
  -5 -14   1   -0.79    5.93
  -5 -14  -1   16.24    9.33
   5 -14   1   19.41    3.21
   5 -14   1    4.10    6.11
   5 -14  -1   -2.95    4.89
   5 -14  -1   11.48    5.20
   5 -14   2   14.34    7.56
  -5 -14   2   17.95    9.09
   5 -14   2    1.76    6.91
  -5 -14  -2   12.91    8.91
   5 -14  -2    8.11    2.61
   5 -14  -2   22.30    9.06
   5 -14   3   11.66    7.18
  -5 -14   3   13.51    6.66
   5 -14   3   -3.11    3.89
  -5 -14  -3    1.29    4.98
   5 -14  -3    2.04    2.21
   5 -14  -3    4.25    5.05
   5 -14   4    3.31    4.31
  -5 -14   4   -3.46    3.45
   5 -14   4    6.66    2.25
  -5 -14  -4   -3.85    7.83
   5 -14  -4   11.58    9.08
   5 -14  -4   -1.76    5.80
  -5 -14   5   58.56   12.80
   5 -14   5   58.83   16.22
  -5 -14  -5   52.94   14.25
   5 -14  -5   52.74   13.69
   5 -14  -5   59.95   13.54
   5 -14   5   46.37   12.89
  -5 -14   6    1.00    5.80
   5 -14   6    5.30    5.83
  -5 -14  -6   -1.63    6.30
   5 -14  -6    2.27    6.58
   5 -14   6   -5.19    5.16
   5 -14  -6    2.53    2.29
   5 -14  -7    5.93    6.80
  -5 -14   7    5.55    6.73
   5 -14   7   -9.32    8.80
  -5 -14  -7   11.22    7.44
   5 -14  -7    7.57    9.21
   5 -14   7   -3.20    4.31
   5 -14  -8    1.55    2.19
  -5 -14   8   21.25    8.95
   5 -14   8   12.68    6.12
  -5 -14  -8   11.42    7.74
   5 -14  -8   13.85    8.91
   5 -14   8    6.63    4.22
  -5 -14   9   -3.35    3.30
   5 -14   9   -1.67    2.12
   5 -14  -9    0.93    6.41
  -5 -14  -9   16.74   10.49
   5 -14  -9    3.86    3.00
   5 -14   9   10.65    6.82
  -5 -14  10   31.15   12.62
   5 -14 -10   23.12    9.41
  -5 -14 -10   16.56    8.79
   5 -14 -10   12.17    6.38
   5 -14  10   50.05   13.65
  -5 -14  11   -2.03    7.68
  -5 -14 -11    3.26    6.65
   5 -14 -11   -3.59    6.80
   5 -14  11    3.49    2.74
   5 -14 -11   13.27    7.99
  -5 -14  12   -5.59    6.77
  -5 -14 -12    3.39    3.42
   5 -14 -12   -5.14    5.86
   5 -14  12   -0.08    2.49
   5 -14 -12    4.55    7.58
  -5 -15   0    2.58    3.44
   5 -15   0    0.72    5.95
   5 -15   0   -6.78    7.09
   5 -15   1    6.19    6.38
  -5 -15   1    7.23    8.90
  -5 -15  -1   -0.41    4.32
   5 -15   1    5.66    5.36
   5 -15  -1    9.12    3.88
   5 -15  -1   -2.47    5.00
   5 -15   2   20.12    9.48
  -5 -15   2   19.17    9.00
   5 -15   2   18.21   11.02
  -5 -15  -2   15.72    7.95
   5 -15  -2    8.06    6.20
   5 -15  -2   10.78    7.37
   5 -15   3   11.04    7.62
  -5 -15   3    4.79    4.04
   5 -15   3    1.79    3.37
  -5 -15  -3    0.59    5.81
   5 -15  -3    2.56    9.18
   5 -15  -3   -2.14    2.63
  -5 -15   4   -0.29    2.42
   5 -15   4    9.30    6.83
  -5 -15  -4    9.71    8.26
   5 -15  -4   11.15    9.75
   5 -15  -4   10.41    8.41
   5 -15   4   -4.40    3.17
  -5 -15   5    7.66    6.35
   5 -15   5    2.41    5.90
  -5 -15  -5    2.98    7.46
   5 -15  -5   -4.77    5.41
   5 -15  -5    1.49    3.72
   5 -15   5   -2.06    2.20
  -5 -15   6    6.00    7.03
   5 -15   6   25.16   11.14
  -5 -15  -6    9.12    7.63
   5 -15  -6   13.90    9.07
   5 -15  -6    8.55    8.59
   5 -15   6   16.58    6.98
  -6   0   0 5494.39  103.48
   6   0   0 6281.20   73.97
   6   0   1   -1.96    1.77
  -6   0   1    3.32    5.28
   6   0  -1    1.51    0.96
   6   0  -2  168.56   11.52
  -6   0   2  195.01   18.33
   6   0   2  191.72   14.10
   6   0  -3    0.15    1.13
   6   0   3    1.84    3.14
  -6   0   3   -0.04    3.17
  -6   0   4 1052.24   44.22
   6   0   4 1004.47   36.76
  -6   0   5    2.58    4.11
   6   0  -5   -0.69    1.48
   6   0   5   -0.55    1.68
   6   0   6  268.02   20.08
  -6   0   6  290.71   24.02
   6   0  -6  266.82   16.47
   6   0  -7   -0.76    1.67
  -6   0   7    0.84    2.49
   6   0   7    0.96    2.94
   6   0  -8 1910.78   45.09
  -6   0   8 1792.88   61.67
  -6   0   9    3.78    3.85
   6   0   9   -0.42    0.89
   6   0  10 1985.81   61.98
  -6   0  10 2052.40   66.84
  -6   0  10 1849.72   50.04
  -6   0  11    0.02    3.03
   6   0  11    2.17    3.31
  -6   0  11   -0.85    2.24
  -6   0  12   39.96   10.12
   6   0  12   36.77    9.05
  -6   0  12   38.83    8.22
  -6   0  13    0.06    4.87
   6   0  13    3.48    5.08
  -6   0  13   -4.21    2.94
   6   0  14  875.54   47.20
  -6   0  14  906.88   47.62
  -6   0  14  747.00   37.49
   6   0  15    0.79    4.98
  -6   0  15   -0.51    1.73
  -6   0  15   -3.56    2.34
   6   0  16    6.49    5.50
  -6   0  16   17.71    7.92
   6   0  17    1.83    2.59
  -6   0  17   -3.98    5.43
   6   0  18   60.41   11.31
  -6   0  18   61.23   13.53
   6   0  19   -7.09    6.08
  -6   0  19   11.33    9.14
   6   0  19    4.76    4.61
   6   0  20   15.14    6.24
  -6   0  20    9.31    7.05
   6   0  20   -1.55    5.12
   6   0  21   -2.85    4.29
  -6   0  21   -0.64    3.48
   6   0  21   -2.51    5.51
   6   0  22   88.83   15.80
  -6   0  22  113.67   18.69
   6   0  22  118.75   19.78
   6   0  23    4.23    5.76
  -6   0  23    0.88    4.21
   6   0  23    4.38    6.41
   6   0  24   44.77   12.05
  -6   0  24   38.25   11.52
   6   0  24   34.23    9.98
   6   0  25    0.08    2.06
  -6   0  25    1.54    3.74
   6   0  25    3.03    2.16
   6   0  26  116.22   19.76
  -6   0  26  106.63   19.39
   6   0  26  135.84   22.52
   6   0  27    0.30    4.88
  -6   0  27   -7.05    7.05
   6   0  27   -0.98    3.32
   6   0  28   -0.17    4.53
  -6   0  28   -5.84    6.55
   6   0  28   -4.23    5.18
   6   0  29   -1.94    4.64
  -6   0  29   -2.32    5.55
   6   0  29    4.07    9.05
  -6  -1   0   37.82    9.69
   6   1   0   26.60    4.66
  -6   1   0   25.66    6.97
   6  -1   0   27.89    5.64
   6  -1  -1   67.04    8.44
  -6   1   1   72.99   11.67
   6   1   1   48.77    6.43
  -6  -1   1   40.33    9.62
   6   1  -1   57.46    5.88
   6  -1   1   59.42    8.63
   6   1  -2    0.29    0.80
   6  -1  -2    0.97    1.54
   6  -1   2    0.50    0.92
  -6   1   2   -0.48    1.00
  -6  -1   2   -1.49    2.96
   6  -1  -2    1.48    0.85
   6   1   2    1.82    1.81
   6  -1   3    4.91    3.07
   6   1  -3    5.58    1.66
   6  -1  -3    5.66    2.73
  -6   1   3    5.37    4.97
  -6  -1   3    3.53    3.51
   6   1   3    5.01    2.60
   6   1  -4  296.48   11.61
   6   1   4  257.16   17.22
  -6   1   4  255.29   23.07
  -6  -1   4  287.24   22.67
   6  -1  -4  235.48   16.29
   6  -1   4  286.37   20.09
   6  -1   5    0.46    1.44
   6  -1  -5    1.91    1.98
   6   1  -5    2.06    1.19
  -6   1   5    8.41    5.45
  -6  -1   5    1.00    2.92
   6   1   5    2.20    1.46
   6   1   6  187.62   16.24
  -6   1   6  172.21   19.05
   6  -1   6  196.15   17.64
   6   1  -6  185.02   10.76
   6  -1  -6  203.57   15.47
   6  -1   7   38.51    7.92
   6   1  -7   33.45    4.82
   6  -1  -7   41.18    7.52
  -6   1   7   42.48    9.78
  -6  -1   7   42.42    8.39
   6   1   7   29.85    6.82
  -6   1   8   11.34    5.21
  -6  -1   8   17.49    5.41
   6   1   8   12.39    4.91
   6   1  -8   18.01    3.69
   6  -1  -8    8.58    4.21
   6  -1   8   15.16    5.47
  -6   1   9   15.52    7.21
   6   1   9   15.92    5.69
  -6  -1   9   19.28    6.77
   6  -1   9   15.15    5.08
   6   1  10   -0.15    1.41
  -6   1  10    1.02    1.49
  -6  -1  10   -1.86    2.11
   6  -1  10    0.46    1.45
   6   1  11    1.68    2.69
  -6   1  11    0.69    1.54
  -6  -1  11    2.62    2.79
  -6   1  11    1.90    2.20
   6  -1  11    2.59    3.70
   6   1  12   44.61    9.69
  -6   1  12   32.93    7.43
  -6  -1  12   51.04   11.21
   6  -1  12   52.30   11.20
  -6   1  12   41.05    8.64
   6   1  13  360.92   28.39
   6  -1  13  353.65   30.09
  -6   1  13  406.90   32.01
  -6  -1  13  434.72   31.51
  -6   1  13  367.92   26.69
   6   1  14  357.50   28.64
   6  -1  14  326.34   28.27
  -6  -1  14  360.92   29.70
  -6   1  14  351.41   29.50
  -6   1  14  276.95   23.38
   6   1  15  121.24   17.37
   6  -1  15   91.59   14.89
  -6   1  15   91.93   15.22
  -6  -1  15  104.52   16.11
  -6   1  15   89.32   13.32
   6   1  16   -0.61    2.30
  -6   1  16    4.99    4.03
  -6  -1  16    1.13    3.26
   6  -1  16   -0.50    4.26
  -6   1  16    1.14    2.40
   6   1  17   35.52   10.52
   6  -1  17   32.40    8.98
  -6   1  17   49.12   10.91
  -6  -1  17   28.63   10.77
  -6   1  17   26.32    7.85
   6   1  18    2.51    1.67
   6  -1  18   15.80    3.85
  -6   1  18   20.88    8.42
  -6  -1  18    8.08    2.97
  -6   1  18    5.43    2.60
   6   1  18   13.47    4.39
   6   1  19  156.07   21.47
   6  -1  19  161.12   20.75
  -6   1  19  156.28   21.29
  -6  -1  19  142.74   20.63
  -6   1  19  168.27   21.31
   6   1  19  150.91   21.09
   6   1  20    3.03    1.89
   6  -1  20   -4.08    4.09
  -6   1  20   -0.48    2.89
  -6  -1  20    3.39    6.36
   6   1  20    3.42    2.34
   6  -1  20    1.87    2.21
   6   1  21  107.41   17.95
   6  -1  21  117.82   18.65
  -6   1  21   93.30   16.97
  -6  -1  21  120.81   19.11
   6   1  21  114.84   19.44
   6  -1  21  124.16   18.57
   6   1  22    7.74    6.84
   6  -1  22    4.56    6.12
  -6   1  22   -2.38    1.55
  -6  -1  22   -2.52    3.72
   6   1  22   15.28    8.94
   6  -1  22   -1.09    5.25
   6   1  23   -2.07    3.89
   6  -1  23    0.08    2.27
  -6   1  23   -3.78    7.64
  -6  -1  23    2.97    4.22
   6   1  23   -8.36    7.40
   6  -1  23    3.65    4.94
   6   1  24    1.61    2.73
   6  -1  24    1.37    5.49
  -6   1  24    6.42    7.59
  -6  -1  24   11.04    6.75
   6   1  24   10.49    8.62
   6  -1  24    9.22    7.48
   6   1  25   14.11    6.35
  -6   1  25   16.07    7.33
  -6  -1  25   13.73    8.46
   6   1  25   -3.05    3.72
   6  -1  25   19.66    7.83
   6  -1  25    9.90    6.18
   6   1  26   15.71    7.09
   6  -1  26   16.20    8.71
  -6   1  26   19.43    8.23
  -6  -1  26    3.32    4.16
   6   1  26   10.19    6.47
   6  -1  26   18.28    7.71
   6   1  27   21.02   10.08
   6  -1  27    6.18    5.82
  -6   1  27   13.07    8.54
  -6  -1  27    7.77    6.38
   6   1  27    1.76    4.38
   6  -1  27   -6.94    6.20
   6   1  28   -0.25    1.77
   6  -1  28    4.41    6.10
  -6   1  28   -0.59    6.75
  -6  -1  28    0.95    6.19
   6   1  28   11.50    9.62
   6  -1  28    0.59    2.43
   6  -2   0  260.00   18.64
  -6  -2   0  279.75   22.39
  -6   2   0  248.72   22.91
  -6  -2   0  223.30   13.69
  -6  -2  -1  146.76   10.61
   6  -2   1  174.52   15.58
   6  -2  -1  145.75    7.74
   6  -2  -1  196.48   15.86
  -6   2   1  180.54   19.73
  -6  -2   1  149.92   15.91
  -6  -2   1  175.24   12.43
  -6  -2   2   12.68    3.41
  -6  -2  -2    9.86    2.42
   6   2   2   13.60    2.91
   6  -2  -2   11.16    4.57
  -6   2   2   16.53    4.36
  -6  -2   2    9.72    3.43
   6  -2  -2   10.81    2.16
   6  -2   2    4.97    1.90
  -6  -2  -3  484.13   18.81
   6   2   3  530.38   21.13
   6  -2  -3  542.94   21.00
  -6   2   3  528.46   33.16
  -6  -2   3  486.90   29.02
   6  -2  -3  528.33   26.86
   6  -2   3  507.85   27.35
  -6  -2   3  544.02   25.08
  -6  -2  -4 1057.33   28.92
   6   2   4  786.75   28.17
  -6  -2   4  924.89   39.58
   6  -2  -4  966.61   30.78
  -6   2   4  919.51   43.71
   6  -2  -4  838.66   33.95
   6  -2   4  927.19   37.69
  -6  -2  -5   77.71    8.01
   6   2   5   84.61    9.82
  -6   2   5   76.50   12.62
  -6  -2   5   85.77   12.76
   6  -2   5   74.75   10.92
   6  -2  -5   81.58   10.63
   6  -2  -6  388.16   23.44
   6   2   6  473.96   24.74
  -6  -2  -6  303.83   18.75
  -6   2   6  326.85   26.72
   6  -2   6  416.75   26.25
  -6  -2   6  411.08   27.37
   6   2   7  596.89   29.19
   6  -2  -7  608.24   29.95
  -6   2   7  684.93   38.91
  -6  -2   7  649.20   35.00
   6  -2   7  640.52   33.50
   6   2   8   50.78    8.87
   6   2  -8   56.43    5.37
   6  -2  -8   64.14   10.32
  -6   2   8   60.45   12.35
  -6  -2   8   66.90   11.60
   6  -2   8   84.03   12.34
   6  -2   9    7.34    3.37
   6   2   9    8.12    5.65
  -6   2   9    3.60    3.48
  -6  -2   9    6.58    3.54
  -6   2  10  105.75   17.13
   6  -2  10  135.68   17.23
  -6  -2  10  112.28   14.68
   6   2  11  801.20   39.26
   6  -2  11  794.54   41.16
  -6   2  11  802.07   43.74
  -6  -2  11  772.30   40.68
  -6   2  11  748.26   37.38
   6   2  12   75.62   13.01
   6  -2  12   88.57   14.26
  -6   2  12  101.19   15.65
  -6  -2  12   74.49   12.69
  -6   2  12   62.30   11.13
   6   2  13  428.07   30.76
   6  -2  13  515.17   34.87
  -6  -2  13  438.10   32.45
  -6   2  13  509.59   32.25
  -6   2  13  477.65   34.71
   6   2  14   26.09    8.08
  -6   2  14   23.03    8.61
  -6  -2  14   19.20    6.33
   6  -2  14   31.89    8.73
  -6   2  14   20.62    7.16
   6   2  15    7.38    5.74
  -6   2  15    8.79    5.18
  -6  -2  15   11.44    6.43
   6  -2  15    8.51    5.59
  -6   2  15    5.21    4.34
   6   2  16   59.72   13.63
  -6   2  16   41.17    9.45
  -6  -2  16   60.35   11.62
   6  -2  16   54.26   11.44
  -6   2  16   39.34    9.34
   6   2  16   33.14    9.05
   6   2  17   60.95   12.08
  -6   2  17   62.80   13.60
  -6  -2  17   69.66   13.52
   6  -2  17   35.19   10.58
   6   2  17   66.73   13.15
   6   2  18   80.66   14.59
   6  -2  18  107.26   16.85
  -6   2  18   99.00   17.24
  -6  -2  18   98.43   17.18
  -6   2  18   68.26   13.82
   6   2  18  101.94   17.13
   6   2  19   60.24   13.54
  -6   2  19   59.60   14.02
   6  -2  19   84.88   15.08
  -6  -2  19   54.53   13.11
   6   2  19   80.49   16.00
  -6   2  19   74.27   13.53
   6   2  20   12.95    6.21
   6  -2  20   -3.04    4.23
  -6   2  20    3.68    2.97
  -6  -2  20    0.82    4.47
   6   2  20    6.56    5.49
  -6   2  20   -1.47    5.37
   6  -2  21   99.70   18.16
   6   2  21   80.44   15.76
  -6   2  21   76.26   14.37
  -6  -2  21   78.98   15.70
  -6   2  21  102.07   17.61
   6   2  21   80.44   16.14
   6  -2  21   69.80   16.07
   6   2  22   24.22    8.72
   6  -2  22   38.41   10.35
  -6   2  22   34.99   10.11
  -6  -2  22   25.01   10.18
   6   2  22   32.79   10.70
  -6   2  22   33.88   12.32
   6  -2  22   27.28    9.28
   6   2  23    4.45    3.15
   6  -2  23   11.51    8.15
  -6   2  23   10.40    4.06
  -6  -2  23   -3.28    3.03
   6   2  23    8.37    9.36
   6  -2  23    3.19    4.72
   6   2  24    4.97    5.52
   6  -2  24    7.30    7.44
  -6   2  24   15.01    8.00
  -6  -2  24    7.36    7.24
   6   2  24   10.36    6.33
   6  -2  24    8.66    6.48
   6   2  25   47.15   11.85
   6  -2  25   41.60   11.47
  -6   2  25   54.56   14.36
  -6  -2  25   49.26   14.05
   6   2  25   66.18   14.53
   6  -2  25   41.31   12.03
   6   2  26    3.99    6.11
   6  -2  26    2.15    6.35
  -6   2  26    7.75    4.57
  -6  -2  26    5.89    5.95
   6   2  26    6.87    5.90
   6  -2  26    2.11    6.42
   6   2  27    3.40    6.59
   6  -2  27    2.34    5.32
  -6   2  27   21.40    9.69
  -6  -2  27    7.30    4.02
   6   2  27    8.13    3.14
   6  -2  27   -0.54    4.78
   6   2  28   23.13    9.56
   6  -2  28    9.73    8.91
  -6   2  28   19.17    7.83
  -6  -2  28   11.74    7.63
   6   2  28   38.76   12.52
   6  -2  28   14.72   10.32
  -6  -3   0   -0.43    1.36
   6  -3   0    3.66    3.02
   6  -3   0    0.06    0.68
  -6  -3   0    0.83    1.47
  -6   3   0    1.70    2.12
  -6  -3   1   35.94    6.97
  -6  -3  -1   44.40    7.54
   6  -3   1   31.96    3.69
   6  -3  -1   27.65    4.31
   6  -3   1   48.08    8.50
   6  -3  -1   50.04    9.18
  -6   3   1   35.98    7.96
  -6  -3   1   40.06    7.59
   6  -3   2    9.85    1.74
  -6  -3   2    9.34    2.98
   6   3   2    8.41    2.32
  -6  -3  -2   10.14    3.81
   6  -3  -2   15.55    3.42
  -6   3   2    9.10    3.28
  -6  -3   2   14.55    5.02
   6  -3  -2    4.94    3.48
   6  -3   2   12.90    5.53
  -6  -3   3   -1.81    1.24
   6   3   3   -0.25    1.50
  -6  -3  -3   -0.03    1.73
  -6   3   3    4.41    4.85
  -6  -3   3    4.60    3.31
   6  -3  -3    0.48    2.47
   6  -3   3    0.25    1.16
   6  -3  -3   -0.60    1.36
  -6  -3  -4  543.93   26.38
   6  -3  -4  564.77   24.95
  -6  -3   4  619.04   31.86
  -6   3   4  603.51   36.33
   6  -3  -4  568.19   30.02
   6   3   4  542.55   22.50
   6  -3   4  571.90   31.25
  -6  -3   4  648.04   30.18
   6   3   5   54.58    8.35
  -6  -3  -5   60.90    8.66
   6  -3  -5   71.09    9.11
  -6   3   5   65.37   11.64
  -6  -3   5   58.48   10.37
   6  -3   5   75.75   11.15
   6  -3  -5   49.28    9.65
  -6  -3   5   55.34    9.01
  -6  -3   6   -0.29    3.64
  -6  -3   6    3.47    1.47
   6   3   6    5.83    2.03
  -6  -3  -6    1.76    1.27
   6  -3   6    2.04    0.93
   6  -3  -6    7.31    3.08
   6  -3  -6    6.08    3.92
   6   3   7  236.39   18.51
   6  -3  -7  238.04   20.17
  -6  -3  -7  243.03   18.13
  -6   3   7  255.38   24.81
  -6  -3   7  257.01   21.63
   6  -3  -7  238.63   19.29
   6  -3   7  274.61   22.92
  -6  -3   7  275.41   22.40
   6   3   8  120.91   13.84
   6  -3  -8   97.81   12.56
  -6   3   8  145.44   18.29
  -6  -3   8  123.40   15.59
   6  -3   8  121.70   15.82
   6  -3   9    0.19    1.18
   6   3   9   -1.80    2.79
  -6  -3  -9    4.60    4.11
  -6   3   9   -1.24    2.14
  -6  -3   9    3.19    4.42
   6  -3  -9    3.62    3.68
   6   3  10  157.95   17.08
  -6  -3 -10  101.59   12.89
  -6   3  10  140.70   19.01
  -6  -3  10  139.14   16.08
   6  -3  10  135.40   16.80
   6  -3  11    3.69    4.87
   6   3  11   -0.44    1.28
  -6  -3 -11   -3.91    2.51
  -6   3  11    8.38    6.12
  -6  -3  11    5.17    4.07
   6   3  12  224.80   21.98
  -6   3  12  248.68   25.38
   6  -3  12  206.22   22.00
  -6  -3  12  187.96   20.13
  -6   3  12  216.73   21.13
   6   3  13   14.81    3.63
  -6   3  13   19.06    6.36
  -6  -3  13   26.23    7.20
  -6   3  13   28.42    8.14
   6  -3  13   12.03    6.78
   6   3  14   25.48    7.85
  -6   3  14   30.13    8.17
  -6  -3  14   35.83    9.72
  -6   3  14   26.29    8.27
   6  -3  14   30.36   10.71
   6   3  14   27.32    7.51
   6   3  15   12.81    4.38
  -6   3  15   12.34    6.44
  -6  -3  15   18.34    5.95
  -6   3  15   24.53    8.08
   6  -3  15    6.60    3.68
   6   3  15   22.16    6.40
   6   3  16  239.84   24.61
   6  -3  16  272.78   27.32
  -6   3  16  264.23   26.45
  -6  -3  16  193.62   22.59
  -6   3  16  235.09   24.45
   6   3  16  230.93   24.53
   6   3  17    8.30    5.75
  -6   3  17    1.36    5.02
  -6  -3  17    0.45    1.85
   6  -3  17   -1.04    4.32
  -6   3  17    6.22    2.40
   6   3  17    7.53    2.61
   6   3  18  128.88   19.26
   6  -3  18  127.23   19.98
  -6   3  18  152.54   20.67
  -6  -3  18  150.71   20.93
   6   3  18  206.62   24.04
   6   3  19  175.91   22.24
   6  -3  19  127.89   19.72
  -6   3  19  128.09   19.83
  -6  -3  19   84.74   15.76
  -6   3  19   78.36   14.82
   6   3  19  121.95   18.59
   6   3  20   19.10    6.78
  -6   3  20   32.28    9.49
  -6  -3  20   19.56    8.48
   6  -3  20   12.94   10.72
  -6   3  20   16.85    7.67
   6   3  20   23.86    7.24
   6   3  21    0.93    3.15
  -6   3  21    0.17    3.65
   6  -3  21   17.07    7.19
  -6  -3  21   10.71    5.12
  -6   3  21    3.69    6.28
   6   3  21    5.89    3.21
   6   3  22   68.43   15.03
  -6   3  22   71.31   15.75
   6  -3  22   42.53   12.20
  -6  -3  22   52.55   12.77
   6   3  22   58.39   13.12
  -6   3  22   45.22   11.85
   6  -3  22   57.07   14.53
   6   3  23   16.97    7.81
   6  -3  23    8.65    6.11
  -6   3  23   11.27    7.60
  -6  -3  23    9.77    6.83
   6   3  23   17.37    7.62
  -6   3  23   17.44    9.06
   6  -3  23   14.15    5.83
   6   3  24   10.11    5.95
   6  -3  24   34.60   11.73
  -6   3  24   22.28   10.74
  -6  -3  24   18.60    9.86
   6   3  24   25.94   10.03
  -6   3  24   14.97    7.31
   6  -3  24   20.74    8.68
   6   3  25   -0.27    2.26
   6  -3  25   -0.48    5.41
  -6   3  25    1.60    6.45
  -6  -3  25    6.78    5.32
   6   3  25    1.56    2.77
   6  -3  25   -6.38    7.30
   6   3  26   -5.76    5.22
   6  -3  26   -4.08    6.24
  -6   3  26    6.56    6.91
  -6  -3  26   -2.66    4.12
   6   3  26    4.47    5.80
   6  -3  26   -2.68    5.40
   6   3  27    2.17    4.06
   6  -3  27   10.74    9.28
  -6   3  27    2.44    2.47
  -6  -3  27    2.09    4.67
   6   3  27   16.77   11.00
   6  -3  27   -3.41    5.55
   6   3  28   22.18    9.55
   6  -3  28    8.60    5.84
  -6   3  28   20.89    7.69
  -6  -3  28    4.34    6.81
   6   3  28   -9.80    6.11
   6  -3  28   13.65   10.30
  -6  -4   0  100.43   12.30
   6  -4   0   95.10    9.44
   6  -4   0  105.18   13.62
  -6   4   0  137.02   18.33
  -6  -4   1  136.75   14.40
  -6  -4  -1  146.22   14.82
   6  -4   1  116.76   10.15
   6  -4  -1  116.14   10.93
   6  -4   1   92.38   12.72
  -6  -4   1  127.48   13.40
  -6   4   1  137.07   18.94
   6  -4  -1  112.90   13.98
   6  -4   2    2.52    3.24
  -6  -4   2    5.26    3.00
   6  -4   2    2.78    0.83
  -6  -4  -2    6.42    2.49
   6  -4  -2    6.72    3.28
  -6   4   2   11.54    7.76
  -6  -4   2    6.86    3.08
   6  -4  -2    5.56    3.40
   6   4   2    2.90    1.20
  -6  -4   3   62.48    9.69
   6  -4   3   71.23    7.61
  -6   4   3  103.35   15.88
  -6  -4  -3   74.22   10.40
   6  -4   3   64.24   11.04
   6  -4  -3   66.83    8.78
  -6  -4   3   61.75    9.41
   6  -4  -3   91.68   12.88
   6   4   3   77.18    7.26
   6   4   4   21.31    4.69
  -6  -4   4   14.02    4.82
   6  -4   4    8.66    2.38
   6  -4  -4   12.94    5.45
  -6  -4  -4   20.35    5.36
  -6   4   4   17.64    8.23
  -6  -4   4   12.90    3.95
   6  -4  -4   10.52    4.27
   6  -4   4   14.30    5.69
   6  -4   5    8.24    2.47
  -6  -4   5   15.12    5.62
   6   4   5   13.73    2.97
  -6  -4  -5   11.64    3.54
  -6   4   5    7.57    4.45
   6  -4  -5   10.11    4.72
  -6  -4   5   14.70    5.40
   6  -4  -5    7.61    2.64
   6  -4   5   16.75    6.02
   6  -4   6    2.03    1.51
  -6  -4   6    3.97    0.97
   6   4   6   -0.59    2.21
  -6  -4  -6    3.43    3.47
   6  -4   6    3.78    1.57
  -6   4   6    5.01    1.55
  -6  -4   6    4.77    3.52
   6  -4  -6    5.96    3.71
   6  -4  -6    4.56    4.10
   6  -4  -7  309.14   24.13
  -6  -4  -7  328.40   22.86
   6  -4  -7  268.75   21.13
  -6  -4   7  299.71   23.53
   6  -4   7  283.32   23.74
   6   4   7  303.57   21.19
   6  -4   7  285.39   16.78
  -6  -4   7  246.45   21.86
  -6  -4  -8  571.55   30.62
   6  -4  -8  625.27   35.64
  -6   4   8  638.80   40.21
   6  -4  -8  588.68   32.58
  -6  -4   8  661.20   35.42
   6  -4   8  565.70   34.28
   6   4   8  632.00   32.40
  -6  -4   8  670.41   37.16
  -6  -4  -9  128.10   14.72
   6  -4  -9   97.03   13.78
  -6   4   9  118.81   17.84
   6  -4  -9  112.06   14.62
  -6  -4   9  111.94   14.30
   6  -4   9  126.06   16.00
   6   4   9  100.84   13.66
  -6  -4   9  130.83   17.01
  -6  -4 -10  225.45   20.10
  -6   4  10  220.74   23.79
   6  -4 -10  253.40   23.22
  -6  -4  10  220.51   21.57
   6  -4 -10  211.21   20.77
   6  -4  10  229.31   23.30
   6   4  10  226.00   20.69
  -6  -4  10  232.38   22.26
   6  -4  11    2.97    2.39
   6   4  11   12.54    5.05
  -6  -4 -11    9.85    5.05
  -6   4  11    8.37    3.54
   6  -4 -11    5.20    2.48
   6  -4  12   17.45    7.19
   6   4  12   15.05    6.53
  -6  -4 -12   33.57   10.45
  -6   4  12   21.54    8.17
  -6  -4  12   24.51    7.13
   6   4  12   12.19    5.16
   6  -4  13   33.96    8.65
   6   4  13   34.56    9.75
  -6   4  13   46.57   12.67
  -6  -4  13   24.22    8.79
  -6   4  13   31.91    8.49
   6   4  13   39.35    9.17
   6  -4  14   39.45   10.61
   6   4  14   28.14    8.67
  -6   4  14   25.41    8.98
  -6  -4  14   36.68    9.79
  -6   4  14   23.40    8.57
   6   4  14   32.68    7.85
   6  -4  15  158.86   20.50
  -6   4  15  201.41   23.90
  -6  -4  15  169.55   21.01
  -6   4  15  174.35   21.11
   6   4  15  138.93   17.70
   6   4  15  179.65   20.98
   6   4  16   39.15   10.46
  -6   4  16   45.54   10.64
  -6  -4  16   59.64   13.20
  -6   4  16   42.84   10.77
   6   4  16   49.36   10.66
   6  -4  16   53.46   11.55
   6   4  17   51.33   11.86
  -6   4  17   51.61   12.40
  -6  -4  17   51.18   12.68
  -6   4  17   50.82   12.33
   6  -4  17   54.59   12.39
   6   4  17   28.22   12.46
   6  -4  18  112.00   18.87
  -6   4  18  112.00   18.59
  -6  -4  18  135.29   20.54
  -6   4  18  137.85   20.02
   6   4  18  108.30   19.06
   6   4  18  144.47   19.70
   6   4  19   19.07    8.09
  -6   4  19   36.75   10.90
  -6  -4  19   34.23   12.01
   6  -4  19   31.84    9.70
  -6   4  19   17.86    5.97
   6   4  19   23.52    8.76
   6   4  20    1.32    2.24
  -6   4  20    7.30    6.91
  -6  -4  20    1.20    4.25
   6  -4  20    3.23    2.94
  -6   4  20   -2.54    4.12
   6   4  20   -1.91    3.25
   6   4  21   37.38   11.09
  -6   4  21   29.95   10.24
  -6  -4  21   51.00   14.60
   6  -4  21   38.88   11.31
  -6   4  21   21.34    8.13
   6   4  21   34.27    9.59
   6   4  22   86.80   16.98
  -6   4  22   65.78   14.75
  -6  -4  22   31.56    7.67
   6  -4  22   62.15   13.64
  -6   4  22   47.91   12.94
   6   4  22   63.88   13.72
   6  -4  22   45.39   10.65
   6   4  23   28.10   10.68
  -6   4  23   35.33   11.49
   6  -4  23   37.31   10.78
  -6  -4  23   16.83    8.55
   6   4  23    7.86    4.98
  -6   4  23   42.04   11.83
   6  -4  23   32.29   11.74
   6   4  24    1.81    5.29
  -6   4  24    2.47    5.18
   6  -4  24  -12.56    8.33
  -6  -4  24    4.06    4.50
  -6   4  24   -4.29    5.99
   6  -4  24    9.09    4.38
   6   4  25   40.27   13.46
   6  -4  25   33.22   11.29
  -6   4  25   31.94   11.54
  -6  -4  25   33.21   10.75
  -6   4  25   31.94   12.06
   6  -4  25   30.66   11.25
   6   4  26   26.46   10.01
   6  -4  26   15.15    5.19
  -6   4  26   41.43   13.99
  -6  -4  26   15.61    6.24
  -6   4  26   30.41   11.63
   6  -4  26    6.91    6.91
   6   4  27    4.34    2.86
  -6   4  27   19.41    8.59
  -6  -4  27    6.15    5.30
   6  -4  27    6.80    3.99
   6  -4  27    3.40    6.17
  -6  -5   0    4.08    1.53
   6  -5   0    5.14    2.93
   6  -5   0    4.63    4.85
  -6  -5   1  207.80   19.89
  -6  -5  -1  213.21   20.14
   6  -5   1  242.43   16.90
   6  -5  -1  215.55   16.55
   6  -5   1  228.06   21.30
  -6   5   1  215.54   22.72
   6  -5  -1  205.50   20.62
   6  -5   2   34.64    6.81
   6  -5   2   29.40    7.85
  -6  -5   2   45.75    9.00
   6  -5  -2   49.57    8.54
  -6  -5  -2   25.46    7.39
  -6   5   2   44.41   10.63
   6  -5  -2   48.51    9.69
   6  -5  -3   -3.19    3.40
  -6  -5   3   -2.51    2.51
   6  -5   3    2.30    1.91
  -6  -5  -3    1.48    4.05
   6  -5  -3   -0.97    1.12
  -6   5   3   -1.94    5.31
   6   5   3    4.77    2.66
   6  -5   3    0.21    3.64
  -6  -5   4   -1.59    1.24
   6  -5   4    0.24    2.17
   6  -5  -4   -0.47    3.07
  -6  -5  -4    1.04    1.81
   6  -5  -4    0.51    2.23
  -6   5   4    0.19    6.12
  -6  -5   4   -1.63    1.34
   6  -5   4    3.04    1.05
   6   5   4    0.15    1.58
  -6  -5   5  172.05   18.31
   6  -5   5  232.28   16.03
   6  -5   5  199.62   20.67
  -6  -5  -5  244.21   21.27
   6  -5  -5  212.12   18.82
  -6   5   5  200.26   21.46
  -6  -5   5  243.13   19.85
   6   5   5  200.35   15.55
   6  -5  -5  212.34   21.37
   6  -5   6  113.68   11.69
  -6  -5   6   98.52   14.15
  -6  -5  -6  105.57   13.92
   6  -5  -6  114.23   13.86
  -6   5   6   93.60   15.39
  -6  -5   6  103.81   12.93
   6   5   6  101.70   11.91
   6  -5   6   96.09   14.80
   6  -5  -6   92.48   13.79
  -6  -5   7  156.51   18.27
   6  -5  -7  129.24   16.00
  -6  -5  -7  175.34   18.79
   6  -5  -7  140.28   15.50
  -6   5   7  143.00   18.48
  -6  -5   7  148.08   16.13
   6   5   7  129.35   14.02
   6  -5   7  141.19   17.81
   6  -5   7  141.42   12.97
   6  -5   8   13.09    4.62
  -6  -5   8   14.49    5.94
   6   5   8   22.53    6.13
  -6  -5  -8   18.88    7.19
   6  -5   8   12.62    5.86
  -6   5   8   18.34    6.78
   6  -5  -8   10.85    4.56
  -6  -5   8   17.27    5.86
   6  -5  -8   15.20    6.94
  -6  -5  -9  145.01   16.55
   6  -5  -9  136.78   17.35
   6  -5  -9  147.89   17.71
  -6   5   9  118.29   18.60
  -6  -5   9  119.40   15.23
   6  -5   9  166.52   18.66
   6   5   9  164.37   17.52
   6   5   9  167.15   15.71
  -6  -5   9  158.73   18.32
  -6  -5  10    9.76    3.94
   6  -5 -10    5.99    4.38
   6   5  10    7.37    3.50
   6  -5  10    8.84    4.71
  -6  -5 -10    0.22    2.92
  -6   5  10    7.47    5.87
   6  -5 -10    9.81    5.46
  -6  -5  10   16.25    6.08
   6   5  10    5.96    3.30
  -6  -5  11   16.36    6.81
   6   5  11    8.30    4.64
   6  -5  11    8.56    4.52
   6  -5 -11   12.80    5.92
  -6  -5 -11    5.15    2.49
  -6   5  11   12.18    6.46
   6  -5 -11   14.29    7.47
  -6  -5  11    7.51    3.98
   6   5  11   17.79    6.55
  -6  -5  12   11.80    3.86
   6   5  12   29.44    8.08
   6  -5  12   42.79   11.57
  -6  -5 -12   22.29    7.65
  -6   5  12   46.01   11.58
   6  -5 -12   24.79    7.84
  -6  -5  12   26.45    7.32
   6   5  12   20.70    6.41
  -6  -5 -13  118.46   16.14
  -6   5  13  174.99   23.20
   6  -5 -13  160.56   21.12
  -6  -5  13  180.84   20.70
   6  -5  13  124.83   18.80
   6   5  13  171.02   20.04
  -6  -5  13  162.51   20.62
   6  -5  14   64.30   12.24
   6   5  14   42.30   10.97
  -6  -5 -14   47.51   11.41
  -6   5  14   33.08    8.79
   6  -5 -14   43.59   10.58
  -6  -5  14   34.67    9.24
   6  -5  15   11.55    6.13
   6   5  15   24.53    8.09
  -6   5  15   36.27   11.64
   6  -5 -15   25.72    8.54
  -6  -5  15   20.66    6.74
  -6   5  15    8.94    2.64
   6  -5  16   23.88    8.84
   6   5  16   10.25    7.45
  -6   5  16   16.08    7.41
   6  -5 -16   11.57    6.72
  -6  -5  16    7.52    3.69
  -6   5  16   18.35    6.46
   6   5  17    1.30    4.72
  -6   5  17    3.62    6.59
   6  -5 -17    0.73    3.55
  -6  -5  17    1.48    2.28
  -6   5  17    1.91    6.32
   6  -5  17    1.51    5.61
   6  -5  18  137.80   21.08
  -6   5  18  123.48   20.17
  -6  -5  18  115.46   19.17
  -6   5  18  114.43   19.46
   6   5  18  120.60   18.73
   6   5  19   10.68    5.15
  -6   5  19   33.17   11.47
  -6  -5  19   22.28    6.98
  -6   5  19   17.18   10.81
   6  -5  19   34.84   10.85
   6   5  20    1.60    5.27
  -6   5  20  -12.55    8.21
  -6  -5  20   -3.23    5.99
   6  -5  20   -4.47    5.56
  -6   5  20    5.62    5.56
   6   5  21   24.01    9.03
  -6   5  21   36.82   10.36
  -6  -5  21   12.07    3.07
   6  -5  21   39.98   12.94
  -6   5  21   32.34   11.82
   6   5  22   -0.89    6.54
  -6   5  22    4.73    4.13
  -6  -5  22   -6.07    6.79
   6  -5  22    6.68    5.86
  -6   5  22   -1.65    2.59
   6   5  23    9.31    5.09
  -6   5  23   12.39    4.51
  -6  -5  23   12.82    9.55
   6  -5  23   10.15    3.62
  -6   5  23    8.93    4.01
   6  -5  23    3.12    3.01
   6   5  24   50.18   13.44
  -6   5  24   54.45   12.58
   6  -5  24   37.07   11.44
  -6  -5  24   57.07   15.55
  -6   5  24   13.95    7.98
   6  -5  24   33.54   10.97
   6   5  25   10.16    9.55
  -6   5  25   11.45    3.94
   6  -5  25   24.49    8.84
  -6  -5  25   11.68    8.70
  -6   5  25   11.45    7.40
   6  -5  25   16.61    8.53
   6   5  26   -6.34    6.28
  -6   5  26    1.32    2.63
   6  -5  26    4.22    4.46
  -6  -5  26   -0.18    4.23
  -6   5  26   -6.20    3.33
   6  -5  26    5.06    8.41
   6   5  27   -2.55    3.16
   6  -5  27   -5.34    5.98
  -6   5  27    9.93    6.55
  -6  -5  27   -4.91    6.14
  -6   5  27    1.33    4.48
   6  -5  27   -3.93    4.88
  -6  -6   0   -0.48    2.37
   6  -6   0   -3.13    3.29
   6  -6   0   -1.52    4.90
  -6  -6   1  154.13   18.15
  -6  -6  -1  172.69   19.41
   6  -6   1  146.46   14.89
   6  -6  -1  188.19   17.32
   6  -6   1  172.86   19.58
  -6   6   1  161.42   20.52
   6  -6  -1  150.81   18.90
  -6  -6   2    7.42    5.08
   6  -6   2   18.57    7.57
   6  -6   2   16.59    5.53
  -6  -6  -2   20.79    7.52
   6  -6  -2   14.63    4.91
  -6   6   2   12.67    6.30
   6  -6  -2   25.09    8.32
   6  -6  -3   22.52    6.83
   6  -6   3   19.61    7.21
  -6  -6   3   15.35    7.12
   6  -6   3    8.30    3.92
  -6  -6  -3   20.09    5.73
   6  -6  -3   18.48    5.80
  -6   6   3    8.29    5.54
  -6  -6   4  667.05   38.13
   6  -6   4  686.84   33.67
  -6  -6  -4  650.77   37.39
   6  -6   4  724.39   40.27
   6  -6  -4  663.01   34.08
  -6   6   4  751.91   44.93
   6  -6  -4  778.22   41.11
   6  -6   5   58.44   10.00
   6  -6   5   75.42   13.19
  -6  -6   5   55.26   10.75
  -6  -6  -5   64.29   11.79
   6  -6  -5   72.20   11.40
  -6   6   5   84.98   15.54
   6   6   5   68.17    9.25
   6  -6  -5   69.12   11.89
  -6  -6   6   39.99    9.14
   6  -6   6   20.37    5.49
  -6  -6  -6   22.66    7.75
  -6   6   6   23.21    7.25
   6  -6  -6   24.14    7.61
   6  -6   6   27.45    8.81
   6  -6  -6   17.04    6.57
   6   6   6   22.68    5.01
  -6  -6   7  215.05   21.79
   6  -6   7  176.59   17.19
   6  -6  -7  239.74   23.53
  -6  -6  -7  213.54   21.86
   6  -6  -7  184.39   19.10
  -6   6   7  234.99   24.64
   6   6   7  190.54   17.48
   6  -6   7  202.23   21.35
   6  -6   8   12.31    5.54
  -6  -6   8   13.13    5.28
   6  -6  -8   18.89    6.25
  -6  -6  -8   26.19    8.99
   6  -6   8    4.72    4.50
  -6   6   8   14.24    5.69
   6  -6  -8   11.30    6.29
   6   6   8   13.64    5.24
   6   6   9    8.34    1.26
  -6  -6   9    0.02    2.97
  -6  -6  -9   10.00    5.70
   6  -6   9   13.48    6.45
  -6   6   9   12.92    9.19
   6  -6  -9    4.46    2.30
   6  -6  -9    8.11    2.10
  -6  -6  10   53.84   12.34
   6  -6 -10   42.98   10.85
  -6  -6 -10   57.63   10.80
  -6   6  10   68.58   13.59
   6  -6 -10   62.95   11.97
   6   6  10   68.53   11.77
   6  -6  10   63.84   12.78
  -6  -6 -11  258.01   24.18
   6  -6 -11  304.05   27.59
  -6   6  11  233.50   26.12
   6  -6  11  221.82   23.53
   6   6  11  236.99   22.86
  -6  -6  11  256.35   26.33
  -6  -6 -12  104.49   15.56
   6  -6 -12   75.23   13.81
  -6   6  12  111.00   17.60
   6  -6 -12  105.58   15.58
   6  -6  12   81.87   14.87
   6   6  12   82.71   14.32
  -6  -6  12   78.03   14.29
  -6  -6  13   12.55    3.34
   6   6  13   29.47    8.69
   6  -6  13   28.36    8.93
  -6  -6 -13   21.80    8.03
  -6   6  13   18.04    6.80
   6  -6 -13   34.21   10.82
  -6  -6  13   14.90    7.88
  -6  -6 -14  341.05   29.39
   6  -6 -14  370.51   31.35
  -6   6  14  369.51   32.93
  -6  -6  14  360.61   30.69
   6  -6  14  321.47   29.45
   6   6  14  319.73   28.42
  -6  -6  14  357.70   32.13
  -6  -6 -15   90.85   16.82
  -6   6  15   97.16   16.81
   6  -6 -15  105.20   17.38
   6  -6  15  114.33   18.00
  -6  -6  15   85.63   16.09
   6   6  15   90.09   15.52
  -6  -6  15   79.66   14.63
   6  -6  16   21.39    7.34
   6   6  16   17.82    6.62
  -6   6  16   37.97   12.97
   6  -6 -16   25.91    8.46
  -6  -6  16   37.37   11.28
   6  -6  17   25.06    8.77
   6   6  17   10.43    6.92
  -6   6  17   19.28    6.37
   6  -6 -17    6.79    1.93
  -6  -6  17   36.12   10.89
  -6   6  17   22.87    8.30
  -6   6  18   49.86   12.72
   6  -6 -18   74.89   15.56
  -6  -6  18   49.17   11.95
  -6   6  18   49.99   14.08
   6  -6  18   37.42   11.17
   6   6  19    3.42    3.44
  -6   6  19   22.85    7.52
   6  -6 -19   26.91   10.22
  -6  -6  19   12.70    4.95
  -6   6  19    9.51    5.43
   6  -6  19   16.69    5.64
   6   6  20   -2.53    6.01
  -6   6  20    8.74    6.76
   6  -6 -20    0.70    2.12
  -6  -6  20    4.47    1.69
  -6   6  20    2.69    2.65
   6  -6  20    9.22    6.84
   6   6  21    0.96    4.53
  -6   6  21   10.86    7.12
   6  -6 -21    4.58    2.76
  -6  -6  21    2.55    2.94
  -6   6  21   18.15    9.67
   6  -6  21   20.27    7.59
   6   6  22   56.67   14.45
  -6   6  22   57.32   14.21
   6  -6 -22   60.14   13.97
  -6  -6  22   50.54   14.65
   6  -6  22   67.28   15.12
  -6   6  22   57.48   15.07
   6   6  23   21.30    9.03
  -6   6  23   51.39   12.84
   6  -6 -23   39.33   12.24
  -6  -6  23   28.99    9.16
   6  -6  23   30.11   10.69
  -6   6  23   25.31    9.52
   6  -6  23   31.41    9.68
   6   6  24   49.10   12.75
  -6   6  24   38.92   12.07
   6  -6 -24   60.25   15.83
  -6  -6  24   45.82   11.21
   6  -6  24   46.80   13.42
  -6   6  24   50.22   13.44
   6  -6  24   36.72   13.07
   6   6  25   62.08   15.36
  -6   6  25   64.62   15.81
   6  -6 -25   46.66   15.08
  -6  -6  25   43.16   13.86
   6  -6  25   53.39   14.64
  -6   6  25   57.94   15.19
   6  -6  25   49.89   13.37
   6   6  26   44.67   12.27
  -6   6  26   39.14   12.02
   6  -6 -26   83.78   19.84
   6  -6  26   41.30   11.25
  -6  -6  26   50.45   12.23
  -6   6  26   48.08   15.57
   6  -6  26   62.90   14.31
  -6  -7   0  153.56   19.53
   6  -7   0  166.89   17.97
   6  -7   0  206.54   22.21
  -6  -7   1   88.70   14.84
  -6  -7  -1  100.33   16.01
   6  -7   1  108.33   14.49
   6  -7  -1  124.68   15.32
   6  -7   1   95.56   15.45
   6  -7  -1   98.10   15.28
  -6  -7   2  243.14   24.71
   6  -7   2  189.44   19.15
  -6  -7  -2  244.30   24.05
   6  -7  -2  250.23   22.16
   6  -7   2  257.14   24.05
  -6   7   2  235.91   25.81
   6  -7  -2  219.05   23.60
  -6  -7   3   91.06   14.24
   6  -7   3   97.02   13.45
  -6  -7  -3   78.50   13.97
   6  -7  -3  124.27   15.90
   6  -7   3  105.31   15.97
  -6   7   3  132.12   19.23
   6  -7  -3   77.67   13.40
   6  -7   4   -0.27    3.02
  -6  -7   4    0.15    3.01
   6  -7  -4   -3.85    4.44
   6  -7   4    0.16    3.55
  -6  -7  -4   -0.15    2.46
   6  -7  -4   -1.68    3.31
  -6   7   4    6.13    7.97
  -6  -7   5   30.33    7.97
   6  -7   5   17.35    5.81
  -6  -7  -5   23.69    8.10
   6  -7  -5   27.25    7.37
   6  -7  -5   23.87    6.87
  -6   7   5   36.85   10.55
   6  -7   5   20.63    7.18
  -6  -7   6    3.52    5.08
   6  -7   6   -1.03    2.36
  -6  -7  -6    0.64    3.76
   6  -7  -6   -1.79    2.56
  -6   7   6   -0.83    4.08
   6  -7  -6   -1.37    2.15
   6  -7   6    7.20    4.22
  -6  -7   7   -0.59    1.79
   6  -7   7    0.66    2.93
  -6  -7  -7    2.51    3.60
   6  -7  -7   -0.22    2.25
  -6   7   7   11.31    7.83
   6  -7   7    2.36    3.01
   6  -7  -7   -1.88    3.22
  -6  -7   8    4.04    4.90
   6  -7   8   -1.67    3.54
   6  -7  -8    2.41    4.30
  -6  -7  -8   10.34    6.71
  -6   7   8   -2.09    3.69
   6  -7  -8   -1.44    1.92
   6  -7   8   -0.67    2.77
   6   7   8    3.55    4.19
  -6  -7   9   -2.24    4.24
  -6  -7  -9    7.54    5.44
   6  -7  -9   13.86    8.82
   6  -7   9    4.63    2.95
  -6   7   9    5.00    3.61
   6  -7  -9    0.76    2.97
   6   7   9   12.11    6.25
  -6  -7  10   39.25    8.81
  -6  -7 -10   45.39   11.46
   6  -7  10   41.45   10.62
  -6   7  10   58.92   12.18
   6  -7 -10   53.47   11.44
   6  -7 -10   39.17   10.17
   6   7  10   42.80    9.54
  -6  -7  11    0.87    4.64
   6  -7 -11   -1.48    3.17
   6  -7  11   -0.41    2.24
  -6  -7 -11   -0.48    3.57
  -6   7  11   -5.20    3.38
   6  -7 -11    0.99    1.99
   6   7  11   -0.16    3.89
   6   7  12   12.98    5.39
  -6  -7  12   29.80    8.58
   6  -7  12   20.73    9.23
  -6  -7 -12   21.47    8.02
  -6   7  12   24.27   10.35
   6  -7 -12   23.10    7.55
   6  -7 -12   16.90    6.84
   6   7  13   13.44    6.72
  -6  -7  13   11.95    6.00
   6  -7 -13   15.50    7.69
   6  -7  13   15.68    7.52
  -6  -7 -13   13.67    4.55
  -6   7  13   24.08   11.36
   6  -7 -13   10.66    6.42
   6   7  14   25.69    9.31
  -6  -7  14   43.90   12.21
   6  -7  14   48.19   11.86
  -6  -7 -14   57.95   12.42
  -6   7  14   30.67    9.18
   6  -7 -14   25.78    9.23
  -6  -7  15   13.63    7.17
   6   7  15    9.12    3.79
   6  -7  15   20.80    7.87
  -6  -7 -15   14.24    7.54
  -6   7  15   13.99    7.33
   6  -7 -15   24.77    7.31
  -6  -7  16   -1.03    6.49
   6   7  16   11.59    7.34
   6  -7  16    0.72    4.48
  -6   7  16    5.87    2.19
   6  -7 -16    5.14    4.77
   6   7  17   20.02    8.01
   6  -7  17    7.69    5.59
  -6   7  17    9.62    5.99
   6  -7 -17   10.95    6.85
   6  -7  18   11.28    6.57
   6   7  18   19.02    7.44
  -6   7  18   37.48    9.77
   6  -7 -18   20.14    9.61
   6   7  19    0.74    3.21
  -6   7  19   -2.62    3.45
   6  -7 -19   -0.78    3.86
  -6   7  19   -0.28    4.61
   6  -7  19    0.25    3.22
   6   7  20   14.34    8.40
  -6   7  20   11.74    6.97
   6  -7 -20   -2.41    4.55
  -6   7  20    1.96    4.49
   6  -7  20   15.05    6.88
   6   7  21    1.70    5.29
  -6   7  21    2.17    6.72
   6  -7 -21   -5.68    6.00
  -6   7  21   -2.28    1.60
   6  -7  21    8.12    5.20
   6   7  22   22.35    5.66
  -6   7  22   14.13    8.49
   6  -7 -22   12.12    5.66
  -6   7  22   12.47    6.72
   6  -7  22   12.55   10.19
   6   7  23   -1.11    4.55
  -6   7  23   13.16    8.61
   6  -7 -23    1.41    3.04
  -6   7  23    3.95    2.02
   6  -7  23   -2.53    3.70
   6  -7  23   -4.02    6.76
   6   7  24    2.35    8.15
  -6   7  24   -2.95    4.48
   6  -7 -24   -0.35    4.31
   6  -7  24    6.13    7.97
  -6   7  24   -4.19    2.35
   6  -7  24   -4.83    6.70
   6   7  25   11.23    7.01
  -6   7  25    4.62    4.16
   6  -7 -25    1.02    3.04
   6  -7  25    7.24    7.33
  -6   7  25    4.79    4.11
   6  -7  25    2.19    5.64
  -6  -8   0   12.82    7.65
   6  -8   0    6.74    5.22
   6  -8   0   13.64    5.04
  -6  -8   1   13.38    5.61
  -6  -8  -1   15.17    7.72
   6  -8   1    5.80    2.89
   6  -8  -1   18.78    7.22
   6  -8   1   16.57    6.82
   6  -8  -1   11.03    6.90
  -6  -8   2   42.02   11.25
   6  -8   2   30.22    8.08
   6  -8   2   32.81    8.70
  -6  -8  -2   37.49   10.34
   6  -8  -2   35.17    7.83
   6  -8  -2   29.95    9.21
  -6  -8   3  189.19   22.92
   6  -8   3  193.89   21.33
  -6  -8  -3  181.87   22.24
   6  -8  -3  202.87   21.28
   6  -8   3  243.90   24.17
  -6   8   3  178.73   22.94
   6  -8  -3  190.56   21.44
   6  -8   4   69.67   12.74
  -6  -8   4   53.39   13.54
   6  -8   4   64.67   12.34
   6  -8  -4   60.14   11.96
  -6  -8  -4   56.36   12.87
   6  -8  -4   56.06   11.49
  -6   8   4   70.52   14.25
  -6  -8   5  216.07   24.05
   6  -8   5  182.52   21.24
  -6  -8  -5  145.15   19.38
   6  -8   5  177.94   21.85
   6  -8  -5  157.94   19.16
  -6   8   5  163.31   23.05
   6  -8  -5  165.43   21.58
  -6  -8   6    2.15    4.72
   6  -8   6   -1.29    1.72
  -6  -8  -6   10.19    6.03
   6  -8  -6    1.02    1.47
  -6   8   6    3.64    4.70
   6  -8  -6    1.24    2.73
   6  -8   6    0.36    2.68
  -6  -8   7  358.12   31.69
   6  -8   7  385.02   29.21
   6  -8   7  381.51   31.96
  -6  -8  -7  408.96   33.65
   6  -8  -7  385.90   31.39
  -6   8   7  404.49   34.79
  -6  -8   8   -1.34    2.53
  -6  -8  -8    1.37    4.71
   6  -8  -8    5.94    4.18
  -6   8   8   -2.18    2.28
   6  -8   8    7.29    5.38
   6  -8  -8    4.93    6.20
  -6  -8   9   14.53    6.00
   6  -8  -9   31.27   10.72
  -6  -8  -9   24.16    8.84
   6  -8  -9   25.87    8.00
  -6   8   9   17.41    5.63
   6  -8   9   28.08    9.23
  -6  -8  10   11.47    6.52
  -6  -8 -10   17.38    8.21
   6  -8 -10   18.13    8.18
   6  -8  10   21.97    7.74
  -6   8  10   10.73    4.29
   6  -8 -10    4.44    2.53
  -6  -8  11  179.14   22.50
   6  -8 -11  203.17   23.69
  -6  -8 -11  135.16   20.64
   6  -8 -11  193.19   22.76
  -6   8  11  159.22   21.58
   6  -8  11  181.02   22.77
  -6  -8  12    8.63    5.87
   6  -8 -12   16.26    7.68
   6  -8  12   20.50    7.32
  -6  -8 -12    1.57    2.20
  -6   8  12   10.84    8.51
   6  -8 -12   -1.05    4.61
   6   8  12    3.61    4.53
  -6  -8  13   -4.93    3.28
   6  -8  13    6.71    5.25
  -6  -8 -13    3.11    3.59
  -6   8  13   11.23    7.54
   6  -8 -13   -1.96    4.02
   6  -8 -13   -0.07    4.36
   6   8  13    4.56    6.30
  -6  -8  14    9.32    4.38
   6  -8  14   35.27    7.91
   6  -8 -14   16.33    7.50
  -6  -8 -14    8.98    5.87
  -6   8  14   16.97    7.53
   6  -8 -14   15.83    6.44
   6   8  14   21.80    8.16
  -6  -8 -15  322.56   31.35
   6  -8 -15  295.70   30.27
  -6   8  15  359.57   35.53
   6  -8 -15  269.96   28.77
   6  -8  15  280.88   29.08
   6   8  15  292.50   29.25
  -6  -8  15  276.97   31.21
  -6  -8  16    7.05    5.97
   6  -8  16   12.87    7.47
  -6  -8 -16   17.22   11.33
  -6   8  16   -1.48    5.23
   6  -8 -16    2.72    5.78
   6   8  16    4.00    4.94
   6  -8 -17  142.98   22.30
  -6   8  17   99.99   18.59
   6  -8  17   96.73   16.68
   6   8  17  104.22   18.69
  -6  -8  17  111.51   19.62
   6   8  18    6.58    4.19
   6  -8  18    5.56    5.41
  -6   8  18   -1.05    4.91
   6  -8 -18   -0.37    3.93
  -6  -8  18   -0.81    2.93
   6   8  19   68.55   15.04
   6  -8  19   77.81   16.93
  -6   8  19   84.52   17.21
   6  -8 -19   86.54   18.07
   6  -8 -20   10.33    4.43
   6  -8  20    9.79    1.81
   6   8  21   91.20   18.60
   6  -8 -21   73.65   19.94
   6  -8  21   91.93   17.82
  -6   8  21  110.21   20.16
   6   8  22   10.37    8.12
  -6   8  22   10.21    3.57
   6  -8 -22   -1.06    2.87
   6  -8  22   -2.21    3.57
   6   8  23   38.93   11.95
  -6   8  23   21.21    8.14
   6  -8 -23   45.84   12.28
  -6   8  23   32.89   12.31
   6  -8  23   53.72   16.29
   6   8  24    0.79    3.68
  -6   8  24    0.80    4.28
   6  -8 -24   14.35    7.77
  -6   8  24   -6.79    7.61
   6  -8  24   -5.02    5.31
   6  -8  24    9.99    2.36
  -6  -9   0   95.21   17.60
   6  -9   0   66.53   13.21
   6  -9   0   89.36   16.28
  -6  -9   1    5.29    4.91
  -6  -9  -1    4.44    2.70
   6  -9   1    6.59    5.65
   6  -9  -1   -4.04    4.76
   6  -9   1    6.40    4.84
   6  -9  -1   17.33    8.16
  -6  -9   2   -1.06    3.38
   6  -9   2   -3.05    3.61
   6  -9   2    1.70    5.08
  -6  -9  -2    2.85    5.43
   6  -9  -2    1.03    2.19
   6  -9  -2   -1.12    4.52
   6  -9   3    3.62    4.16
  -6  -9   3   16.05    8.86
   6  -9   3    7.69    3.82
  -6  -9  -3   11.76    6.96
   6  -9  -3   -1.09    3.80
   6  -9  -3    9.26    5.36
   6  -9   4    6.59    5.83
   6  -9  -4    9.65    5.09
  -6  -9   4    1.29    3.86
   6  -9   4   11.00    5.86
  -6  -9  -4   -0.11    2.99
   6  -9  -4    3.54    3.06
  -6   9   4    2.98    4.08
  -6  -9   5  196.06   23.72
   6  -9   5  145.19   19.83
  -6  -9  -5  120.89   19.27
   6  -9   5  153.72   20.29
   6  -9  -5  138.93   18.33
  -6   9   5  168.07   22.75
   6  -9  -5  148.01   20.13
  -6  -9   6   51.12   11.29
   6  -9   6   32.62    9.65
  -6  -9  -6   50.03   13.41
   6  -9  -6   61.50   13.79
   6  -9  -6   45.31   11.04
  -6   9   6   34.37   10.98
   6  -9   6   34.28    9.91
  -6  -9   7    5.04    5.04
  -6  -9  -7    3.45    5.70
   6  -9  -7    0.34    1.73
  -6   9   7   -1.30    3.64
   6  -9  -7    4.35    2.60
   6  -9   7   -8.74    5.73
  -6  -9   8   32.32    9.35
  -6  -9  -8   28.60    9.54
   6  -9  -8   34.04    9.52
  -6   9   8   24.21    9.27
   6  -9   8   31.74   10.02
   6  -9  -8   13.08    5.15
  -6  -9   9    7.49    4.44
  -6  -9  -9   12.92    4.63
   6  -9  -9    2.26    3.35
  -6   9   9   -0.35    4.68
   6  -9   9    3.69    5.15
   6  -9  -9    9.01    5.01
  -6  -9  10    6.01    4.52
   6  -9 -10   20.82    8.74
  -6  -9 -10    5.50    4.97
   6  -9  10    8.92    5.00
   6  -9 -10    6.99    5.39
  -6   9  10   14.63    8.40
  -6  -9  11   12.32    3.68
   6  -9 -11    2.28    4.70
  -6  -9 -11   19.72    8.53
   6  -9  11   13.10    3.68
   6  -9 -11    7.65    3.63
  -6   9  11   29.30   11.34
  -6  -9  12    8.41    5.84
   6  -9  12    2.41    3.02
  -6  -9 -12    8.52    2.44
  -6   9  12   21.42    9.12
   6  -9 -12   16.52    7.89
   6  -9 -12    9.63    5.92
   6  -9 -13    8.60    4.38
  -6  -9  13    9.13    6.20
  -6  -9 -13    8.04    2.64
  -6   9  13    0.41    2.97
   6  -9 -13    3.34    2.83
  -6  -9  14   28.04   10.31
   6  -9  14   20.76    9.29
   6  -9 -14   30.89    9.88
  -6  -9 -14   25.48    9.82
  -6   9  14   26.27   10.45
   6  -9 -14   17.64    5.46
  -6  -9  15   -0.08    4.62
   6  -9  15   -3.20    2.78
  -6  -9 -15   -2.17    6.23
  -6   9  15    1.19    4.71
   6  -9 -15   -2.34    2.74
   6  -9 -15   10.96    6.39
  -6  -9  16    2.32    6.91
   6  -9  16   -2.92    4.02
   6  -9 -16    0.77    4.14
  -6  -9 -16    9.28    7.89
  -6   9  16    3.66    5.64
   6  -9 -16   -5.96    6.05
  -6  -9  17   -0.48    1.60
   6  -9  17   10.73    7.09
   6  -9 -17    7.39    4.63
  -6  -9 -17  -12.77    5.84
  -6   9  17   -1.32    3.23
   6  -9 -17   12.18    7.50
   6   9  17   21.27    9.80
  -6  -9  18   -0.44    3.65
   6  -9  18    0.44    1.95
  -6   9  18    5.76    7.32
   6  -9 -18   -8.01    4.45
   6  -9 -18   -5.02    2.29
   6   9  18    3.79    4.79
   6  -9  19   -6.89    7.86
  -6   9  19   -3.76    5.52
   6  -9 -19    1.94    2.29
   6   9  19   -4.13    7.38
  -6  -9  19   -2.69    4.19
   6  -9  20   19.20   10.59
  -6   9  20   12.69    5.16
   6  -9 -20   13.81    7.50
   6   9  20   15.09    8.57
  -6   9  21    6.97    7.97
   6  -9 -21   15.84    8.91
   6   9  21   10.33    6.97
   6  -9  21   10.63    4.11
  -6   9  22   11.62    5.45
   6  -9 -22   12.49    7.25
   6  -9  22   15.56    7.14
   6   9  22   25.84   10.73
  -6 -10   0  102.81   18.06
   6 -10   0   90.10   16.53
   6 -10   0   93.09   17.08
  -6 -10   1    3.87    4.13
  -6 -10  -1   15.29    6.43
   6 -10   1    2.89    4.36
   6 -10  -1   18.41    8.96
   6 -10   1   25.89    9.21
   6 -10  -1    8.57    7.22
  -6 -10   2   -0.28    2.00
   6 -10   2   -0.17    3.78
   6 -10   2    7.64    5.91
  -6 -10  -2    4.03    3.14
   6 -10  -2   -0.20    6.35
   6 -10  -2    2.29    6.19
   6 -10   3   58.86   13.45
  -6 -10   3   58.22   12.74
   6 -10   3   47.21   10.76
  -6 -10  -3   50.52   12.55
   6 -10  -3   50.94   12.57
   6 -10  -3   51.34   12.40
  -6 -10   4  127.97   20.52
   6 -10   4  128.94   19.71
  -6 -10  -4  118.21   19.97
   6 -10  -4  136.53   20.54
   6 -10   4  153.90   20.21
   6 -10  -4  136.03   18.83
   6 -10  -5    3.42    3.53
  -6 -10   5   10.41    7.26
   6 -10   5    3.86    5.36
  -6 -10  -5    4.13    6.49
   6 -10  -5    6.65    5.40
  -6  10   5   -0.18    2.23
   6 -10   5   11.27    6.98
  -6 -10   6   41.35   10.38
   6 -10  -6   48.44   11.34
  -6 -10  -6   20.67    8.03
   6 -10  -6   23.21    8.46
  -6  10   6   22.07    3.93
   6 -10   6   30.77    9.57
  -6 -10   7    7.07    7.34
  -6 -10  -7    4.54    3.39
   6 -10  -7    8.26    4.38
   6 -10  -7    5.48    3.01
  -6  10   7    9.28    6.90
   6 -10   7   -0.40    2.96
  -6 -10   8  107.17   18.30
  -6  10   8  159.70   23.47
   6 -10   8  114.48   18.66
  -6 -10  -8  116.23   20.30
   6 -10  -8  126.37   19.96
   6 -10  -8  117.09   18.85
  -6 -10   9    7.74    7.44
  -6 -10  -9    0.24    3.12
  -6  10   9   10.28    7.16
   6 -10  -9    6.56    7.67
   6 -10   9   -3.89    4.83
   6 -10  -9    2.18    3.10
  -6 -10  10   46.77   11.76
  -6 -10 -10   59.82   13.34
  -6  10  10   22.09    9.64
   6 -10  10   56.45   13.43
   6 -10 -10   57.09   14.03
   6 -10 -10   55.96   13.02
  -6 -10  11   77.64   16.31
   6 -10 -11  105.33   18.45
  -6 -10 -11  114.98   19.47
   6 -10 -11   70.07   14.93
  -6  10  11   66.58   16.04
   6 -10  11  108.17   18.74
  -6 -10  12   58.26   14.34
   6 -10 -12   85.64   17.34
  -6 -10 -12   42.84   11.78
  -6  10  12  109.02   20.10
   6 -10 -12   80.71   16.67
   6 -10  12   82.04   15.42
  -6 -10  13   13.37    9.54
   6 -10  13   -4.59    2.17
  -6 -10 -13   -5.53    6.83
   6 -10 -13   -4.70    3.60
  -6  10  13   -0.68    6.35
   6 -10 -13    1.95    7.01
  -6 -10  14   73.17   16.42
   6 -10 -14  116.46   19.29
  -6 -10 -14   84.12   17.76
   6 -10 -14  134.80   21.20
  -6  10  14  123.79   22.12
   6 -10  14  112.50   20.26
  -6 -10  15   43.85   12.90
   6 -10 -15   54.60   13.62
   6 -10  15   33.52   11.47
  -6 -10 -15   45.21   13.47
   6 -10 -15   23.33   10.20
  -6  10  15   35.57   10.06
  -6 -10  16   -0.46    2.96
   6 -10  16    3.01    4.55
   6 -10 -16   -0.13    6.01
  -6 -10 -16    6.73    6.11
  -6  10  16   11.08    7.37
   6 -10 -16    9.05    5.34
  -6 -10  17    8.30    8.83
   6 -10  17   -2.14    4.53
  -6 -10 -17   -6.74    4.94
  -6  10  17   -1.03    6.27
   6 -10 -17   -6.32    6.71
   6 -10 -17    4.08    4.98
  -6 -10  18   82.86   17.98
   6 -10 -18   87.89   17.61
  -6  10  18   91.96   19.11
   6 -10 -18   71.52   16.11
   6 -10  18   81.24   17.44
  -6 -10  19   24.21    9.17
   6 -10  19    2.81    2.35
  -6  10  19   16.34    8.02
   6 -10 -19   22.42   10.81
   6 -10 -19   10.68    5.22
   6 -10  20   -0.92    5.21
   6 -10 -20    2.33    4.89
  -6  10  20    5.76    8.65
   6 -10 -20    3.90    8.84
  -6 -10  20   -3.89    3.16
   6 -10  21   63.43   15.85
   6 -10 -21   68.87   15.09
  -6  10  21  102.28   21.30
   6 -10 -21   89.11   18.33
  -6 -11   0   -1.33    3.68
   6 -11   0   14.18    8.54
   6 -11   0   13.34    8.12
  -6 -11   1   19.79    7.89
  -6 -11  -1   32.70   11.12
   6 -11   1   22.86    8.04
   6 -11   1   35.95    9.99
   6 -11  -1   10.36    5.88
   6 -11  -1   32.08   10.28
  -6 -11   2   35.77   12.03
   6 -11   2   27.48    8.46
   6 -11   2   25.31    8.94
  -6 -11  -2   38.27   12.58
   6 -11  -2   33.74    8.89
   6 -11  -2   26.54    8.86
   6 -11   3   40.24   11.90
   6 -11   3   59.22   13.92
  -6 -11  -3   46.53   11.74
   6 -11  -3   50.75   13.83
   6 -11  -3   46.96   12.30
   6 -11   4   -0.65    3.33
  -6 -11   4    1.43    5.40
  -6 -11  -4   19.39    8.83
   6 -11  -4    4.79    5.99
   6 -11  -4   13.50    6.04
   6 -11  -5   -3.38    3.55
  -6 -11   5    5.72    5.52
  -6 -11  -5    0.97    3.25
   6 -11  -5    1.23    3.25
   6 -11   5    5.13    5.14
   6 -11  -6   -0.65    5.27
  -6 -11   6    4.09    5.11
  -6 -11  -6    2.84    5.10
   6 -11  -6    0.99    3.73
  -6  11   6   10.43    7.36
   6 -11   6    2.42    5.25
  -6 -11   7    2.44    2.36
   6 -11  -7    0.19    3.50
  -6 -11  -7   -1.90    3.71
   6 -11  -7    4.88    2.35
  -6  11   7   10.45    7.81
   6 -11   7   15.69    6.03
  -6 -11   8   -4.57    4.79
  -6 -11  -8   -2.65    7.66
   6 -11  -8   -1.12    2.20
   6 -11  -8    5.58    6.64
  -6  11   8    5.70    5.59
   6 -11   8    5.27    5.55
  -6 -11   9   10.04    8.57
  -6 -11  -9   -2.79    3.82
   6 -11  -9    1.89    4.31
  -6  11   9   17.44    6.58
   6 -11  -9    4.65    5.97
   6 -11   9   12.30    5.29
  -6 -11  10   -4.26    5.37
  -6 -11 -10    2.10    4.16
   6 -11 -10    2.29    3.19
  -6  11  10   -0.06    2.39
   6 -11  10    3.59    7.51
   6 -11 -10    2.40    5.89
  -6 -11  11   -0.91    3.76
  -6 -11 -11    4.95    4.75
   6 -11 -11   -4.49    6.04
   6 -11  11    7.98    5.01
  -6  11  11   -1.86    5.16
   6 -11 -11   -0.20    4.04
   6 -11 -12   29.25    9.94
  -6 -11  12   19.46    9.10
  -6 -11 -12   39.04   12.00
   6 -11  12   11.16    4.56
   6 -11 -12   18.95    7.34
  -6  11  12   24.68    9.95
  -6 -11  13   28.01   11.11
   6 -11 -13    7.14    5.25
   6 -11  13   27.49    9.80
  -6 -11 -13   18.58    8.30
   6 -11 -13   22.29   10.00
  -6  11  13   38.37   11.43
  -6 -11  14    2.89    4.35
   6 -11  14    7.14    6.37
   6 -11 -14    7.22    5.73
  -6 -11 -14   15.01   10.75
   6 -11 -14   16.10    9.24
  -6  11  14   -3.89    7.45
  -6 -11  15    1.09    3.62
   6 -11  15   -2.75    5.17
  -6 -11 -15   -1.46    6.01
   6 -11 -15    5.05    4.27
  -6  11  15    3.11    7.65
   6 -11 -15   -2.96    5.00
  -6 -11  16   15.74    6.60
   6 -11  16    2.55    2.50
   6 -11 -16    9.72    6.31
  -6  11  16    2.01    8.10
   6 -11 -16   18.36    8.28
   6 -11 -17    1.89    3.76
  -6 -11  17   16.07    6.40
   6 -11  17   15.90    8.89
   6 -11 -17   20.43    4.94
  -6  11  17   33.07   12.31
  -6 -11  18   14.40    5.78
   6 -11  18   18.41    7.88
   6 -11 -18   12.02    7.31
   6 -11 -18   24.55   10.60
  -6  11  18   17.54    8.45
  -6 -11  19    1.37    5.39
   6 -11  19   12.28    7.88
   6 -11 -19    5.01    5.67
   6 -11 -19   -3.84    4.65
  -6  11  19    6.91    6.44
  -6 -12   0   12.98    9.41
   6 -12   0   21.09    9.61
   6 -12   0   37.55   12.52
  -6 -12   1   21.74   10.79
  -6 -12  -1   17.47    7.39
   6 -12   1   38.72   12.08
   6 -12   1   34.65   10.93
   6 -12  -1   21.48    7.15
   6 -12  -1   10.16    1.60
   6 -12   2   64.57   14.42
  -6 -12   2   21.06    3.94
   6 -12   2   48.98   14.03
  -6 -12  -2   10.37    7.49
   6 -12  -2   44.67   12.80
   6 -12  -2   43.47   11.10
   6 -12   3   26.21   10.07
  -6 -12   3   44.46   14.57
  -6 -12  -3   29.66   10.26
   6 -12  -3   18.64    7.34
   6 -12  -3   31.21   11.80
   6 -12   4   12.98    6.42
  -6 -12   4   22.36    7.75
  -6 -12  -4   21.85   11.06
   6 -12  -4   24.71    9.02
   6 -12  -4   -1.79    2.87
  -6 -12   5   17.61   10.04
  -6 -12  -5    0.03    3.69
   6 -12  -5   10.77    7.43
   6 -12  -5    4.41    4.68
   6 -12   5    8.81    4.34
   6 -12  -6   -2.35    2.73
  -6 -12   6   -1.99    5.88
  -6 -12  -6   -2.49    6.00
   6 -12  -6   -4.91    6.82
   6 -12   6    6.07    6.98
   6 -12  -7    5.71    5.28
  -6 -12   7    9.16    6.95
  -6 -12  -7    9.91    7.71
   6 -12  -7    5.65    9.25
   6 -12   7    2.35    4.85
  -6 -12   8   17.13   10.76
   6 -12  -8    7.74    4.88
  -6 -12  -8   14.70    9.04
   6 -12  -8   12.36    8.25
  -6  12   8   13.39    7.11
   6 -12   8    5.73    2.24
  -6 -12   9   16.86    9.12
  -6 -12  -9   11.06    7.22
   6 -12  -9   29.33   10.91
   6 -12  -9    6.68    6.04
  -6  12   9   18.44    8.47
   6 -12   9   12.23    7.88
  -6 -12  10    8.84    5.38
  -6 -12 -10    1.80    2.98
   6 -12 -10    8.36    4.46
   6 -12 -10    5.88    5.81
   6 -12  10   14.88    8.00
  -6 -12  11   77.66   16.60
  -6 -12 -11   63.33   16.16
   6 -12 -11   79.19   17.20
   6 -12  11   58.59   14.25
  -6  12  11   77.50   18.09
   6 -12 -11   87.74   17.54
  -6 -12  12    1.75    5.33
  -6 -12 -12    2.35    7.64
   6 -12  12   12.37    9.29
   6 -12 -12   -6.37    7.59
  -6  12  12   -7.33    8.60
   6 -12 -12    9.52    4.75
  -6 -12  13    5.10    5.03
  -6 -12 -13   11.21    6.75
   6 -12  13    6.30    6.14
   6 -12 -13    9.51    7.56
  -6  12  13   -3.51    6.76
   6 -12 -13   11.32    7.96
   6 -12 -14   13.65    7.30
  -6 -12  14   21.57   10.65
   6 -12  14   20.24    8.95
  -6 -12 -14   10.19    8.00
   6 -12 -14   17.89    9.43
  -6  12  14   24.49    9.21
  -6 -12  15   -3.91    3.16
   6 -12 -15    2.18    2.11
   6 -12  15    4.42    4.48
  -6 -12 -15    7.84    3.72
  -6  12  15    3.36    5.24
  -6 -12  16   46.17   12.13
   6 -12  16   44.57   11.83
   6 -12 -16   29.71    9.44
  -6 -12 -16   59.10   18.09
   6 -12 -16   25.39   12.15
  -6  12  16   32.96   11.83
  -6 -13   0   25.08   10.66
   6 -13   0   26.25    9.25
  -6 -13   1    4.79    5.45
  -6 -13  -1    2.96    5.63
   6 -13   1    3.03    3.51
   6 -13  -1    9.72   10.47
   6 -13  -1    2.86    3.67
   6 -13   2   13.30    7.61
  -6 -13   2    2.86    3.38
  -6 -13  -2   12.43    8.29
   6 -13  -2   13.14    5.47
   6 -13  -2   -2.49    3.57
   6 -13   3    6.08    5.13
  -6 -13   3    5.30    5.62
  -6 -13  -3    5.41    2.25
   6 -13  -3    3.32    2.86
   6 -13  -3    7.56    8.48
   6 -13   4   -0.61    3.53
  -6 -13   4    1.70    2.69
  -6 -13  -4   10.25    3.23
   6 -13  -4    4.19    4.93
   6 -13  -4    0.13    3.40
  -6 -13   5    5.49    2.54
  -6 -13  -5   10.67    8.82
   6 -13  -5   10.78   10.30
   6 -13  -5   -4.17    6.39
   6 -13   5    0.28    2.21
  -6 -13   6    6.84    5.36
  -6 -13  -6   -2.71    6.40
   6 -13  -6   -8.32    5.91
   6 -13   6    5.37    5.61
   6 -13  -6    2.56    2.58
   6 -13  -7    5.17    5.31
  -6 -13   7   16.09    8.42
  -6 -13  -7    1.98    5.73
   6 -13  -7   14.55    4.69
   6 -13   7   14.42    6.98
   6 -13  -8    6.84    6.56
  -6 -13   8   -2.50    4.30
  -6 -13  -8   -7.93    7.90
   6 -13  -8   14.70   10.41
   6 -13   8    6.57    5.52
  -6 -13   9   10.76    6.42
   6 -13  -9    6.47    3.51
  -6 -13  -9    6.08    6.42
   6 -13  -9   13.57    9.63
   6 -13   9   13.10    7.22
  -6 -13  10   12.42    5.13
   6 -13 -10   12.53    8.16
  -6 -13 -10    4.55    6.69
   6 -13 -10   17.69    9.60
  -6  13  10   -3.33    8.88
   6 -13  10    8.34    5.23
  -6 -13  11   21.08    6.78
  -6 -13 -11    8.68    8.08
   6 -13 -11    3.52    7.34
   6 -13 -11    1.63    4.99
  -6  13  11    5.68   10.91
   6 -13  11    7.52    6.01
  -6 -13  12    1.47    4.11
  -6 -13 -12    2.11    5.48
   6 -13 -12    1.30    5.58
   6 -13  12   -1.54    3.06
  -6  13  12   -6.71    8.08
   6 -13 -12    7.41    5.92
  -6 -13  13    8.96    6.09
  -6 -13 -13   -4.43    5.36
   6 -13  13    0.61    4.02
   6 -13 -13   -5.59    5.31
  -6  13  13   -8.37    9.21
   6 -13 -13    8.41    6.26
  -6 -14   0   33.77   12.52
   6 -14   0   55.26   12.84
   6 -14   1    2.84    8.29
  -6 -14   1   -4.88    5.04
  -6 -14  -1    1.31    6.09
   6 -14  -1    2.89    7.28
   6 -14   2    2.25    6.15
  -6 -14   2    5.06    6.37
  -6 -14  -2    2.56    2.74
   6 -14  -2   10.22    7.54
   6 -14   3   44.04   13.10
  -6 -14   3   74.91   17.33
  -6 -14  -3   29.85    9.19
   6 -14  -3   84.75   16.68
  -6 -14   4   19.78   10.42
   6 -14  -4   11.30    6.54
   6 -14  -4   29.54   10.92
   6 -14   4   10.78    6.03
  -6 -14   5   -1.81    6.24
  -6 -14  -5    1.73    2.45
   6 -14  -5   -8.17    4.87
   6 -14   5   -4.17    6.59
  -6 -14   6   12.78    6.46
  -6 -14  -6   13.77    9.49
   6 -14  -6    7.83    7.38
   6 -14  -6   13.00    7.79
   6 -14   6   22.34   10.54
  -6 -14   7    6.54    5.48
  -6 -14  -7   23.91   11.03
   6 -14  -7   20.81   10.46
   6 -14   7   17.73    6.66
   6 -14  -7   22.94    8.89
  -6 -14   8   30.44   10.38
  -6 -14  -8   30.09   11.14
   6 -14  -8   46.90   15.56
   6 -14   8   32.09   11.35
   6 -14  -8   27.74    9.97
   6 -14  -9    3.86    6.08
  -6 -14   9   -3.42    3.52
  -6 -14  -9   15.32   13.14
   6 -14  -9    3.67    3.44
   6 -14   9    1.45    4.59
   7   0   0   -0.23    1.21
  -7   0   0    1.66    3.13
   7   0   1   -0.85    1.42
   7   0  -1    2.39    2.59
  -7   0   1    0.65    3.58
  -7   0   2  824.77   43.36
   7   0  -2  895.78   28.97
   7   0   3    0.07    1.34
  -7   0   3   -2.05    1.78
   7   0  -3    0.76    1.01
   7   0  -4  489.27   21.46
  -7   0   4  501.18   33.12
   7   0   4  503.93   27.23
   7   0  -5    2.70    2.04
  -7   0   5    0.71    3.67
   7   0   5    2.58    2.53
  -7   0   6  124.64   17.24
   7   0  -6  120.69   10.90
   7   0  -7    2.95    2.76
  -7   0   7    3.56    3.60
   7   0   7    2.11    4.51
   7   0   8  430.25   28.61
  -7   0   8  494.06   34.43
   7   0  -8  436.74   23.12
  -7   0   9    1.00    2.53
   7   0   9    1.59    2.73
   7   0  10   77.34   12.71
  -7   0  10   76.06   13.88
  -7   0  11   -1.39    3.28
   7   0  11   -2.90    5.49
   7   0  12  131.38   16.80
  -7   0  12  140.12   18.68
  -7   0  13    0.37    1.48
   7   0  13    9.62    5.52
   7   0  14  825.40   46.61
  -7   0  14  703.06   43.44
   7   0  15   -0.68    4.43
  -7   0  15    5.05    5.50
   7   0  16  572.90   39.89
  -7   0  16  546.73   39.98
   7   0  17   10.87    6.86
  -7   0  17    4.04    5.71
   7   0  18   61.36   13.49
  -7   0  18   48.66   12.52
   7   0  19   -2.44    3.16
  -7   0  19    1.14    6.14
   7   0  20  116.85   18.04
  -7   0  20  119.37   19.98
   7   0  20  110.84   18.96
   7   0  21   -6.49    6.21
  -7   0  21   -0.35    3.19
   7   0  21    1.08    3.16
   7   0  22   42.90   12.77
  -7   0  22   46.73   13.15
   7   0  22   52.15   11.75
   7   0  23    4.11    4.29
  -7   0  23    6.53    8.14
   7   0  23    2.27    3.98
   7   0  24  107.24   19.20
  -7   0  24  119.13   20.28
   7   0  24   75.33   16.43
   7   0  25   -0.06    5.83
  -7   0  25   -3.05    4.22
   7   0  25   -8.51    7.32
   7   0  26   71.04   15.88
  -7   0  26   79.48   17.96
   7   0  26   54.93   14.88
   7   0  27    4.21    3.24
  -7   0  27    3.43    6.05
   7   0  27    4.12    5.19
  -7   1   0    0.04    2.61
   7  -1   0    0.27    0.90
   7   1   0    1.27    1.69
   7  -1  -1  218.55   16.68
   7   1   1  180.93   13.42
  -7  -1   1  184.03   20.07
  -7   1   1  185.68   20.63
   7   1  -1  177.05   11.68
   7  -1   1  205.23   16.52
   7  -1  -2  375.92   21.76
   7   1   2  314.50   17.94
  -7   1   2  312.97   28.19
  -7  -1   2  374.53   28.70
   7  -1   2  371.09   22.82
   7  -1  -3  112.84   12.23
   7   1   3  143.07   13.06
  -7   1   3  137.19   17.66
  -7  -1   3  158.98   18.17
   7  -1   3  144.81   15.23
   7   1   4  105.05   11.76
   7  -1  -4   86.33   10.23
  -7   1   4   81.67   13.81
  -7  -1   4  106.61   14.65
   7  -1   4   84.54   11.55
   7  -1   5    3.78    4.95
  -7   1   5   -1.32    3.79
  -7  -1   5    4.27    5.61
   7  -1  -5    1.08    3.30
   7   1   5   -1.25    1.87
   7   1   6  298.83   21.20
  -7   1   6  401.71   31.23
  -7  -1   6  346.45   28.27
   7  -1   6  371.74   25.89
   7  -1  -6  303.43   19.89
   7  -1   7   15.98    5.99
   7  -1  -7    5.21    3.76
  -7   1   7   19.49    6.52
  -7  -1   7   19.68    7.55
   7   1   7   14.67    4.96
   7   1   8  292.25   23.07
  -7   1   8  308.28   27.70
   7  -1   8  300.18   24.97
  -7  -1   8  287.64   25.35
   7  -1  -8  237.80   19.12
   7  -1  -9  207.63   17.69
   7   1   9  227.33   21.34
   7  -1   9  253.92   22.72
  -7   1   9  240.54   24.70
  -7  -1   9  241.85   24.77
   7  -1 -10   24.80    7.00
   7   1  10   33.81    8.52
  -7   1  10   35.58    9.73
  -7  -1  10   25.05    8.87
   7  -1  10   27.68    7.36
   7   1  11  196.24   20.87
   7  -1  11  269.88   25.29
  -7   1  11  229.77   24.35
   7  -1 -11  242.20   20.32
  -7  -1  11  261.54   25.77
   7  -1  12  510.62   35.15
  -7   1  12  472.25   35.45
  -7  -1  12  428.42   33.06
   7   1  13    2.08    2.53
  -7   1  13   12.31    5.37
  -7  -1  13    8.14    3.68
   7  -1  13   15.37    7.05
   7   1  14   78.93   14.08
   7  -1  14   70.28   13.98
  -7   1  14   69.50   15.23
  -7  -1  14   92.37   17.02
   7   1  15    3.76    3.61
  -7   1  15   -2.55    4.70
  -7  -1  15    2.47    5.41
   7  -1  15    1.91    3.83
   7   1  16   -2.33    3.87
  -7   1  16   -5.47    6.49
  -7  -1  16   -3.45    3.04
   7  -1  16   -1.42    3.21
   7   1  17    3.68    4.27
  -7   1  17    5.93    4.15
   7  -1  17   11.35    6.96
  -7  -1  17    5.47    4.43
   7   1  18    3.70    2.46
   7  -1  18   10.00    5.77
  -7   1  18    8.08    6.86
  -7  -1  18    1.06    3.80
   7   1  19    1.89    2.17
   7  -1  19    7.07    2.83
  -7   1  19    3.47    5.27
  -7  -1  19    8.18    4.78
   7   1  19    8.81    5.95
   7   1  20    5.77    4.13
   7  -1  20    3.62    4.91
  -7   1  20   -3.76    5.07
  -7  -1  20    0.48    4.28
   7   1  20    1.25    3.39
   7   1  21    1.47    4.27
   7  -1  21    7.57    6.97
  -7   1  21   -3.49    4.10
  -7  -1  21   -0.95    6.41
   7   1  21    7.29    5.87
   7  -1  21    0.64    4.34
   7   1  22   -0.97    4.55
   7  -1  22  -10.89    9.91
  -7   1  22   -2.63    5.06
  -7  -1  22    4.65    6.84
   7   1  22    7.02    5.49
   7  -1  22   -2.24    5.32
   7   1  23   -4.60    3.80
   7  -1  23    2.67    3.99
  -7   1  23    5.83    5.57
  -7  -1  23   -3.70    2.05
   7   1  23   -3.02    3.88
   7  -1  23   -3.00    4.79
   7   1  24   -3.66    6.62
  -7   1  24    3.78    7.04
  -7  -1  24    4.96    4.33
   7   1  24   -2.81    4.74
   7  -1  24   -0.11    3.83
   7  -1  24   -1.03    5.15
   7   1  25   -2.53    5.05
   7  -1  25   15.23    8.83
  -7   1  25    1.74    5.54
  -7  -1  25   -1.13    4.90
   7   1  25   15.18    8.26
   7  -1  25    3.60    6.64
   7   1  26   10.15    7.52
   7  -1  26    0.26    2.96
  -7   1  26   -1.97    7.77
  -7  -1  26    6.96    6.14
   7   1  26    6.72    8.19
   7  -1  26   -2.28    4.37
   7   1  27    6.71    7.61
   7  -1  27    7.09    7.82
  -7   1  27    0.85    2.73
  -7  -1  27   -4.52    4.16
   7   1  27    4.28    3.18
   7  -1  27  -10.37    5.52
  -7   2   0   -4.20    5.00
   7  -2   0   -0.46    2.50
   7  -2   1  409.82   25.95
   7  -2  -1  396.38   24.57
  -7  -2   1  500.25   32.13
  -7   2   1  448.68   33.81
   7   2   2   87.19    8.18
   7  -2  -2   91.25   11.35
  -7   2   2   98.56   16.17
  -7  -2   2   89.80   13.53
   7  -2   2   78.07   11.54
   7   2   3   63.83    7.76
   7  -2  -3   88.06   11.49
  -7   2   3   84.44   14.57
  -7  -2   3   80.25   13.00
   7  -2   3   56.18    9.42
   7  -2   4    0.54    1.74
   7   2   4    7.25    3.99
  -7   2   4    0.41    3.62
  -7  -2   4   -2.11    1.74
   7  -2  -4    4.91    3.37
   7  -2  -4    4.18    2.75
   7   2   5 1021.84   36.43
  -7   2   5 1057.87   50.71
  -7  -2   5 1080.25   47.87
   7  -2  -5 1067.79   35.07
   7  -2  -5 1059.59   40.16
   7  -2   5 1045.45   43.15
   7   2   6   40.47    7.73
   7  -2  -6   32.55    7.30
  -7   2   6   32.72    7.76
  -7  -2   6   42.47   10.40
   7  -2   6   48.78    9.68
   7   2   7  170.59   16.22
  -7   2   7  160.48   20.39
  -7  -2   7  190.51   20.35
   7  -2   7  179.96   18.80
   7  -2  -7  162.96   16.28
   7   2   8   25.87    6.14
  -7   2   8   56.06   11.41
   7  -2   8   52.28   10.27
  -7  -2   8   35.50    7.98
   7  -2  -8   25.79    6.45
   7  -2  -9    0.30    1.26
   7   2   9   -0.52    1.34
  -7   2   9   -0.89    2.52
  -7  -2   9    1.96    3.13
   7   2  10  331.37   25.41
   7  -2 -10  279.40   23.77
  -7   2  10  353.81   30.10
  -7  -2  10  330.84   27.59
   7  -2  10  310.39   26.92
   7  -2 -11   88.78   13.39
   7  -2  11   69.83   12.66
  -7   2  11  111.33   17.25
  -7  -2  11   85.81   14.58
   7   2  12   18.61    6.44
  -7   2  12   19.69    7.96
  -7  -2  12   35.92    9.23
   7  -2  12   28.70    8.30
   7   2  13  164.89   20.30
   7  -2  13  174.52   21.61
  -7   2  13  197.88   23.52
  -7  -2  13  236.31   24.74
   7   2  14    4.59    3.86
  -7   2  14   -0.42    2.25
   7  -2  14    1.48    1.80
   7   2  15   50.66   10.42
  -7   2  15   70.64   14.82
  -7  -2  15   62.14   12.07
   7  -2  15   37.24    9.72
   7   2  16  136.29   19.07
   7  -2  16  112.96   18.07
  -7   2  16  141.16   20.65
  -7  -2  16  131.05   19.71
   7   2  17   32.42   10.13
  -7   2  17   41.62   13.44
  -7  -2  17   35.55    9.94
   7  -2  17   21.10    8.54
   7   2  17   34.10    9.76
   7   2  18   -2.08    4.15
  -7   2  18   -0.93    5.71
  -7  -2  18   -3.89    3.74
   7  -2  18    5.42    7.83
   7   2  18    1.26    2.25
   7   2  19  186.55   24.00
   7  -2  19  253.11   27.74
  -7   2  19  201.53   25.35
  -7  -2  19  245.02   27.86
   7   2  19  163.51   21.62
   7   2  20   99.73   17.28
   7  -2  20  137.58   21.50
  -7  -2  20  113.37   19.00
   7   2  20  150.45   22.97
   7   2  21   -1.19    4.23
   7  -2  21    3.51    4.88
  -7   2  21    6.53    8.73
  -7  -2  21   10.77    7.08
   7   2  21   -5.44    3.87
   7   2  22    3.22    1.86
   7  -2  22   -0.03    4.68
  -7   2  22    1.68    3.37
  -7  -2  22   -2.92    3.68
   7   2  22    0.94    3.32
   7  -2  22    0.16    4.46
   7   2  23  118.38   21.30
   7  -2  23   99.39   17.87
  -7   2  23  100.94   18.00
  -7  -2  23  110.91   19.31
   7   2  23   98.14   18.64
   7  -2  23  109.09   19.59
   7   2  24   -7.75    7.53
   7  -2  24   -0.68    5.75
  -7   2  24    7.62    8.74
  -7  -2  24   11.17    8.04
   7   2  24    8.79    8.55
   7  -2  24    1.01    2.47
   7   2  25    3.53    7.27
   7  -2  25   -9.70    7.85
  -7   2  25    0.66    7.09
  -7  -2  25    0.61    5.98
   7   2  25    2.09    6.06
   7  -2  25   -6.68    7.91
   7   2  26    4.01    4.72
   7  -2  26    9.13    5.06
  -7   2  26   -0.98    5.09
  -7  -2  26    7.37    2.23
   7   2  26   13.06   12.44
   7  -2  26    2.51    4.40
   7   2  27   12.94    6.99
   7  -2  27    8.66    5.28
  -7   2  27    4.80    6.37
  -7  -2  27    5.51    5.24
   7   2  27    7.57    6.52
   7  -2  27    7.99    6.50
   7  -3   0   -0.69    1.78
  -7   3   0    5.32    2.54
   7  -3   1   50.92    9.89
   7  -3  -1   24.08    6.30
  -7  -3   1   21.72    6.08
  -7   3   1   42.82   11.68
   7  -3  -2   19.03    6.06
  -7   3   2   29.60    9.61
  -7  -3   2   23.74    6.76
   7  -3   2   13.46    5.65
  -7   3   3   14.76    6.16
  -7  -3   3   11.49    4.56
   7  -3  -3   17.11    5.78
   7  -3   3    7.83    3.95
  -7  -3   4   32.66    7.49
   7  -3  -4   46.34    6.94
  -7  -3   4   64.16   11.78
  -7   3   4   30.02    6.64
   7  -3  -4   47.14    9.54
   7  -3   4   55.16   10.71
   7  -3  -5  518.01   25.85
  -7   3   5  604.38   38.84
  -7  -3   5  575.56   34.17
   7  -3  -5  564.97   31.57
   7  -3   5  564.09   33.37
  -7  -3   5  563.43   31.24
   7   3   5  556.79   25.79
   7  -3  -6    4.44    3.62
   7   3   6    8.37    3.75
   7  -3   6    6.14    2.14
  -7   3   6    6.46    5.52
  -7  -3   6    5.56    3.44
   7  -3  -6    0.10    2.46
   7   3   7  104.82   12.81
  -7   3   7  100.75   16.34
  -7  -3   7  105.75   15.39
   7  -3  -7  104.88   13.11
   7  -3   7   96.93   14.01
   7  -3  -7  103.84   14.20
   7  -3  -8   74.98   11.70
   7   3   8   79.86   11.74
  -7   3   8   86.11   15.12
  -7  -3   8   80.68   12.62
   7  -3   8   73.38   13.33
   7  -3  -8   47.91    9.10
   7   3   9  106.91   14.07
   7  -3  -9  105.54   14.14
  -7   3   9  138.60   19.98
  -7  -3   9   96.22   15.06
   7  -3  -9   95.40   13.53
   7  -3   9  103.35   15.57
   7  -3  10    1.41    3.05
   7   3  10    6.76    4.87
  -7   3  10    2.63    3.79
  -7  -3  10    1.59    4.82
   7  -3 -10    4.94    3.50
   7   3  11  195.60   20.30
   7  -3 -11  171.06   19.78
  -7   3  11  193.86   23.05
  -7  -3  11  205.25   22.74
   7  -3  11  193.97   21.27
   7   3  12  106.67   15.07
  -7   3  12  141.71   20.17
   7  -3 -12  110.13   15.12
   7  -3  12  117.77   17.43
  -7  -3  12  131.83   18.50
   7   3  13   34.52    9.21
  -7   3  13   30.22    9.84
  -7  -3  13   31.43   10.09
   7  -3  13   42.46    9.76
   7   3  14    2.66    3.39
  -7   3  14    4.18    3.13
  -7  -3  14    0.89    3.04
   7  -3  14    1.44    2.73
   7   3  15   51.63   11.55
  -7   3  15   23.11    9.75
  -7  -3  15   29.10   10.46
   7  -3  15   32.22    9.20
   7   3  15   32.40    9.85
   7   3  16    2.09    5.70
  -7   3  16   14.46    8.06
  -7  -3  16   10.55    4.83
   7  -3  16    4.96    3.88
   7   3  16    1.18    1.66
   7   3  17   24.18    9.63
  -7   3  17   10.30    5.58
  -7  -3  17   24.90    8.12
   7  -3  17   27.61    9.53
   7   3  17   20.03    7.10
   7   3  18   -3.59    4.42
  -7   3  18    0.80    2.84
  -7  -3  18    5.36    4.74
   7  -3  18    4.67    6.01
   7   3  18    4.41    3.78
   7   3  19    3.56    5.02
  -7   3  19    2.05    3.87
  -7  -3  19    2.15    4.88
   7  -3  19    2.67    5.40
   7   3  19    3.93    5.20
   7   3  20    6.36    3.56
  -7   3  20    8.31    6.11
  -7  -3  20   -4.15    4.22
   7  -3  20    1.89    5.74
   7   3  20   -3.69    6.19
   7   3  21    1.14    2.19
  -7   3  21    9.26    7.24
  -7  -3  21   -1.72    3.74
   7  -3  21    5.00    5.08
   7   3  21    4.80    5.28
   7   3  22   -3.06    4.84
  -7   3  22    5.73    5.87
   7  -3  22   -2.07    4.12
  -7  -3  22    0.66    2.88
   7   3  22   -2.71    4.49
   7   3  23    1.77    3.68
   7  -3  23    3.55    7.92
  -7   3  23    3.26    7.15
  -7  -3  23   20.62   10.45
   7   3  23    5.37    7.58
   7  -3  23    2.32    5.07
   7   3  24   12.84    6.03
   7  -3  24   23.29    9.94
  -7   3  24   29.88   11.87
  -7  -3  24   28.34   12.55
   7   3  24   -0.58    6.25
   7  -3  24   20.80    6.06
   7   3  25   12.95    8.03
   7  -3  25   10.73    6.45
  -7   3  25    9.87    7.25
  -7  -3  25   15.75   11.09
   7  -3  25    1.15    7.04
   7   3  26   -7.64    9.74
   7  -3  26   -7.73    6.72
  -7   3  26   10.67    8.94
  -7  -3  26    2.48    5.46
   7  -3  26    4.14    7.84
   7  -4   0   -0.63    2.49
   7  -4   1  140.64   16.61
   7  -4  -1  146.84   16.48
  -7  -4   1  154.25   17.21
  -7   4   1  151.85   20.67
  -7  -4   2  488.86   28.50
   7  -4   2  505.22   31.70
  -7  -4   2  462.32   29.48
   7  -4  -2  496.86   31.09
  -7   4   2  521.47   36.79
  -7  -4   3   12.51    5.92
  -7   4   3   23.31    8.03
  -7  -4   3   12.07    5.46
   7  -4  -3   15.56    4.73
   7  -4   3   12.35    5.89
   7  -4  -4  539.63   26.40
  -7   4   4  614.91   40.59
  -7  -4   4  524.25   31.89
   7  -4  -4  622.64   34.98
   7  -4   4  607.84   34.96
   7  -4  -5   99.39   11.81
  -7   4   5  113.61   17.38
  -7  -4   5  126.21   15.74
   7  -4  -5  124.02   16.42
   7  -4   5  101.91   14.74
  -7  -4   5  124.40   15.22
   7  -4  -6   87.22   11.23
  -7   4   6   96.39   15.05
  -7  -4   6   80.14   12.98
   7  -4  -6   55.81   11.53
   7  -4   6   75.82   12.47
  -7  -4   6   65.51   11.10
   7  -4   7   43.49    9.57
  -7   4   7   39.77   10.88
   7  -4  -7   35.03    8.79
  -7  -4   7   43.10    9.44
   7  -4  -7   34.65    7.89
  -7  -4   7   55.29   10.83
   7  -4  -8  128.20   15.34
  -7   4   8  143.88   19.39
  -7  -4   8  127.98   17.05
   7  -4   8  124.61   17.39
   7   4   8  138.73   15.27
  -7  -4   8  136.49   17.49
   7  -4  -8  102.38   15.68
   7  -4  -9  146.22   17.86
  -7   4   9  177.43   22.18
   7  -4  -9  159.64   17.80
  -7  -4   9  178.17   21.05
   7  -4   9  164.85   19.26
   7   4   9  159.08   16.70
   7  -4  10   -0.19    1.70
   7   4  10    0.76    1.21
  -7   4  10    0.68    2.33
  -7  -4  10    8.53    4.35
   7  -4 -10    5.60    3.72
   7  -4 -10   -0.88    3.84
   7  -4  11    3.34    5.87
   7   4  11    1.70    4.16
   7  -4 -11   -0.63    2.83
  -7   4  11   -2.71    2.16
  -7  -4  11    0.68    1.76
   7  -4 -11   -1.81    3.95
   7  -4  12    5.68    3.51
   7  -4 -12   19.14    8.08
   7   4  12   11.47    4.81
  -7   4  12   12.91    7.95
  -7  -4  12   10.38    4.61
   7  -4 -12    5.83    5.25
   7  -4 -13  215.93   23.14
  -7   4  13  174.74   23.01
   7  -4  13  154.91   20.67
   7  -4 -13  155.56   21.28
  -7  -4  13  146.64   19.14
   7   4  13  173.95   19.69
   7   4  13  147.92   19.10
   7  -4  14    8.13    5.90
   7   4  14    0.98    2.53
  -7   4  14    5.55    4.12
  -7  -4  14   12.80    6.83
   7   4  14   15.85    9.14
   7   4  15   17.81    7.07
  -7   4  15    6.95    6.64
  -7  -4  15   13.21    7.32
   7   4  15   10.74    4.86
   7  -4  15   18.90    9.22
   7   4  16   66.88   13.59
   7  -4  16   75.88   14.90
  -7   4  16   79.22   15.90
  -7  -4  16   69.39   14.03
   7   4  16   64.76   14.19
   7   4  17   78.79   15.32
  -7   4  17   40.79   11.62
  -7  -4  17   59.39   13.55
  -7   4  17   37.33    9.43
   7  -4  17   59.78   14.62
   7   4  18   51.88   13.15
  -7   4  18   64.77   15.61
  -7  -4  18   61.08   14.71
  -7   4  18   63.05   14.03
   7  -4  18   80.72   16.35
   7   4  19   45.29   12.91
  -7   4  19   40.51   11.63
  -7  -4  19   17.79    5.92
  -7   4  19   30.10   11.71
   7  -4  19   30.05    9.53
  -7   4  20   69.24   15.72
  -7  -4  20   52.19   14.05
   7  -4  20   91.18   16.84
   7   4  21   -0.45    4.56
  -7  -4  21   -0.71    3.11
   7  -4  21    2.58    2.98
   7   4  22   27.29    9.78
  -7   4  22   10.47    6.55
  -7  -4  22    9.35    7.57
   7  -4  22    6.46    6.68
   7   4  23   -2.11    5.02
  -7   4  23    5.49    6.31
  -7  -4  23    7.71    3.35
   7  -4  23    2.87    2.93
   7  -4  23    0.72    5.63
   7   4  24   21.23    8.00
  -7   4  24   -1.00    4.45
   7  -4  24   26.59   10.64
  -7  -4  24   30.07   11.14
   7  -4  24   28.92    9.03
   7   4  25   10.23    5.83
   7  -4  25   10.61    8.84
  -7   4  25    1.92    5.30
  -7  -4  25    0.88    6.08
   7  -4  25   -1.47    5.89
   7   4  26   13.90    5.51
   7  -4  26   22.13    9.33
  -7   4  26    9.67    3.94
  -7  -4  26   -2.57    5.84
   7  -4  26    2.15    2.47
   7  -5   0   -0.47    4.20
   7  -5   1    0.49    2.65
  -7  -5   1    3.05    4.55
   7  -5  -1    2.46    3.17
  -7   5   1    4.45    5.69
  -7   5   2    1.57    3.84
   7  -5  -2    9.11    3.66
   7  -5   2    5.42    3.92
  -7  -5   3   44.43    9.11
  -7   5   3   35.90   12.05
   7  -5  -3   49.93   10.64
   7  -5   3   52.12   10.44
  -7  -5   4   23.99    7.70
   7  -5  -4   24.12    5.86
  -7   5   4   23.28    7.76
   7  -5   4   27.83    7.74
   7  -5  -4   11.84    5.98
  -7  -5   5   16.74    5.79
   7  -5  -5    9.24    2.83
   7  -5  -5   14.82    4.27
  -7   5   5    5.06    3.29
   7  -5   5   12.52    4.79
   7  -5  -6   97.99   13.46
  -7   5   6   84.42   16.14
   7  -5  -6   85.07   14.00
   7  -5   6   81.97   13.99
  -7  -5   6   70.76   12.64
   7  -5  -7  115.11   14.82
  -7   5   7  108.85   17.66
   7  -5   7  126.32   17.26
   7  -5  -7  102.21   14.89
  -7  -5   7  110.41   16.00
  -7  -5   8   -3.19    3.16
   7  -5   8   -2.85    2.02
  -7   5   8    1.87    2.50
   7  -5  -8   -3.05    4.61
   7  -5  -8   -2.35    4.56
  -7  -5   9   -2.49    2.31
   7  -5  -9    4.00    5.79
   7  -5   9    0.79    5.69
  -7   5   9    1.15    2.23
   7  -5  -9    2.31    3.93
  -7  -5  10    3.19    2.68
   7  -5  10    1.92    6.70
   7  -5 -10    0.35    2.43
  -7   5  10    4.98    6.34
  -7  -5  10   -3.96    3.51
   7  -5 -10    4.29    2.63
   7   5  11   44.46   10.59
   7  -5  11   21.41    7.25
  -7   5  11   45.76   10.89
  -7  -5  11   40.82   11.90
   7  -5 -11   50.80   10.90
   7  -5 -11   25.03    8.22
  -7  -5  11   20.07    6.12
   7   5  12   17.11    5.43
   7  -5  12   15.74    6.33
   7  -5 -12   12.73    6.56
  -7   5  12   18.81    7.35
  -7  -5  12   16.28    7.12
   7  -5 -12   11.79    4.18
   7  -5  13   -3.25    2.94
   7   5  13    0.50    4.45
   7  -5 -13    3.74    4.98
  -7   5  13    3.99    3.59
  -7  -5  13    0.97    1.77
   7  -5 -13    1.59    2.60
   7  -5  14    5.08    4.38
   7   5  14   12.44    3.32
  -7   5  14   10.12    4.00
  -7  -5  14    6.89    5.28
   7  -5 -14   18.60    8.48
   7  -5 -14   22.44    7.53
   7  -5  15   22.73    8.24
   7   5  15   17.64    7.54
  -7   5  15   12.86    2.73
  -7  -5  15   20.00    8.78
   7  -5 -15   22.82    8.05
   7   5  16   41.84   11.92
  -7   5  16   34.94   10.29
  -7  -5  16   23.99    7.74
   7  -5 -16   38.36   11.68
   7  -5  16   24.07    8.82
   7   5  17   19.23    7.94
  -7   5  17    5.39    3.23
  -7  -5  17    7.01    4.71
   7  -5 -17    4.63    4.18
   7  -5  17   12.91    7.91
   7   5  18   -1.56    1.97
  -7   5  18   10.07    4.05
  -7  -5  18    4.34    4.33
   7  -5 -18    0.80    2.75
   7  -5  18   -2.72    4.71
   7   5  19    6.31    3.38
  -7  -5  19    1.37    3.48
   7  -5 -19    4.86    5.78
  -7   5  19   -0.82    5.66
   7  -5  19   -3.59    4.23
   7   5  20   10.47    6.21
  -7   5  20    6.63    6.85
  -7  -5  20   13.58    8.26
   7  -5 -20    3.36    6.75
  -7   5  20   -1.23    2.71
   7  -5  20    5.38    6.45
   7   5  21    5.87    7.83
  -7   5  21    9.56    5.33
  -7  -5  21    6.65    4.96
   7  -5 -21    2.30    2.93
  -7   5  21    6.34    7.03
   7  -5  21    8.25    7.29
   7   5  22   17.35    8.83
  -7   5  22   24.03   11.06
  -7  -5  22   36.84   14.01
   7  -5 -22   32.28   11.54
   7  -5  22   21.95    8.67
   7   5  23    5.06    4.80
  -7   5  23   13.64    7.56
   7  -5 -23   -0.15    7.00
   7  -5  23   -1.38    1.94
   7   5  24   34.99   11.32
  -7   5  24   39.59   11.74
  -7  -5  24    2.67    3.80
   7  -5 -24   33.08   11.46
   7  -5  24   14.28    5.79
   7  -5  24   43.08   13.48
   7   5  25    2.81    5.01
  -7   5  25    8.61    7.11
   7  -5  25   -1.51    1.95
  -7  -5  25   -9.71    9.43
   7  -5 -25   14.79    9.02
   7  -5  25    0.03    4.07
  -7  -6   0   -3.35    5.01
   7  -6   0    2.63    4.49
  -7  -6   1  301.17   25.85
  -7  -6  -1  313.42   27.41
   7  -6   1  333.58   27.96
   7  -6  -1  295.36   27.13
  -7  -6   2  342.70   28.27
   7  -6   2  345.98   28.79
  -7   6   2  335.01   30.33
   7  -6  -2  312.25   27.26
  -7  -6   3    1.60    4.09
  -7   6   3   -1.61    5.85
   7  -6  -3   -1.18    2.22
   7  -6   3    5.87    1.79
  -7  -6   4    1.09    2.59
  -7   6   4   -4.64    4.38
   7  -6   4   -4.29    4.95
   7  -6  -4   -0.93    1.28
  -7  -6   5  283.29   26.04
   7  -6   5  386.93   30.14
   7  -6  -5  291.90   23.35
  -7   6   5  247.60   27.01
   7  -6  -5  388.16   30.36
  -7  -6   6   -0.54    3.13
   7  -6  -6    1.47    3.42
   7  -6  -6    3.66    4.80
  -7   6   6   -1.20    3.11
   7  -6   6   -2.85    3.21
  -7  -6   7  102.35   16.27
   7  -6  -7   80.12   12.73
  -7   6   7   60.50   13.38
   7  -6  -7   96.38   16.09
   7  -6   7  109.48   17.41
  -7  -6   8   10.98    4.42
   7  -6   8   14.39    5.28
  -7   6   8   16.83    2.45
   7  -6  -8   23.73    6.30
   7  -6  -8    8.97    1.71
  -7  -6   9   50.79   11.73
   7  -6   9   51.31   11.52
   7  -6  -9   38.40    8.19
   7  -6  -9   37.45    9.86
   7  -6 -10  115.39   17.88
   7  -6 -10  201.70   21.69
  -7   6  10  164.10   22.29
   7  -6  10  183.01   21.92
  -7  -6  10  119.88   18.75
  -7  -6  11   17.21    6.14
   7  -6  11   16.50    6.32
  -7   6  11   32.52   10.00
   7  -6 -11   22.20    7.88
   7  -6 -11    6.27    3.61
   7  -6 -12  304.00   28.58
   7  -6 -12  266.88   27.02
   7  -6  12  315.63   29.50
  -7  -6  12  257.04   27.70
  -7   6  13   92.13   18.00
   7  -6 -13   75.02   13.81
   7  -6 -13   80.52   14.95
   7  -6  13  111.06   17.60
  -7  -6  13   84.50   16.56
   7  -6 -14    9.64    6.70
   7  -6  14   -0.88    3.37
  -7   6  14    0.46    3.68
   7  -6 -14   -1.79    4.01
   7  -6  15   12.53    8.11
   7   6  15    8.42    5.68
   7  -6 -15    4.81    2.66
  -7   6  15   10.20    8.48
   7  -6 -15   22.30    8.71
   7  -6  16   65.50   15.05
  -7   6  16   73.28   15.65
   7  -6 -16   69.67   14.44
   7   6  16  105.87   18.42
   7  -6  17   10.82    5.55
   7   6  17   39.33   11.56
  -7   6  17   34.69   11.73
   7  -6 -17   15.53    5.95
   7   6  18   15.30    7.65
  -7   6  18   13.61    5.43
   7  -6 -18    9.20    6.12
   7  -6  18    5.17    5.61
   7   6  19   15.05    8.39
  -7   6  19   11.85    9.25
   7  -6 -19   14.45    5.50
   7  -6  19   12.04    7.46
   7   6  20   54.82   14.93
  -7   6  20   83.52   17.51
   7  -6 -20   48.05   12.98
   7  -6  20   66.24   16.02
   7   6  21   -5.44    5.08
  -7   6  21   -3.24    3.20
   7  -6 -21    8.88    7.18
   7  -6  21   -0.11    4.01
   7   6  22   13.82    7.82
  -7   6  22   25.25    9.33
   7  -6 -22    9.45    7.72
  -7   6  22   27.37   10.40
   7  -6  22   17.21    8.05
   7   6  23   29.17   11.09
  -7   6  23   17.08   10.06
   7  -6 -23   36.43   11.28
  -7   6  23   18.66    5.03
   7  -6  23   42.36   12.21
   7   6  24   -1.14    3.98
  -7   6  24   -3.56    7.14
   7  -6 -24   -1.12    4.70
   7  -6  24    9.37    5.49
   7  -6  24    6.08    8.69
  -7  -7   0    4.42    2.78
   7  -7   0   -1.80    4.65
  -7  -7   1    1.30    3.83
   7  -7   1    2.72    2.41
  -7  -7  -1    4.93    1.56
   7  -7  -1   -2.88    2.60
   7  -7   2   38.34    8.46
  -7  -7  -2   59.30   13.09
  -7  -7   2   44.84   10.45
  -7   7   2   72.61   14.04
   7  -7  -2   39.91   10.38
  -7  -7   3   91.15   15.36
   7  -7   3   92.75   14.76
  -7   7   3  110.19   18.59
   7  -7  -3  121.36   16.79
  -7  -7   4   -0.60    3.77
  -7   7   4    4.64    4.74
   7  -7   4    1.48    3.02
   7  -7  -4    3.20    2.93
   7  -7  -5   36.73   10.13
  -7  -7   5   32.14    8.21
   7  -7  -5   33.81    8.54
  -7   7   5   36.77    9.91
   7  -7   5   21.18    8.07
  -7  -7   6    0.35    4.66
   7  -7  -6   -2.33    3.62
   7  -7  -6    4.88    5.02
  -7   7   6   -6.79    6.94
   7  -7   6    4.29    1.65
  -7  -7   7    4.43    4.91
   7  -7  -7   10.24    6.14
   7  -7  -7    8.00    4.85
  -7   7   7   -0.93    6.97
   7  -7   7    5.89    1.63
  -7  -7   8    1.23    2.43
   7  -7   8   -0.72    2.53
   7  -7  -8   -3.04    4.71
  -7   7   8   -0.38    2.99
   7  -7  -8    1.18    2.20
   7  -7  -9   84.33   15.50
  -7   7   9   62.00   13.43
   7  -7   9   82.70   14.28
   7  -7  -9   84.18   15.97
  -7  -7   9   79.80   14.69
  -7  -7  10   12.33    6.11
   7  -7 -10   10.03    7.67
   7  -7  10   13.08    5.93
  -7   7  10   18.47    9.41
   7  -7 -10   23.59    8.20
  -7  -7  11   28.24    9.99
   7  -7 -11   13.16    5.97
   7  -7  11   22.34    9.15
  -7   7  11   10.73    5.12
   7  -7 -11   14.80    4.61
  -7  -7  12    8.70    6.30
   7  -7  12    1.66    2.41
  -7   7  12   18.38    8.21
   7  -7 -12    8.84    6.34
   7  -7 -12   17.03    8.20
   7  -7 -13  163.69   23.27
   7  -7 -13  201.98   24.41
  -7   7  13  189.42   24.56
   7  -7  13  190.47   23.73
  -7  -7  13  216.43   25.33
  -7  -7  14   24.86    9.44
   7  -7  14   24.80    7.69
   7  -7 -14   36.01   10.40
  -7   7  14   22.20    7.27
   7  -7 -14   22.48    9.99
   7  -7  15   -2.99    3.48
  -7   7  15    8.25    9.62
   7  -7 -15    6.58    5.35
   7  -7 -15    0.36    2.31
  -7  -7  15   -1.92    2.48
   7  -7  16   16.64    8.42
   7  -7 -16   10.63    6.67
  -7   7  16    6.82    4.20
   7  -7 -16    0.68    4.61
   7  -7  17   19.12    7.69
  -7   7  17    9.96    6.06
   7  -7 -17   26.67    9.68
   7  -7 -17    9.15    5.57
   7  -7  18   -2.24    4.65
  -7   7  18    4.62    5.12
   7  -7 -18   -2.13    3.54
  -7   7  19   44.74   14.06
   7  -7 -19   37.99   13.12
   7  -7  19   28.54   10.77
  -7   7  20   53.00   14.66
   7  -7 -20   46.49   13.02
   7  -7  20   32.30   15.14
  -7   7  21   45.74   11.86
   7  -7 -21   41.96   12.87
   7  -7  21   38.76   10.74
  -7   7  22   21.48   10.37
   7  -7 -22   19.45   10.43
   7  -7  22    9.80    3.23
  -7   7  23   22.61    9.38
   7  -7 -23   20.96   10.73
   7  -7  23   19.43    7.95
  -7  -8   0    0.78    1.91
   7  -8   0    0.68    2.88
  -7  -8   1  382.57   33.14
  -7  -8  -1  366.30   32.17
   7  -8   1  298.22   28.46
   7  -8  -1  383.67   32.67
   7  -8   2   50.20   12.56
  -7  -8   2   36.66   10.58
  -7  -8  -2   34.99    9.12
   7  -8  -2   36.93    9.54
  -7  -8   3   38.89    9.86
   7  -8   3   80.23   14.39
  -7  -8  -3   62.66   14.48
  -7   8   3   44.71   11.75
   7  -8  -3   53.22   12.93
  -7  -8   4   16.87    7.69
  -7  -8  -4   25.74   11.91
  -7   8   4    8.24    5.85
   7  -8  -4   17.73    6.47
   7  -8   4   16.54    6.46
   7  -8  -5   30.42    9.25
  -7  -8   5   37.56   10.35
  -7   8   5   67.94   15.25
   7  -8   5   41.79   10.53
  -7  -8   6    3.04    3.47
   7  -8  -6   -3.09    5.23
   7  -8  -6    4.97    4.13
  -7   8   6   -7.13    8.77
   7  -8   6    2.68    6.12
  -7  -8   7   71.16   14.93
   7  -8  -7   67.56   14.52
   7  -8  -7   38.24    9.90
  -7   8   7   69.66   15.61
   7  -8   7   53.49   11.96
  -7  -8   8   -4.18    6.91
   7  -8  -8   -0.13    3.80
   7  -8  -8    1.58    3.78
  -7   8   8   -1.09    5.27
   7  -8   8   -0.76    1.86
  -7  -8   9  225.18   25.83
   7  -8  -9  240.97   25.14
  -7   8   9  241.45   28.51
   7  -8   9  291.57   28.39
   7  -8  -9  197.31   23.31
  -7  -8  10    4.11    1.77
   7  -8  10    1.82    3.65
  -7   8  10    5.36    1.91
   7  -8 -10   11.46    7.29
   7  -8 -10    5.85    6.27
  -7  -8  11    3.31    3.80
   7  -8 -11    7.99    7.07
   7  -8  11    6.72    4.52
  -7   8  11    6.06    3.44
   7  -8 -11   15.29    5.34
  -7  -8  12   27.28   11.01
   7  -8 -12   11.28    6.86
   7  -8  12   10.47    6.48
  -7   8  12   25.03    9.59
   7  -8 -12   12.52    5.88
  -7  -8  13   37.82   11.70
   7  -8  13   48.77   12.00
  -7   8  13   50.33   13.51
   7  -8 -13   41.37   12.73
   7  -8 -13   38.90   11.35
  -7  -8  14   17.17    6.50
   7  -8  14   12.44    9.12
  -7   8  14    3.72    2.45
   7  -8 -14   -2.87    4.63
   7  -8 -14    3.23    2.16
  -7  -8  15   77.58   16.16
   7  -8  15   71.55   14.79
   7  -8 -15  112.09   18.81
  -7   8  15   81.51   17.08
   7  -8 -15   53.54   12.94
  -7  -8  16   -1.89    5.42
   7  -8  16   -0.05    4.20
   7  -8 -16    1.42    2.26
  -7   8  16   -4.29    7.77
   7  -8 -16    7.08    3.00
   7  -8 -17   41.84   13.08
   7  -8  17   54.41   14.14
  -7   8  17   74.79   17.72
   7  -8 -17   67.41   16.15
   7  -8  18    7.86    6.71
  -7   8  18   10.84    9.47
   7  -8 -18    6.77    4.39
   7  -8 -18   14.85    8.04
   7  -8  19   74.85   15.08
   7  -8 -19   78.07   16.90
  -7   8  19   68.35   17.04
   7  -8 -19   49.29   12.23
  -7   8  20   15.11    8.87
   7  -8 -20   15.15    6.41
   7  -8  20    9.55    6.39
  -7   8  21    1.79    4.29
   7  -8 -21   16.15    6.14
   7  -8  21    1.58    5.32
  -7   8  22  107.98   21.73
   7  -8 -22   51.02   14.01
   7  -8  22   92.58   18.59
  -7  -9   0   -1.44    4.23
   7  -9   0    0.09    1.76
  -7  -9   1    7.37    3.83
  -7  -9  -1    5.91    5.28
   7  -9   1   -0.19    4.38
   7  -9  -1    4.77    4.92
   7  -9   2    1.31    3.60
  -7  -9   2    1.06    2.18
  -7  -9  -2   -0.53    2.71
   7  -9  -2    5.51    2.30
   7  -9   3   -1.20    2.12
  -7  -9   3    3.78    5.32
  -7  -9  -3    7.52    6.76
   7  -9  -3   -4.65    2.15
  -7  -9   4    8.57    3.57
  -7  -9  -4   16.68   10.26
  -7   9   4    8.75    5.71
   7  -9  -4    7.03    1.99
   7  -9   4    1.87    4.05
   7  -9   5   95.78   16.64
  -7  -9   5   81.90   15.52
  -7   9   5   56.41   13.68
   7  -9  -5   95.31   16.95
   7  -9  -6   17.42    6.81
  -7  -9   6   16.12    6.10
  -7   9   6   10.73    6.38
   7  -9   6    7.33    5.70
  -7  -9   7   67.76   14.88
   7  -9  -7   55.62   13.06
   7  -9  -7   49.95   12.59
  -7   9   7   49.81   13.85
   7  -9   7   59.36   13.81
  -7  -9   8   10.69    5.55
   7  -9  -8   11.80    6.05
   7  -9  -8    5.66    4.12
  -7   9   8    5.23    4.76
   7  -9   8   10.88    6.70
  -7  -9   9   28.44    9.37
   7  -9  -9   32.58    8.99
  -7   9   9   25.23   10.47
   7  -9  -9   27.96    9.35
   7  -9   9   14.93    7.96
  -7  -9  10   12.94    6.57
   7  -9  10   21.81    8.11
   7  -9 -10    6.91    7.49
  -7   9  10    5.52    4.04
   7  -9 -10    3.86    4.23
  -7  -9  11   48.15   12.87
   7  -9  11   34.34   11.55
   7  -9 -11   37.58   11.20
  -7   9  11   30.54   10.59
   7  -9 -11   31.67    9.11
   7  -9 -12   -5.43    6.71
  -7  -9  12    0.52    2.87
   7  -9  12    1.98    5.78
   7  -9 -12   -5.09    5.19
  -7   9  12    8.49    5.69
  -7  -9  13   23.26    7.83
   7  -9 -13   45.76   13.44
   7  -9  13   61.14   13.12
  -7   9  13   74.90   14.40
   7  -9 -13   58.60   14.67
  -7  -9  14   -0.82    1.79
   7  -9  14    0.66    4.07
   7  -9 -14    9.29    6.89
  -7   9  14    8.63    4.72
   7  -9 -14   -5.61    7.31
  -7  -9  15    1.23    3.84
   7  -9  15    0.03    3.52
  -7   9  15   -3.85    4.75
   7  -9 -15   11.26    7.13
   7  -9 -15   -0.95    5.26
  -7  -9  16   10.13    6.66
   7  -9  16    1.66    2.33
  -7   9  16    5.08    4.12
   7  -9 -16    0.19    7.13
   7  -9 -16  -10.37    7.69
   7  -9  17   93.11   17.20
   7  -9 -17   82.42   18.27
   7  -9 -17  123.57   21.39
  -7   9  17  117.91   20.79
  -7  -9  17  110.23   20.59
   7  -9  18    1.43    2.83
   7  -9 -18   -8.42    6.11
  -7   9  18    4.98    7.18
   7  -9 -18   -5.59    5.85
  -7  -9  18   -8.94    9.49
   7  -9  19   18.86    8.27
  -7   9  19    1.31    6.16
   7  -9 -19    9.76    7.16
   7  -9 -19   21.97   10.43
   7  -9  20    0.08    2.39
   7  -9 -20   16.62    8.84
  -7   9  20    7.73    8.04
   7  -9 -20   -2.68    4.84
  -7   9  21    6.49    6.46
   7  -9 -21    2.34    7.93
   7  -9 -21   20.01   10.00
  -7 -10   0    1.80    5.20
   7 -10   0   -4.43    6.73
  -7 -10   1   -0.99    1.87
   7 -10   1   -1.30    1.79
  -7 -10  -1    0.50    3.92
   7 -10  -1    6.11    5.83
  -7 -10   2   88.81   17.65
  -7 -10  -2  103.73   18.38
   7 -10   2   86.87   16.21
   7 -10  -2   72.71   14.70
   7 -10   3   33.37   10.34
  -7 -10   3   16.70    5.38
   7 -10  -3   23.58    8.30
  -7 -10   4    0.23    2.07
  -7 -10  -4    0.38    2.09
   7 -10  -4   -4.42    3.20
   7 -10   4   -6.26    6.43
  -7 -10   5    6.47    7.15
   7 -10   5   -0.58    2.79
   7 -10  -5    2.01    3.52
   7 -10  -6   50.49   12.83
  -7 -10   6   66.75   14.87
  -7  10   6   69.70   15.67
   7 -10   6   59.90   12.09
  -7 -10   7   50.66   14.15
   7 -10  -7   34.36    9.89
  -7  10   7   55.74   13.89
   7 -10   7   57.56   11.89
  -7 -10   8   29.61    8.96
   7 -10  -8   65.23   14.88
  -7  10   8   46.35   11.41
   7 -10   8   45.32   11.62
  -7 -10   9   36.37   11.60
   7 -10  -9   17.05    7.56
   7 -10  -9   23.82    7.90
  -7  10   9   36.63    9.28
   7 -10   9   33.18   10.57
  -7 -10  10   70.75   15.34
   7 -10 -10   62.66   14.59
   7 -10  10   68.90   13.67
  -7  10  10   95.87   19.07
   7 -10 -10   78.08   15.94
  -7 -10  11   -4.40    4.51
   7 -10  11    5.07    6.84
   7 -10 -11    7.73    3.67
  -7  10  11   -5.02    6.22
   7 -10 -11    5.31    5.90
   7 -10 -12   58.78   14.09
  -7  10  12   92.37   17.46
   7 -10  12  106.75   17.92
   7 -10 -12   37.69   10.21
  -7 -10  12   92.18   18.28
   7 -10 -13   12.55    4.67
  -7 -10  13   21.37    6.79
   7 -10  13   15.93    5.40
   7 -10 -13    3.59    3.95
  -7  10  13   22.45    9.91
  -7 -10  14   -4.04    4.84
   7 -10 -14    0.31    4.95
   7 -10  14   -2.31    3.52
   7 -10 -14   -4.22    8.37
  -7  10  14    5.92    6.56
  -7 -10  15   18.20    7.76
   7 -10  15    4.78    4.54
   7 -10 -15    3.96    2.59
   7 -10 -15   12.76    7.88
  -7  10  15   -3.16    8.44
   7 -10 -16   87.35   16.87
  -7  10  16   63.48   15.31
   7 -10 -16   65.63   16.44
   7 -10  16   90.22   17.28
  -7 -10  16   98.37   19.50
  -7 -10  17    6.97    5.74
   7 -10  17    4.29    3.96
  -7  10  17   17.17   10.12
   7 -10 -17    8.42    5.74
   7 -10 -17    6.92    5.27
  -7 -10  18   -0.39    5.67
   7 -10  18    2.15    2.88
  -7  10  18   -2.96    5.13
   7 -10 -18    7.01    6.22
   7 -10 -18   -2.58    7.14
   7 -10  19    2.95    2.35
   7 -10 -19   18.19    7.40
  -7  10  19    3.17    5.30
   7 -10 -19    1.61    5.22
  -7 -10  19   -3.32    6.58
  -7 -11   0   -3.62    6.23
   7 -11   0   -0.48    1.49
  -7 -11   1    2.92    2.98
   7 -11   1   -0.29    2.69
  -7 -11  -1    2.70    2.80
   7 -11  -1    4.18    7.22
   7 -11   2   14.46    7.58
  -7 -11   2    4.65    3.34
  -7 -11  -2    5.40    3.01
   7 -11  -2    6.72    4.72
   7 -11   3    8.62    5.43
  -7 -11   3    6.90    6.06
  -7 -11  -3   11.01    7.27
   7 -11  -3    9.66    4.38
  -7 -11   4   11.94    6.43
  -7 -11  -4    7.72    4.89
   7 -11  -4   13.10    5.65
   7 -11   4   -0.56    5.01
  -7 -11   5   29.24   10.65
   7 -11  -5   12.33    8.14
   7 -11   5   17.29    7.95
  -7 -11   6   -7.04    7.70
  -7 -11  -6  -10.87    1.63
   7 -11   6    4.48    4.75
   7 -11  -6   -4.18    5.10
   7 -11  -7    6.53    5.22
  -7 -11   7   14.88   10.54
  -7  11   7    1.95    4.17
   7 -11   7    1.71    1.69
  -7 -11   8    2.15    2.48
   7 -11  -8   -1.28    1.65
   7 -11   8    0.66    1.88
  -7 -11   9    8.05    6.22
   7 -11  -9    0.23    3.53
  -7  11   9    2.45    5.01
   7 -11   9    1.96    2.30
  -7 -11  10   -1.48    3.42
   7 -11 -10    6.86    9.39
  -7  11  10    0.82    4.66
   7 -11  10    1.92    2.27
  -7 -11  11    8.25    6.60
   7 -11  11   -2.03    6.28
   7 -11 -11    1.07    5.89
  -7  11  11    0.37    6.46
  -7 -11  12    1.76    6.85
   7 -11  12   -1.85    4.55
  -7  11  12   -4.24    8.13
   7 -11 -12    2.38    2.24
  -7 -11  13    4.81    2.02
   7 -11  13   11.24    6.26
   7 -11 -13   10.77    7.45
  -7  11  13   11.54    7.74
   7 -11 -13   21.25   10.65
  -7 -11  14    4.90    5.74
   7 -11  14    9.30    3.71
   7 -11 -14    1.58    4.69
  -7  11  14    9.78    8.82
   7 -11 -14    6.12    6.52
   7 -11 -15    0.30    3.53
   7 -11  15    7.86    5.09
   7 -11 -15    0.12    4.44
  -7  11  15   -4.98    4.95
  -7 -11  16   11.33    8.93
   7 -11 -16    0.22    3.61
   7 -11  16    3.53    4.35
   7 -11 -16   14.57    9.91
  -7  11  16   -7.57    5.65
  -7 -11  17   14.53    8.85
   7 -11  17    3.96    4.41
   7 -11 -17    2.06    2.67
   7 -11 -17   15.08    7.92
  -7  11  17   19.41    8.23
  -7 -12   0   -0.06    5.36
   7 -12   0   -1.27    5.27
   7 -12   1    7.67    2.16
  -7 -12   1   -5.67    6.51
  -7 -12  -1    5.01    5.20
   7 -12  -1    0.40    5.64
   7 -12   2   30.02    8.41
  -7 -12   2   30.30   11.26
  -7 -12  -2   37.89   11.94
   7 -12  -2   51.82   13.05
   7 -12   3   57.40   13.39
  -7 -12   3   61.97   16.54
  -7 -12  -3   34.04   12.01
   7 -12  -3   76.13   15.51
  -7 -12   4    4.47    5.37
  -7 -12  -4   -0.16    4.50
   7 -12  -4    2.26    3.21
   7 -12   4    0.43    3.98
  -7 -12   5   -2.86    2.62
   7 -12  -5    2.01    2.57
   7 -12   5   -2.21    3.83
  -7 -12   6   12.38    6.67
  -7 -12  -6   -8.27    5.76
   7 -12   6   15.11    7.90
   7 -12  -6   18.02    7.81
  -7 -12   7   -4.62    7.41
   7 -12   7   -0.69    2.47
   7 -12  -7    1.45    4.00
   7 -12  -8   53.65   12.61
  -7 -12   8   51.12   14.17
   7 -12   8   48.22   10.90
  -7 -12   9   65.37   15.97
   7 -12  -9   76.47   16.64
  -7  12   9   50.08   13.90
   7 -12   9   83.71   16.44
  -7 -12  10   12.04    6.06
   7 -12 -10   17.39    8.12
  -7  12  10   17.03    9.82
   7 -12  10   19.54    9.01
  -7 -12  11   -0.56    4.73
   7 -12 -11    5.37    9.00
   7 -12  11    4.93    3.59
  -7  12  11    3.69    3.75
  -7 -12  12    1.93    2.90
   7 -12  12    7.30    4.46
   7 -12 -12    5.38    4.57
  -7  12  12   12.86    8.54
  -7 -12  13   49.15   15.85
   7 -12  13   55.10   13.94
  -7  12  13   53.13   13.93
   7 -12 -13   72.66   17.72
  -7 -12  14    6.45    6.53
   7 -12  14   11.73    7.89
  -7  12  14    0.13    4.69
   7 -12 -14   -1.95    2.90
  -7 -13   0   -5.76    5.77
   7 -13   0   -6.16    6.06
   7 -13   1   35.22   10.83
  -7 -13   1   25.03   10.20
  -7 -13  -1   22.28    7.25
   7 -13  -1   32.92   10.38
   7 -13   2    1.00    6.04
  -7 -13   2   -5.95    5.95
  -7 -13  -2   -2.92    6.39
   7 -13  -2    8.41    6.38
   7 -13   3    9.02    4.88
  -7 -13   3    5.38    7.09
  -7 -13  -3   -4.89    4.68
   7 -13  -3   -5.42    5.68
  -7 -13   4    2.57    6.72
  -7 -13  -4   -1.48    2.16
   7 -13  -4   -0.71    6.03
   7 -13   4    7.19    4.33
  -7 -13   5    3.68    6.81
  -7 -13  -5   21.55   13.41
   7 -13  -5   11.99    7.94
   7 -13   5   -4.52    4.08
  -7 -13   6    5.49    6.04
   7 -13   6    5.22    5.08
   7 -13  -6   -0.91    3.64
  -7 -13   7   -3.09    2.68
   7 -13  -7   -4.64    3.98
  -7 -13   8  -12.33    9.72
   7 -13   8    0.98    6.43
   7 -13  -8   -4.38    5.60
   7 -13  -9    8.47    5.88
  -7 -13   9   -1.69    3.03
   7 -13   9   12.31    6.33
   7 -13 -10    9.27    4.80
  -7 -13  10   12.29    7.36
   7 -13  10    0.71    6.65
   7 -14   0    7.39    6.07
  -7 -14   0  -19.02   13.50
   7 -14   1   -7.51    4.42
  -7 -14   1   -7.09    9.36
  -7 -14  -1    9.97   10.86
   7 -14  -1   -1.38    4.06
  -8   0   1    4.25    4.64
  -8   0   2  104.82   16.48
  -8   0   3    7.32    7.33
   8   0   3    1.71    3.11
   8   0   4   90.44   12.18
  -8   0   4   48.38   11.35
  -8   0   5    0.22    4.11
   8   0   5   -3.57    3.63
   8   0   6   75.71   12.59
  -8   0   6   97.15   16.14
  -8   0   7    3.75    2.60
   8   0   7    1.82    3.16
  -8   0   8   11.68    6.58
   8   0   8   15.68    5.44
  -8   0   9    5.85    5.89
   8   0   9   -2.88    3.26
   8   0  10  524.65   34.69
  -8   0  10  523.93   38.16
  -8   0  11   -2.49    6.63
   8   0  11    3.15    4.61
  -8   0  12    6.22    6.77
   8   0  12    4.59    4.13
  -8   0  13    1.03    4.75
   8   0  13    2.49    2.43
   8   0  14  183.97   22.33
  -8   0  14  156.53   21.86
   8   0  15   -5.26    5.03
  -8   0  15    0.38    5.46
   8   0  16   34.53    8.86
  -8   0  16   38.72   12.85
   8   0  17    6.33    6.35
  -8   0  17   -6.97    6.60
   8   0  18   21.04    7.49
  -8   0  18   37.77   11.13
   8   0  19   -2.72    3.91
  -8   0  19   -0.87    4.71
   8   0  20   23.76    9.39
  -8   0  20   46.29   12.43
   8   0  21   -0.11    2.46
  -8   0  21   -3.75    3.57
   8   0  21    2.86    2.43
   8   0  22   35.47    9.69
  -8   0  22   46.38   12.58
   8   0  22   53.43   14.73
   8   0  23    0.87    4.35
  -8   0  23   -0.97    4.58
   8   0  23    3.35    4.18
  -8   0  24    5.42    7.48
   8   0  24   -0.77    5.54
   8   0  25    0.46    2.61
  -8   0  25    2.88    5.81
   8   0  25   -0.03    4.17
   8  -1   0  347.89   22.96
  -8  -1   1  311.91   28.15
  -8   1   1  346.16   30.17
   8  -1   1  324.60   22.10
   8  -1  -1  248.83   20.25
   8  -1   2   -2.27    3.23
  -8  -1   2   -0.10    3.86
  -8   1   2    4.14    4.64
   8  -1  -2   -2.04    3.73
   8  -1   3   29.01    7.55
  -8   1   3   37.43    9.66
  -8  -1   3   34.19    9.44
  -8   1   4  278.24   27.55
  -8  -1   4  221.25   23.53
   8  -1   4  254.92   21.51
   8  -1   5   -0.12    3.73
  -8   1   5    3.37    1.84
  -8  -1   5    7.48    5.77
   8   1   6  113.68   14.24
  -8   1   6  119.14   17.35
  -8  -1   6  112.96   16.52
   8  -1   6   87.06   13.59
   8   1   7   67.71   11.60
  -8  -1   7   89.96   15.05
   8  -1   7   64.89   12.09
  -8   1   7   66.62   13.69
   8   1   8   67.01   11.87
   8  -1   8   86.67   13.60
  -8   1   8   85.66   15.22
  -8  -1   8   70.83   13.02
  -8   1   9   19.66    7.69
  -8  -1   9   39.71   10.20
   8   1   9   36.76    9.40
   8  -1   9   43.06    9.35
   8   1  10   27.22    8.52
  -8   1  10   40.93   10.55
  -8  -1  10   31.63   11.23
   8  -1  10   26.05    8.97
   8   1  11    2.56    3.41
  -8   1  11    6.85    6.05
  -8  -1  11   15.19    5.89
   8  -1  11    2.21    1.90
   8   1  12  313.20   27.80
   8  -1  12  326.47   29.89
  -8   1  12  266.86   27.65
  -8  -1  12  307.68   29.42
   8   1  13   -0.18    4.94
  -8   1  13    1.82    4.22
  -8  -1  13    0.54    3.24
   8  -1  13    1.83    2.58
   8   1  14   80.50   15.34
  -8   1  14   86.16   16.30
  -8  -1  14   53.41   12.44
   8  -1  14   76.80   14.28
   8   1  15  112.26   18.05
   8  -1  15   96.51   16.66
  -8   1  15  113.30   19.26
  -8  -1  15   72.99   14.49
   8   1  16   39.43    9.05
  -8   1  16   60.92   14.77
  -8  -1  16   38.40   11.63
   8  -1  16   58.44   13.29
   8   1  17   53.84   13.65
  -8   1  17   45.24   12.49
  -8  -1  17   39.75   10.58
   8  -1  17   48.09   12.55
   8   1  18  283.49   29.52
   8  -1  18  344.37   32.81
  -8   1  18  381.55   35.02
  -8  -1  18  363.82   34.26
   8   1  19    3.33    7.08
   8  -1  19    1.11    8.90
  -8   1  19   -2.14    5.10
  -8  -1  19    5.15    3.84
   8   1  20   -7.85    6.74
   8  -1  20   -2.92    6.86
  -8   1  20   -0.08    2.95
  -8  -1  20    7.24    2.93
   8   1  20   -1.04    2.65
   8   1  21   39.48   11.83
   8  -1  21   49.57   13.71
  -8   1  21   44.45   12.83
  -8  -1  21   43.85   12.19
   8   1  21   38.40   10.14
   8   1  22   63.12   15.59
  -8   1  22   80.71   17.63
   8  -1  22   80.50   18.37
  -8  -1  22  106.48   19.34
   8  -1  22  123.28   21.13
   8   1  22   78.69   16.27
   8   1  23   -6.80    5.92
   8  -1  23   -3.58    6.72
  -8   1  23   -2.62    3.69
  -8  -1  23    8.59    5.41
   8   1  23    4.14    8.39
   8  -1  23    0.66    3.63
   8   1  24   61.89   13.55
   8  -1  24   52.87   13.19
  -8   1  24   73.63   16.96
  -8  -1  24   27.39    9.00
   8   1  24   40.66   11.92
   8  -1  24   57.86   13.18
   8   1  25   42.30   13.44
   8  -1  25   46.72   13.85
  -8   1  25   56.32   15.57
  -8  -1  25   25.08    8.63
   8   1  25   36.37   11.90
   8  -1  25   24.46    8.59
   8  -2   0   42.85    8.44
   8  -2  -1   88.86   12.56
  -8  -2   1  115.30   16.31
  -8   2   1  129.19   18.76
   8  -2   1  119.92   14.40
   8  -2   2   19.00    5.83
  -8  -2   2   19.07    7.30
  -8   2   2   13.22    6.39
   8  -2  -2    2.62    2.19
   8  -2  -3  249.05   21.30
  -8   2   3  329.64   30.25
  -8  -2   3  332.63   28.33
   8  -2   3  245.70   21.35
   8  -2  -4   13.94    5.93
   8  -2   4   31.57    7.65
  -8   2   4   34.54    9.62
  -8  -2   4   20.77    6.87
   8  -2   5   30.52    7.76
   8  -2  -5   24.17    5.93
  -8   2   5   22.13    8.10
  -8  -2   5   21.69    7.11
  -8   2   6   91.73   15.24
   8  -2  -6   64.37   11.13
  -8  -2   6   56.56   11.37
   8  -2   6   67.82   11.56
  -8   2   7  392.55   32.70
  -8  -2   7  502.64   35.60
   8  -2   7  469.46   31.99
   8  -2  -7  378.03   26.20
   8  -2   8    6.54    4.71
  -8   2   8    7.16    5.36
  -8  -2   8    9.31    5.68
   8  -2   9    4.39    2.15
  -8  -2   9    5.53    1.79
   8   2  10   -0.13    1.06
  -8   2  10    7.65    4.98
  -8  -2  10   -2.10    4.30
   8  -2  10    2.05    2.32
   8   2  11   84.42   13.52
   8  -2  11  116.50   16.65
  -8   2  11  139.87   19.21
  -8  -2  11  127.55   18.46
   8   2  12   47.03   10.95
  -8   2  12   44.05   12.05
  -8  -2  12   46.21   11.30
   8  -2  12   32.53    9.42
   8   2  13   23.19    8.17
  -8   2  13   30.86   10.33
  -8  -2  13   36.53   10.17
   8  -2  13   32.89    8.96
   8   2  14   11.42    7.17
  -8   2  14   33.44   11.55
  -8  -2  14   12.97    6.95
   8  -2  14   25.68    7.96
   8   2  15   -3.28    3.24
  -8   2  15   -0.07    3.80
  -8  -2  15    1.60    2.71
   8  -2  15    6.46    5.45
   8   2  16    9.99    4.79
  -8   2  16   -2.31    5.26
  -8  -2  16    3.89    2.77
   8  -2  16    7.61    6.64
  -8   2  17   -3.25    5.04
  -8  -2  17   -2.15    4.68
   8  -2  17    0.75    2.46
   8   2  18    1.99    2.45
  -8   2  18   -5.22    3.21
  -8  -2  18    2.46    7.80
   8  -2  18   -4.89    6.77
   8   2  18   -0.08    4.99
   8   2  19   42.82   12.02
  -8   2  19   27.41   12.23
  -8  -2  19   49.47   14.18
   8  -2  19   53.83   13.39
   8   2  19   34.22   10.10
   8   2  20   16.03    8.05
  -8   2  20   26.98   10.88
   8  -2  20   30.68    8.40
  -8  -2  20   29.17   10.91
   8   2  20   21.68    7.03
   8  -2  21  101.44   19.39
   8   2  21   79.00   15.88
  -8   2  21   96.17   18.08
  -8  -2  21  131.36   21.35
   8   2  21  100.09   17.80
   8   2  22   -7.83    6.45
   8  -2  22   -2.93    4.18
  -8   2  22   -3.93    5.78
  -8  -2  22   -1.65    3.37
   8   2  22   -7.40    7.01
   8   2  23   -6.50    2.42
   8  -2  23   -8.20    8.13
  -8   2  23   -3.64    5.93
  -8  -2  23   -5.18    4.74
   8   2  23   -4.13    6.67
   8  -2  23   -0.74    4.18
   8   2  24    6.69    8.06
   8  -2  24   10.57    7.49
  -8   2  24   -7.87    7.95
  -8  -2  24    1.78    2.02
   8   2  24   -1.69    3.17
   8  -2  24   18.09   10.86
   8   2  25    2.14    3.97
   8  -2  25   -5.90    6.22
  -8   2  25   -3.59    2.96
  -8  -2  25    1.23    5.85
   8   2  25   -5.55    4.94
   8  -2  25   -3.10    6.72
   8  -3   0   39.41    8.97
  -8   3   1   49.12   11.41
   8  -3   1   48.56    9.65
   8  -3  -1   45.49    9.49
   8  -3  -2   16.36    5.49
  -8  -3   2   14.31    6.73
  -8   3   2   15.74    7.10
   8  -3   2   18.32    5.86
   8  -3  -3  118.89   15.56
  -8   3   3  117.67   18.56
  -8  -3   3  144.12   18.01
   8  -3   3  125.56   16.20
   8  -3  -4   77.56   12.62
  -8  -3   4  102.65   15.56
  -8   3   4   76.79   14.57
   8  -3   4  102.62   14.72
   8  -3   5   24.63    7.59
  -8   3   5   16.01    7.49
  -8  -3   5   22.46    9.24
   8  -3  -5   35.99    8.66
  -8   3   6  272.25   27.99
  -8  -3   6  283.65   26.35
   8  -3  -6  326.32   26.08
   8  -3   6  327.17   26.62
  -8   3   7  124.16   18.39
  -8  -3   7  156.92   19.02
   8  -3   7  119.92   16.58
   8  -3  -7  106.59   15.12
  -8   3   8  126.11   18.89
  -8  -3   8  120.96   18.43
   8  -3   8  157.27   19.26
   8  -3  -8  122.15   16.06
   8  -3   9    5.38    5.04
   8  -3  -9    1.77    4.63
  -8   3   9    3.03    4.52
  -8  -3   9   -1.36    4.59
   8  -3  10    0.62    3.37
  -8   3  10    0.54    3.95
  -8  -3  10    8.87    2.94
   8  -3 -10    4.76    3.06
   8  -3 -11   72.84   12.82
  -8   3  11  115.10   19.29
  -8  -3  11  130.91   19.76
   8  -3  11  111.80   17.94
   8  -3 -12   -0.50    3.54
  -8   3  12   -1.07    3.44
  -8  -3  12    0.50    2.10
   8  -3  12   -0.95    3.07
  -8   3  13   12.70    6.32
  -8  -3  13   10.28    4.62
   8  -3  13   11.28    6.52
   8   3  14    3.48    3.48
  -8  -3  14    5.71    4.46
   8  -3  14   11.39    8.10
   8   3  15   27.21    9.29
  -8   3  15   41.55   11.10
  -8  -3  15   13.38    7.84
   8  -3  15   27.23    9.32
   8   3  16   23.79    8.60
  -8   3  16   29.25   10.80
  -8  -3  16   28.23    9.81
   8  -3  16   17.32    7.07
   8   3  16   32.52    9.46
   8   3  17   93.40   16.84
   8  -3  17   98.11   17.66
  -8   3  17  100.54   18.87
  -8  -3  17   79.09   16.83
   8   3  17  118.38   18.80
   8   3  18    4.84    6.80
  -8   3  18    4.78    3.32
  -8  -3  18    6.65    4.49
   8  -3  18    4.74    5.05
   8   3  19  120.65   19.85
   8  -3  19   96.74   17.77
  -8   3  19   86.78   18.17
  -8  -3  19  112.07   19.63
   8   3  20    1.21    6.28
  -8   3  20   -0.63    1.99
  -8  -3  20   -5.60    4.74
   8  -3  20   10.84    8.71
   8   3  21   80.81   16.48
  -8   3  21  109.05   19.37
   8  -3  21   78.18   17.00
   8   3  22   26.89   11.98
  -8   3  22   36.88   10.41
   8  -3  22   25.07    9.59
  -8  -3  22   30.26   10.91
   8   3  23    5.17    5.64
   8  -3  23    2.31    4.47
  -8   3  23   -1.64    3.24
  -8  -3  23    5.57    8.61
   8  -3  23    5.88    2.40
   8   3  24    6.39    6.59
   8  -3  24   -7.08    5.53
  -8   3  24    9.81    6.33
  -8  -3  24    1.69    5.03
   8  -3  24   -2.61    5.23
   8   3  25   13.31    8.12
   8  -3  25    4.48    3.46
  -8   3  25   12.73    8.76
  -8  -3  25   15.85    5.49
   8  -3  25   23.02   12.05
   8  -4   0   22.90    6.63
   8  -4  -1   22.32    5.86
   8  -4   1   43.77   11.50
  -8   4   1   32.42    9.36
   8  -4   2  169.59   19.77
   8  -4  -2  187.36   20.05
  -8   4   2  170.32   22.76
   8  -4  -3   -0.53    1.30
  -8   4   3    3.54    4.38
   8  -4   3    1.42    2.63
   8  -4   4   27.02    7.30
  -8   4   4   33.68   10.05
   8  -4  -4   19.67    6.40
  -8   4   5  184.65   24.26
   8  -4  -5  215.88   21.65
   8  -4   5  231.18   23.03
   8  -4   6   53.93   11.61
  -8   4   6   74.60   13.92
   8  -4  -6   50.91   10.37
   8  -4  -7   57.98   11.47
   8  -4   7   58.38   12.23
  -8   4   7   66.18   14.71
  -8   4   8   97.13   17.59
  -8  -4   8  121.90   18.58
   8  -4   8  110.45   16.62
   8  -4  -8  119.73   17.09
   8  -4   9   36.88    9.86
   8  -4  -9   39.28    9.77
  -8   4   9   29.90   10.48
  -8  -4   9   34.96   11.30
   8  -4  10   35.22    8.92
  -8   4  10   57.93   13.32
  -8  -4  10   36.56   10.07
   8  -4 -10   34.36    8.73
   8  -4 -11   31.34    9.81
   8  -4  11   15.74    9.15
  -8   4  11   11.86    6.61
  -8  -4  11   21.44    6.25
   8  -4  12    4.73    3.16
   8  -4 -12    0.38    1.65
  -8  -4  12    7.33    5.87
   8  -4  13    0.68    6.41
  -8   4  13    8.42    7.76
  -8  -4  13    2.82    5.56
   8  -4 -13    6.97    5.59
   8  -4 -14    6.88    6.17
  -8   4  14    7.20    3.00
  -8  -4  14    6.80    3.64
   8  -4  14   -2.24    3.28
  -8   4  15   36.76   12.27
  -8  -4  15   22.35    7.80
   8  -4 -15   18.27    9.22
   8  -4 -15   24.98    8.76
   8  -4  15   26.17   10.55
  -8   4  16   -8.12    7.36
  -8  -4  16    0.64    5.51
   8  -4 -16    6.79    4.43
   8  -4  16    2.29    3.28
  -8   4  17   18.69    7.77
  -8  -4  17   26.73    9.15
   8  -4  17   24.50   10.07
  -8   4  18   54.11   13.63
  -8  -4  18   44.43   10.56
   8  -4  18   40.74   10.83
   8   4  19   31.66   11.54
  -8   4  19   39.65   13.37
  -8  -4  19   44.69   13.23
   8  -4  19   20.81    8.49
   8   4  20    4.26    6.53
  -8   4  20   21.43    9.71
  -8  -4  20   20.68    9.32
   8  -4  20   13.55    8.68
   8   4  21   11.30    7.29
  -8   4  21    5.09    5.59
  -8  -4  21    0.33    2.79
   8  -4  21   -6.54    7.53
   8   4  22    2.72    4.72
  -8   4  22    4.66    4.20
  -8  -4  22    0.51    3.30
   8  -4  22    2.57    4.10
   8   4  23    2.12    4.03
  -8   4  23    0.76    4.07
  -8  -4  23    9.00    8.83
   8  -4  23    6.63    6.55
   8   4  24    7.73    2.95
  -8   4  24   16.22    5.95
   8  -4  24   13.46    3.64
  -8  -4  24   13.58    8.04
   8  -4  24   18.12   15.98
   8  -5   0 1067.35   49.93
   8  -5  -1   25.20    9.63
   8  -5   1   38.91    9.71
   8  -5  -2   10.59    7.35
   8  -5   2    4.06    5.64
   8  -5   3   80.44   14.90
   8  -5  -3   86.62   15.12
  -8   5   3  113.65   19.61
  -8   5   4  111.44   18.56
   8  -5  -4   75.72   13.37
   8  -5   4   97.03   15.43
  -8   5   5   78.69   15.69
   8  -5  -5   79.79   13.53
   8  -5   5   68.12   13.17
  -8   5   6  110.31   19.39
   8  -5  -6  111.21   16.58
   8  -5   6  101.78   16.18
  -8   5   7   64.38   15.00
   8  -5  -7   74.78   13.23
   8  -5   7   87.21   15.69
  -8   5   8   61.86   13.37
   8  -5   8   76.37   14.66
   8  -5  -8   64.91   13.39
   8  -5   9   20.11    7.23
   8  -5  -9   22.56    8.78
  -8   5   9    8.27    2.52
  -8   5  10   70.14   15.08
   8  -5 -10   70.96   13.50
   8  -5  10   88.33   16.04
   8  -5  11   31.82    8.78
  -8   5  11   17.45    8.14
   8  -5 -11   18.72    4.85
   8  -5  12    9.98    7.88
   8  -5 -12    3.44    4.47
  -8   5  12   -1.49    2.79
   8  -5  13   10.60    6.59
  -8   5  13    1.72    3.38
   8  -5  14   44.99   11.49
  -8   5  14   23.18    7.73
   8  -5 -14   47.96   11.24
   8  -5  15    7.37    6.47
   8  -5 -15   -2.88    6.14
  -8   5  15    1.37    3.78
  -8   5  16    1.66    5.23
   8  -5 -16    3.39    5.62
   8  -5  16    4.33    5.99
   8  -5 -17   20.80    7.15
  -8   5  17    8.30    4.68
   8  -5 -17   19.68   10.58
   8  -5  17    9.26    5.45
   8  -5 -18   89.00   16.27
  -8   5  18   84.88   17.39
   8  -5 -18   42.61   13.02
   8  -5  18   79.89   16.04
  -8   5  19   -1.41    4.82
   8  -5 -19    0.14    4.12
   8  -5  19   -1.47    7.35
  -8   5  20    4.70    8.21
   8  -5 -20   -8.93    8.87
   8  -5  20   13.74    6.31
  -8   5  21   16.96    9.24
   8  -5 -21    9.24    7.25
   8  -5  21   10.80    7.88
  -8   5  22   32.95   13.21
   8  -5 -22   38.07   13.64
   8  -5  22   27.44   10.44
  -8   5  23   -5.47    5.15
   8  -5 -23    9.56    6.58
   8  -5  23    7.16    9.29
   8  -6   0    7.57    5.51
   8  -6   1    2.95    3.89
   8  -6  -1    2.79    2.79
   8  -6   2  396.17   31.78
   8  -6  -2  442.31   33.41
  -8   6   2  457.57   37.71
   8  -6   3  133.32   18.42
   8  -6  -3  102.14   16.06
  -8   6   4    5.30    6.13
   8  -6  -4    9.29    5.62
   8  -6   4    4.87    3.66
  -8   6   5   -5.08    5.83
   8  -6   5   -3.96    3.74
   8  -6  -5    4.45    4.79
  -8   6   6    1.47    3.49
   8  -6   6    3.26    5.14
   8  -6  -6    0.64    2.46
   8  -6  -7    1.31    3.22
   8  -6   7    3.04    4.81
  -8   6   7    1.12    3.26
   8  -6  -8   -3.19    5.47
   8  -6   8    0.19    3.69
  -8   6   8    4.49    5.51
   8  -6   9    7.94    4.93
   8  -6  -9    6.16    5.74
  -8   6   9   -2.19    5.15
   8  -6  10   15.64    5.45
  -8   6  10   20.81    7.83
   8  -6 -10   16.06    7.28
   8  -6  11   25.26    9.36
  -8   6  11   39.62   11.43
   8  -6 -11   13.47    5.19
  -8  -6  11   -2.13    6.04
   8  -6 -12   15.19    4.51
   8  -6  12   24.85    9.59
  -8   6  12   40.68   11.09
   8  -6  13   -2.91    4.67
   8  -6 -13   -3.44    4.99
  -8   6  13    2.66    2.63
   8  -6  14   32.79    9.63
   8  -6 -14   25.53    9.32
  -8   6  14   26.09    7.42
   8  -6  15   -3.29    5.63
  -8   6  15   -0.03    4.69
   8  -6 -15    1.66    5.39
   8  -6  16    0.59    3.40
   8  -6 -16    3.42    5.58
  -8   6  16    0.66    3.37
   8  -6 -17   13.49    8.21
   8  -6  17    3.83    2.35
   8  -6 -18   17.24    6.16
  -8   6  18   18.11    7.77
  -8   6  19   -1.65    4.17
   8  -6  19   -5.45    7.37
   8  -6 -19    5.28    7.10
   8  -6 -20    3.24    2.39
   8  -6  20    0.44    2.06
  -8   6  21   33.77   11.37
   8  -6 -21   35.96   13.36
   8  -6  21    3.24    2.71
  -8   6  22    4.69    7.72
   8  -6 -22    1.57    5.85
   8  -6  22   -0.97    4.72
   8  -7   0   15.32    7.88
   8  -7   1  184.26   22.29
   8  -7  -1  184.26   21.36
   8  -7  -2    0.84    2.99
   8  -7   2    5.95    4.18
   8  -7   3  300.91   28.54
  -8   7   3  320.39   32.70
   8  -7  -3  274.22   27.63
  -8   7   4   37.35   11.43
   8  -7  -4   42.30   11.02
   8  -7   4   35.73    9.63
  -8   7   5    3.20    4.79
   8  -7   5    4.47    4.27
   8  -7  -5   -2.58    3.92
  -8   7   6    1.64    3.62
   8  -7   6    5.83    5.23
   8  -7  -6   -1.08    5.20
  -8   7   7   68.33   15.35
   8  -7  -7   93.60   17.19
   8  -7   7   74.25   15.20
   8  -7  -8   69.89   14.65
   8  -7   8   54.38   12.60
  -8   7   8   54.96   14.43
   8  -7  -9   14.98    6.06
   8  -7   9   19.43    8.66
  -8   7   9   14.98    6.07
   8  -7  10   56.42   13.07
   8  -7 -10   59.66   13.75
  -8   7  10   69.59   16.55
  -8   7  11  178.04   25.06
   8  -7  11  179.95   23.79
   8  -7 -11  180.00   22.40
  -8  -7  12   12.34   10.59
   8  -7  12    4.23    5.80
  -8   7  12    8.17    8.59
   8  -7 -12    1.13    3.87
   8  -7 -13   14.59    5.36
   8  -7  13   22.90    9.84
  -8   7  13   29.40   11.34
  -8  -7  13   16.53    7.63
   8  -7  14   16.43    6.27
   8  -7 -14    8.50    4.61
  -8   7  14    8.71    4.51
   8  -7  15   15.86    8.11
   8  -7 -15   14.71    8.98
  -8   7  15   14.96    9.90
   8  -7  16   -5.89    6.18
  -8   7  16   -0.14    2.42
   8  -7 -16   -0.18    2.79
   8  -7  17   39.20   12.18
   8  -7 -17   33.96   12.22
  -8   7  17   54.54   13.40
   8  -7 -18    2.39    3.48
  -8   7  18   12.50    8.65
   8  -7  18    4.58    5.74
   8  -7  19   78.10   17.08
  -8   7  19   53.41   13.50
   8  -7 -19   37.43   10.07
   8  -7 -20    5.84    8.41
  -8   7  20   -2.59    4.27
   8  -7  20    3.35    3.82
  -8   7  21   34.14   13.05
   8  -7 -21   41.12   13.35
   8  -7  21   27.53   12.28
   8  -8   0  149.79   20.26
   8  -8   1   25.02    8.72
   8  -8  -1   37.03    8.65
   8  -8  -2   -5.68    4.84
   8  -8   2    1.77    3.58
   8  -8  -3   12.65    5.87
   8  -8   3    8.43    4.77
  -8   8   4    5.24    6.10
   8  -8  -4   12.10    7.77
   8  -8   4    7.40    5.88
  -8   8   5   45.90   12.85
   8  -8   5   46.01   11.32
   8  -8  -5   35.90   11.07
  -8   8   6   30.79   10.31
   8  -8   6   36.89    9.29
   8  -8  -6   41.38   11.29
   8  -8  -7   55.84   12.96
  -8   8   7   48.80   14.11
   8  -8   7   50.91   12.35
   8  -8  -8   -0.57    3.49
   8  -8   8    4.04    6.48
  -8   8   8    1.36    4.60
   8  -8  -9    0.12    3.17
   8  -8   9   -0.56    2.97
  -8   8   9   -5.76    3.29
  -8  -8  10   -4.05    4.83
   8  -8 -10   -3.13    5.13
  -8   8  10    1.26    2.45
  -8   8  11   52.17   12.81
   8  -8 -11   66.71   15.80
   8  -8  11   84.57   16.25
  -8  -8  11   87.34   19.38
  -8  -8  12   10.04    8.46
   8  -8  12    8.44    5.27
  -8   8  12   15.21    8.66
   8  -8 -12    7.38    3.14
  -8  -8  13    0.22    3.12
   8  -8  13    6.31    5.41
  -8   8  13   -7.08    7.16
   8  -8 -13    4.17    6.83
  -8  -8  14    0.36    2.93
   8  -8 -14    3.00    2.47
   8  -8  14    6.85    1.65
   8  -8 -15   80.57   18.03
  -8   8  15   95.17   18.05
   8  -8  15   91.48   17.17
  -8  -8  15   88.26   18.09
   8  -8  16    2.01    3.19
   8  -8 -16    2.71    2.84
  -8   8  16   10.11    8.75
   8  -8  17   48.76   13.18
   8  -8 -17   41.61   10.01
   8  -8  18   -3.77    3.71
   8  -8 -18   -4.97    5.63
   8  -8 -19   43.42   13.15
   8  -8  19   28.39   11.56
   8  -8 -20    3.06    4.56
  -8   8  20   10.03    8.99
   8  -8  20    9.71    7.57
   8  -9   0   84.50   16.89
   8  -9   1   28.42    9.24
   8  -9  -1   58.23   14.38
   8  -9   2   13.98    5.96
   8  -9  -2    7.11    4.73
   8  -9  -3   36.51   11.77
   8  -9   3   48.00   13.09
   8  -9  -4    0.07    3.84
   8  -9   4    9.23    9.02
  -8   9   5   30.39   10.29
   8  -9  -5   10.93    5.31
   8  -9   5   22.07    8.84
  -8   9   6   22.74   11.61
   8  -9   6   15.84    7.44
   8  -9  -6   26.49   10.14
  -8   9   7  209.32   27.83
   8  -9  -7  174.43   23.38
   8  -9   7  216.95   26.19
   8  -9  -8   59.19   14.31
  -8   9   8   87.80   18.49
   8  -9   8   54.79   12.16
   8  -9  -9    1.89    6.10
   8  -9   9   -1.22    2.83
  -8   9   9    4.76    4.09
  -8  -9  10   28.66   12.61
   8  -9 -10    6.71    2.72
   8  -9  10   13.49    7.91
  -8   9  10   19.49   10.11
  -8  -9  11   70.26   16.67
   8  -9  11   45.34   10.99
   8  -9 -11   35.21   11.14
  -8   9  11   38.77   12.01
  -8  -9  12   15.69    7.03
   8  -9  12   22.22   10.79
  -8   9  12   24.87   10.08
   8  -9 -12   22.64    7.30
  -8  -9  13   35.06   11.68
   8  -9  13   21.66    8.31
  -8   9  13   25.43    8.63
   8  -9 -13   30.45    9.68
  -8  -9  14   20.36    9.37
   8  -9  14   25.98    9.32
  -8   9  14   27.81   10.39
   8  -9 -14   22.71   10.73
   8  -9 -15   14.47    6.33
  -8  -9  15   18.72    9.76
   8  -9  15   21.04    8.54
  -8   9  15    5.16    7.73
   8  -9  16   -5.06    2.18
   8  -9 -16   13.19    8.03
  -8   9  16    7.68    5.57
  -8  -9  16    7.19    3.47
   8  -9  17   20.55    7.58
   8  -9 -17   29.61    9.25
  -8   9  17   26.63    8.36
   8  -9  18   78.77   16.13
   8  -9 -18   45.09   12.64
  -8   9  18   61.16   15.15
   8 -10   0   14.71    6.22
   8 -10   1   12.67    5.32
   8 -10  -1    8.63    6.01
   8 -10   2    7.85    7.21
   8 -10  -2    0.59    2.29
   8 -10  -3   13.47    6.10
   8 -10   3    5.64    3.34
   8 -10   4   74.52   16.08
   8 -10  -4   56.81   12.85
   8 -10  -5    4.14    3.66
   8 -10   5    8.93    6.03
  -8  10   6    2.87    5.07
   8 -10   6   -2.16    4.06
   8 -10  -6    3.98    6.35
  -8  10   7    5.28    4.37
   8 -10   7    0.84    4.35
  -8  10   8    4.12    6.62
   8 -10  -8    9.83    3.27
   8 -10  -9    2.23    6.07
   8 -10   9   19.28    8.86
  -8  10   9   -1.64    6.98
   8 -10 -10    5.97    2.56
   8 -10  10   -3.42    5.41
  -8  10  10   -0.33    3.50
  -8 -10  11    8.25    5.27
   8 -10 -11   11.54    8.24
   8 -10  11    1.09    4.00
  -8  10  11   15.27    8.74
  -8 -10  12   12.29    5.95
   8 -10  12    3.55    2.84
   8 -10 -12    7.17    3.02
  -8  10  12   15.95    9.41
  -8 -10  13    0.49    4.57
   8 -10  13   12.32    6.51
  -8  10  13    2.54    2.25
   8 -10 -13   19.23   10.30
  -8 -10  14   59.32   16.09
   8 -10  14   58.07   15.51
  -8  10  14   42.21   11.19
   8 -10 -14   58.90   14.43
  -8 -10  15   12.98   10.32
   8 -10  15   11.24    7.49
   8 -10 -15   -0.57    5.38
  -8 -10  16    1.17    6.36
   8 -10  16    2.33    4.47
  -8  10  16    2.55    4.96
   8 -10 -16    7.81    4.61
   8 -11   0   27.51    9.77
   8 -11   1   -5.09    2.79
   8 -11  -1    4.05    5.45
   8 -11   2    2.66    4.18
   8 -11  -2    4.00    4.69
   8 -11  -3   -2.15    4.49
   8 -11   3   17.62    7.08
   8 -11   4  117.69   20.46
   8 -11  -4  111.92   20.15
   8 -11  -5    1.68    4.84
   8 -11   5    4.48    5.69
   8 -11   6   -0.97    2.27
   8 -11  -6   -4.56    5.35
   8 -11   7    7.94    4.37
   8 -11  -7   26.01    9.93
  -8  11   8   11.82    5.49
   8 -11   8   23.07    9.11
   8 -11  -8   16.43    5.88
   8 -11  -9   30.09    9.56
  -8  11   9   29.35   14.02
   8 -11   9   19.25    8.38
   8 -11 -10   79.49   17.08
   8 -11  10   52.66   13.10
  -8  11  10   87.05   17.59
   8 -11 -11    3.92    6.68
   8 -11  11    6.42    9.21
  -8  11  11   -3.52    7.10
  -8 -11  12   27.84   12.30
   8 -11 -12   26.38    8.72
   8 -11  12   14.18    7.02
  -8  11  12   -0.80    3.11
  -8 -11  13   -7.14    6.74
   8 -11  13    1.19    5.03
   8 -11 -13   -6.73    4.69
  -8 -11  14   26.33    9.74
   8 -11  14   42.10   13.61
   8 -11 -14   65.12   14.72
  -8  11  14   35.59   12.82
   8 -12   0    8.32    7.01
   8 -12   1   43.32   12.27
   8 -12  -1    8.78    6.67
   8 -12   2   -5.13    5.11
   8 -12  -2   -1.05    2.31
   8 -12  -3   -1.90    2.31
   8 -12   3   -1.48    3.68
   8 -12  -4   12.12    5.63
   8 -12   4    5.54    4.88
   8 -12  -5    2.78    5.11
   8 -12   5    5.70    5.48
   8 -12  -6   -1.70    5.06
   8 -12   6   -3.62    5.90
   8 -12   7   11.40    7.12
   8 -12  -7    8.81    5.44
   8 -12   8    8.84    5.98
   8 -12  -8    3.76    5.80
   8 -12   9   10.34    7.21
   8 -12  -9   -4.68    7.69
   8 -12 -10    8.84    5.04
  -8 -12  10   -9.05    5.99
  -8  12  10    4.91    5.75
   8 -12  10   17.10    8.77
   8 -13   0    3.85    5.16
   8 -13   1    2.92    5.95
   8 -13  -1   -9.66    6.12
   8 -13  -2    1.90    4.15
   8 -13   2   -4.57    6.12
   8 -13  -3    8.14    6.23
   8 -13   3   12.97    8.92
  -9   0   2   15.09    8.17
  -9   0   3    2.97    3.93
  -9   0   4   11.75    9.07
  -9   0   5    9.04    6.49
  -9   0   6   74.97   14.96
  -9   0   7   -3.08    2.38
  -9   0   8    9.84    7.20
  -9   0   9   -0.30    7.06
  -9   0  10   14.45    7.97
  -9   0  11    0.83    3.40
  -9   0  12    7.38    2.64
  -9   0  13    5.19    5.05
   9   0  13    8.25    7.26
   9   0  14   47.16   12.48
  -9   0  14   30.59   10.90
   9   0  15   -7.33    4.98
  -9   0  15    4.24    5.66
   9   0  16   22.14   10.16
  -9   0  16    8.02    4.16
   9   0  17   -4.95    6.22
  -9   0  17    4.70    4.77
   9   0  18   73.92   16.10
  -9   0  18   49.04   15.17
   9   0  19    9.54   10.29
  -9   0  19   -5.57    6.40
   9   0  20   31.74    9.36
  -9   0  20   31.60   10.49
   9   0  21   -6.94    7.40
  -9   0  21   -3.87    5.68
   9   0  21    5.11    8.26
   9   0  22    0.03    3.38
  -9   0  22    0.23    2.07
   9   0  23    5.40    3.04
  -9   0  23    8.24    5.78
   9   0  23    4.23    6.32
  -9  -1   2  605.06   42.47
  -9   1   2  609.58   43.03
  -9  -1   3    8.20    5.17
  -9   1   3    2.41    2.72
  -9   1   4  184.38   23.39
  -9  -1   4  190.62   23.89
  -9   1   5   48.80   13.10
  -9  -1   5   51.11   12.87
  -9   1   6  102.62   18.02
  -9  -1   6  111.72   17.78
  -9   1   7   -0.40    4.58
  -9  -1   7    4.32    6.64
   9  -1   8  207.91   23.07
  -9   1   8  227.35   26.10
  -9  -1   8  260.66   27.63
  -9   1   9   92.81   17.19
   9  -1   9   74.24   13.85
   9  -1  10  149.70   20.77
  -9   1  10  141.41   20.98
  -9  -1  10  150.56   21.39
  -9   1  11   14.32    6.68
  -9  -1  11    6.56    5.71
   9  -1  11   22.65    7.80
   9  -1  12  147.58   21.21
  -9   1  12  143.80   22.81
  -9  -1  12  132.19   20.15
  -9   1  13   62.95   13.92
  -9  -1  13   37.20   10.70
   9  -1  13   57.97   12.47
  -9   1  14   -6.45    2.10
  -9  -1  14    4.58    6.66
   9  -1  14    2.45    6.00
  -9   1  15    5.07    6.23
  -9  -1  15    0.95    4.93
   9  -1  15   -3.39    3.67
  -9   1  16   92.42   18.72
  -9  -1  16   92.94   18.03
   9  -1  16   95.29   16.34
   9  -1  17   13.27    6.48
  -9  -1  17    8.40    4.38
   9   1  18   24.08    9.24
   9  -1  18   16.07    8.56
  -9   1  18    6.77    2.70
  -9  -1  18    0.58    3.98
   9   1  19   -2.52    2.92
   9  -1  19   -3.79    7.30
  -9   1  19   -4.47    3.64
  -9  -1  19   -8.47    7.24
   9   1  20   30.41   10.83
   9  -1  20   31.34    9.21
  -9   1  20   46.61   13.76
  -9  -1  20   44.95   14.68
   9   1  20   67.10   17.22
   9   1  21   -3.20    2.65
   9  -1  21   -2.67    2.21
  -9   1  21   -6.72    6.87
  -9  -1  21    3.27    5.64
   9   1  21   -3.76    5.37
   9   1  22    3.36    3.38
   9  -1  22    5.91    5.60
  -9   1  22    9.35    5.35
  -9  -1  22    3.88    5.94
   9   1  22    7.36    7.22
   9  -1  22    0.53    6.74
   9   1  23   20.33    8.92
   9  -1  23   16.25    7.44
  -9   1  23   36.90   11.80
  -9  -1  23   52.78   14.52
   9   1  23   26.05   10.70
   9  -1  23   32.14   10.94
  -9  -2   2    3.05    5.01
  -9   2   2   -3.01    5.02
  -9  -2   3    4.33    1.73
  -9   2   3    5.02    8.07
   9  -2   4   12.52    5.76
  -9   2   4    9.13    5.22
  -9  -2   4    0.04    4.16
   9  -2   5   52.69   11.48
  -9   2   5   59.25   14.08
  -9  -2   5   65.67   14.08
   9  -2   6    7.05    5.05
  -9   2   6   10.80    5.93
  -9  -2   6   21.46    8.80
   9  -2   7   46.06   11.06
  -9   2   7   20.15    5.97
  -9  -2   7   25.36    9.25
  -9   2   8    1.01    5.26
  -9  -2   8   -2.46    2.42
  -9   2   9   40.12   11.92
  -9  -2   9   46.34   13.04
   9  -2   9   29.46    9.87
  -9  -2  10    2.43    3.31
   9  -2  10    9.10    5.58
  -9   2  11   -1.47    3.42
   9  -2  11   -1.46    2.40
  -9   2  12   -0.20    3.83
  -9  -2  12    8.12    8.26
   9  -2  12   -3.02    2.82
  -9   2  13    1.10    7.01
  -9  -2  13    1.98    4.15
   9  -2  13   -0.70    4.89
  -9   2  14    7.48    8.03
  -9  -2  14    5.53    2.87
   9  -2  14   21.85    8.22
  -9  -2  15  105.46   18.46
  -9   2  15   63.49   15.12
   9  -2  15   93.38   15.52
  -9   2  16    7.79    5.82
  -9  -2  16   -5.76    1.89
   9  -2  16    3.24    5.51
  -9   2  17   57.72   14.12
  -9  -2  17   57.03   13.95
   9  -2  17   77.86   16.48
  -9   2  18   -4.10    5.88
  -9  -2  18    3.61    5.02
   9  -2  18   -3.15    5.97
  -9  -2  19   -0.48    6.10
   9  -2  19    5.97    4.28
  -9   2  20   -5.84    8.76
   9  -2  20   -4.25    8.99
  -9  -2  20   11.04    3.61
   9  -2  21   12.39    8.18
  -9   2  21   23.93   11.99
  -9  -2  21   13.89    8.00
   9  -2  22   -6.32    6.79
  -9   2  22    3.43    4.29
  -9  -2  22    3.30    3.35
   9  -2  23    2.55    4.29
  -9   2  23   -2.57    4.87
  -9  -2  23    6.55    7.56
   9  -2  23   -4.70    7.46
   9  -3   0    0.79    3.49
   9  -3   1  201.85   21.10
   9  -3   2   -3.11    5.48
  -9   3   2   -4.09    4.90
   9  -3   3   48.23   11.04
  -9   3   3   37.09   11.62
   9  -3   4   19.34    6.38
  -9   3   4    6.61    5.38
  -9  -3   4   10.14    7.68
  -9   3   5  217.54   26.67
  -9  -3   5  252.61   27.53
   9  -3   5  199.96   22.24
   9  -3   6    2.24    3.06
  -9   3   6    0.22    4.50
  -9  -3   6    3.31    4.69
   9  -3   7    2.53    4.95
  -9   3   7    5.65    3.70
  -9  -3   7    1.05    5.12
   9  -3   8    2.17    3.14
  -9   3   8    3.63    5.05
  -9  -3   8   -5.34    6.48
  -9   3   9  301.18   30.20
  -9  -3   9  254.28   27.26
   9  -3   9  226.43   24.81
   9  -3  10   10.00    5.73
  -9   3  10   20.94    7.77
  -9  -3  10   31.15    9.48
  -9   3  11   10.46    5.66
  -9  -3  11    0.35    5.37
   9  -3  11    3.32    2.33
  -9  -3  12   10.08    5.88
   9  -3  12   -2.63    2.60
  -9   3  13   18.30    3.67
  -9  -3  13   29.36   11.36
   9  -3  13   45.46   10.46
  -9   3  14    2.71    6.86
  -9  -3  14    4.30    4.89
   9  -3  14    1.56    3.64
   9  -3  15   99.23   18.67
  -9   3  15  128.68   21.88
  -9  -3  15  160.60   24.23
  -9   3  16    2.01    3.26
  -9  -3  16    9.99    8.29
   9  -3  16    9.02    7.55
  -9   3  17   -3.50    5.98
  -9  -3  17   -2.71    6.47
   9  -3  17    1.36    2.11
  -9   3  18   18.88    9.43
  -9  -3  18   14.49    4.01
   9  -3  18   10.58    6.86
   9  -3  19  107.40   19.49
  -9   3  19  106.96   19.88
  -9  -3  19   93.00   18.52
  -9   3  20   31.74   11.74
  -9  -3  20   31.59   10.89
   9  -3  20   39.79   11.48
  -9   3  21    9.40    3.64
  -9  -3  21   20.96   10.04
   9  -3  21   10.51    9.19
  -9   3  22   36.18   12.48
   9  -3  22   11.30    6.80
  -9  -3  22   23.88   11.60
   9  -4   0    4.09    4.58
   9  -4   1    4.51    3.11
   9  -4  -1    5.51    5.20
  -9   4   2   20.64   10.04
   9  -4   2    9.61    3.48
   9  -4  -2   19.93    7.27
   9  -4  -3    2.71    2.24
   9  -4   3    7.41    3.78
  -9   4   3   10.37    8.06
   9  -4  -4   -3.58    3.80
   9  -4   4   -0.69    2.45
  -9   4   4    7.11    5.62
   9  -4   5   18.06    7.21
  -9   4   5   28.09   10.07
   9  -4   6   12.28    6.44
  -9   4   6   27.08   10.73
   9  -4   7    4.33    4.63
  -9   4   7    7.02    3.30
  -9   4   8  131.16   20.09
   9  -4   8   93.54   16.36
   9  -4   9    4.88    2.92
  -9   4   9   18.25    7.87
   9  -4  10    3.20    3.04
  -9   4  10    6.81    6.90
   9  -4  11    4.98    5.31
  -9   4  11    2.56    4.73
   9  -4  12    8.32    7.62
  -9   4  12    3.69    3.90
  -9   4  13   -2.01    4.85
   9  -4  13    8.83    6.50
  -9   4  14    7.22    3.86
   9  -4  14   20.96    9.54
  -9   4  15    7.04    9.24
   9  -4  15    3.70    3.86
  -9   4  16   -0.36    4.88
   9  -4  16    3.17    2.41
  -9   4  17   -2.31    4.65
   9  -4  17    8.08    6.64
  -9   4  18   19.56    9.85
   9  -4  18    6.87    5.69
  -9   4  19    2.52    2.78
   9  -4  19   15.70    9.42
  -9   4  20    5.54    5.17
   9  -4  20   13.88    6.43
  -9   4  21    0.12    4.90
   9  -4  21    4.81    6.52
  -9   4  22   23.29    9.43
   9  -4  22    5.09    4.16
   9  -5   0   -1.18    2.67
   9  -5   1    2.36    2.81
   9  -5  -1   -1.28    4.20
   9  -5   2  106.08   16.64
   9  -5  -2   89.62   15.02
   9  -5  -3   16.48    6.93
  -9   5   3    1.77    5.76
   9  -5  -4   -1.28    1.51
  -9   5   4    5.49    4.70
   9  -5   4   -3.33    6.21
   9  -5   5    1.82    2.76
   9  -5  -5    1.88    1.93
  -9   5   5    0.84    1.81
   9  -5   6   64.51   13.49
  -9   5   6   63.76   14.55
   9  -5  -6   24.63    8.08
   9  -5   7   -4.59    4.52
  -9   5   7   -3.09    6.04
   9  -5  -7    3.95    4.76
  -9   5   8  115.87   20.25
   9  -5  -8  105.19   17.72
   9  -5   8  115.78   19.19
   9  -5   9    7.02    6.65
  -9   5   9    1.23    5.70
   9  -5  10   68.85   14.77
  -9   5  10   88.25   17.09
   9  -5  11   27.11    9.38
  -9   5  11   24.70   10.25
  -9   5  12  113.75   19.05
   9  -5  12   96.18   17.21
   9  -5  13   24.66   11.06
  -9   5  13   57.28   13.63
   9  -5  14   47.55   12.99
  -9   5  14   28.06   11.66
  -9   5  15   23.31   11.90
   9  -5  15   32.01   10.07
   9  -5  16  167.52   23.41
  -9   5  16  153.05   23.55
  -9   5  17   -1.30    3.92
   9  -5  17   -5.46    4.14
  -9   5  18    2.52    5.04
   9  -5  18   27.02    9.48
  -9   5  19    3.95    3.81
   9  -5  19    1.84    2.80
  -9   5  20   27.99   10.39
   9  -5  20   40.78   13.20
  -9   5  21   31.71   11.15
   9  -5  21   29.32   11.59
   9  -6   0   -0.45    1.74
   9  -6  -1   15.18    6.30
   9  -6   1   12.71    6.99
   9  -6  -2    4.96    4.65
   9  -6   2    8.75    5.91
   9  -6  -3    7.89    4.94
  -9   6   3   16.67    8.45
   9  -6   3   20.12    6.64
   9  -6  -4   -1.19    4.25
  -9   6   4    4.03    5.64
   9  -6   4    6.75    6.28
   9  -6  -5    1.47    6.56
  -9   6   5   -0.65    6.68
   9  -6   5   -2.35    2.78
   9  -6   6    2.70    1.63
  -9   6   6    3.18    3.15
   9  -6  -6    1.27    4.99
   9  -6   7    0.54    3.96
  -9   6   7    5.14    1.63
   9  -6  -7   -2.34    4.91
   9  -6   8   26.93    7.48
  -9   6   8   28.40   10.41
   9  -6  -8   12.38    6.86
   9  -6  -9   10.26    4.89
   9  -6   9   11.31    6.18
  -9   6   9   16.77   10.03
   9  -6 -10    0.33    3.39
   9  -6  10   -3.29    5.50
  -9   6  10    0.30    3.09
   9  -6  11    3.79    2.67
   9  -6 -11    1.73    3.03
  -9   6  11    6.31    6.74
   9  -6  12   -3.63    2.48
   9  -6 -12    2.81    5.81
  -9   6  12    3.38    4.31
   9  -6  13   11.33    7.48
  -9   6  13   11.31    7.75
   9  -6  14    2.05    1.91
  -9   6  14    1.88    3.34
   9  -6  15   -5.31    6.87
  -9   6  15    5.31    5.24
  -9   6  16    6.96    5.64
   9  -6  16   -1.98    6.72
  -9   6  17   24.27    9.81
   9  -6  17   14.42    6.56
  -9   6  18   50.33   11.75
   9  -6  18   22.07    8.54
  -9   6  19   -0.33    4.88
   9  -6  19    0.14    5.50
  -9   6  20    4.47    2.27
   9  -6  20   -3.33    4.43
   9  -7   0   -3.21    5.15
   9  -7  -1   14.89    6.37
   9  -7   1   18.43    8.57
   9  -7  -2   27.97    7.48
   9  -7   2   34.23   11.33
   9  -7   3  141.38   20.22
   9  -7  -3  140.95   19.52
   9  -7  -4   -2.70    6.30
  -9   7   4   -0.33    5.67
   9  -7   4   -2.31    3.93
  -9   7   5  104.17   20.00
   9  -7  -5   64.32   12.91
   9  -7   5   91.09   16.63
   9  -7   6   12.89    8.67
  -9   7   6   37.02   13.17
   9  -7  -6   24.71   11.06
   9  -7   7    3.77    2.77
  -9   7   7   13.52    6.59
   9  -7  -7    6.62    4.31
   9  -7   8    0.48    4.51
  -9   7   8   -5.70    6.08
   9  -7  -8    7.08    7.16
  -9   7   9  134.36   20.41
   9  -7   9  106.74   18.42
   9  -7  -9   82.86   15.77
   9  -7 -10   15.75    6.45
   9  -7  10   30.15    9.79
  -9   7  10   40.83   12.20
   9  -7  11    1.51    4.18
   9  -7 -11   -2.12    3.51
  -9   7  11   -3.55    6.00
   9  -7  12   21.64    7.75
   9  -7 -12   19.71    8.24
  -9   7  12    8.30    7.01
  -9   7  13  128.78   22.11
   9  -7  13  137.02   21.74
   9  -7 -13  126.42   20.58
   9  -7  14    2.85    4.84
  -9   7  14   -5.11    4.35
   9  -7 -14    1.64    3.42
   9  -7  15   18.84    7.05
  -9   7  15   42.76   14.77
   9  -7  16   55.53   13.73
  -9   7  16   54.20   14.98
   9  -7  17  106.07   19.58
  -9   7  17   77.86   17.63
  -9   7  18   22.81   11.78
   9  -7  18    0.82    5.78
  -9   7  19   22.04   11.09
   9  -7  19   12.39   10.00
   9  -8   0   -4.33    3.89
   9  -8  -1    1.98    3.34
   9  -8   1    5.48    2.20
   9  -8  -2    1.36    4.98
   9  -8   2   10.81    6.40
   9  -8  -3   10.90    6.91
   9  -8   3   16.83    6.19
   9  -8  -4   -1.92    3.35
   9  -8   4    4.33    6.83
  -9   8   5   28.52   11.42
   9  -8  -5   48.23   12.56
   9  -8   5   46.12   12.62
  -9   8   6    1.27    5.70
   9  -8   6    7.11    3.50
   9  -8  -6    8.89    8.70
   9  -8   7    5.86    6.85
  -9   8   7    0.12    4.78
   9  -8  -7   10.23    5.20
   9  -8   8    9.64    5.38
  -9   8   8    2.63    3.25
   9  -8  -8   10.16    4.54
   9  -8   9   16.30    8.20
  -9   8   9   13.07   11.26
   9  -8  -9    8.04    7.52
   9  -8 -10   10.16    4.63
   9  -8  10    4.55    4.37
  -9   8  10    4.14    3.14
   9  -8 -11    5.71    3.91
   9  -8  11    3.74    5.80
  -9   8  11    2.49    2.97
   9  -8  12    2.77    5.37
   9  -8 -12    7.15    3.32
  -9   8  12   -3.36    4.73
   9  -8 -13    1.34    4.58
  -9   8  13    0.97    3.04
   9  -8  14   21.79    9.69
   9  -8 -14   17.32    9.38
  -9   8  14   15.79    8.16
   9  -8  15    8.29    5.39
  -9   8  15    5.70    3.37
   9  -8  16   -4.06    5.85
  -9   8  16   -0.24    6.08
   9  -8 -16   10.83    8.68
   9  -8  17   13.42    5.33
  -9   8  17   29.98   11.06
   9  -9   0    5.13    5.96
   9  -9  -1   48.26   12.57
   9  -9   1   23.44    9.01
   9  -9  -2   11.10    5.58
   9  -9   2   10.34    7.53
   9  -9  -3   10.13    4.33
   9  -9   3   10.03    4.98
   9  -9  -4    2.44    2.64
   9  -9   4    4.61    4.48
   9  -9  -5    7.43    6.80
   9  -9   5    7.46    3.99
  -9   9   6  130.08   21.60
   9  -9  -6  118.45   19.99
   9  -9   6   93.81   17.80
  -9   9   7   11.11    7.65
   9  -9   7   16.95    7.56
   9  -9  -7   10.07    7.36
   9  -9   8   19.06    8.35
  -9   9   8   18.01    9.55
   9  -9  -8    3.73    4.51
  -9   9   9   90.78   20.24
   9  -9   9   90.86   17.83
   9  -9  -9   74.04   16.27
   9  -9 -10    0.03    2.38
   9  -9  10    3.78    4.69
  -9   9  10    0.03    3.10
   9  -9 -11    6.06    5.50
   9  -9  11    3.80    4.89
  -9   9  11   16.57    9.23
   9  -9 -12   15.05    7.25
   9  -9  12    9.51    4.67
   9  -9  13   67.61   17.01
   9  -9 -13   61.84   15.18
  -9   9  13   63.16   15.82
   9  -9  14    9.32    6.13
   9  -9 -14    2.05    6.91
  -9   9  14    2.81    5.27
   9  -9 -15   11.48    6.58
  -9   9  15   20.61   10.67
   9 -10   0    5.72    5.88
   9 -10  -1    2.83    3.60
   9 -10   1    3.23    1.74
   9 -10  -2    1.92    5.83
   9 -10   2    0.96    2.24
   9 -10  -3    6.51    2.07
   9 -10   3   17.53    7.59
   9 -10  -4   12.12    8.79
   9 -10   4   17.97    7.95
   9 -10  -5    5.42    3.69
   9 -10   5   10.55    6.51
   9 -10  -6    5.97    7.08
   9 -10   6    1.28    1.77
   9 -10   7   10.52    7.46
   9 -10  -7    7.23    5.99
   9 -10   8   11.14    5.42
  -9  10   8   10.36    9.35
   9 -10  -8   -1.03    4.42
   9 -10   9   43.26   12.38
  -9  10   9   29.03   10.27
   9 -10  -9   36.19   12.28
   9 -10  10    0.32    4.47
  -9  10  10   -8.77    5.53
   9 -10 -10   -5.46    6.10
   9 -10 -11   -1.24    2.23
   9 -10  11   -3.62    2.48
   9 -10 -12   14.10    8.12
   9 -10  12   11.46    9.53
  -9  10  12    1.89    6.01
   9 -10 -13    5.61    3.44
   9 -10  13   -0.96    5.82
  -9  10  13    9.09    8.77
   9 -11   0    3.14    3.42
   9 -11  -1    5.05    7.10
   9 -11   1   -1.29    3.59
   9 -11  -2   33.37    9.48
   9 -11   2   61.49   15.70
   9 -11  -3   11.50    3.03
   9 -11   3    6.77    2.68
   9 -11  -4    4.52    2.74
   9 -11   4   11.39    9.39
   9 -11  -5   10.25    6.34
   9 -11   5    1.80    6.10
   9 -11  -6   -6.67    7.45
   9 -11   6   -4.13    5.60
   9 -11   7    3.03    3.61
   9 -11  -7   16.94    8.22
   9 -11   8   23.49   11.09
   9 -11  -8   18.85    6.96
  -9  11   9   -0.88    6.28
   9 -11  -9    5.47    3.74
   9 -12   0    3.46    7.45
   9 -12  -1    8.04    5.28
   9 -12   1   -7.24    7.98
 -10   0   3   -5.32    6.12
 -10   0   4   53.76   15.03
 -10   0   5   -0.66    3.54
 -10   0   6    5.64    1.94
 -10   0   7   -0.16    4.92
 -10   0   8   50.81   12.35
 -10   0   9    0.79    4.51
 -10   0  10    7.52    7.90
 -10   0  11    0.64    2.50
 -10   0  12   66.49   14.28
 -10   0  13    5.01    6.34
 -10   0  14   31.87    9.97
 -10   0  15    4.72    4.86
 -10   0  16   14.71   10.15
 -10   0  17    4.32    5.58
 -10   0  18   55.55   15.85
 -10   0  19   -1.06    3.47
 -10   0  20   -4.42    2.76
 -10  -1   3   16.94    7.01
 -10   1   3   29.34    9.18
 -10   1   4   93.03   19.17
 -10  -1   4   86.13   16.81
 -10   1   5   29.31   10.65
 -10  -1   5   38.44   11.75
 -10   1   6   22.72    8.73
 -10  -1   6   17.78    6.73
 -10   1   7   71.20   16.61
 -10  -1   7   60.11   13.06
 -10   1   8  120.80   19.88
 -10  -1   8  106.83   19.04
 -10   1   9   23.29    8.91
 -10  -1   9   14.67    6.87
 -10   1  10   70.03   15.85
 -10  -1  10   42.96   11.39
 -10   1  11   59.97   13.54
 -10  -1  11   72.07   14.64
 -10   1  12    2.75    5.96
 -10  -1  12    3.72    2.81
 -10   1  13   14.58    7.74
 -10  -1  13   13.89    6.56
 -10   1  14   21.80    9.45
 -10  -1  14   24.95    9.41
 -10   1  15   28.79    8.02
 -10  -1  15   29.30   10.76
 -10   1  16    9.12    6.14
 -10  -1  16    7.28    4.83
 -10   1  17   -2.14    6.64
 -10  -1  17    9.77    6.63
 -10   1  18   27.46   10.79
 -10  -1  18   42.34   12.28
 -10   1  19    4.30    5.16
 -10  -1  19    3.36    3.50
 -10   1  20   15.99    5.88
 -10  -1  20   -0.31    5.67
 -10  -2   3   33.19   13.80
 -10   2   3   -0.27    3.20
 -10  -2   4   44.44   12.28
 -10   2   4   46.44   12.11
 -10  -2   5    0.60    4.98
 -10   2   5    3.10    6.09
 -10   2   6   10.10    6.76
 -10  -2   6   21.98    8.80
 -10   2   7   16.51    7.89
 -10  -2   7   21.13    9.93
 -10   2   8   34.14   11.34
 -10  -2   8   35.85   10.89
 -10   2   9   -5.37    8.62
 -10  -2   9    1.68    7.39
 -10   2  10   36.25   13.40
 -10  -2  10   44.96   12.50
 -10   2  11   27.19    9.15
 -10  -2  11   56.77   13.37
 -10   2  12   17.74    9.52
 -10  -2  12    3.09    4.91
 -10   2  13   13.51    8.22
 -10  -2  13    1.41    4.78
 -10   2  14   13.33    7.44
 -10  -2  14   -0.49    5.33
 -10   2  15    0.53    3.34
 -10  -2  15    3.77    2.77
 -10   2  16    3.33    3.24
 -10  -2  16   -0.24    4.58
 -10   2  17    4.82    4.02
 -10  -2  17    1.29    4.67
 -10   2  18    5.85    6.51
 -10  -2  18   22.77   10.24
 -10   2  19   55.30   14.73
 -10  -2  19   41.99   13.73
 -10   2  20   11.78    8.94
 -10  -2  20    4.49    3.50
 -10   3   3  130.90   20.88
 -10   3   4    6.75    5.65
 -10   3   5   52.76   14.46
 -10   3   6   17.83    9.88
 -10   3   7  274.96   31.39
 -10   3   8   27.94   12.04
 -10   3   9   14.32    6.88
 -10   3  10    6.58    6.29
 -10   3  11   29.83    9.87
 -10   3  12    2.34    4.20
 -10   3  13   41.22   11.86
  10  -3  13   33.73   10.58
 -10   3  14   -0.45    3.93
  10  -3  14    0.19    3.53
 -10   3  15   47.08   15.48
  10  -3  15   60.00   15.41
 -10   3  16    0.17    3.27
  10  -3  16    5.55    7.97
 -10   3  17   18.41    7.31
  10  -3  17   17.32    8.29
 -10   3  18   -1.97    6.70
  10  -3  18    0.47    2.06
 -10   3  19   40.83   13.62
  10  -3  19   62.11   14.31
 -10   3  20   17.76    6.39
  10  -3  20   16.27    6.67
 -10   4   4    9.79    4.61
 -10   4   5    4.38    4.46
 -10   4   6   -0.34    4.35
 -10   4   7   64.91   15.56
  10  -4   8    1.00    1.99
 -10   4   8    2.54    3.60
  10  -4   9    0.99    4.47
 -10   4   9    2.15    4.35
  10  -4  10    2.31    6.84
 -10   4  10    3.12    1.57
 -10   4  11    4.60    4.49
  10  -4  11   13.95    7.75
 -10   4  12   -2.18    7.36
  10  -4  12   -0.86    5.10
 -10   4  13   20.68    7.47
  10  -4  13   46.52   12.84
 -10   4  14   11.67   10.47
  10  -4  14   -2.28    4.56
 -10   4  15   -1.72    3.68
  10  -4  15   -2.84    4.50
 -10   4  16    2.74    7.53
  10  -4  16   -1.37    3.98
 -10   4  17   19.84    8.09
  10  -4  17   50.58   13.89
 -10   4  18   -1.51    3.75
  10  -4  18    5.43    8.45
 -10   4  19   -2.29    5.95
  10  -4  19   10.67    7.68
 -10   5   4  105.94   20.35
  10  -5   4   82.86   15.77
  10  -5   5    2.81    4.41
 -10   5   5    2.35    3.68
  10  -5   6    2.36    2.26
 -10   5   6    2.27    5.79
  10  -5   7    0.19    2.78
 -10   5   7   -2.14    3.87
  10  -5   8   40.46   11.14
 -10   5   8   54.66   14.38
  10  -5   9   20.85    7.16
 -10   5   9   28.27   11.96
 -10   5  10  154.04   23.55
  10  -5  10  125.63   20.70
  10  -5  11    6.10    8.34
 -10   5  11   17.73    8.31
  10  -5  12   -5.29    5.07
 -10   5  12   -0.91    6.71
 -10   5  13   -0.89    8.08
  10  -5  13   -1.99    4.90
 -10   5  14   69.28   18.29
  10  -5  14   12.64   12.13
 -10   5  15   -1.34    5.69
  10  -5  15    3.92    7.43
 -10   5  16  -11.57    9.87
  10  -5  16    7.08    5.20
 -10   5  17    0.53    4.44
  10  -5  17   -4.28    4.41
 -10   5  18    9.59    2.59
  10  -5  18   13.22    8.09
  10  -6   0   54.49   12.93
  10  -6   1   -6.78    5.80
  10  -6   2    3.43    3.71
  10  -6   3   12.68    5.93
  10  -6   4   45.58   10.95
  10  -6   5   -4.18    5.16
 -10   6   5   33.49   12.16
  10  -6   6   20.10    7.30
 -10   6   6   -3.90    7.22
  10  -6   7    3.26    5.84
 -10   6   7    3.78    8.46
  10  -6   8   12.51    6.36
 -10   6   8   21.05    9.98
  10  -6   9    8.85    6.30
 -10   6   9    5.84    6.27
  10  -6  10   68.91   14.53
 -10   6  10   87.80   17.97
  10  -6  11    1.66    2.76
 -10   6  11   -4.10    6.20
  10  -6  12    2.14    4.26
 -10   6  12    5.58    3.92
  10  -6  13    8.94    4.97
 -10   6  13    2.77    4.55
  10  -6  14   10.47    8.35
 -10   6  14    4.54    5.63
 -10   6  15   13.41    8.98
  10  -6  15   -3.35    6.36
 -10   6  16   17.57    9.16
  10  -6  16   13.48    7.50
 -10   6  17   -0.03    2.88
  10  -6  17    8.26    4.37
  10  -7   0    3.87    4.58
  10  -7   1   95.60   18.48
  10  -7  -1  111.88   19.78
  10  -7   2   11.96    7.15
  10  -7  -2    9.56    6.68
  10  -7  -3   77.59   15.78
  10  -7   3   37.18   12.23
  10  -7  -4   16.47    7.55
  10  -7   4   21.24    9.52
  10  -7   5    2.39    4.89
 -10   7   5    2.03    3.21
  10  -7   6   -1.18    3.75
 -10   7   6   10.36    8.84
  10  -7   7   26.35   11.12
 -10   7   7   60.62   14.71
  10  -7   8   -1.71    5.17
 -10   7   8   -4.04    4.70
  10  -7   9    6.74    3.59
 -10   7   9   -1.99    2.53
  10  -7  10   13.11   10.17
 -10   7  10    2.72    4.16
  10  -7  11   82.52   15.76
 -10   7  11  105.89   20.59
  10  -7  12   14.60    5.69
 -10   7  12   11.58    8.27
  10  -7  13   22.60    8.96
 -10   7  13   55.10   16.02
  10  -7  14   -0.23    7.70
 -10   7  14   -3.73    4.41
  10  -7  15   28.57    9.69
 -10   7  15   18.17    8.32
  10  -8   0   61.39   14.63
  10  -8   1    5.75    3.27
  10  -8  -1    9.88    5.57
  10  -8  -2    7.92    5.28
  10  -8   2   10.61    6.38
  10  -8  -3    7.33    6.40
  10  -8   3   -1.96    3.50
  10  -8  -4   -0.50    3.48
  10  -8   4    4.49    6.04
  10  -8  -5   10.43    6.57
  10  -8   5   -1.58    5.83
  10  -8  -6   35.56   11.86
  10  -8   6   21.62    8.61
 -10   8   6   14.68    7.14
  10  -8   7   56.22   13.93
  10  -8  -7   67.69   14.62
 -10   8   7   67.25   13.96
  10  -8   8    6.75    4.84
 -10   8   8    5.87    3.24
  10  -8   9    3.29    4.65
 -10   8   9    8.84    8.42
  10  -8  10   -4.79    6.71
 -10   8  10   -1.38    3.33
  10  -8  11   33.88   12.62
 -10   8  11   77.17   20.47
  10  -8  12    8.36    7.08
 -10   8  12   22.80    8.69
  10  -8  13   20.88   10.99
 -10   8  13    2.33    2.41
  10  -9   0   75.51   17.51
  10  -9   1    7.96    4.77
  10  -9  -1   12.26    6.44
  10  -9  -2   12.20    6.91
  10  -9   2    9.00    5.10
  10  -9  -3   59.09   15.17
  10  -9   3   34.29   12.05
  10  -9  -4   41.44   12.40
  10  -9   4   41.02   10.27
  10  -9  -5   11.03    8.05
  10  -9   5   11.00    7.62
  10  -9  -6   -9.14    6.83
  10  -9   6    8.26    5.80
  10  -9   7   61.36   14.44
  10  -9  -7   87.73   17.38
  10  -9   8    9.78    6.12
 -10   9   8    3.66    3.75
  10  -9  -8   16.13    8.95
  10  -9   9   -4.42    5.72
 -10   9   9   13.73    9.69
  10  -9  -9    6.38    7.46
  10  -9  10   10.69    7.03
 -10   9  10    6.23    9.10
  10  -9  11   13.10    4.03
 -10   9  11    6.53    7.32
  10 -10   0    3.88    4.61
  10 -10   1    2.33    5.73
  10 -10  -1   -3.64    3.54
  10 -10  -2    4.61    4.16
  10 -10   2    1.17    6.92
  10 -10  -3   13.74    6.32
  10 -10   3   22.51    9.19
  10 -10  -4   -3.62    2.68
  10 -10   4    3.34    3.87
  10 -10  -5    8.29    2.88
  10 -10   5    2.30    4.44
  10 -10  -6   -4.46    6.53
  10 -10   6   -0.67    5.08
  10 -10  -7    5.18    5.56
  10 -10   7    1.65    3.67
 -11   0   4   21.76    9.97
 -11   0   5   -1.50    2.39
 -11   0   6   18.04    7.10
 -11   0   7   -5.35    8.81
 -11   0   8    8.84    3.20
 -11   0   9    0.71    4.26
 -11   0  10   49.73   12.03
 -11   0  11   -3.03    6.43
 -11   0  12    9.40    6.93
 -11   0  13   -1.77    5.43
 -11   0  14   47.73   13.97
 -11   0  15   16.14    9.75
 -11   0  16  148.84   24.42
 -11   0  17   -2.46    6.80
 -11   1   4    5.62    4.87
 -11  -1   5    5.40    7.08
 -11   1   5    7.52    7.69
 -11  -1   6   18.06    6.91
 -11   1   6   27.10   10.59
 -11   1   7   12.86    7.47
 -11  -1   7    5.70    5.27
 -11   1   8    8.89    9.23
 -11  -1   8   -3.66    3.35
 -11   1   9    6.61    7.44
 -11  -1   9    4.71    4.72
 -11   1  10   21.14    9.89
 -11  -1  10   29.47   10.28
 -11   1  11   -1.69    2.97
 -11  -1  11   16.72   10.76
 -11   1  12   36.99   12.99
 -11  -1  12   25.75    9.24
 -11   1  13   18.42    7.03
 -11  -1  13   16.11    7.67
 -11   1  14   11.58    5.87
 -11  -1  14   25.08   10.91
 -11   1  15   -0.24    4.33
 -11  -1  15   10.49    9.62
 -11   1  16   21.50   11.08
 -11  -1  16   23.53    9.31
 -11   1  17   14.21    9.88
 -11  -1  17    3.67    3.64
 -11   2   4   12.96    6.53
 -11   2   5   19.48   10.60
 -11   2   6    5.00    6.54
 -11   2   7    0.66    2.90
 -11   2   8   13.92    8.29
 -11   2   9   55.12   13.09
 -11   2  10   37.80   11.77
 -11   2  11   71.26   16.87
 -11   2  12   -5.85    5.23
 -11   2  13   40.68   13.15
 -11   2  14   -0.21    5.19
 -11   2  15    6.94    3.14
 -11   2  16   -2.53    3.49
 -11   2  17   78.08   18.35
 -11   3   5   26.77   10.15
 -11   3   6   10.52    8.50
 -11   3   7    2.30    6.45
 -11   3   8    0.09    5.29
 -11   3   9   19.38   12.04
 -11   3  10    9.37    2.80
 -11   3  11   -0.36    4.06
 -11   3  12    4.50    5.57
 -11   3  13   60.10   15.73
 -11   3  14   -8.96    8.05
 -11   3  15    1.04    5.69
 -11   3  16    1.42    3.12
 -11   4   5   -0.09    6.10
 -11   4   6    3.29    8.83
 -11   4   7    0.64    2.80
 -11   4   8   11.68    7.26
 -11   4   9   14.04   10.00
 -11   4  10   41.97   10.53
 -11   4  11    7.47    4.55
 -11   4  12   -4.34    5.17
 -11   4  13   24.89    9.53
 -11   4  14   33.37   12.00
 -11   4  15    9.06    5.57
 -11   5   6   32.61   13.06
 -11   5   7    0.83    6.58
 -11   5   8   24.70   11.52
 -11   5   9    0.15    3.26
 -11   5  10   -3.28    2.99
 -11   5  11   14.42   10.85
 -11   5  12   17.96   10.79
 -11   5  13    2.65    4.62
 -11   5  14   10.89    9.94
 -11   6   6   22.12   10.66
 -11   6   7   -2.40    4.24
 -11   6   8    2.61    2.73
 -11   6   9   13.91    9.80
 -11   6  10   10.77   10.58
 -11   6  11    6.79    7.58
 -11   6  12   85.24   19.81
 -11   7   7    3.49    5.98
 -11   7   8    1.56    7.31
 -11   7   9   12.89    9.43
 -11   7  10   -5.75    6.91
  11  -8   7    1.07    5.19
 -12   0   6   -5.07    7.50
 -12   0   7   -3.30    6.39
 -12   0   8   88.53   20.58
 -12   0   9   -4.61    5.49
 -12   0  10  116.75   22.97
 -12   0  11    5.08    5.52
 -12   0  12   16.18    8.10
 -12   1   6   -0.64    2.92
 -12   1   7   11.66   11.17
 -12   1   8    1.35    3.03
 -12   1   9   13.39    7.85
 -12   1  10    3.94    3.91
 -12   1  11    7.66    5.84
 -12   1  12   17.04   10.43
 -12   2   6   12.09    5.12
 -12   2   7  102.09   22.95
 -12   2   8   -2.94    5.57
 -12   2   9   20.14   13.09
 -12   2  10    3.83    7.19
 -12   2  11   60.84   14.92
 -12   2  12   -0.23    3.47
 -12   3   6   33.73   11.32
 -12   3   7    5.01    4.50
 -12   3   8   79.45   19.76
 -12   3   9   -6.89    7.60
 -12   3  10    5.17    5.89
 -12   3  11   -1.41    3.37
 -12   4   7   51.74   14.54
 -12   4   8   79.83   18.29
 -12   4   9   38.21   12.56
 -12   4  10    1.19    9.19
 -12   5   7    7.46    3.58
 -12   5   8    4.10    2.35
   0   0   0    0.00    0.00

TITL 036_240K_SulfamerazineF2_ in Pbca
REM Pbca (#61 in standard setting)
CELL 0.68890   9.123691  11.644171  22.873759  90.0000  90.0000  90.0000
ZERR    8.00   0.000229   0.000205   0.000352   0.0000   0.0000   0.0000
LATT  1
SYMM -x+1/2,-y, z+1/2
SYMM -x, y+1/2,-z+1/2
SYMM  x+1/2,-y+1/2,-z
SFAC C H N O S
UNIT 88.00 96.00 32.00 16.00 8.00
TREF
HKLF 4
END
_computing_structure_solution     'SHELXT 2014/5 (Sheldrick, 2014)'
;
_shelx_hkl_checksum              44173
loop_
_space_group_symop_operation_xyz
'x, y, z'
'-x+1/2, -y, z+1/2'
'-x, y+1/2, -z+1/2'
'x+1/2, -y+1/2, -z'
'-x, -y, -z'
'x-1/2, y, -z-1/2'
'x, -y-1/2, z-1/2'
'-x-1/2, y-1/2, z'
loop_
_atom_site_label
_atom_site_type_symbol
_atom_site_fract_x
_atom_site_fract_y
_atom_site_fract_z
_atom_site_U_iso_or_equiv
_atom_site_adp_type
_atom_site_occupancy
_atom_site_site_symmetry_order
_atom_site_calc_flag
_atom_site_refinement_flags_posn
_atom_site_refinement_flags_adp
_atom_site_refinement_flags_occupancy
_atom_site_disorder_assembly
_atom_site_disorder_group
S1 S 0.33245(6) 0.34639(4) 0.38971(2) 0.03164(13) Uani 1 1 d . . . . .
O2 O 0.19769(15) 0.39709(12) 0.40961(6) 0.0398(3) Uani 1 1 d . . . . .
O1 O 0.34217(18) 0.22411(11) 0.38631(6) 0.0419(4) Uani 1 1 d . . . . .
N4 N 0.66630(18) 0.42639(14) 0.48539(7) 0.0354(4) Uani 1 1 d . . . . .
N3 N 0.65579(19) 0.28566(13) 0.40898(7) 0.0361(4) Uani 1 1 d . . . . .
N2 N 0.45169(19) 0.39480(14) 0.43749(7) 0.0349(4) Uani 1 1 d . . . . .
N1 N 0.4560(3) 0.53277(19) 0.15515(8) 0.0503(5) Uani 1 1 d . . . . .
C1 C 0.3757(2) 0.40410(15) 0.32171(8) 0.0328(4) Uani 1 1 d . . . . .
C2 C 0.4488(3) 0.33827(17) 0.28047(9) 0.0428(5) Uani 1 1 d . . . . .
H2 H 0.4787 0.2641 0.2898 0.056 Uiso 1 1 calc R U . . .
C3 C 0.4775(3) 0.38212(17) 0.22572(9) 0.0450(5) Uani 1 1 d . . . . .
H3 H 0.5273 0.3374 0.1985 0.058 Uiso 1 1 calc R U . . .
C4 C 0.4327(2) 0.49313(17) 0.21059(8) 0.0385(4) Uani 1 1 d . . . . .
C5 C 0.3598(2) 0.55908(16) 0.25298(9) 0.0398(5) Uani 1 1 d . . . . .
H5 H 0.3295 0.6332 0.2439 0.052 Uiso 1 1 calc R U . . .
C6 C 0.3327(2) 0.51536(15) 0.30785(8) 0.0355(4) Uani 1 1 d . . . . .
H6 H 0.2856 0.5603 0.3357 0.046 Uiso 1 1 calc R U . . .
C7 C 0.5976(2) 0.36637(15) 0.44345(8) 0.0319(4) Uani 1 1 d . . . . .
C8 C 0.8080(2) 0.40123(19) 0.49283(9) 0.0412(5) Uani 1 1 d . . . . .
H8 H 0.8605 0.4406 0.5213 0.054 Uiso 1 1 calc R U . . .
C9 C 0.8792(2) 0.31983(19) 0.46022(9) 0.0420(5) Uani 1 1 d . . . . .
H9 H 0.9780 0.3040 0.4661 0.055 Uiso 1 1 calc R U . . .
C10 C 0.7988(2) 0.26202(17) 0.41821(9) 0.0390(5) Uani 1 1 d . . . . .
C11 C 0.8660(3) 0.1692(2) 0.38179(11) 0.0546(6) Uani 1 1 d . . . . .
H11A H 0.8222 0.0968 0.3916 0.071 Uiso 1 1 calc R U . . .
H11B H 0.9695 0.1659 0.3892 0.071 Uiso 1 1 calc R U . . .
H11C H 0.8496 0.1854 0.3412 0.071 Uiso 1 1 calc R U . . .
H1N2 H 0.419(3) 0.444(2) 0.4569(11) 0.045(7) Uiso 1 1 d . . . . .
H1N1 H 0.512(3) 0.492(2) 0.1336(12) 0.053(7) Uiso 1 1 d . . . . .
H2N1 H 0.453(3) 0.603(2) 0.1483(11) 0.056(8) Uiso 1 1 d . . . . .
loop_
_atom_site_aniso_label
_atom_site_aniso_U_11
_atom_site_aniso_U_22
_atom_site_aniso_U_33
_atom_site_aniso_U_23
_atom_site_aniso_U_13
_atom_site_aniso_U_12
S1 0.0324(3) 0.0334(2) 0.0291(2) -0.00247(16) -0.00066(17) -0.00377(18)
O2 0.0306(8) 0.0531(8) 0.0357(7) -0.0022(6) 0.0007(6) -0.0023(6)
O1 0.0555(10) 0.0312(7) 0.0391(7) -0.0016(5) 0.0003(7) -0.0082(6)
N4 0.0319(10) 0.0397(8) 0.0345(8) -0.0032(6) -0.0034(7) 0.0013(7)
N3 0.0373(10) 0.0358(8) 0.0351(8) -0.0024(6) 0.0037(7) 0.0057(7)
N2 0.0299(10) 0.0394(9) 0.0355(8) -0.0092(7) -0.0017(7) 0.0046(7)
N1 0.0688(15) 0.0429(10) 0.0394(10) 0.0050(8) 0.0137(9) 0.0031(10)
C1 0.0353(11) 0.0322(8) 0.0310(8) -0.0024(6) 0.0008(7) -0.0006(7)
C2 0.0546(15) 0.0357(10) 0.0381(10) 0.0011(7) 0.0077(9) 0.0107(9)
C3 0.0576(15) 0.0394(10) 0.0379(10) -0.0030(8) 0.0130(10) 0.0082(10)
C4 0.0424(12) 0.0389(10) 0.0341(9) -0.0003(7) 0.0042(8) -0.0048(9)
C5 0.0485(13) 0.0291(8) 0.0419(10) 0.0002(7) 0.0066(9) -0.0010(8)
C6 0.0398(12) 0.0302(8) 0.0364(9) -0.0055(7) 0.0058(8) -0.0011(8)
C7 0.0331(11) 0.0334(8) 0.0292(8) 0.0020(6) 0.0017(7) 0.0014(8)
C8 0.0339(12) 0.0519(12) 0.0380(10) 0.0017(8) -0.0042(8) 0.0012(9)
C9 0.0308(12) 0.0540(12) 0.0413(11) 0.0084(9) 0.0019(8) 0.0067(9)
C10 0.0397(12) 0.0381(10) 0.0392(10) 0.0072(8) 0.0094(9) 0.0064(8)
C11 0.0510(16) 0.0530(13) 0.0599(14) -0.0049(10) 0.0127(12) 0.0148(11)
loop_
_atom_type_symbol
_atom_type_description
_atom_type_scat_dispersion_real
_atom_type_scat_dispersion_imag
_atom_type_scat_source
C C 0.0033 0.0016 'International Tables Vol C Tables 4.2.6.8 and 6.1.1.4'
H H 0.0000 0.0000 'International Tables Vol C Tables 4.2.6.8 and 6.1.1.4'
N N 0.0061 0.0033 'International Tables Vol C Tables 4.2.6.8 and 6.1.1.4'
O O 0.0106 0.0060 'International Tables Vol C Tables 4.2.6.8 and 6.1.1.4'
S S 0.1246 0.1234 'International Tables Vol C Tables 4.2.6.8 and 6.1.1.4'
loop_
_geom_angle_atom_site_label_1
_geom_angle_atom_site_label_2
_geom_angle_atom_site_label_3
_geom_angle
_geom_angle_site_symmetry_1
_geom_angle_site_symmetry_3
O1 S1 O2 118.65(9) . .
O1 S1 N2 109.71(9) . .
O2 S1 N2 102.41(9) . .
O1 S1 C1 108.80(8) . .
O2 S1 C1 108.58(9) . .
N2 S1 C1 108.18(9) . .
C8 N4 C7 115.39(17) . .
C7 N3 C10 115.81(18) . .
C7 N2 S1 128.55(14) . .
C7 N2 H1N2 119.3(18) . .
S1 N2 H1N2 111.9(18) . .
C4 N1 H1N1 116.3(17) . .
C4 N1 H2N1 120.1(18) . .
H1N1 N1 H2N1 117(3) . .
C2 C1 C6 119.72(17) . .
C2 C1 S1 120.26(15) . .
C6 C1 S1 119.99(14) . .
C3 C2 C1 120.33(18) . .
C3 C2 H2 119.8 . .
C1 C2 H2 119.8 . .
C2 C3 C4 120.78(18) . .
C2 C3 H3 119.6 . .
C4 C3 H3 119.6 . .
N1 C4 C3 119.74(19) . .
N1 C4 C5 122.00(19) . .
C3 C4 C5 118.22(18) . .
C6 C5 C4 120.81(18) . .
C6 C5 H5 119.6 . .
C4 C5 H5 119.6 . .
C5 C6 C1 120.12(17) . .
C5 C6 H6 119.9 . .
C1 C6 H6 119.9 . .
N3 C7 N4 127.00(19) . .
N3 C7 N2 119.63(17) . .
N4 C7 N2 113.37(16) . .
N4 C8 C9 122.7(2) . .
N4 C8 H8 118.6 . .
C9 C8 H8 118.6 . .
C8 C9 C10 117.6(2) . .
C8 C9 H9 121.2 . .
C10 C9 H9 121.2 . .
N3 C10 C9 121.46(19) . .
N3 C10 C11 117.2(2) . .
C9 C10 C11 121.3(2) . .
C10 C11 H11A 109.5 . .
C10 C11 H11B 109.5 . .
H11A C11 H11B 109.5 . .
C10 C11 H11C 109.5 . .
H11A C11 H11C 109.5 . .
H11B C11 H11C 109.5 . .
loop_
_geom_bond_atom_site_label_1
_geom_bond_atom_site_label_2
_geom_bond_distance
_geom_bond_site_symmetry_2
S1 O1 1.4288(14) .
S1 O2 1.4378(15) .
S1 N2 1.6419(17) .
S1 C1 1.7398(19) .
N4 C8 1.337(3) .
N4 C7 1.343(2) .
N3 C7 1.337(2) .
N3 C10 1.350(3) .
N2 C7 1.378(3) .
N2 H1N2 0.79(2) .
N1 C4 1.366(3) .
N1 H1N1 0.85(3) .
N1 H2N1 0.83(3) .
C1 C2 1.386(3) .
C1 C6 1.390(3) .
C2 C3 1.378(3) .
C2 H2 0.9300 .
C3 C4 1.399(3) .
C3 H3 0.9300 .
C4 C5 1.404(3) .
C5 C6 1.377(3) .
C5 H5 0.9300 .
C6 H6 0.9300 .
C8 C9 1.370(3) .
C8 H8 0.9300 .
C9 C10 1.384(3) .
C9 H9 0.9300 .
C10 C11 1.496(3) .
C11 H11A 0.9600 .
C11 H11B 0.9600 .
C11 H11C 0.9600 .
loop_
_geom_hbond_atom_site_label_D
_geom_hbond_atom_site_label_H
_geom_hbond_atom_site_label_A
_geom_hbond_distance_DH
_geom_hbond_distance_HA
_geom_hbond_distance_DA
_geom_hbond_angle_DHA
_geom_hbond_site_symmetry_A
C6 H6 O1 0.93 2.52 3.417(2) 162.9 8_665
C8 H8 O2 0.93 2.52 3.240(3) 134.5 5_666
C9 H9 O2 0.93 2.62 3.255(3) 126.0 1_655
N2 H1N2 N4 0.79(2) 2.15(2) 2.933(2) 176(2) 5_666
N1 H1N1 O2 0.85(3) 2.25(3) 3.091(3) 168(2) 6_656
N1 H2N1 O1 0.83(3) 2.47(3) 3.042(3) 126(2) 3_655
N1 H2N1 N3 0.83(3) 2.69(3) 3.444(3) 152(2) 3_655
loop_
_geom_torsion_atom_site_label_1
_geom_torsion_atom_site_label_2
_geom_torsion_atom_site_label_3
_geom_torsion_atom_site_label_4
_geom_torsion
_geom_torsion_site_symmetry_1
_geom_torsion_site_symmetry_2
_geom_torsion_site_symmetry_3
_geom_torsion_site_symmetry_4
O1 S1 N2 C7 46.8(2) . . . .
O2 S1 N2 C7 173.67(17) . . . .
C1 S1 N2 C7 -71.77(19) . . . .
O1 S1 C1 C2 -17.4(2) . . . .
O2 S1 C1 C2 -147.85(18) . . . .
N2 S1 C1 C2 101.72(19) . . . .
O1 S1 C1 C6 160.46(16) . . . .
O2 S1 C1 C6 30.02(19) . . . .
N2 S1 C1 C6 -80.41(18) . . . .
C6 C1 C2 C3 -0.7(3) . . . .
S1 C1 C2 C3 177.15(18) . . . .
C1 C2 C3 C4 -0.5(4) . . . .
C2 C3 C4 N1 -176.8(2) . . . .
C2 C3 C4 C5 1.0(3) . . . .
N1 C4 C5 C6 177.5(2) . . . .
C3 C4 C5 C6 -0.3(3) . . . .
C4 C5 C6 C1 -0.9(3) . . . .
C2 C1 C6 C5 1.4(3) . . . .
S1 C1 C6 C5 -176.48(16) . . . .
C10 N3 C7 N4 0.7(3) . . . .
C10 N3 C7 N2 -179.18(17) . . . .
C8 N4 C7 N3 -0.1(3) . . . .
C8 N4 C7 N2 179.76(17) . . . .
S1 N2 C7 N3 -3.3(3) . . . .
S1 N2 C7 N4 176.77(14) . . . .
C7 N4 C8 C9 -0.1(3) . . . .
N4 C8 C9 C10 -0.2(3) . . . .
C7 N3 C10 C9 -1.1(3) . . . .
C7 N3 C10 C11 177.92(18) . . . .
C8 C9 C10 N3 0.8(3) . . . .
C8 C9 C10 C11 -178.1(2) . . . .
