#------------------------------------------------------------------------------
#$Date: 2017-09-28 16:19:45 +0300 (Thu, 28 Sep 2017) $
#$Revision: 201447 $
#$URL: file:///home/coder/svn-repositories/cod/cif/1/54/74/1547445.cif $
#------------------------------------------------------------------------------
#
# This file is available in the Crystallography Open Database (COD),
# http://www.crystallography.net/
#
# All data on this site have been placed in the public domain by the
# contributors.
#
data_1547445
loop_
_publ_author_name
'Anuradha R. Pallipurath'
'Jonathan M. Skelton'
'Mark R. Warren'
'Naghmeh Kamali'
'Patrick McArdle'
'Andrea Erxleben'
_publ_section_title
;
 Sulfamerazine: Understanding the Influence of Slip Planes in the
 Polymorphic Phase Transformation through X-Ray Crystallographic Studies
 and ab Initio Lattice Dynamics
;
_journal_name_full               'Molecular Pharmaceutics'
_journal_page_first              3735
_journal_page_last               3748
_journal_paper_doi               10.1021/acs.molpharmaceut.5b00504
_journal_volume                  12
_journal_year                    2015
_chemical_formula_moiety         'C11 H12 N4 O2 S'
_chemical_formula_sum            'C11 H12 N4 O2 S'
_chemical_formula_weight         264.31
_chemical_name_common            Sulfamerazine
_chemical_name_systematic        4-amino-N-(4-methylpyrimidin-2-yl)
_space_group_crystal_system      orthorhombic
_space_group_IT_number           61
_space_group_name_Hall           '-P 2ac 2ab'
_space_group_name_H-M_alt        'P b c a'
_symmetry_space_group_name_Hall  '-P 2ac 2ab'
_symmetry_space_group_name_H-M   'P b c a'
_atom_sites_solution_hydrogens   mixed
_cell_angle_alpha                90
_cell_angle_beta                 90
_cell_angle_gamma                90
_cell_formula_units_Z            8
_cell_length_a                   9.1200(3)
_cell_length_b                   11.6339(3)
_cell_length_c                   22.8697(4)
_cell_measurement_reflns_used    3472
_cell_measurement_temperature    230
_cell_measurement_theta_max      29.5080
_cell_measurement_theta_min      2.7630
_cell_volume                     2426.50(11)
_computing_cell_refinement
;
CrysAlisPro, Agilent Technologies,
Version 1.171.37.34 (release 22-05-2014 CrysAlis171 .NET)
(compiled May 22 2014,16:03:01)
;
_computing_data_collection
;
CrysAlisPro, Agilent Technologies,
Version 1.171.37.34 (release 22-05-2014 CrysAlis171 .NET)
(compiled May 22 2014,16:03:01)
;
_computing_data_reduction
;
CrysAlisPro, Agilent Technologies,
Version 1.171.37.34 (release 22-05-2014 CrysAlis171 .NET)
(compiled May 22 2014,16:03:01)
;
_computing_molecular_graphics    OSCAIL
_computing_structure_refinement  'SHELXL-2014/7 (Sheldrick, 2014)'
_computing_structure_solution    SHELXT
_diffrn_ambient_temperature      230
_diffrn_measured_fraction_theta_full 0.968
_diffrn_measured_fraction_theta_max 0.924
_diffrn_measurement_device       'CrystalLogic Kappa (3 circle)'
_diffrn_measurement_device_type  'Rigaku Saturn724+ (2x2 bin mode)'
_diffrn_measurement_method
;
omega rotation with 1 degree frames
;
_diffrn_measurement_specimen_support 'MiTeGen loop'
_diffrn_radiation_monochromator  'double crystal Silicon 111'
_diffrn_radiation_source         'Diamond Light Source Beamline I19'
_diffrn_radiation_type           Synchrotron
_diffrn_radiation_wavelength     0.68890
_diffrn_reflns_av_R_equivalents  0.0534
_diffrn_reflns_av_unetI/netI     0.0576
_diffrn_reflns_Laue_measured_fraction_full 0.968
_diffrn_reflns_Laue_measured_fraction_max 0.924
_diffrn_reflns_limit_h_max       11
_diffrn_reflns_limit_h_min       -7
_diffrn_reflns_limit_k_max       13
_diffrn_reflns_limit_k_min       -16
_diffrn_reflns_limit_l_max       32
_diffrn_reflns_limit_l_min       -21
_diffrn_reflns_number            9053
_diffrn_reflns_point_group_measured_fraction_full 0.968
_diffrn_reflns_point_group_measured_fraction_max 0.924
_diffrn_reflns_theta_full        24.415
_diffrn_reflns_theta_max         29.473
_diffrn_reflns_theta_min         1.726
_exptl_absorpt_coefficient_mu    0.267
_exptl_absorpt_correction_T_max  1.00000
_exptl_absorpt_correction_T_min  0.95776
_exptl_absorpt_correction_type   multi-scan
_exptl_absorpt_process_details
;
CrysAlisPro, Agilent Technologies,
Version 1.171.36.28 (release 01-02-2013 CrysAlis171 .NET)
Empirical absorption correction using spherical harmonics,
implemented in SCALE3 ABSPACK scaling algorithm.
;
_exptl_crystal_colour            Colourless
_exptl_crystal_density_diffrn    1.447
_exptl_crystal_description       Parallelepiped
_exptl_crystal_F_000             1104
_exptl_crystal_size_max          0.50
_exptl_crystal_size_mid          0.40
_exptl_crystal_size_min          0.20
_refine_diff_density_max         0.386
_refine_diff_density_min         -0.428
_refine_diff_density_rms         0.064
_refine_ls_extinction_coef       .
_refine_ls_extinction_method     none
_refine_ls_goodness_of_fit_ref   0.992
_refine_ls_hydrogen_treatment    mixed
_refine_ls_matrix_type           full
_refine_ls_number_parameters     176
_refine_ls_number_reflns         3417
_refine_ls_number_restraints     0
_refine_ls_restrained_S_all      0.992
_refine_ls_R_factor_all          0.0842
_refine_ls_R_factor_gt           0.0545
_refine_ls_shift/su_max          0.000
_refine_ls_shift/su_mean         0.000
_refine_ls_structure_factor_coef Fsqd
_refine_ls_weighting_details
'w=1/[\s^2^(Fo^2^)+(0.0463P)^2^+1.4827P] where P=(Fo^2^+2Fc^2^)/3'
_refine_ls_weighting_scheme      calc
_refine_ls_wR_factor_gt          0.1199
_refine_ls_wR_factor_ref         0.1400
_reflns_Friedel_coverage         0.000
_reflns_Friedel_fraction_full    .
_reflns_Friedel_fraction_max     .
_reflns_number_gt                2318
_reflns_number_total             3417
_reflns_threshold_expression     'I > 2\s(I)'
_cod_data_source_file            Exp_Form-II2FSynchrotron_Form-II_230K.cif
_cod_data_source_block           230k_smz-f2_a
_cod_database_code               1547445
_shelx_space_group_comment
;
The symmetry employed for this shelxl refinement is uniquely defined
by the following loop, which should always be used as a source of
symmetry information in preference to the above space-group names.
They are only intended as comments.
;
_shelx_estimated_absorpt_t_min   0.878
_shelx_estimated_absorpt_t_max   0.949
_shelx_res_file
;

    230k_smz-f2_a.res created by SHELXL-2014/7

TITL 230k_smz-f2_a.res in Pbca
REM Old TITL 037_230K_SulfamerazineF2_ in Pbca
REM SHELXT solution in Pbca
REM R1 0.137,  Rweak 0.326,  Alpha 0.016,  Orientation as input
REM Formula found by SHELXT:  C12 N3 O2 S
CELL  0.68890   9.1200  11.6339  22.8697   90.000   90.000   90.000
ZERR    8.000   0.0003   0.0003   0.0004    0.000    0.000    0.000
REM SG 61 8 8 Pbca P21/b21/c21/a PGmmm Orthorhombic
LATT 1
REM SG  ASUN  1  .5 .5 .5
REM SG  ORGN  at Inv.cen.
SYMM 0.5-X,-Y,0.5+Z
SYMM -X,0.5+Y,0.5-Z
SYMM 0.5+X,0.5-Y,-Z
SFAC C H N O S
UNIT 88 96  32  16  8
FMAP 2
PLAN -32
BOND $H
L.S. 12
SIZE    0.50  0.40  0.20
ACTA
CONF
REM Instructions for potential hydrogen bonds
EQIV $1 -x+1/2, y+1/2, z
HTAB C6 O1_$1
EQIV $2 -x+1, -y+1, -z+1
HTAB C8 O2_$2
EQIV $3 x+1, y, z
HTAB C9 O2_$3
HTAB N2 N4_$2
EQIV $4 x+1/2, y, -z+1/2
HTAB N1 O2_$4
EQIV $5 -x+1, y+1/2, -z+1/2
HTAB N1 O1_$5
HTAB N1 N3_$5
LIST 4
WGHT    0.046300    1.482700
FVAR       0.54968
S1    5    0.332273    0.346281    0.389706    11.00000    0.03244    0.03091 =
         0.02768   -0.00200   -0.00030   -0.00398
O2    4    0.197549    0.397058    0.409574    11.00000    0.02815    0.05021 =
         0.03285   -0.00220    0.00126   -0.00165
O1    4    0.342101    0.223747    0.386295    11.00000    0.05242    0.02870 =
         0.03840   -0.00268   -0.00132   -0.00813
N4    3    0.666304    0.426240    0.485422    11.00000    0.02961    0.03824 =
         0.03190   -0.00368   -0.00323    0.00162
N3    3    0.655666    0.285446    0.408924    11.00000    0.03431    0.03259 =
         0.03622   -0.00175    0.00293    0.00471
N2    3    0.451181    0.394888    0.437492    11.00000    0.03072    0.03557 =
         0.03207   -0.00808   -0.00120    0.00425
N1    3    0.455760    0.532449    0.155091    11.00000    0.06378    0.04145 =
         0.04065    0.00616    0.01613    0.00389
C1    1    0.375789    0.404108    0.321633    11.00000    0.03320    0.02997 =
         0.03001   -0.00165    0.00284   -0.00199
C2    1    0.448152    0.337712    0.280290    11.00000    0.04929    0.03239 =
         0.03851   -0.00088    0.00771    0.00790
AFIX  43
H2    2    0.476829    0.263137    0.289438    11.00000   -1.30000
AFIX   0
C3    1    0.477452    0.382091    0.225847    11.00000    0.05638    0.03732 =
         0.03590   -0.00316    0.01500    0.00814
AFIX  43
H3    2    0.528290    0.337779    0.198745    11.00000   -1.30000
AFIX   0
C4    1    0.431942    0.492951    0.210581    11.00000    0.04249    0.03544 =
         0.03320   -0.00068    0.00443   -0.00443
C5    1    0.359489    0.559141    0.252941    11.00000    0.04570    0.02747 =
         0.04064    0.00007    0.00494   -0.00042
AFIX  43
H5    2    0.329395    0.633406    0.243864    11.00000   -1.30000
AFIX   0
C6    1    0.332486    0.515311    0.307789    11.00000    0.03864    0.02763 =
         0.03552   -0.00482    0.00644   -0.00207
AFIX  43
H6    2    0.285161    0.560222    0.335638    11.00000   -1.30000
AFIX   0
C7    1    0.598208    0.366504    0.443290    11.00000    0.02946    0.02990 =
         0.02876    0.00104   -0.00022    0.00268
C8    1    0.808042    0.401132    0.492731    11.00000    0.03358    0.04811 =
         0.03529    0.00025   -0.00249    0.00048
AFIX  43
H8    2    0.860776    0.440752    0.521107    11.00000   -1.30000
AFIX   0
C9    1    0.878939    0.319417    0.460146    11.00000    0.02659    0.05095 =
         0.04030    0.00651    0.00184    0.00563
AFIX  43
H9    2    0.977651    0.303171    0.466132    11.00000   -1.30000
AFIX   0
C10   1    0.798682    0.262089    0.418140    11.00000    0.03670    0.03578 =
         0.03814    0.00690    0.00799    0.00636
C11   1    0.865779    0.169158    0.381423    11.00000    0.05111    0.05044 =
         0.06142   -0.00547    0.01138    0.01551
AFIX 137
H11A  2    0.819589    0.097061    0.390236    11.00000   -1.30000
H11B  2    0.968753    0.164021    0.389727    11.00000   -1.30000
H11C  2    0.851950    0.186895    0.340800    11.00000   -1.30000
AFIX   0
H1N2  2    0.416200    0.444466    0.458791    11.00000    0.04343
H1N1  2    0.516372    0.494696    0.136997    11.00000    0.04803
H2N1  2    0.444582    0.604355    0.149055    11.00000    0.05163
HKLF 4

REM  230k_smz-f2_a.res in Pbca
REM R1 =  0.0545 for    2318 Fo > 4sig(Fo)  and  0.0842 for all    3417 data
REM    176 parameters refined using      0 restraints

END

WGHT      0.0575      0.4909

REM Highest difference peak  0.386,  deepest hole -0.428,  1-sigma level  0.064
Q1    1   0.3447  0.3839  0.3508  11.00000  0.05    0.39
Q2    1   0.4831  0.5180  0.1934  11.00000  0.05    0.25
Q3    1   1.1073  0.1391  0.3820  11.00000  0.05    0.24
Q4    1   0.3354  0.4459  0.3161  11.00000  0.05    0.24
Q5    1   0.4575  0.3731  0.3101  11.00000  0.05    0.23
Q6    1   0.3874  0.3306  0.2382  11.00000  0.05    0.23
Q7    1   0.3048  0.5122  0.2652  11.00000  0.05    0.22
Q8    1   0.1356  0.3830  0.4043  11.00000  0.05    0.22
Q9    1   0.6713  0.2558  0.3517  11.00000  0.05    0.22
Q10   1   0.2225  0.3419  0.2109  11.00000  0.05    0.21
Q11   1   0.4132  0.3830  0.4107  11.00000  0.05    0.21
Q12   1   0.2502  0.3898  0.4046  11.00000  0.05    0.21
Q13   1   0.6356  0.4873  0.5111  11.00000  0.05    0.21
Q14   1   0.3710  0.5516  0.2847  11.00000  0.05    0.20
Q15   1   0.4821  0.4536  0.2158  11.00000  0.05    0.20
Q16   1   0.6397  0.3406  0.4198  11.00000  0.05    0.20
Q17   1   0.3312  0.5232  0.2300  11.00000  0.05    0.20
Q18   1   0.3690  0.1556  0.3676  11.00000  0.05    0.20
Q19   1   0.8406  0.3276  0.4328  11.00000  0.05    0.19
Q20   1   0.6392  0.4110  0.3507  11.00000  0.05    0.19
Q21   1   0.3031  0.6353  0.2290  11.00000  0.05    0.19
Q22   1   0.3693  0.1995  0.3964  11.00000  0.05    0.19
Q23   1   0.3396  0.1856  0.3076  11.00000  0.05    0.19
Q24   1   0.3674  0.2709  0.3692  11.00000  0.05    0.19
Q25   1   0.4694  0.3649  0.2586  11.00000  0.05    0.19
Q26   1   0.1749  0.3791  0.4490  11.00000  0.05    0.19
Q27   1   0.9739  0.2206  0.3493  11.00000  0.05    0.19
Q28   1   0.3192  0.5522  0.3594  11.00000  0.05    0.19
Q29   1   0.8446  0.4795  0.5279  11.00000  0.05    0.18
Q30   1   0.2878  0.0818  0.3532  11.00000  0.05    0.18
Q31   1   0.8320  0.2099  0.4077  11.00000  0.05    0.18
Q32   1   0.8288  0.2403  0.3929  11.00000  0.05    0.18
;
_shelx_res_checksum              97500
_shelx_hkl_file
;
   0   0   2  554.92   12.08
   0   0   3    0.59    1.19
   0   0   4 3070.99   41.24
   0   0   5    1.69    1.78
   0   0   6 7666.66   78.78
   0   0   7    1.36    2.04
   0   0   8 1020.67   32.57
   0   0   9    0.39    1.25
   0   0  10 5357.93   82.76
   0   0  11   -0.05    2.67
   0   0  12    2.31    3.11
   0   0  13    2.48    4.28
   0   0  14  709.59   35.63
   0   0  15    0.04    4.06
   0   0  16   12.84    4.87
   0   0  17    1.43    2.34
   0   0  18 1284.88   55.24
   0   0  19   -0.88    2.28
   0   0  20  132.27   19.47
   0   0  21   -2.74    3.71
   0   0  22  180.89   22.46
   0   0  23    1.07    3.62
   0   0  24   72.60   14.70
   0   0  25    6.27    7.33
   0   0  26   47.30   12.85
   0   0  27    0.53    5.62
   0   0  28   35.39   11.67
   0   0  29   -1.40    4.82
   0   0  30  223.35   27.79
   0   0  31   -5.65    6.17
   0   0  32    2.15    6.19
   0  -1   0   -0.46    0.51
   0  -1   1    0.41    0.56
   0   1   1   -0.79    0.50
   0  -1   2    0.59    0.89
   0   1   2   -0.50    0.48
   0  -1   3   -0.77    1.28
   0   1   3    0.37    0.69
   0  -1   4   -1.22    1.54
   0   1   4    0.79    0.51
   0  -1   5    0.99    1.08
   0   1   5    1.21    2.01
   0   1   6   -1.01    1.41
   0  -1   6    0.95    1.53
   0   1   7    0.40    0.89
   0  -1   7   -0.93    1.39
   0  -1   8   -0.36    2.51
   0   1   8    1.88    1.93
   0  -1   9   -0.89    2.30
   0   1   9    0.81    0.82
   0   1  10   -0.57    1.85
   0  -1  10   -0.73    1.04
   0  -1  11    0.29    1.73
   0   1  11   -1.25    1.03
   0   1  12    0.30    3.12
   0  -1  12   -0.28    2.93
   0   1  13    2.67    2.81
   0  -1  13   -0.04    2.39
   0   1  14    1.15    1.72
   0  -1  14    1.50    2.85
   0   1  15   -0.27    2.97
   0  -1  15    1.56    2.85
   0  -1  16   -0.97    4.15
   0   1  16    2.49    3.98
   0   1  17    1.82    2.73
   0  -1  17    1.44    3.50
   0  -1  18   -1.96    2.75
   0   1  18   -0.30    3.70
   0  -1  19   -0.72    3.24
   0   1  19    1.98    4.74
   0   1  20   -0.10    1.93
   0  -1  20    0.45    3.64
   0  -1  21    7.42    5.27
   0   1  21   -1.25    4.85
   0  -1  22    5.56    8.83
   0   1  22    4.52    5.47
   0  -1  23   -0.88    1.87
   0   1  23   -3.21    4.17
   0   1  24    1.72    3.98
   0  -1  24   -3.69    6.69
   0   1  25   -0.02    4.35
   0  -1  25    2.22    5.72
   0  -1  26   -0.17    3.35
   0   1  26    0.34    4.03
   0   1  27   -2.94    1.79
   0  -1  27    4.81    7.19
   0  -1  28    0.50    4.24
   0   1  28    2.31    3.59
   0  -1  29   -0.38    5.84
   0   1  29    3.25    6.39
   0  -1  30    2.49    5.91
   0   1  30   -3.77    5.70
   0  -1  31    7.77    7.24
   0   1  31    5.18    8.03
   0  -1  32    4.00    3.34
   0   1  32    0.72    5.16
   0  -2   0    1.47    0.88
   0  -2   1 7981.01   62.86
   0   2   1 7982.39   62.67
   0  -2   2 4282.11   47.42
   0   2   2 4348.87   48.44
   0  -2   3 9999.00   76.41
   0   2   3 9876.60   79.12
   0   2   4 8094.77   76.30
   0  -2   4 7973.02   73.36
   0  -2   5 8095.55   78.09
   0   2   5 8070.15   82.33
   0  -2   6 7734.09   81.72
   0   2   6 7937.73   85.38
   0   2   7   66.60    8.06
   0  -2   7   55.02    7.88
   0  -2   8  521.79   24.47
   0   2   8  519.51   24.30
   0   2   9 1756.47   46.69
   0  -2   9 1686.32   45.54
   0   2  10  875.71   34.57
   0  -2  10  856.29   34.33
   0  -2  11 1300.54   43.89
   0   2  11 1161.80   41.51
   0  -2  12  501.86   27.84
   0   2  12  533.74   29.07
   0   2  13  138.48   15.00
   0  -2  13  105.03   13.35
   0   2  14  655.13   34.40
   0  -2  14  663.78   35.09
   0  -2  15   15.13    7.31
   0   2  15   30.16    7.88
   0  -2  16   63.89   12.03
   0   2  16   67.32   11.37
   0   2  17  402.09   29.12
   0  -2  17  557.80   35.88
   0   2  18  204.66   21.95
   0  -2  18  230.80   23.73
   0   2  19  650.19   39.11
   0  -2  19  729.91   42.39
   0  -2  20   84.41   14.33
   0   2  20   72.11   14.04
   0  -2  21   70.82   13.72
   0   2  21   57.93   12.67
   0   2  22   -0.32    2.23
   0  -2  22   -0.60    2.65
   0  -2  23  431.09   35.65
   0   2  23  462.45   36.24
   0   2  24    8.11    6.51
   0  -2  24    3.70    4.94
   0   2  25   11.37    7.02
   0  -2  25    6.82    5.30
   0   2  26  107.74   18.29
   0  -2  26  106.12   18.28
   0  -2  27   27.71    9.69
   0   2  27   10.26    7.82
   0   2  28   16.63    7.07
   0  -2  28    9.65    6.12
   0   2  29   70.94   15.31
   0  -2  29   60.21   14.22
   0  -2  30    1.46    5.24
   0   2  30   -0.14    2.19
   0   2  31    6.05    7.66
   0  -2  31    2.81    4.06
   0  -2  32   26.95    9.77
   0   2  32   15.21    4.94
   0  -3   0   -1.61    1.85
   0  -3   1    0.98    2.14
   0  -3   2    4.42    2.86
   0   3   2    1.11    1.38
   0  -3   3   -1.39    1.21
   0   3   3    0.73    1.48
   0  -3   4    1.99    2.78
   0   3   4    1.70    2.12
   0  -3   5   -0.17    1.81
   0   3   5    2.40    2.21
   0  -3   6    1.10    2.73
   0   3   6   -0.99    1.52
   0   3   7   -0.60    1.11
   0  -3   7    0.89    2.02
   0  -3   8    1.50    3.82
   0   3   8    0.80    0.91
   0   3   9   -2.14    2.88
   0  -3   9   -0.84    1.33
   0   3  10    0.18    1.41
   0  -3  10   -0.13    3.58
   0   3  11    0.30    2.72
   0  -3  11    0.37    1.92
   0   3  12    1.04    2.60
   0  -3  12    1.45    2.08
   0  -3  13    2.75    3.12
   0   3  13    2.98    4.00
   0  -3  14    0.59    2.73
   0   3  14   -3.71    3.60
   0   3  15    0.03    1.86
   0  -3  15   -0.61    1.88
   0  -3  16   -0.11    1.86
   0   3  16   -0.26    3.04
   0   3  17    0.64    3.88
   0  -3  17   -1.38    4.40
   0  -3  18   -0.66    3.37
   0   3  18   -0.47    4.91
   0   3  19    8.62    7.31
   0  -3  19   -2.76    4.67
   0  -3  20   -3.07    3.39
   0   3  20   -0.22    2.62
   0   3  21    0.31    1.95
   0  -3  21    0.56    5.01
   0  -3  22    0.44    3.43
   0   3  22    1.43    2.97
   0   3  23   -0.54    5.57
   0  -3  23   -0.05    3.21
   0  -3  24    5.46    4.87
   0   3  24    0.35    3.27
   0  -3  25    0.54    3.56
   0   3  25   -2.07    2.60
   0   3  26    0.05    2.21
   0  -3  26   -3.94    5.88
   0   3  27    0.54    5.34
   0  -3  27    1.14    5.44
   0  -3  28   -4.58    5.00
   0   3  28    2.91    6.69
   0  -3  29   -2.99    4.27
   0   3  29   -1.63    5.08
   0  -3  30   -1.21    3.16
   0   3  30    2.51    4.35
   0  -3  31   -0.09    3.15
   0   3  31   -6.43    7.97
   0   3  32    2.84    5.33
   0  -3  32    1.22    6.68
   0  -4   0 4020.32   62.72
   0  -4   1 1399.09   36.73
   0  -4  -1 1445.58   37.30
   0  -4   2 1738.62   41.43
   0  -4   3  104.93   10.05
   0   4   3  125.87   11.39
   0   4   4  214.16   15.37
   0  -4   4  214.68   14.88
   0   4   5  251.45   16.97
   0  -4   5  243.23   16.15
   0   4   6  756.99   30.67
   0  -4   6  810.26   30.42
   0  -4   7  339.42   20.51
   0   4   7  349.22   21.47
   0  -4   8  285.83   19.09
   0   4   8  254.69   19.04
   0  -4   9   10.68    4.45
   0   4   9    8.12    2.63
   0   4  10   -0.05    1.95
   0  -4  10   -0.99    2.52
   0  -4  11  108.82   13.29
   0   4  11   94.29   12.75
   0  -4  12    0.64    2.64
   0   4  12    5.61    4.74
   0  -4  13    0.08    3.29
   0   4  13    1.62    2.89
   0   4  14  162.02   17.87
   0  -4  14  158.13   18.29
   0  -4  15  109.50   15.15
   0   4  15   87.81   13.72
   0   4  16  186.18   19.62
   0  -4  16  123.61   17.09
   0   4  17  600.15   37.39
   0  -4  17  598.85   36.85
   0   4  18 1360.42   58.34
   0  -4  18 1356.73   56.61
   0  -4  19  348.27   29.50
   0   4  19  388.46   31.70
   0   4  20    7.24    7.52
   0  -4  20    9.32    4.79
   0   4  21   31.99   10.19
   0  -4  21   37.48   11.87
   0  -4  22    0.05    2.33
   0   4  22   -2.48    2.69
   0   4  23  112.91   18.10
   0  -4  23   75.16   15.23
   0  -4  24  230.45   27.26
   0   4  24  228.70   27.51
   0  -4  25  136.24   21.11
   0   4  25  100.68   17.90
   0  -4  26   14.14    7.10
   0   4  26    4.34    3.93
   0   4  27    1.66    3.75
   0  -4  27   15.82    9.47
   0   4  28   39.17   12.05
   0  -4  28   41.72   14.06
   0  -4  29   37.21   11.73
   0   4  29   31.26   10.39
   0   4  30    3.76    5.61
   0  -4  30   -0.21    2.06
   0   4  31   -3.53    2.89
   0  -4  31   -9.35    7.46
   0  -5   0   -1.03    1.28
   0  -5  -1   -1.73    1.44
   0  -5   1    1.89    3.23
   0  -5  -2    2.54    3.48
   0  -5   2   -1.81    2.11
   0  -5   3    0.62    2.56
   0  -5   4   -0.50    0.99
   0   5   4    2.29    2.84
   0  -5   5    0.88    2.14
   0   5   5   -0.01    1.82
   0   5   6   -0.97    2.21
   0  -5   6    2.63    2.62
   0   5   7   -0.25    0.99
   0  -5   7   -1.31    1.38
   0  -5   8   -2.72    2.79
   0   5   8   -0.88    1.94
   0  -5   9   -2.00    3.03
   0   5   9    0.44    3.18
   0   5  10    1.91    2.20
   0  -5  10    2.26    3.00
   0   5  11    0.30    1.69
   0  -5  11    1.61    4.48
   0   5  12   -3.45    4.39
   0  -5  12    2.60    4.15
   0  -5  13   -0.95    2.27
   0   5  13   -2.41    3.41
   0   5  14   -2.00    1.87
   0  -5  14    0.68    1.98
   0  -5  15    0.27    3.45
   0   5  15   -1.60    3.79
   0   5  16    2.00    3.45
   0  -5  16   -0.80    1.80
   0   5  17   -0.11    4.99
   0  -5  17    0.86    2.03
   0   5  18   -1.68    1.96
   0  -5  18    0.85    2.89
   0   5  19    1.33    4.70
   0  -5  19   -0.06    2.47
   0  -5  20    4.26    4.40
   0   5  20   -0.98    4.01
   0   5  21   -3.83    4.32
   0  -5  21   -5.74    5.71
   0  -5  22    6.03    7.11
   0   5  22   -6.78    5.32
   0  -5  23    2.90    6.32
   0   5  23    4.16    2.93
   0  -5  24   -2.25    5.97
   0   5  24   -2.05    3.95
   0   5  25   -0.20    2.71
   0  -5  25    7.41    4.64
   0   5  26    3.16    2.86
   0  -5  26   -1.85    5.22
   0  -5  27   -0.95    4.02
   0   5  27    4.91    7.73
   0   5  28    3.06    4.39
   0  -5  28    0.72    4.69
   0  -5  29    0.69    4.49
   0   5  29    6.43    8.12
   0   5  30    2.91    5.85
   0  -5  30   -9.15   10.73
   0   5  31   -0.63    3.58
   0  -5  31    4.14    6.15
   0  -6   0   19.47    4.66
   0  -6   1 3869.11   74.70
   0  -6  -1 3835.93   74.73
   0  -6   2 1297.32   43.37
   0  -6  -2 1220.27   41.92
   0  -6   3  229.73   18.33
   0  -6   4  581.67   29.58
   0   6   5   29.36    6.91
   0  -6   5   34.67    7.04
   0   6   6    7.34    4.05
   0  -6   6    8.67    1.36
   0   6   7  270.57   21.42
   0  -6   7  270.40   20.68
   0   6   8   38.72    7.68
   0  -6   8   62.31    9.62
   0  -6   9   49.87    9.25
   0   6   9   28.20    7.91
   0   6  10   54.07   10.43
   0  -6  10   55.08   10.01
   0   6  11    6.22    5.69
   0  -6  11    0.35    3.79
   0   6  12 3203.66   82.07
   0  -6  12 3293.35   79.61
   0   6  13   -2.64    3.45
   0  -6  13    6.46    6.82
   0   6  14  273.39   24.40
   0  -6  14  279.92   24.75
   0   6  15  619.85   38.20
   0  -6  15  542.37   34.69
   0  -6  16   66.46   13.72
   0   6  16   81.11   14.51
   0  -6  17   34.07   10.42
   0   6  17   77.48   15.73
   0  -6  18  455.29   35.21
   0   6  18  390.54   32.94
   0  -6  19  321.59   29.83
   0   6  19  243.57   25.52
   0  -6  20   51.80   13.76
   0   6  20   55.10   11.85
   0  -6  21  390.62   33.56
   0   6  21  357.49   32.10
   0  -6  22  191.96   23.83
   0   6  22  195.65   24.64
   0   6  23   18.95    7.55
   0  -6  23   18.27    8.13
   0  -6  24   56.13   13.89
   0   6  24   61.83   15.35
   0  -6  25  103.85   19.59
   0   6  25  142.30   21.32
   0   6  26  121.25   20.13
   0  -6  26  147.23   24.32
   0   6  27    3.44    3.15
   0  -6  27    3.58    6.85
   0  -6  28   61.30   14.83
   0   6  28   65.11   14.50
   0  -6  29    1.46    6.38
   0   6  29    8.84    7.85
   0   6  30    0.14    5.41
   0  -6  30    0.12    4.52
   0  -7   0    0.12    1.13
   0  -7  -1    0.01    3.14
   0  -7   1   -0.22    2.14
   0  -7   2    6.66    5.88
   0  -7  -2    2.64    3.18
   0  -7  -3   -1.57    2.15
   0  -7   3    4.83    3.53
   0  -7   4   -0.82    1.66
   0  -7   5   -0.51    3.45
   0  -7   6   -3.09    3.73
   0   7   6    1.45    2.34
   0  -7   7    3.68    4.42
   0   7   7   -0.07    3.95
   0  -7   8    2.42    3.03
   0   7   8   -1.86    2.79
   0   7   9   -1.74    3.42
   0  -7   9    0.45    2.47
   0   7  10    2.33    3.32
   0  -7  10   -2.02    2.54
   0  -7  11    0.27    2.78
   0   7  11   -0.95    2.60
   0   7  12   -3.19    4.03
   0  -7  12    0.38    1.36
   0   7  13   -0.79    4.43
   0  -7  13    2.15    3.63
   0  -7  14    2.57    3.41
   0   7  14   -2.55    4.59
   0  -7  15    1.94    5.33
   0   7  15   -1.95    3.36
   0  -7  16    3.87    3.22
   0   7  16    1.87    4.40
   0   7  17   -5.42    5.78
   0  -7  17    1.47    2.97
   0  -7  18    2.72    3.75
   0   7  18   -1.39    6.89
   0  -7  19   -2.30    4.59
   0   7  19   -4.97    4.87
   0   7  20   -1.39    2.02
   0  -7  20   -0.79    4.93
   0  -7  21    3.03    3.18
   0   7  21    3.09    5.17
   0  -7  22    5.97    7.23
   0   7  22    1.45    5.08
   0  -7  23   -7.76    7.70
   0   7  23    2.84    2.39
   0  -7  24   -0.18    4.22
   0   7  24   -2.48    6.72
   0   7  25   -4.45    3.94
   0  -7  25   -0.19    3.97
   0   7  26   -0.51    3.20
   0  -7  26   -0.93    4.07
   0   7  27   -2.89    5.45
   0  -7  27    0.83    2.85
   0   7  28   -0.56    3.78
   0  -7  28   -7.79    9.13
   0  -7  29    9.20   10.52
   0   7  29    4.05    3.77
   0  -8   0  422.24   28.58
   0  -8  -1   22.35    6.68
   0  -8   1   14.75    5.06
   0  -8  -2   44.72    9.14
   0  -8   2   43.98    9.26
   0  -8  -3    6.55    3.22
   0  -8   3   21.53    7.95
   0  -8  -4  192.81   18.87
   0  -8   4  205.65   20.39
   0  -8   5   60.81   11.52
   0  -8  -5   72.87   12.26
   0  -8   6  271.50   23.61
   0  -8   7 1036.85   46.16
   0   8   8  396.38   29.47
   0  -8   8  438.91   29.56
   0  -8   9  194.97   20.31
   0   8   9  210.65   21.95
   0  -8  10  126.02   16.70
   0   8  10  132.74   17.16
   0   8  11 1290.87   55.63
   0  -8  11 1448.54   56.98
   0   8  12   43.10   11.20
   0  -8  12   23.04    7.30
   0   8  13  123.56   18.75
   0  -8  13  168.49   20.11
   0  -8  14  162.67   19.51
   0   8  14  199.59   22.66
   0  -8  15  772.07   43.82
   0   8  15  675.80   42.83
   0  -8  16    8.76    5.42
   0   8  16    4.22    4.63
   0   8  17  607.28   40.59
   0  -8  18   66.48   15.37
   0   8  18  102.72   17.45
   0   8  19  201.26   24.70
   0  -8  19  205.54   24.33
   0  -8  20   -3.68    3.27
   0   8  20    5.20    5.95
   0  -8  21  181.99   24.02
   0   8  21  179.31   23.23
   0   8  22    9.01    7.75
   0  -8  22    5.24    6.54
   0   8  23  122.44   19.59
   0  -8  23  111.86   19.92
   0   8  24   28.95   10.73
   0  -8  24   24.54    8.38
   0  -8  25  184.86   26.13
   0   8  25  201.68   25.21
   0  -8  26   -1.91    4.36
   0   8  26    7.32    7.99
   0  -8  27   26.72   10.67
   0   8  27   43.15   14.29
   0  -8  28   17.27   10.32
   0   8  28    6.69    3.23
   0  -9   0   -4.23    5.15
   0  -9  -1    1.54    4.18
   0  -9   1   -1.22    4.69
   0  -9  -2   -0.56    2.41
   0  -9   2   -2.42    4.44
   0  -9   3   -1.26    2.04
   0  -9  -3    4.39    5.57
   0  -9   4    3.38    4.59
   0  -9  -4   -1.18    1.75
   0  -9  -5   -1.85    3.03
   0  -9   5    2.65    3.49
   0  -9  -6   -1.64    3.77
   0  -9   6   -1.60    2.92
   0  -9   7    0.09    2.13
   0  -9   8    3.66    3.95
   0  -9   9    6.80    5.81
   0  -9  10   -0.63    2.70
   0   9  10    3.24    5.13
   0   9  11   -2.21    2.88
   0  -9  11    3.86    2.89
   0   9  12    1.49    5.25
   0  -9  12    2.72    5.07
   0  -9  13   -3.32    5.52
   0   9  13    1.90    5.99
   0   9  14   -3.13    3.92
   0  -9  14   -3.94    4.94
   0   9  15   -0.72    3.68
   0  -9  15   -1.11    2.53
   0  -9  16   -3.52    4.31
   0   9  16   -0.78    3.43
   0  -9  17   -2.62    1.76
   0   9  17    1.88    5.20
   0  -9  18   -1.35    1.86
   0   9  18   -1.31    6.55
   0   9  19   -2.89    1.96
   0  -9  19   -3.10    4.81
   0  -9  20    0.65    5.07
   0   9  20    3.91    5.39
   0   9  21    4.90    4.59
   0  -9  21   -1.57    3.20
   0  -9  22    0.43    3.01
   0   9  22   -7.13    4.22
   0   9  23   -4.78    6.64
   0  -9  23   -1.17    3.58
   0   9  24    6.38    4.83
   0  -9  24   -1.78    6.18
   0   9  25    7.04    8.53
   0  -9  25    4.03    3.34
   0  -9  26    4.67    5.33
   0   9  26   -3.02    3.95
   0   9  27    2.08    3.37
   0  -9  27   -5.63    8.02
   0 -10   0   31.34    9.36
   0 -10   1   11.73    5.56
   0 -10  -1    2.64    2.20
   0 -10  -2   10.88    6.76
   0 -10   2    7.07    2.03
   0 -10  -3   -0.42    1.63
   0 -10   3    0.02    3.95
   0 -10   4  223.34   23.36
   0 -10  -4  213.64   22.98
   0 -10   5  215.51   22.68
   0 -10  -5  253.14   24.72
   0 -10   6  251.77   24.39
   0 -10  -6  229.61   24.14
   0 -10   7   88.80   14.67
   0 -10  -7   97.37   15.84
   0 -10   8  652.80   40.31
   0 -10  -8  698.04   41.84
   0 -10   9   45.09   10.60
   0 -10  10    0.89    4.00
   0 -10  11  331.25   29.71
   0 -10  12   89.69   15.02
   0  10  12   70.07   13.07
   0  10  13   43.63   11.43
   0 -10  13   65.96   13.53
   0 -10  14  268.99   27.90
   0  10  14  317.94   29.90
   0 -10  15    4.46    5.11
   0  10  15   17.37    8.34
   0 -10  16   -3.24    3.18
   0  10  16    1.09    4.69
   0 -10  17    5.19    4.84
   0  10  17    3.78    6.78
   0 -10  18  136.15   20.81
   0  10  18  116.62   19.22
   0 -10  19   12.36    8.92
   0  10  19   17.18    8.05
   0  10  20    3.37    7.28
   0 -10  20   12.24    8.34
   0 -10  21   52.54   14.24
   0  10  21   48.67   12.15
   0  10  22  292.14   32.40
   0 -10  22  292.76   32.10
   0 -10  23    3.35    5.69
   0  10  23   -2.41    2.82
   0 -10  24   26.45    9.58
   0  10  24   21.73   10.48
   0  10  25   47.76   11.91
   0 -10  25   79.16   17.96
   0 -10  26   58.51   16.67
   0  10  26   54.47   13.90
   0 -11   0    3.51    3.74
   0 -11  -1    0.17    2.07
   0 -11   1    1.58    4.38
   0 -11  -2   -1.70    5.21
   0 -11   2    5.96    5.66
   0 -11   3   -1.92    3.70
   0 -11  -3    1.77    5.31
   0 -11   4   -3.22    3.70
   0 -11  -4    3.77    3.77
   0 -11  -5    1.65    3.42
   0 -11   5   -0.48    4.80
   0 -11  -6    0.04    2.68
   0 -11   6   -0.40    1.81
   0 -11  -7    0.30    2.35
   0 -11   7   -3.24    4.22
   0 -11   8   -2.40    3.40
   0 -11  -8    0.35    2.85
   0 -11  -9   -2.72    5.57
   0 -11   9    0.68    3.83
   0 -11  10   -5.81    3.50
   0 -11  11   -1.86    3.98
   0 -11  12    4.87    1.93
   0 -11  13   -3.00    2.34
   0  11  14   -0.31    4.68
   0 -11  14    6.82    8.19
   0 -11  15    3.53    4.38
   0  11  15    2.78    2.85
   0  11  16    3.96    4.80
   0 -11  16   -2.02    5.84
   0 -11  17    1.07    5.75
   0  11  17    5.61    6.52
   0 -11  18   -2.04    5.29
   0  11  18    9.42    6.99
   0  11  19   -5.43    6.25
   0 -11  19   -0.19    6.67
   0  11  20   -3.95    5.16
   0 -11  20    1.97    6.37
   0 -11  21    3.58    4.20
   0  11  21    0.67    4.03
   0 -11  22    3.25    5.43
   0  11  22    4.00    2.53
   0 -11  23    5.91    7.10
   0  11  23    6.51    5.62
   0  11  24    8.13    8.21
   0 -11  24   -3.30    3.67
   0 -12   0  160.83   21.74
   0 -12  -1    1.71    2.67
   0 -12   1    6.17    5.37
   0 -12  -2    1.86    2.45
   0 -12   2   -1.40    2.92
   0 -12   3  108.40   18.37
   0 -12  -3  132.47   20.74
   0 -12  -4   -0.80    5.87
   0 -12   4    7.42    4.22
   0 -12   5  113.98   17.89
   0 -12  -5   79.27   15.62
   0 -12  -6    5.70    4.95
   0 -12   6   20.94    6.41
   0 -12  -7   17.18    6.81
   0 -12   7   29.91    9.86
   0 -12   8   36.70   10.46
   0 -12  -8   22.32    8.86
   0 -12  -9   35.03   11.19
   0 -12   9    7.56    3.98
   0 -12  10  304.89   30.45
   0 -12 -10  332.36   32.18
   0 -12  11  125.34   19.38
   0 -12 -11  125.24   19.92
   0 -12 -12   41.15   11.78
   0 -12  12   58.70   14.38
   0 -12  13    6.04    6.22
   0 -12  14   14.27    4.32
   0 -12  15    8.45    4.03
   0 -12  16    0.70    6.43
   0 -12  17   10.57    6.69
   0 -12  18    7.08    6.18
   0  12  18    8.45    5.56
   0 -12  19   -3.50    6.66
   0  12  19   -0.03    3.27
   0  12  20    9.32    3.17
   0 -12  20    4.30    3.46
   0 -12  21   23.98   10.10
   0  12  21   23.08    9.51
   0 -12  22   15.05    7.97
   0  12  22   19.06    9.16
   0 -13   0    4.52    5.21
   0 -13  -1    1.20    5.18
   0 -13   1    7.54    6.75
   0 -13   2   -0.07    3.32
   0 -13  -2    2.59    6.24
   0 -13   3   -5.17    5.00
   0 -13  -3    7.18    8.19
   0 -13  -4   -3.16    3.25
   0 -13   4   -6.16    7.40
   0 -13  -5    0.35    3.03
   0 -13   5    0.37    4.98
   0 -13  -6   -5.69    5.20
   0 -13   6   -0.37    5.07
   0 -13   7    4.33    3.42
   0 -13  -7    1.12    4.83
   0 -13  -8    1.75    9.23
   0 -13   8    1.95    4.28
   0 -13   9    4.06    3.57
   0 -13  -9   -2.66    3.86
   0 -13  10   -1.07    2.79
   0 -13 -10    1.44    2.74
   0 -13  11    6.56    8.82
   0 -13 -11    2.84    5.45
   0 -13  12    2.80    6.68
   0 -13 -12    3.38    5.51
   0 -13 -13    0.53    3.39
   0 -13  13    4.62    5.73
   0 -13  14    7.89    8.75
   0 -13 -14    2.97    5.69
   0 -13  15    4.76    7.81
   0 -13 -15   -3.17    6.79
   0 -13  16   -3.82    6.30
   0 -13  17   -0.87    4.76
   0 -13  18   -0.41    4.53
   0 -13  19    1.18    3.82
   0 -13  20   -2.39    5.58
   0 -14   0   34.64   12.09
   0 -14   1   73.26   16.33
   0 -14  -1   66.41   15.12
   0 -14  -2   -5.66    6.14
   0 -14   2    6.80    6.83
   0 -14   3   17.82   10.98
   0 -14  -3    6.35    4.07
   0 -14   4    7.39    4.79
   0 -14  -4   28.61   12.52
   0 -14  -5   10.03    8.92
   0 -14   5    1.44    3.40
   0 -14   6   35.74   11.77
   0 -14  -6   55.75   14.81
   0 -14  -7  148.71   22.20
   0 -14   7  119.30   19.19
   0 -14   8   89.60   18.10
   0 -14  -8   77.23   16.55
   0 -14   9    1.44    2.49
   0 -14  -9    7.50    3.29
   0 -14 -10  127.15   21.61
   0 -14  10  114.66   19.15
   0 -14 -11   13.34    8.63
   0 -14  11    8.58    7.83
   0 -14 -12   25.74    9.52
   0 -14  12   23.99   10.26
   0 -14  13   94.72   18.36
   0 -14 -13   25.48    9.66
   0 -14  14   46.17   13.00
   0 -14 -14   51.52   14.12
   0 -14 -15   -4.36    5.39
   0 -14  15   -2.74    5.99
   0 -14  16    5.77    6.47
   0 -14 -16    5.47    8.40
   0 -14 -17    2.99    5.68
   0 -14  17   10.11    9.20
   0 -15   0   12.12    6.04
   0 -15   1    3.81    7.94
   0 -15  -1   -1.23    4.49
   0 -15  -2   -6.43    8.38
   0 -15   2   -7.30    3.47
   0 -15  -3   -5.93    2.79
   0 -15   3    8.50    6.14
   0 -15  -4    5.30    6.00
   0 -15   4   -3.22    6.04
   0 -15  -5   16.02   10.92
   0 -15   5    4.28    7.20
   0 -15   6   -0.65    4.03
   0 -15  -6    0.49    2.43
   0 -15   7   -4.14    2.89
   0 -15  -7   -0.57    2.39
   0 -15   8   -1.28    3.55
   0 -15  -8    3.49    5.33
   0 -15   9   -3.44    4.16
   0 -15  -9   -6.76    4.32
   0 -15 -10   10.59    8.79
   0 -15  10   -2.17    4.02
   0 -15 -11    4.40    5.37
   0 -15  11   10.12    8.04
   0 -15  12   -3.91    5.89
   0 -15 -12    4.60    6.42
   0 -15 -13    4.39    6.22
   0 -15  13   -5.46    2.68
   0 -15  14   -2.78    8.58
   0 -15 -14   -7.52    5.40
   0 -16   0  145.02   23.74
   0 -16  -1    5.65    8.65
   0 -16   1    3.21    5.38
   0 -16   2   10.67    5.13
   0 -16  -2   11.57    6.11
   0 -16  -3   16.08    9.43
   0 -16   3   -2.44    6.48
   0 -16   4  216.45   28.23
   0 -16  -4  236.45   30.21
   0 -16   5   15.49    5.04
   0 -16  -5   10.81    6.83
   0 -16  -6   -1.50    4.72
   0 -16   6   16.24   12.27
   0 -16  -7    8.96    3.96
   0 -16   7   32.44   12.37
   0 -16  -8   17.97    9.16
   0 -16   8   17.62    7.67
   1   0   1    0.09    0.32
  -1   0   2 2517.64   24.88
   1   0   2 2561.97   29.92
  -1   0   3    1.55    1.03
   1   0   3    0.38    0.75
  -1   0   4 1723.32   28.74
   1   0   4 1770.46   32.27
  -1   0   5    1.55    1.49
   1   0   5    0.05    1.49
   1   0   6 3138.06   51.25
  -1   0   6 3204.94   49.05
  -1   0   7    2.91    2.33
   1   0   7    0.56    2.33
   1   0   8 3184.20   60.37
  -1   0   8 3242.48   57.03
   1   0   9   -0.29    1.64
  -1   0   9   -1.18    1.20
   1   0  10    7.16    3.34
  -1   0  10    2.18    1.34
  -1   0  11    2.25    2.21
   1   0  11    3.52    2.83
  -1   0  12 1655.24   50.83
   1   0  12 1728.32   53.26
   1   0  13   -0.86    3.21
  -1   0  13    1.57    2.28
  -1   0  14  687.11   35.26
   1   0  14  674.16   35.38
   1   0  15   -0.36    2.36
  -1   0  15    1.35    4.17
   1   0  16 1992.77   64.09
  -1   0  16 1991.62   64.09
   1   0  17    0.55    4.71
  -1   0  17   -3.01    2.89
  -1   0  18   -1.62    3.13
   1   0  18   -0.96    4.73
   1   0  19    1.97    4.82
  -1   0  19    0.42    2.05
   1   0  20  102.75   16.36
  -1   0  20   94.54   14.85
  -1   0  21    7.01    6.19
   1   0  21   -1.38    5.38
  -1   0  22   84.58   15.50
   1   0  22   24.15    8.21
  -1   0  23    0.59    3.48
   1   0  23    3.75    2.40
   1   0  24  310.96   31.07
  -1   0  24  322.16   30.85
   1   0  25   -0.64    4.85
  -1   0  25    2.71    6.14
  -1   0  26  350.36   32.94
   1   0  26  288.41   30.57
   1   0  27    0.61    4.33
  -1   0  27    1.95    4.15
  -1   0  28   -0.62    3.91
   1   0  28   10.82    4.84
   1   0  29    1.17    5.04
  -1   0  29    6.27    6.46
   1   0  30   34.82   11.58
  -1   0  30    5.68    6.46
   1   0  31   -0.97    2.53
  -1   0  31    3.94    6.83
   1   0  32   24.12   10.84
  -1   0  32   27.99   10.14
   1  -1   0    1.06    0.66
   1   1   1 1009.40   15.14
   1  -1   1  970.81   20.02
   1   1   2 2997.83   32.41
  -1   1   2 2954.78   35.45
   1  -1   3  495.86   16.71
  -1  -1   3  525.67   13.15
   1   1   3  498.07   15.52
  -1   1   3  513.02   16.10
   1  -1   4  163.40   10.12
  -1   1   4  154.13    9.61
   1   1   4  153.27    9.68
  -1  -1   4  149.70    8.19
  -1  -1   5  638.52   19.21
  -1   1   5  613.73   20.80
   1   1   5  572.91   20.81
   1  -1   5  641.57   22.32
   1  -1   6  135.87   10.82
   1   1   6  131.26   10.75
  -1  -1   6  129.22    9.74
  -1   1   6  138.18   10.78
   1   1   7  368.19   19.12
  -1   1   7  359.62   18.28
  -1  -1   7  355.31   17.81
   1  -1   7  346.35   18.80
  -1  -1   8  406.61   20.73
  -1   1   8  349.95   19.08
   1   1   8  351.99   19.93
   1  -1   8  351.67   20.16
  -1   1   9   87.30   10.18
   1   1   9   90.59   10.61
  -1  -1   9  109.85   11.18
   1  -1   9  102.75   11.60
   1   1  10   37.36    7.52
  -1   1  10   33.32    6.50
   1  -1  10   25.86    6.24
  -1  -1  10   27.22    6.25
  -1   1  11  266.06   19.37
   1  -1  11  235.62   18.29
   1   1  11  260.02   19.69
  -1  -1  11  256.55   18.88
   1  -1  12   34.21    6.85
  -1   1  12   22.16    5.75
  -1  -1  12   31.85    7.28
  -1   1  13  638.65   32.30
  -1  -1  13  600.49   31.06
   1  -1  13  579.85   31.96
   1   1  13  617.51   32.63
   1   1  14   83.35   12.71
   1  -1  14   81.40   11.64
  -1  -1  14   80.89   11.33
  -1   1  14   88.06   12.77
   1   1  15   67.36   11.57
  -1  -1  15   52.57   10.13
   1  -1  15  106.09   14.91
  -1   1  15   89.27   12.87
   1  -1  16  144.40   17.85
  -1  -1  16  151.71   17.03
   1   1  16  118.80   15.89
  -1   1  16  148.16   18.01
  -1   1  17  803.10   41.55
   1   1  17  779.93   42.07
   1  -1  17  788.13   42.84
  -1  -1  17  695.56   38.84
   1  -1  18    1.66    3.46
  -1  -1  18   -0.12    2.24
  -1   1  18    4.78    3.65
   1   1  18    8.92    6.16
   1  -1  19   17.95    8.06
   1   1  19   15.11    6.70
  -1   1  19    8.10    4.42
  -1  -1  19    2.57    3.98
  -1  -1  20  475.11   35.36
  -1   1  20  446.12   33.58
   1   1  20  441.77   34.43
   1  -1  20  521.25   35.95
   1   1  21    0.16    4.53
   1  -1  21    4.62    3.79
  -1  -1  21    3.40    5.86
  -1   1  21    2.10    6.78
  -1   1  22   79.22   15.11
   1   1  22  104.13   17.20
   1  -1  22  104.51   16.76
  -1  -1  22   71.33   14.60
  -1   1  23   99.18   15.97
  -1  -1  23   96.77   17.49
   1  -1  23  113.07   17.72
   1   1  23   90.20   17.18
  -1  -1  24   -3.29    5.01
  -1   1  24   -1.58    5.21
   1  -1  24    0.37    3.94
   1   1  24   -1.67    4.42
  -1  -1  25   88.15   17.51
  -1   1  25   66.44   13.84
   1   1  25  112.70   18.85
   1  -1  25  111.06   17.42
  -1   1  26   86.01   16.37
  -1  -1  26   61.21   14.07
   1   1  26   60.08   14.60
   1  -1  26   66.00   14.74
   1  -1  27    0.05    3.25
   1   1  27    2.79    5.70
  -1  -1  27   -6.90    6.34
  -1   1  27   -0.63    5.74
   1  -1  28   -0.79    2.61
   1   1  28    7.53    7.67
  -1   1  28    4.79    4.98
  -1  -1  28   -1.45    2.81
   1  -1  29    3.99    5.07
   1   1  29    7.31    5.98
  -1  -1  29    5.67    5.95
  -1   1  29   -1.97    4.95
   1   1  30    4.25    7.39
   1  -1  30    4.40    7.04
  -1  -1  30    6.72    4.75
  -1   1  30    3.68    6.13
  -1  -1  31    8.69    5.88
   1   1  31    7.34    6.29
   1  -1  31   11.50    9.14
  -1   1  31    6.30    5.42
   1   1  32   22.94   10.77
  -1   1  32   26.82   10.91
   1  -1  32   22.85    9.57
  -1  -1  32   17.01    7.92
   1  -2   0    2.54    1.11
   1   2   1  124.33    6.99
   1  -2  -1  127.85    8.82
  -1  -2   1  113.14    6.22
   1  -2   1  129.58    9.11
   1   2   2  416.26   14.24
   1  -2   2  489.02   18.20
  -1   2   2  438.09   16.73
  -1  -2   2  483.43   13.28
   1   2   3 8161.06   68.49
   1  -2   3 7988.17   76.86
  -1   2   3 8059.45   75.94
   1   2   4  336.30   15.37
  -1   2   4  331.36   15.94
  -1  -2   4  331.37   13.32
   1  -2   4  314.76   15.83
   1   2   5 7056.15   76.33
  -1  -2   5 7041.23   68.21
   1  -2   5 7051.85   79.28
  -1   2   5 7161.39   78.02
  -1  -2   6 1015.11   27.70
   1   2   6  944.24   29.45
  -1   2   6  955.91   30.48
   1  -2   6  959.18   30.71
  -1  -2   7  333.76   17.50
   1   2   7  342.40   19.10
  -1   2   7  338.38   18.84
   1  -2   7  361.29   19.44
  -1  -2   8   89.74    9.78
  -1   2   8   80.79    9.35
   1  -2   8   84.25   10.13
   1   2   8   77.82    9.31
   1  -2   9  577.90   26.91
  -1  -2   9  536.62   24.70
   1   2   9  512.90   25.52
  -1   2   9  525.56   25.90
   1  -2  10 2516.23   59.84
   1   2  10 2600.64   60.67
  -1   2  10 2534.83   60.02
  -1  -2  10 2482.55   55.61
  -1  -2  11  180.54   15.96
   1   2  11  186.12   16.82
  -1   2  11  172.47   15.98
   1  -2  11  187.48   17.24
  -1   2  12   38.02    7.81
   1   2  12   35.33    7.34
  -1  -2  12   40.44    7.82
   1  -2  12   32.75    7.43
   1  -2  13  644.55   34.35
  -1  -2  13  678.99   34.05
  -1   2  13  650.97   33.56
   1   2  14   68.87   11.52
   1  -2  14   81.19   12.08
  -1  -2  14   71.86   11.79
  -1   2  14   70.98   11.62
  -1   2  15  519.18   31.64
   1   2  15  470.43   30.75
  -1  -2  15  542.43   32.96
   1  -2  15  473.39   30.34
   1   2  16  164.06   18.53
  -1  -2  16  133.39   16.73
  -1   2  16  127.88   16.28
   1  -2  16  175.57   19.37
   1   2  17   69.25   12.37
  -1   2  17   94.09   14.29
  -1  -2  17   62.53   11.73
   1  -2  17   93.67   15.28
   1   2  18   11.82    5.85
  -1  -2  18   12.22    5.88
   1  -2  18   11.19    4.07
  -1   2  18    5.82    4.58
  -1  -2  19   81.67   13.70
   1  -2  19   90.64   15.51
  -1   2  19   79.65   13.80
   1   2  19   99.71   16.95
   1  -2  20  964.09   51.20
  -1  -2  20  964.73   50.33
  -1   2  20  972.96   49.40
   1   2  20  996.47   50.15
   1   2  21   70.50   13.83
  -1   2  21   83.60   14.27
   1  -2  21   51.25   11.08
  -1  -2  21   87.37   14.94
   1   2  22   45.19   10.96
  -1   2  22   45.08   12.27
   1  -2  22   36.20   10.37
  -1  -2  22   34.67   10.46
   1  -2  23  112.43   17.97
  -1  -2  23   72.29   14.16
  -1   2  23   64.63   13.49
   1   2  23  106.53   17.41
   1  -2  24   11.10    6.18
  -1   2  24   18.45    8.04
  -1  -2  24   24.25    8.43
   1   2  24   26.55    8.89
   1   2  25   13.69    5.78
   1  -2  25    6.33    3.90
  -1  -2  25   13.09    8.11
  -1   2  25   10.10    5.50
   1   2  26   39.66   10.35
  -1  -2  26   36.46   11.63
   1  -2  26   36.76   12.53
  -1   2  26   62.83   14.87
   1  -2  27   93.81   17.93
  -1  -2  27  121.17   19.92
   1   2  27   83.24   16.01
  -1   2  27  104.32   19.43
  -1   2  28    2.75    5.09
   1  -2  28   15.61    6.57
  -1  -2  28    7.25    7.33
   1   2  28    2.30    2.55
   1   2  29    8.72    4.12
  -1   2  29   11.87    5.65
   1  -2  29   -0.89    4.45
  -1  -2  29    3.32    5.99
   1  -2  30   37.01   10.39
  -1  -2  30   39.30   13.00
  -1   2  30   41.35   12.58
  -1  -2  31   21.05    7.83
  -1   2  31   28.65   11.10
   1  -2  31   25.25    8.23
   1   2  31   28.09    9.75
   1   2  32    1.93    5.12
  -1  -2  32   -0.24    3.91
  -1   2  32    3.30    6.68
   1  -2  32    2.70    4.95
   1  -3   0    0.68    1.56
  -1  -3   0    1.08    0.72
   1  -3  -1 1844.95   39.63
  -1  -3   1 1781.16   32.22
   1  -3   1 1807.48   39.32
   1   3   1 1813.69   33.47
   1   3   2  405.22   16.80
   1  -3   2  422.38   19.40
  -1  -3   2  412.67   15.83
  -1   3   3 2560.79   47.80
   1   3   3 2639.01   44.66
   1  -3   3 2533.84   48.24
  -1  -3   3 2563.54   40.62
  -1  -3   4  265.60   13.71
   1   3   4  281.66   15.12
   1  -3   4  284.59   16.86
  -1   3   4  291.45   16.77
   1   3   5  801.79   27.17
   1  -3   5  805.72   28.84
  -1  -3   5  775.15   24.71
  -1   3   5  809.06   29.24
  -1   3   6  507.69   23.95
  -1  -3   6  486.71   20.58
   1  -3   6  484.96   23.35
   1   3   6  446.02   21.60
  -1   3   7   70.21    9.16
  -1  -3   7   75.23    8.83
   1   3   7   73.18    9.38
   1  -3   7   71.10    9.06
   1  -3   8 2582.80   57.09
   1   3   8 2643.26   58.64
  -1   3   8 2589.17   58.23
  -1  -3   8 2662.97   53.79
   1   3   9  249.84   18.41
  -1  -3   9  260.67   17.59
   1  -3   9  248.22   18.41
  -1   3   9  224.00   17.88
  -1   3  10  616.89   30.16
   1  -3  10  637.65   31.54
  -1  -3  10  642.22   29.35
  -1  -3  11   61.21    9.17
   1  -3  11   62.94   10.20
  -1   3  11   68.32   10.70
   1   3  11   57.61    9.63
  -1   3  12  116.25   14.08
   1  -3  12  133.87   14.72
  -1  -3  12  139.19   15.18
   1   3  12  124.00   14.30
   1   3  13    4.00    4.11
  -1   3  13    0.52    1.28
  -1  -3  13    7.92    4.82
   1  -3  13    4.38    3.90
   1  -3  14   98.41   14.30
  -1   3  14   92.23   13.29
   1   3  14  102.98   13.91
  -1  -3  14  100.68   13.69
  -1  -3  15   -2.39    3.63
   1   3  15    1.38    2.67
   1  -3  15    1.03    3.29
  -1   3  15    5.27    4.12
   1  -3  16   -2.21    3.25
  -1   3  16   -1.09    2.46
  -1  -3  16   -2.45    1.80
   1   3  16    4.04    6.22
   1   3  17   22.37    7.18
   1  -3  17   38.37    9.54
  -1  -3  17   49.36   11.18
   1  -3  18   52.42   10.79
  -1  -3  18   50.46   11.23
  -1   3  18   51.56   11.62
   1   3  18   40.98    8.85
  -1   3  19  663.90   41.28
   1  -3  19  623.16   40.37
   1   3  19  571.89   37.57
  -1  -3  19  633.15   40.32
   1  -3  20  111.38   17.84
   1   3  20  116.03   16.55
  -1  -3  20  113.46   17.48
  -1   3  20   90.53   16.14
  -1  -3  21  157.54   21.00
   1   3  21  163.14   20.56
  -1   3  21  153.58   21.12
   1  -3  21  195.61   24.55
  -1   3  22   37.79   10.45
   1  -3  22   25.44   10.79
  -1  -3  22   35.18   11.18
   1   3  22   20.74    8.20
  -1  -3  23   46.23   11.57
  -1   3  23   52.23   12.55
   1  -3  23   40.44   10.73
   1   3  23   56.85   12.97
   1  -3  24    0.33    3.01
   1   3  24   -4.22    5.76
  -1   3  24    4.07    5.92
  -1  -3  24   -3.84    3.97
  -1   3  25   41.94   12.26
   1   3  25   33.20   10.01
   1  -3  25   35.43   10.86
  -1  -3  25   30.90    9.52
  -1  -3  26   13.40    5.35
   1  -3  26   24.37   10.21
   1   3  26   16.21    7.84
  -1   3  26   19.02    8.75
   1   3  27    1.84    3.11
  -1   3  27    9.89    7.22
  -1  -3  27    3.75    3.61
   1  -3  27    3.92    2.87
   1   3  28    1.27    4.09
   1  -3  28    3.73    7.23
  -1   3  28   12.26    6.93
  -1  -3  28   -0.63    6.22
  -1   3  29   -1.01    5.32
  -1  -3  29    4.94    4.21
   1  -3  29    1.62    7.02
   1   3  29    3.33    5.71
  -1  -3  30   -3.35    7.07
   1   3  30    2.16    7.29
  -1   3  30   -2.78    2.91
   1  -3  30   -2.09    5.81
  -1   3  31   15.96    7.95
  -1  -3  31   21.36   10.60
   1   3  31   31.19   10.93
   1  -3  31   19.38    6.59
   1   3  32    6.19    4.86
  -1   3  32    4.91    6.88
   1  -3  32    4.00    6.67
  -1  -3  32    6.31    5.68
   1  -4   0   -3.20    2.71
  -1  -4   0   -1.06    1.78
   1  -4  -1   11.90    2.93
   1  -4   1   11.35    3.04
  -1  -4   1   12.91    3.31
   1  -4  -2 2040.28   47.58
   1  -4   2 1996.31   47.32
  -1  -4   2 2071.24   41.94
   1   4   2 2078.36   42.78
  -1  -4   3   39.24    5.81
   1   4   3   37.22    5.90
   1  -4   3   31.74    5.75
  -1   4   4  705.28   28.31
   1  -4   4  749.75   29.49
  -1  -4   4  683.58   25.40
   1   4   4  713.53   26.79
  -1  -4   5  894.40   29.32
   1  -4   5  951.00   34.40
   1   4   5  900.33   31.30
  -1   4   5  948.43   34.16
  -1   4   6  473.22   24.66
   1   4   6  488.76   23.85
  -1  -4   6  458.38   21.67
   1  -4   6  469.33   24.86
   1   4   7 1061.59   37.20
  -1   4   7 1022.32   37.27
  -1  -4   7 1094.94   35.12
   1  -4   7 1141.12   39.72
   1  -4   8 1828.05   50.95
  -1  -4   8 1824.74   47.12
   1   4   8 1882.16   50.85
  -1   4   8 1834.73   51.77
   1  -4   9 1647.66   50.07
  -1   4   9 1564.97   49.82
  -1  -4   9 1489.76   44.64
   1   4   9 1665.95   49.33
  -1   4  10  500.68   28.67
   1   4  10  452.78   27.05
   1  -4  10  514.01   28.55
  -1  -4  10  434.98   25.41
   1  -4  11    4.05    2.96
  -1   4  11    5.86    3.24
   1   4  11    5.42    2.96
  -1  -4  11    5.55    2.72
  -1  -4  12   94.65   12.20
  -1   4  12   80.44   12.43
   1  -4  12   77.63   12.11
   1   4  12   90.35   12.98
   1   4  13   70.54   12.05
   1  -4  13   61.99   11.23
  -1   4  13   61.90   10.71
  -1  -4  13   70.61   11.95
   1   4  14  390.11   27.88
  -1  -4  14  379.65   27.13
  -1   4  14  410.52   28.91
   1  -4  14  386.97   27.69
  -1   4  15   44.60   10.74
   1   4  15   47.02   10.01
  -1  -4  15   24.65    7.40
   1  -4  15   27.33    7.39
  -1  -4  16   35.46    9.07
   1  -4  16   35.40    9.31
   1   4  16   33.83    8.44
  -1   4  16   28.05    7.17
  -1   4  17  312.68   26.94
  -1  -4  17  310.48   26.81
   1  -4  17  304.50   26.53
   1   4  17  320.83   27.75
   1  -4  18  229.21   23.72
  -1   4  18  220.21   23.40
   1   4  18  227.39   23.99
  -1  -4  18  189.99   22.36
   1  -4  19  109.34   16.58
  -1  -4  19  109.10   17.58
   1   4  19  106.24   17.18
  -1   4  19  127.07   17.58
  -1  -4  20    1.29    2.72
   1   4  20    8.04    5.38
  -1   4  20    3.52    1.64
   1  -4  20    4.96    5.60
   1  -4  21  101.42   16.42
  -1  -4  21   78.75   15.21
  -1   4  21   84.68   14.53
   1   4  21   73.51   14.49
   1  -4  22   53.56   12.90
   1   4  22   40.59   10.38
  -1  -4  22   53.50   13.85
  -1   4  22   59.03   12.66
   1   4  23  228.36   25.88
   1  -4  23  308.86   30.76
  -1  -4  23  208.99   25.58
  -1   4  23  305.77   30.08
  -1  -4  24    1.61    4.17
   1  -4  24    3.49    4.19
   1   4  24   -4.40    3.01
  -1   4  24   -0.35    2.69
  -1  -4  25    1.17    2.65
  -1   4  25   -6.53    6.86
   1  -4  25    0.93    3.37
   1   4  25   -5.72    5.93
   1   4  26   31.27   10.13
   1  -4  26   26.11    9.28
  -1  -4  26   23.97   10.71
  -1   4  26   16.80    7.92
   1  -4  27   43.32   12.84
  -1   4  27   32.63   11.02
   1   4  27   19.66    7.78
  -1  -4  27   34.98   11.30
   1   4  28   -3.68    4.07
   1  -4  28    6.04    8.82
  -1   4  28   -2.20    6.50
  -1  -4  28   -1.29    4.49
   1   4  29    7.39    7.52
  -1   4  29    1.66    3.24
   1  -4  29   10.72    7.71
  -1  -4  29   -4.65    5.96
  -1  -4  30   40.40   11.73
  -1   4  30   28.36   12.91
   1  -4  30   19.36    5.41
   1   4  30   15.28    8.58
   1  -4  31   29.18   11.65
   1   4  31   19.91   10.23
  -1  -4  31   19.68   10.51
  -1   4  31   24.78   10.64
  -1  -5   0    1.53    2.40
   1  -5   0   -2.42    2.80
  -1  -5  -1  694.39   27.22
  -1  -5   1  694.58   27.13
   1  -5  -1  681.63   30.09
   1  -5   1  673.99   29.84
   1  -5   2    8.56    4.27
  -1  -5   2    2.24    1.80
   1  -5  -2    4.16    3.04
  -1  -5   3   30.11    6.09
   1   5   3   26.53    5.87
   1  -5   3   30.88    6.42
   1   5   4   73.25    9.72
  -1  -5   4   90.04   10.24
   1  -5   4   77.52   10.47
  -1  -5   5   79.88    9.68
  -1   5   5   63.76    9.93
   1   5   5   73.60   10.79
   1  -5   5   73.70   10.24
  -1   5   6   93.76   11.77
   1  -5   6   73.85   10.66
  -1  -5   6   69.47    9.56
   1   5   6   73.09    9.71
   1  -5   7    2.05    2.76
  -1   5   7    6.46    3.65
   1   5   7    1.04    3.28
  -1  -5   7    0.25    2.52
   1  -5   8  678.22   32.77
  -1   5   8  681.71   33.49
  -1  -5   8  679.87   30.81
   1   5   8  618.07   31.32
   1   5   9 1027.43   41.08
  -1  -5   9 1047.19   38.84
  -1   5   9 1071.05   42.62
   1  -5   9 1129.34   43.05
   1  -5  10   -1.46    3.57
   1   5  10    2.80    4.49
  -1  -5  10    2.38    2.91
  -1   5  10    0.65    2.31
   1  -5  11  128.98   15.17
   1   5  11  119.62   14.36
  -1   5  11  120.31   14.87
  -1  -5  11  136.92   15.33
   1   5  12    1.48    1.64
   1  -5  12    6.11    3.74
  -1   5  12    5.39    1.90
  -1  -5  12    3.30    2.78
  -1  -5  13   46.80    9.86
   1   5  13   64.44   11.54
   1  -5  13   50.92    9.76
  -1   5  13   56.74   10.70
  -1   5  14  172.18   19.39
  -1  -5  14  158.87   17.57
   1  -5  14  174.27   20.23
   1   5  14  209.12   20.88
  -1  -5  15  101.09   15.16
  -1   5  15  104.45   15.86
   1   5  15  108.40   15.34
   1  -5  15  121.77   16.71
   1  -5  16   54.84   11.26
   1   5  16   85.20   13.15
  -1  -5  16   90.15   14.90
  -1   5  16   83.81   14.64
  -1  -5  17   23.10    6.78
   1  -5  17   38.31    9.59
  -1   5  17   48.70   11.53
   1   5  17   35.93    9.53
  -1   5  18    0.95    3.39
   1   5  18    0.17    2.35
  -1  -5  18    3.68    5.99
   1  -5  18    4.82    6.59
  -1  -5  19   41.50   10.84
   1  -5  19   45.86   11.75
  -1   5  19   42.57   10.83
   1   5  19   36.29   10.70
  -1   5  20   61.80   13.51
   1  -5  20   64.85   13.84
   1   5  20   70.71   13.97
  -1  -5  20   69.47   14.11
   1  -5  21   61.07   12.76
   1   5  21   44.89   11.25
  -1  -5  21   59.50   13.43
  -1   5  21   55.99   12.37
   1   5  22   15.36    6.93
  -1   5  22   24.94    7.10
   1  -5  22   19.78    8.45
  -1  -5  22   27.62   10.09
   1   5  23   17.66    5.62
   1  -5  23   24.71    9.51
  -1  -5  23   24.90    7.92
  -1   5  23   42.49   11.92
   1  -5  24   -1.68    3.98
   1   5  24    6.42    5.73
  -1   5  24   -4.64    6.17
  -1  -5  24    4.47    6.43
   1  -5  25    3.31    3.52
  -1  -5  25    5.64    2.64
   1   5  25    1.18    4.51
  -1   5  25    8.12    7.20
   1   5  26   28.13    9.97
   1  -5  26   30.05   10.16
  -1  -5  26   24.05    8.84
  -1   5  26    7.95    3.11
  -1  -5  27   11.36    8.14
  -1   5  27    0.45    4.29
   1  -5  27    0.58    3.14
   1   5  27    1.53    2.15
  -1  -5  28    0.11    4.78
   1  -5  28   -2.03    5.77
  -1   5  28   -5.65    7.44
   1   5  28   -4.05    5.55
   1  -5  29   18.34    7.47
   1   5  29   17.91    6.31
  -1   5  29   13.12    9.42
  -1  -5  30    8.46    7.49
   1   5  30   15.75    8.12
   1  -5  30   19.48   10.84
  -1   5  30   18.11   10.10
  -1  -5  31   12.92    8.86
   1  -5  31   16.86    8.48
   1   5  31   17.83    6.91
  -1   5  31   26.69   10.70
   1  -6   0    0.57    2.34
  -1  -6   0    0.98    2.91
  -1  -6  -1 2025.33   51.73
   1  -6  -1 1934.85   55.40
  -1  -6   1 1982.78   51.12
   1  -6   1 2040.47   56.07
   1  -6   2   41.21    8.80
  -1  -6   2   35.77    6.76
  -1  -6  -2   26.13    6.10
   1  -6  -2   35.69    7.52
  -1  -6   3  507.79   26.18
   1  -6  -3  491.26   27.85
   1  -6   3  499.89   28.05
   1   6   4   38.27    7.15
   1  -6   4   45.01    8.20
  -1  -6   4   40.72    7.99
   1  -6   5 1278.89   45.52
   1   6   5 1339.66   44.56
  -1  -6   5 1335.58   43.46
  -1  -6   6   45.82    8.74
  -1   6   6   46.09    8.06
   1  -6   6   37.25    8.44
   1   6   6   34.81    6.87
  -1  -6   7  296.76   21.03
   1   6   7  242.83   20.10
   1  -6   7  253.81   20.86
  -1   6   7  229.94   19.85
  -1   6   8  154.19   16.62
   1   6   8  181.83   17.69
   1  -6   8  152.54   16.24
  -1  -6   8  163.42   16.04
  -1   6   9  668.05   35.76
   1  -6   9  667.33   35.13
   1   6   9  608.79   32.90
  -1  -6   9  616.66   31.50
   1  -6  10  174.05   17.99
  -1  -6  10  143.97   15.94
   1   6  10  145.89   16.04
  -1   6  10  160.30   17.45
  -1  -6  11  404.29   26.51
  -1   6  11  331.37   25.78
   1  -6  11  387.00   27.49
   1   6  11  431.88   29.25
   1  -6  12  459.57   30.54
  -1  -6  12  448.20   29.32
   1   6  12  454.85   30.96
  -1   6  12  430.33   30.19
   1   6  13  257.90   23.39
   1  -6  13  246.41   22.77
  -1   6  13  241.20   22.79
  -1  -6  13  249.48   22.34
   1  -6  14   21.28    7.53
   1   6  14   38.18    8.77
  -1   6  14   35.44    8.14
  -1  -6  14   34.39    8.83
  -1   6  15  203.32   21.86
   1   6  15  157.24   19.69
  -1  -6  15  177.97   20.05
   1  -6  15  198.88   22.47
   1  -6  16   10.40    4.95
  -1  -6  16    5.33    4.79
   1   6  16    6.89    4.38
  -1   6  16   14.68    6.28
   1   6  17   -1.07    3.21
   1  -6  17    1.46    2.90
  -1  -6  17   -0.15    3.99
  -1   6  17    2.64    3.82
  -1   6  18   34.48    9.94
  -1  -6  18   21.05    7.37
   1   6  18   31.73    9.22
   1  -6  18   21.44    8.74
   1  -6  19    3.65    5.03
  -1  -6  19   -0.06    2.24
  -1   6  19   -0.60    3.58
   1   6  19    0.55    4.34
   1  -6  20  171.11   21.98
   1   6  20  144.15   20.37
  -1  -6  20  171.84   21.47
  -1   6  20  169.55   21.31
  -1  -6  21   -3.57    5.54
  -1   6  21    4.42    2.12
   1   6  21   -3.63    3.41
   1  -6  21    0.28    1.95
  -1   6  22  161.51   22.16
  -1  -6  22  127.30   19.92
   1  -6  22  122.00   19.21
   1   6  22  130.03   19.79
  -1  -6  23   11.48    2.68
   1   6  23   12.42    7.74
  -1   6  23   17.45    7.57
   1  -6  23   12.47    7.17
   1   6  24   23.49    8.32
  -1  -6  24   44.37   12.72
   1  -6  24   43.96   11.98
  -1   6  24   42.58   12.42
  -1  -6  25    1.23    3.55
  -1   6  25   12.22    6.65
   1   6  25    2.05    2.13
   1  -6  25    2.30    7.03
  -1   6  26   14.36    7.76
   1   6  26   10.91    7.31
  -1  -6  26    7.13    2.29
   1  -6  26    8.76    6.26
   1   6  27    3.15    4.78
   1  -6  27   11.44    7.75
  -1  -6  27   17.81    9.00
  -1   6  27    6.14    8.90
   1   6  28   66.03   16.61
  -1   6  28  101.16   18.86
   1  -6  28   79.00   18.01
  -1  -6  28   83.32   17.96
   1   6  29   -3.18    6.38
  -1  -6  29    6.65    5.19
  -1   6  29    1.21    6.60
   1  -6  29    0.86    5.03
   1   6  30   49.51   14.83
  -1   6  30   21.25    7.26
   1  -6  30   43.59   13.02
  -1  -6  30   34.55   11.06
  -1  -7   0    3.32    3.73
   1  -7   0    2.79    3.35
  -1  -7  -1  164.36   15.63
   1  -7   1  161.72   16.89
  -1  -7   1  155.98   15.62
   1  -7  -1  170.07   17.84
  -1  -7   2   15.08    5.39
   1  -7   2   15.26    4.34
   1  -7  -2   16.65    6.92
  -1  -7  -2   14.82    5.62
   1  -7  -3   12.94    5.00
  -1  -7  -3    6.20    2.40
  -1  -7   3    8.97    4.41
  -1  -7   4  178.34   17.05
   1  -7   4  162.00   17.01
   1  -7  -4  155.20   16.38
  -1  -7   5  659.69   32.74
   1  -7   5  602.39   33.45
   1   7   5  641.48   32.80
   1   7   6  201.45   19.24
   1  -7   6  162.18   17.20
  -1  -7   6  213.65   19.08
   1  -7   7    4.13    3.03
  -1   7   7    1.79    2.05
   1   7   7    0.42    1.41
  -1  -7   7    7.58    4.30
  -1  -7   8  140.08   15.60
   1  -7   8  167.49   17.93
  -1   7   8  166.02   18.25
   1   7   8  147.85   16.56
   1   7   9   39.67    7.97
  -1   7   9   48.93   11.55
   1  -7   9   77.26   12.04
  -1  -7   9   51.86    9.93
  -1   7  10  105.75   14.96
   1  -7  10  110.60   15.80
   1   7  10   76.77   12.39
  -1  -7  10  115.89   14.84
  -1   7  11    4.01    3.96
   1   7  11   17.67    7.61
  -1  -7  11   13.27    5.04
   1  -7  11    1.16    2.14
  -1  -7  12    8.19    3.87
   1  -7  12    6.48    4.09
  -1   7  12    8.21    3.96
   1   7  12    1.75    2.78
   1  -7  13  350.77   28.18
   1   7  13  427.33   31.34
  -1  -7  13  349.45   27.17
  -1  -7  14  495.14   33.47
  -1   7  14  561.69   37.39
   1   7  14  551.39   35.59
   1  -7  14  596.10   37.30
   1   7  15    1.97    4.01
   1  -7  15    0.27    3.37
  -1  -7  15   -1.79    4.21
  -1   7  15    6.42    4.87
  -1  -7  16    1.73    1.92
   1  -7  16    0.02    3.81
  -1   7  16    2.73    4.72
   1   7  16   -0.80    2.43
  -1  -7  17  207.87   23.32
   1  -7  17  258.62   25.89
  -1   7  17  215.70   23.96
   1   7  17  218.48   24.95
  -1   7  18   75.27   15.15
  -1  -7  18   56.93   13.45
   1  -7  18   54.81   12.67
   1   7  18   59.98   12.05
   1   7  19  111.87   17.77
  -1  -7  19  108.97   17.67
   1  -7  19  131.43   19.62
  -1   7  19   98.08   17.21
   1   7  20    0.45    5.17
   1  -7  20   11.25    7.28
  -1  -7  20    4.53    4.71
  -1   7  20    2.93    2.32
  -1  -7  21    5.19    4.99
   1   7  21    4.20    5.90
  -1   7  21    6.77    5.98
   1  -7  21    5.29    4.25
  -1   7  22    7.27    5.87
   1   7  22   -0.91    5.08
   1  -7  22    1.15    2.64
  -1  -7  22    3.34    3.96
   1   7  23   53.03   11.43
   1  -7  23   70.90   15.65
  -1  -7  23   56.68   13.16
  -1   7  23   73.90   15.53
  -1   7  24    0.90    5.49
  -1  -7  24    4.95    7.47
   1   7  24    0.41    3.38
   1  -7  24    2.36    5.78
   1  -7  25    4.11    2.55
  -1   7  25    4.23    3.25
  -1  -7  25    6.43    6.35
   1   7  25   -0.18    2.25
  -1  -7  26   13.45    8.90
  -1   7  26   15.54   10.19
   1  -7  26    0.11    6.78
   1   7  26   -0.59    3.66
  -1   7  27   40.86   11.52
  -1  -7  27   37.79   14.39
   1  -7  27   45.81   13.27
   1   7  27   49.39   14.35
  -1  -7  28   46.47   13.18
  -1   7  28   58.00   15.39
   1  -7  28   58.68   15.49
   1   7  28   50.41   15.40
   1   7  29   13.27    7.29
   1  -7  29    6.20    4.98
  -1  -7  29    4.93    5.24
  -1   7  29    5.62    6.66
  -1  -8   0   -0.42    4.00
   1  -8   0   -0.62    1.33
  -1  -8   1  991.16   43.07
   1  -8  -1 1013.42   45.22
   1  -8   1 1042.27   46.06
  -1  -8  -1  995.25   42.98
   1  -8   2  142.91   17.21
  -1  -8   2  111.91   14.23
   1  -8  -2  109.56   14.43
  -1  -8  -2  123.34   15.40
  -1  -8  -3   27.21    7.96
   1  -8  -3   29.47    7.57
  -1  -8   3   30.65    7.12
   1  -8   3   10.92    5.50
   1  -8   4    7.71    3.88
   1  -8  -4    5.79    4.65
  -1  -8   4    4.47    2.53
  -1  -8  -4   11.25    4.77
  -1  -8   5  983.11   42.64
   1  -8  -5 1007.78   46.04
   1  -8   5  983.41   45.22
   1  -8   6   37.90    8.95
  -1  -8   6   38.10    8.63
   1   8   7  302.56   24.69
  -1  -8   7  295.67   24.12
   1  -8   7  277.59   24.35
   1   8   8   18.23    6.44
  -1  -8   8   26.04    7.59
   1  -8   8   11.85    2.73
   1   8   9 1783.35   62.09
  -1  -8   9 1775.77   61.02
   1  -8   9 1780.11   62.69
  -1   8   9 1758.39   62.65
   1  -8  10   46.53   10.81
   1   8  10   55.25   10.99
  -1   8  10   36.99    8.46
  -1  -8  10   46.97   10.56
   1   8  11   31.30    9.43
  -1  -8  11   28.51    8.39
   1  -8  11   29.25    7.66
  -1   8  11   25.20    6.81
   1   8  12  249.51   25.02
  -1   8  12  272.94   25.28
   1  -8  12  224.35   23.22
  -1  -8  12  234.00   22.71
  -1   8  13   94.04   15.57
   1   8  13   95.29   15.10
  -1  -8  13  122.00   16.55
   1  -8  13  125.63   17.75
  -1   8  14    1.94    3.63
   1  -8  14    2.29    2.58
  -1  -8  14    6.17    4.28
   1   8  14   10.96    4.68
  -1  -8  15   87.93   15.19
   1  -8  15   95.93   15.64
  -1   8  15   92.29   16.46
   1   8  15   74.58   14.72
   1   8  16    3.25    1.97
  -1  -8  16    5.25    6.21
  -1   8  16   -3.08    6.29
   1  -8  16    5.10    4.62
  -1   8  17  174.22   23.27
   1   8  17  148.71   20.37
   1  -8  17  167.72   22.03
  -1  -8  17  156.20   20.73
   1   8  18    2.12    4.04
   1  -8  18    1.58    1.92
  -1  -8  18   12.84    7.15
  -1   8  18    4.83    5.50
   1  -8  19  242.25   26.75
  -1  -8  19  288.93   29.31
   1   8  19  302.43   30.38
  -1   8  19  298.00   29.81
   1  -8  20    6.72    7.22
   1   8  20   -0.19    5.49
  -1  -8  20   -7.11    6.07
  -1   8  20   -1.25    3.15
   1  -8  21   80.99   16.22
  -1   8  21   78.16   15.87
   1   8  21   76.07   14.75
  -1  -8  21   92.23   16.50
   1  -8  22    6.72    3.47
   1   8  22   17.77    7.55
  -1  -8  22    9.12    7.49
  -1   8  22    4.66    3.58
  -1   8  23  103.37   18.61
   1   8  23  122.39   21.33
   1  -8  23   96.63   18.31
  -1  -8  23  115.34   19.23
   1   8  24    0.18    3.00
  -1   8  24   -2.70    4.80
  -1  -8  24    3.34    6.15
   1  -8  24    7.70    8.91
  -1   8  25   21.33    9.40
   1  -8  25   28.40    9.40
   1   8  25   17.88    9.38
  -1  -8  25   16.71    9.93
   1  -8  26    2.16    4.99
  -1  -8  26    1.30    3.51
   1   8  26   -0.88    3.89
  -1   8  26   -3.46    6.03
  -1  -8  27  125.46   24.05
   1   8  27  138.01   22.72
   1  -8  27   87.02   19.18
  -1   8  27  140.54   22.35
  -1   8  28    2.83    4.12
  -1  -8  28    0.55    3.71
   1   8  28    2.61    2.81
   1  -8  28    0.83    5.01
  -1  -9   0    0.49    2.91
   1  -9   0    1.45    3.48
  -1  -9   1   37.58    9.88
   1  -9   1   28.76    7.94
  -1  -9  -1   33.76    7.49
   1  -9  -1   37.34    9.58
   1  -9   2   80.98   13.41
  -1  -9   2  144.59   17.72
   1  -9  -2  117.41   16.40
  -1  -9  -2  114.92   15.77
  -1  -9   3  153.41   18.44
   1  -9  -3  147.38   18.74
   1  -9   3  202.27   21.07
  -1  -9  -3  166.04   19.30
  -1  -9   4   45.76   10.40
   1  -9   4   68.12   11.92
   1  -9  -4   55.05   10.94
  -1  -9  -4   50.65   10.43
   1  -9   5    8.48    5.44
  -1  -9   5   10.67    4.69
  -1  -9  -5   15.83    7.05
   1  -9  -5    9.06    4.49
  -1  -9   6  102.22   14.43
   1  -9  -6   74.90   13.40
   1  -9   6   83.47   13.46
   1  -9   7    1.95    2.74
   1  -9  -7    2.92    2.22
  -1  -9   7   -1.71    3.85
  -1  -9   8   25.46    7.91
   1  -9   8   16.68    6.25
   1  -9   9 1411.86   57.35
  -1  -9   9 1430.49   56.96
   1   9   9 1449.71   58.61
  -1  -9  10   48.59   11.17
   1  -9  10   49.39   10.30
   1   9  10   31.45    8.35
  -1   9  11   67.55   14.54
   1  -9  11   34.78    8.81
  -1  -9  11   44.25   10.37
   1   9  11   43.32   10.57
  -1  -9  12    6.84    4.73
   1  -9  12    2.67    3.87
   1   9  12    9.30    6.21
  -1   9  12    8.08    5.00
   1  -9  13    4.76    3.14
   1   9  13   10.39    5.46
  -1  -9  13    8.08    4.86
  -1   9  13   14.09    4.46
   1  -9  14    6.34    3.55
  -1   9  14   11.94    6.47
   1   9  14   14.89    5.43
  -1  -9  14   12.27    4.44
   1  -9  15   52.87   11.73
  -1  -9  15   37.37   10.66
  -1   9  15   53.95   12.29
   1   9  15   29.68    8.82
  -1  -9  16   88.09   17.19
  -1   9  16  115.53   18.64
   1  -9  16   96.80   17.10
   1   9  16   80.40   15.28
  -1   9  17   14.05    8.47
  -1  -9  17   14.39    6.69
   1  -9  17    5.31    4.28
   1   9  17   11.13    7.46
  -1  -9  18   43.89   12.13
   1  -9  18   53.56   14.20
  -1   9  18   33.14   10.95
   1   9  18   50.98   12.67
   1   9  19   51.84   13.47
  -1   9  19   29.03   10.08
   1  -9  19   58.31   13.42
  -1  -9  19   57.79   13.93
   1  -9  20    4.08    6.91
  -1   9  20   13.68    4.71
  -1  -9  20   22.90    7.44
  -1   9  21   64.26   15.15
   1  -9  21   67.87   16.06
  -1  -9  21   64.54   15.39
   1   9  21   73.06   15.98
  -1  -9  22   15.18    8.70
   1   9  22   15.12    7.87
   1  -9  22   16.85    8.04
  -1   9  22   20.68    8.94
   1  -9  23    1.81    3.57
  -1  -9  23   -0.57    5.16
   1   9  23    4.30    3.62
  -1   9  23   -0.29    6.96
   1  -9  24   27.11   10.30
   1   9  24   12.73    6.51
  -1  -9  24   18.74    7.55
  -1   9  24   14.57    7.56
   1   9  25    0.77    4.86
   1  -9  25   -0.83    4.69
  -1  -9  25    4.89    7.73
  -1   9  25   -1.59    2.60
   1   9  26    3.60    6.27
   1  -9  26    7.61    7.04
  -1  -9  26   -4.14    7.90
  -1   9  26    0.84    3.30
  -1   9  27   35.62   13.45
  -1  -9  27   43.85   15.45
   1   9  27   39.46   12.87
   1  -9  27   38.65   12.76
   1 -10   0   -0.10    2.27
  -1 -10   0   -1.98    2.69
   1 -10   1  126.79   18.14
  -1 -10  -1  104.48   15.38
  -1 -10   1   99.93   14.97
   1 -10  -1   96.94   15.64
   1 -10  -2   39.12    9.85
  -1 -10  -2   56.73   11.89
   1 -10   2   39.04    9.59
  -1 -10   2   46.78   10.76
   1 -10   3  277.69   26.71
  -1 -10   3  257.49   24.75
  -1 -10  -3  248.40   24.31
   1 -10  -3  253.98   24.66
  -1 -10   4   17.42    7.88
   1 -10   4    8.17    5.46
  -1 -10  -4   14.19    6.10
   1 -10  -4   10.55    5.24
   1 -10  -5  250.65   25.19
   1 -10   5  240.40   24.61
  -1 -10   5  251.42   24.39
  -1 -10  -5  227.75   23.37
   1 -10   6  164.45   20.62
  -1 -10   6  197.57   21.47
  -1 -10  -6  190.64   20.98
   1 -10  -6  207.05   23.69
   1 -10  -7  135.85   18.72
  -1 -10   7  133.97   18.23
  -1 -10  -7  119.38   17.07
   1 -10   7  103.81   16.75
   1 -10  -8   74.66   13.43
   1 -10   8   71.55   14.01
  -1 -10   8   77.50   13.88
   1 -10   9  118.66   18.02
  -1 -10   9   72.82   13.06
   1 -10  10  504.41   36.63
  -1 -10  10  506.25   35.68
  -1 -10  11   18.22    7.50
   1 -10  11   38.89   11.94
   1  10  11   25.84    8.95
  -1 -10  12   88.38   15.54
   1 -10  12   87.04   15.51
   1  10  12   95.91   16.10
  -1  10  13   87.31   15.30
   1  10  13  107.07   17.28
   1 -10  13   79.53   15.03
  -1 -10  13   86.10   15.56
  -1  10  14   12.20    8.25
   1 -10  14   13.26    8.76
  -1 -10  14   13.22    6.01
   1  10  14   -2.60    5.45
   1  10  15   -0.14    2.25
   1 -10  15    0.82    4.21
  -1 -10  15    6.33    5.81
  -1  10  15   -1.40    3.17
   1  10  16  108.66   18.41
  -1 -10  16  147.27   21.29
   1 -10  16  122.72   19.65
  -1  10  16  133.61   20.63
   1 -10  17   23.69    9.75
  -1 -10  17   21.29    8.91
   1  10  17   48.93   12.62
  -1  10  17   25.44    9.36
  -1 -10  18   16.42    8.04
  -1  10  18   10.12    6.74
   1 -10  18   17.77    7.59
   1  10  18   15.01    7.11
  -1  10  19   -0.02    4.77
  -1 -10  19   16.76    7.72
   1  10  19    3.74    3.81
   1 -10  19   13.42    8.81
   1  10  20  173.93   24.29
   1 -10  20  134.10   22.15
  -1 -10  20  178.53   25.60
  -1  10  20  166.86   23.87
   1 -10  21   -1.01    2.58
  -1 -10  21    0.83    3.27
  -1  10  21   10.12    6.71
   1  10  21   11.12    8.78
   1  10  22   22.12    8.56
  -1  10  22   34.34    9.93
  -1 -10  22   16.70    9.30
   1 -10  22    7.03    3.79
  -1  10  23   -3.95    6.25
  -1 -10  23   -1.21    6.52
   1 -10  23    3.58    3.25
   1  10  23    7.45    5.69
   1 -10  24   45.78   12.00
   1  10  24   35.59   11.20
  -1 -10  24   36.98   12.24
  -1  10  24   38.09   12.52
  -1  10  25    6.26    7.81
   1 -10  25    2.96    2.78
  -1 -10  25   10.04   11.51
   1  10  25    8.48    7.34
  -1 -11   0    8.58    6.40
   1 -11   0    3.47    4.78
   1 -11  -1    0.59    4.04
  -1 -11  -1    2.48    2.97
   1 -11   1    3.98    5.72
  -1 -11   1    3.29    4.10
  -1 -11  -2    1.01    4.19
  -1 -11   2   11.35    5.00
   1 -11   2    4.10    3.76
   1 -11  -2    9.63    5.77
   1 -11  -3   43.34   11.40
  -1 -11   3   38.47    9.57
   1 -11   3   58.48   12.55
  -1 -11  -3   73.66   13.16
  -1 -11   4   37.87    9.74
   1 -11   4   38.89   11.39
   1 -11  -4   52.58   12.91
  -1 -11  -4   50.73   12.77
   1 -11  -5   -3.16    4.20
  -1 -11   5    2.23    3.86
   1 -11   5    6.09    4.90
  -1 -11  -5    6.75    6.12
  -1 -11   6   13.57    6.29
  -1 -11  -6   10.98    5.88
   1 -11   6   10.77    5.98
   1 -11  -6    2.75    5.10
   1 -11  -7   45.73   11.28
  -1 -11  -7   37.97    9.45
   1 -11   7   29.30    9.26
  -1 -11   7   25.40    8.84
  -1 -11   8  181.13   21.47
   1 -11   8  186.84   22.77
   1 -11  -8  158.67   21.15
  -1 -11  -8  168.34   21.53
  -1 -11   9   14.65    6.48
   1 -11  -9   12.01    6.07
   1 -11   9    4.40    5.16
  -1 -11  -9    3.97    2.08
   1 -11 -10  205.24   24.86
   1 -11  10  202.36   23.42
  -1 -11  10  201.80   24.54
   1 -11 -11   16.37    6.10
  -1 -11  11    5.84    4.62
   1 -11  11   24.65   11.11
   1 -11  12   58.22   12.85
  -1 -11  12   65.71   14.65
   1 -11  13    3.00    4.36
  -1 -11  13   18.83    8.48
   1  11  13   12.05    5.67
   1  11  14    1.18    2.31
   1 -11  14    0.17    2.56
   1 -11  15    1.01    6.02
  -1 -11  15    3.19    3.07
   1  11  15    2.89    4.04
   1 -11  16    9.32    5.28
   1  11  16   10.67    5.84
  -1  11  16    6.37    2.28
  -1 -11  16    8.32    5.80
  -1  11  17   28.17   10.95
   1  11  17   16.60    8.97
   1 -11  17   13.37    7.38
  -1 -11  17   22.74    8.71
   1 -11  18   -1.88    5.20
  -1  11  18    8.67    7.16
  -1 -11  18   -0.50    4.97
   1  11  18    5.89    4.81
   1 -11  19   36.28   12.27
  -1 -11  19   20.60    8.51
   1  11  19   42.15   12.51
  -1  11  19   26.12   10.16
  -1  11  20   23.33    7.97
   1  11  20    7.45    4.64
  -1 -11  20   26.08    8.92
   1 -11  20   10.18    7.22
  -1 -11  21   13.90   10.05
   1  11  21    8.19    5.78
   1 -11  21   12.42    7.71
  -1  11  21   10.77    8.89
  -1  11  22   -1.49    5.98
   1  11  22   -2.02    5.80
   1 -11  22   -4.66    5.08
   1  11  23    7.43    5.61
   1 -11  23    6.01    6.46
  -1  11  23   13.26    6.36
   1 -11  24   -3.36    7.82
   1  11  24  -10.80    9.04
  -1  11  24    7.02    3.53
   1 -12   0   -2.05    4.96
  -1 -12   0   -1.14    3.06
   1 -12  -1   -3.30    4.74
  -1 -12  -1    6.47    6.89
   1 -12   1    3.61    6.78
  -1 -12   1    1.29    5.23
  -1 -12   2   64.77   13.23
   1 -12  -2   51.42   12.09
  -1 -12  -2   64.16   14.58
   1 -12   2   42.51   11.42
   1 -12   3   -0.16    3.52
  -1 -12   3    4.40    3.17
  -1 -12   4    1.09    3.74
   1 -12   4   -3.02    5.34
  -1 -12  -4    0.61    2.65
   1 -12  -4    2.90    3.32
   1 -12   5    1.35    3.37
   1 -12  -5   13.47    5.15
  -1 -12  -5    6.54    3.31
  -1 -12   5   14.85    6.67
  -1 -12   6    4.01    3.65
  -1 -12  -6    2.78    2.04
   1 -12  -6    2.06    4.32
   1 -12  -7   13.98    7.61
  -1 -12  -7   24.20    9.01
  -1 -12   7   17.24    6.75
   1 -12   7   17.44    6.09
  -1 -12   8   42.40   12.19
   1 -12  -8   43.02   12.21
  -1 -12  -8   31.81   10.03
   1 -12   8   38.32   10.26
  -1 -12  -9  104.23   17.68
  -1 -12   9   97.05   16.98
   1 -12   9   98.90   16.78
   1 -12  -9   85.17   16.49
  -1 -12 -10    1.20    3.11
   1 -12 -10   12.04    7.81
  -1 -12  10   14.06    6.76
   1 -12  10   18.02    7.25
   1 -12  11    2.58    2.82
  -1 -12 -11   11.54    6.25
  -1 -12  11    3.85    4.45
   1 -12 -11   -1.83    4.02
   1 -12  12   10.32    7.20
   1 -12 -12    7.74    4.48
  -1 -12  12   12.15    7.70
  -1 -12  13  129.64   19.80
   1 -12  13  180.27   24.25
   1 -12 -13  169.35   22.85
  -1 -12  14    7.14    8.60
   1 -12  14   -2.26    3.01
  -1 -12  15    4.79    5.53
   1 -12  15   -3.23    4.41
   1  12  16   67.01   14.24
  -1 -12  16   47.97   12.19
   1 -12  16   55.46   12.43
   1 -12  17   23.17    9.63
  -1 -12  17   14.53    7.81
   1  12  17   21.71    8.64
   1 -12  18   18.85    8.88
   1  12  18    8.43    6.62
  -1 -12  18    1.85    5.51
   1  12  19   52.92   13.72
   1 -12  19   60.10   15.06
   1  12  20   -2.64    6.35
  -1  12  20    8.45    9.38
   1 -12  20    1.29    3.36
   1 -12  21    7.03    9.41
  -1  12  21   10.92    8.60
   1  12  21   -1.55    4.67
   1  12  22    5.37    6.67
  -1  12  22   -1.47    4.67
   1 -12  22   -0.68    2.88
   1 -13   0    0.27    4.24
  -1 -13   0    0.07    5.10
   1 -13   1   51.99   13.46
  -1 -13  -1   38.04   11.23
   1 -13  -1   48.58   12.12
  -1 -13   1   29.71    9.16
   1 -13  -2    6.02    2.14
  -1 -13   2   11.71    6.73
  -1 -13  -2   18.40    7.12
   1 -13   2   10.65    4.30
  -1 -13  -3    4.53    3.65
   1 -13   3   33.06    9.12
  -1 -13   3   22.62    7.94
   1 -13  -3   19.89    8.41
   1 -13   4   38.73    9.74
  -1 -13  -4   42.31   11.65
   1 -13  -4   59.81   16.06
  -1 -13   4   56.40   13.16
   1 -13  -5    8.74    8.40
   1 -13   5    1.03    2.30
  -1 -13  -5   12.04    5.40
  -1 -13   5    1.02    3.75
   1 -13   6    6.90    7.39
  -1 -13   6    5.65    7.73
  -1 -13  -6    2.79    3.86
   1 -13  -6    9.22    8.99
   1 -13   7    7.84    3.63
  -1 -13  -7   16.89    7.59
  -1 -13   7    3.42    4.28
   1 -13  -7   16.96    8.41
  -1 -13   8    5.07    5.77
   1 -13  -8   -0.67    6.25
  -1 -13  -8    2.10    4.72
   1 -13   8   13.90    9.88
   1 -13  -9   76.90   16.62
   1 -13   9   86.09   16.91
  -1 -13   9   70.61   14.92
  -1 -13  -9   46.34   12.11
  -1 -13  10    7.75    7.04
   1 -13 -10    9.78    5.76
   1 -13  10    5.10    5.48
  -1 -13 -10   -4.69    4.53
  -1 -13 -11    5.53    7.28
   1 -13 -11   -0.42    4.66
  -1 -13  11    1.38    4.01
   1 -13  11   -1.44    3.67
  -1 -13  12   36.28   11.20
   1 -13  12   23.34   10.28
  -1 -13 -12   17.74    7.73
   1 -13 -12   38.61   11.61
   1 -13 -13    4.01    7.99
  -1 -13  13    2.41    3.14
   1 -13  13   -0.66    2.89
  -1 -13 -13    2.51    7.53
  -1 -13  14   11.49    6.30
   1 -13  14   30.36   11.14
   1 -13 -14   15.09    6.53
  -1 -13 -14   13.15    5.82
   1 -13  15   53.77   12.86
   1 -13 -15   72.82   16.29
  -1 -13  15   86.94   18.48
   1 -13  16    1.13    4.16
   1 -13 -16    5.75    6.89
   1 -13  17   12.75    7.68
   1 -13  18   -0.23    2.68
   1 -13  19   11.93    6.86
   1 -13  20   -2.28    7.11
  -1 -14   0   -4.08    7.26
   1 -14   0   -1.22    5.97
   1 -14  -1   21.39    8.72
  -1 -14   1   18.44    7.27
   1 -14   1   19.46    8.65
  -1 -14  -1   14.15    8.49
  -1 -14   2   20.79    9.15
   1 -14   2   29.90   12.70
   1 -14  -2   15.78    7.18
  -1 -14  -2   35.23   12.62
  -1 -14  -3   -3.14    7.16
   1 -14   3   13.05    4.23
   1 -14  -3   11.69    4.68
  -1 -14   3   19.41    7.69
  -1 -14   4   -0.84    5.75
   1 -14  -4    5.43    5.75
  -1 -14  -4    7.83    6.83
   1 -14   4    5.92    2.44
   1 -14  -5   86.46   16.80
  -1 -14  -5   63.29   14.07
  -1 -14   5   71.99   15.78
   1 -14   5   60.10   13.49
  -1 -14   6  112.69   19.12
   1 -14  -6   78.32   16.60
  -1 -14  -6   84.59   17.03
   1 -14   6   55.28   13.13
   1 -14   7   -0.94    3.94
  -1 -14   7    1.39    3.94
  -1 -14  -7    0.95    5.06
   1 -14  -7    0.81    3.60
   1 -14  -8    9.61    6.28
  -1 -14  -8   11.22    8.81
  -1 -14   8    3.00    4.71
   1 -14   8   -5.74    6.90
   1 -14  -9   26.89    9.26
  -1 -14  -9    1.74    2.85
  -1 -14   9   21.59    7.50
   1 -14   9   30.77    9.46
   1 -14 -10   60.98   14.90
  -1 -14 -10   40.77   12.75
  -1 -14  10   27.39   10.71
   1 -14  10   73.61   16.25
   1 -14  11    5.60    5.98
   1 -14 -11   10.40    7.23
  -1 -14 -11    2.34    3.41
   1 -14  12   21.69    9.54
   1 -14 -12    9.60    3.59
  -1 -14 -13   28.42    8.72
   1 -14  13    8.70    5.71
   1 -14 -13   26.74   10.73
   1 -14  14    9.95    4.13
   1 -14 -14   29.24   11.88
  -1 -14 -14   39.17   12.91
  -1 -14 -15   62.17   15.68
   1 -14  15   43.53   12.97
   1 -14 -15   49.37   13.67
   1 -14  16   33.42   12.31
   1 -14 -16   48.32   14.26
  -1 -14 -16   65.16   15.75
   1 -14  17   43.23   13.20
  -1 -14 -17   26.82    8.95
   1 -14 -17   25.06    8.17
  -1 -15   0    5.93    6.88
   1 -15   0    2.40    6.48
   1 -15  -1    5.04    3.48
  -1 -15  -1    8.15    6.62
   1 -15   1   -1.05    4.89
   1 -15   2   57.44   14.57
   1 -15  -2   45.60   12.01
  -1 -15  -2   48.45   12.42
  -1 -15   2   71.40   15.79
  -1 -15  -3   18.23   11.53
  -1 -15   3   20.85    9.56
   1 -15  -3   26.58   10.33
   1 -15   3   17.06    7.94
  -1 -15   4   24.28    9.64
  -1 -15  -4    7.16    7.19
   1 -15  -4   12.79    8.16
   1 -15   4    6.70    5.63
   1 -15   5    4.37    6.74
  -1 -15  -5    1.57    4.59
   1 -15  -5   -3.28    5.85
  -1 -15   5   12.80   10.73
   1 -15  -6   14.64    7.81
  -1 -15  -6   23.19   10.39
   1 -15   6   19.54    7.38
   1 -15   7   23.49    9.94
   1 -15  -7   21.92    8.70
  -1 -15  -7   26.47   11.55
  -1 -15  -8   36.16   11.53
   1 -15   8   18.85    8.63
   1 -15  -8   20.40    9.60
  -1 -15  -9    5.67    8.63
   1 -15  -9   14.31    8.50
   1 -15   9   12.05    8.54
   1 -15  10   40.70   11.19
  -1 -15 -10   46.27   13.14
   1 -15 -10   26.79   10.15
  -1 -15 -11    1.91    3.02
   1 -15  11    7.18    6.67
   1 -15 -11    4.94    7.45
   1 -15 -12    7.88    5.78
   1 -15  12   17.54   10.97
  -1 -15 -12    3.27    4.72
   1 -15 -13    2.08    2.58
  -1 -15 -13    0.97    4.14
  -1 -16   0   18.84   12.11
   1 -16   0    1.83    3.49
  -1 -16   1  -11.71    7.48
  -1 -16  -1   11.00    8.78
   1 -16  -1   -2.87    6.11
   1 -16   1   -3.27    5.14
   1 -16   2  109.22   20.56
  -1 -16  -2   95.93   19.94
   1 -16  -2  117.90   21.94
  -1 -16  -3   10.89    8.50
   1 -16  -3    4.90    3.91
   1 -16   3    5.75    4.01
   1 -16   4   10.21    8.59
  -1 -16  -4   10.99    8.69
   1 -16  -4    3.74    6.18
   1 -16   5   16.67    9.54
  -1 -16  -5   33.07   12.10
   1 -16  -5   34.10   13.33
   1 -16  -6   16.89   10.02
  -1 -16  -6   17.94    8.69
   1 -16   6   21.16    9.93
   1 -16  -7    9.38    4.03
   1 -16   7   -3.87    4.23
  -1 -16  -7    3.73    4.94
  -1 -16  -8   28.04   12.29
   1 -16  -8    7.82    7.58
   1 -16   8   14.85    6.57
   2   0   0  750.73   15.04
   2   0  -1   -0.28    0.47
   2   0   1    0.31    0.80
  -2   0   2 5925.72   42.75
   2   0   2 5887.97   51.89
  -2   0   3    0.00    0.51
   2   0   3    2.68    1.47
  -2   0   4 2973.77   38.42
   2   0   4 3029.65   45.41
   2   0   5    3.61    2.80
  -2   0   5    2.08    1.76
   2   0   6  510.23   21.82
  -2   0   6  473.23   18.68
   2   0   7   -0.63    2.73
  -2   0   7   -0.33    1.18
   2   0   8 1969.59   47.50
  -2   0   8 2010.83   43.64
  -2   0   9   -0.54    0.79
   2   0   9   -1.36    1.07
   2   0  10 5032.74   84.62
  -2   0  10 5040.14   78.24
  -2   0  11   -2.04    2.29
   2   0  11    0.48    2.41
  -2   0  12 1102.83   40.67
   2   0  12 1088.99   43.80
   2   0  13   -0.97    1.31
  -2   0  13   -0.96    3.17
   2   0  14 1564.38   56.10
  -2   0  14 1466.53   50.73
  -2   0  15    2.10    5.55
   2   0  15   -1.59    2.74
   2   0  16   37.54    9.60
  -2   0  16   70.45   12.07
  -2   0  17    4.21    4.82
   2   0  17   -1.82    3.64
   2   0  18  141.70   17.83
  -2   0  18  143.84   17.91
   2   0  19    0.06    2.44
  -2   0  19   -0.97    1.45
  -2   0  20   54.89   12.08
   2   0  20   50.65   12.27
   2   0  21    0.25    3.57
  -2   0  21    2.60    5.61
  -2   0  22    1.44    2.70
   2   0  22    2.10    4.46
  -2   0  23    3.63    6.21
   2   0  23   -2.06    3.80
   2   0  24   13.74    5.16
  -2   0  24   15.79    6.64
   2   0  25    1.34    2.56
  -2   0  25   -1.33    5.12
  -2   0  26   56.58   13.62
   2   0  26   61.49   15.00
   2   0  27   -0.28    2.16
  -2   0  27   -1.21    2.69
  -2   0  28    0.05    3.29
   2   0  28    4.95    6.12
  -2   0  29   -0.16    3.19
   2   0  29   -3.13    3.40
  -2   0  30   20.40    8.20
   2   0  30   26.80    9.24
   2   0  31   -1.74    5.91
  -2   0  31    2.79    5.33
  -2   0  32   93.19   20.19
   2   0  32   59.87   14.55
   2  -1   0 8708.50   68.42
   2  -1   1 6969.97   62.98
   2  -1  -1 6925.19   60.46
   2   1   1 7059.01   45.22
   2   1   2   49.88    4.59
   2  -1   2   55.07    5.75
  -2  -1   3 2685.64   25.43
  -2   1   3 2617.20   39.29
   2  -1   3 2736.29   44.13
   2  -1   4 2589.19   45.51
  -2   1   4 2555.48   41.38
  -2  -1   4 2597.19   31.74
  -2   1   5    9.87    2.52
   2   1   5    5.99    2.12
   2  -1   5    8.05    2.31
  -2  -1   5    8.17    2.24
  -2   1   6    4.16    1.93
   2  -1   6   10.58    3.65
  -2  -1   6   12.39    2.68
   2   1   7  118.98   10.89
  -2  -1   7  115.53    9.81
  -2   1   7  118.37   10.39
  -2   1   8 1197.54   35.80
   2   1   8 1160.52   36.67
   2  -1   8 1100.18   36.98
  -2  -1   8 1147.71   33.26
  -2  -1   9    4.43    2.74
   2   1   9    9.25    3.54
  -2   1   9    6.58    2.66
   2  -1   9    0.93    2.20
  -2  -1  10  614.47   27.47
   2  -1  10  648.98   30.62
  -2   1  10  651.19   29.10
  -2   1  11   -0.44    1.65
  -2  -1  11    0.80    1.22
   2   1  11   -1.64    2.31
   2  -1  11   -2.51    2.46
  -2  -1  12 1826.94   52.86
   2   1  12 1934.31   56.46
   2  -1  12 1767.41   53.38
  -2   1  12 1847.20   53.33
   2  -1  13    8.75    4.95
  -2  -1  13    9.31    4.90
   2   1  13    3.29    2.54
  -2   1  13    2.99    1.67
   2   1  14  907.04   41.45
   2  -1  14  929.82   42.17
  -2  -1  14  893.64   39.94
  -2   1  14  934.18   41.01
   2   1  15  417.01   29.39
   2  -1  15  468.49   31.11
  -2   1  15  389.89   27.68
  -2  -1  15  420.82   28.26
  -2   1  16   78.97   12.70
   2  -1  16   76.05   13.41
  -2  -1  16   88.68   13.51
   2   1  16   86.42   13.72
   2  -1  17   53.73   12.65
  -2  -1  17   40.59    9.34
   2   1  17   55.64   11.11
  -2   1  17   56.75   10.98
   2   1  18 1129.95   52.08
  -2   1  18 1078.33   49.71
  -2  -1  18 1132.54   51.24
   2  -1  18 1168.20   54.05
  -2  -1  19   -0.73    2.80
  -2   1  19    0.92    1.58
   2   1  19    0.14    2.59
   2  -1  19    0.88    5.06
  -2  -1  20   74.96   14.06
   2   1  20  109.68   16.76
  -2   1  20  117.94   17.21
   2  -1  20   95.85   16.21
  -2  -1  21   79.30   14.20
   2   1  21   63.09   12.25
   2  -1  21   74.62   13.72
  -2   1  21   74.95   14.02
  -2  -1  22  227.44   24.79
  -2   1  22  224.49   24.91
   2   1  22  225.98   25.12
   2  -1  22  245.22   25.80
   2  -1  23   31.88    9.56
  -2  -1  23   59.28   13.53
   2   1  23   42.56   10.45
  -2   1  23   51.45   14.20
  -2   1  24   27.22   10.04
  -2  -1  24   13.46    5.00
   2  -1  24   34.25   10.67
   2   1  24    7.04    5.96
   2   1  25   74.55   16.02
  -2  -1  25  119.87   18.95
   2  -1  25  137.00   20.81
  -2   1  25  141.74   20.77
  -2  -1  26  259.51   29.26
   2  -1  26  335.36   32.60
   2   1  26  274.11   29.71
  -2   1  26  279.45   30.30
   2   1  27   33.78   10.64
  -2  -1  27   19.49    7.30
  -2   1  27   29.33    8.89
   2  -1  27   36.71   11.64
   2   1  28  328.35   33.05
   2  -1  28  253.46   29.94
  -2   1  28  257.94   29.69
  -2  -1  28  264.78   30.13
   2  -1  29  143.41   23.01
  -2  -1  29  114.85   20.56
   2   1  29  143.55   21.96
  -2   1  29  163.23   24.08
   2   1  30   -3.91    8.12
   2  -1  30    9.95    4.24
  -2   1  30    2.94    6.70
   2   1  31    7.77    8.51
  -2   1  31   11.95    9.20
  -2  -1  31    6.54    4.16
   2  -1  31    5.28    5.02
  -2  -1  32   51.30   12.23
   2   1  32   66.69   16.42
  -2   1  32   83.28   17.04
   2  -1  32   51.08   15.27
   2  -2   0 1386.54   32.57
   2   2   0 1377.75   18.24
   2   2   1  258.74    9.27
   2  -2  -1  256.15   13.93
   2  -2   2    1.50    1.94
   2  -2  -2    0.13    1.11
   2   2   2    0.88    0.80
   2  -2   3 3566.72   56.20
  -2  -2   3 3531.25   31.97
  -2   2   3 3451.50   52.74
  -2   2   4 2564.89   47.87
   2  -2   4 2570.22   48.75
  -2  -2   4 2581.48   32.93
   2   2   5 1671.15   37.31
  -2  -2   5 1642.16   30.01
   2  -2   5 1715.91   41.56
  -2   2   5 1661.77   39.63
  -2  -2   6  458.41   17.30
  -2   2   6  458.86   21.71
   2  -2   6  474.06   22.82
   2   2   6  439.05   20.12
   2   2   7  556.47   24.18
  -2   2   7  606.00   25.75
  -2  -2   7  650.17   23.38
   2  -2   7  636.00   27.79
  -2   2   8   -0.70    1.03
   2  -2   8    0.34    1.43
   2   2   8    2.66    1.62
  -2  -2   8   -0.20    1.17
   2  -2   9   29.00    6.51
  -2  -2   9   35.46    6.41
  -2   2   9   24.55    5.75
   2   2   9   36.46    6.93
  -2   2  10    6.52    2.84
   2   2  10   13.43    4.63
  -2  -2  10   14.17    3.94
   2  -2  10    7.08    2.86
   2   2  11  529.35   28.89
  -2  -2  11  515.90   26.71
   2  -2  11  583.60   30.43
  -2   2  11  516.80   27.67
   2  -2  12    6.06    3.16
   2   2  12   13.21    5.84
  -2   2  12    2.98    3.36
  -2  -2  12    7.85    3.58
  -2  -2  13 1774.27   53.40
  -2   2  13 1797.00   56.17
   2  -2  13 1762.86   57.85
   2   2  13 1748.50   56.13
  -2  -2  14    8.00    3.16
   2   2  14    6.86    3.18
  -2   2  14   14.39    5.06
  -2   2  15   47.76   10.01
  -2  -2  15   44.66    9.15
   2   2  15   14.83    5.37
   2  -2  15   14.33    5.51
  -2  -2  16   83.56   12.78
   2  -2  16   82.75   13.30
   2   2  16   90.85   13.72
  -2   2  16   72.82   12.75
   2   2  17   -1.82    4.61
  -2  -2  17   -1.00    1.55
   2  -2  17    1.52    4.44
  -2   2  17   -1.53    2.26
  -2   2  18   38.82    9.34
   2  -2  18   49.84   11.18
   2   2  18   56.47   11.55
  -2  -2  18   27.83    7.77
   2  -2  19   73.80   14.77
   2   2  19   43.46   12.05
  -2  -2  19   46.83   11.74
  -2   2  19   56.47   11.55
   2   2  20   -1.75    3.96
   2  -2  20   -4.25    3.98
  -2   2  20   -3.72    2.50
  -2  -2  20    4.75    2.89
   2   2  21  106.25   16.45
  -2  -2  21  104.85   17.07
  -2   2  21  105.82   16.51
   2  -2  21  101.54   17.91
  -2   2  22   66.26   13.36
  -2  -2  22   66.11   14.77
   2   2  22   36.05    9.58
   2  -2  22   43.34   12.03
   2  -2  23    6.67    4.03
   2   2  23    2.66    6.35
  -2  -2  23    3.74    4.37
  -2   2  23    2.76    3.08
   2  -2  24   -3.95    4.61
  -2   2  24    8.60    4.69
   2   2  24    9.70    7.88
  -2  -2  24   -1.24    3.67
  -2   2  25   10.58    7.63
  -2  -2  25    0.17    3.88
   2  -2  25    5.49    8.91
   2   2  25    0.31    3.19
   2   2  26   -0.05    5.03
  -2   2  26    4.96    6.58
  -2  -2  26    8.54    3.97
   2  -2  26   14.56    4.84
  -2   2  27   11.31    8.40
  -2  -2  27   26.83    8.16
   2   2  27   22.79    8.97
   2  -2  27   19.01    7.69
   2   2  28    9.87    5.93
  -2  -2  28   11.55    6.13
  -2   2  28    1.77    5.16
   2  -2  28    6.11    6.18
   2  -2  29   31.95   11.57
  -2  -2  29   44.15   11.27
   2   2  29   50.25   14.68
  -2   2  29   26.12   11.33
  -2   2  30    0.80    3.06
   2   2  30    7.67    7.36
  -2  -2  30   -0.99    2.27
   2  -2  30    2.87    3.28
  -2   2  31   22.97   11.25
   2   2  31   15.16    8.61
  -2  -2  31   16.44    9.38
   2  -2  31   13.90    7.14
  -2  -2  32    0.79    3.28
   2  -2  32    3.40    2.33
  -2   2  32   -2.39    2.81
   2  -3   0 1011.87   31.64
   2  -3  -1  515.02   22.90
  -2  -3   1  499.42   14.80
   2  -3   1  502.65   22.74
  -2  -3   2   20.94    3.18
   2   3   2   30.33    4.16
   2  -3  -2   26.06    5.50
   2  -3   2   22.13    5.04
  -2  -3   3   99.50    7.04
   2   3   3   93.60    8.01
   2  -3   3   96.22   10.20
  -2  -3   4   22.37    3.45
   2   3   4   18.39    3.77
   2  -3   4   19.01    4.70
  -2   3   4   26.36    5.38
  -2   3   5  177.81   14.02
   2   3   5  183.16   12.99
  -2  -3   5  178.58   10.58
   2  -3   5  192.85   15.26
  -2  -3   6  309.00   15.25
   2   3   6  324.57   18.42
   2  -3   6  308.48   19.47
  -2   3   6  300.88   19.25
   2  -3   7   17.48    5.13
  -2  -3   7   21.13    4.07
   2   3   7   22.93    4.89
  -2   3   7   15.29    3.86
   2  -3   8  553.29   27.71
  -2   3   8  594.09   28.42
   2   3   8  580.37   27.28
  -2   3   9  367.85   23.11
  -2  -3   9  325.37   19.15
   2   3   9  344.13   21.58
   2  -3   9  323.38   21.98
   2  -3  10  142.38   15.15
  -2  -3  10  136.71   12.64
  -2   3  10  129.34   14.19
   2   3  10  135.69   13.78
  -2  -3  11  415.76   24.01
   2   3  11  331.26   22.97
   2  -3  11  405.40   26.99
  -2   3  11  407.48   26.19
  -2  -3  12    0.32    2.06
   2   3  12    6.62    3.87
  -2   3  12    1.54    1.79
   2  -3  12    7.68    4.92
   2   3  13  109.35   13.78
   2  -3  13  109.41   14.37
  -2   3  13   76.54   12.44
  -2  -3  13   93.06   12.19
  -2  -3  14   16.27    6.99
   2  -3  14    3.60    3.82
   2   3  14    6.12    2.63
  -2   3  14   15.29    6.45
   2   3  15   97.91   15.04
  -2  -3  15   90.59   13.62
  -2   3  15   69.46   11.90
   2  -3  15   81.90   13.57
   2   3  16   -1.95    5.12
  -2   3  16    5.47    6.24
   2  -3  16   -3.48    3.21
  -2  -3  16    3.42    2.80
   2   3  17  309.17   26.67
  -2  -3  17  312.14   26.18
  -2   3  17  263.34   24.53
   2  -3  17  321.07   27.36
   2  -3  18  107.46   15.87
  -2   3  18  109.91   16.18
   2   3  18  117.64   15.68
  -2  -3  18  120.23   16.49
   2  -3  19  226.38   24.17
   2   3  19  229.40   23.60
  -2  -3  19  253.67   24.52
  -2   3  19  224.12   24.24
  -2   3  20   46.92   12.65
   2   3  20   46.89   10.82
   2  -3  20   70.94   14.09
  -2  -3  20   41.27   10.61
  -2  -3  21   -3.20    3.55
   2   3  21    0.88    3.33
  -2   3  21    6.56    6.99
   2  -3  21   13.26    7.62
   2  -3  22   83.75   15.75
  -2   3  22   53.53   12.89
   2   3  22   73.34   14.26
  -2  -3  22   75.37   14.52
   2  -3  23    0.25    5.30
   2   3  23    4.33    2.33
  -2   3  23    5.09    5.44
  -2  -3  23    0.88    4.76
   2   3  24   21.88    8.46
  -2  -3  24   26.06    8.66
   2  -3  24   26.43   10.29
  -2   3  24   20.68    8.83
  -2  -3  25  219.99   26.43
   2  -3  25  229.69   26.44
  -2   3  25  189.23   24.99
   2   3  25  161.41   22.66
   2   3  26    0.60    3.15
   2  -3  26   -1.34    3.88
  -2  -3  26    5.84    8.00
  -2   3  26    2.03    3.79
   2   3  27    6.55    3.99
  -2   3  27   -3.52    6.14
  -2  -3  27   11.35    6.16
  -2   3  28   55.70   13.88
   2   3  28   19.51    7.53
  -2  -3  28   54.63   15.13
   2  -3  28   52.87   13.29
   2  -3  29  115.60   20.04
  -2  -3  29  101.39   18.28
   2   3  29   99.36   18.25
  -2   3  29  104.93   18.80
   2   3  30   10.70    7.22
  -2   3  30   39.13   12.18
  -2  -3  30   29.55    9.52
   2  -3  30   16.90   11.52
   2   3  31   69.15   14.76
  -2   3  31   60.43   15.79
  -2  -3  31   86.64   18.31
   2  -3  31   71.16   17.22
   2  -4   0    4.12    2.70
  -2  -4   0    3.16    1.61
  -2  -4   1    3.30    1.54
   2  -4  -1    4.17    3.38
   2  -4   1    7.21    1.89
  -2  -4   2   81.53    7.80
   2  -4   2   90.34   10.69
   2   4   2   76.34    7.78
   2  -4  -2   85.22   10.26
  -2  -4   3  106.11    8.91
   2  -4   3  116.29   12.42
   2  -4  -3   94.48   10.88
   2   4   3   89.68    8.98
  -2  -4   4  343.00   16.55
   2   4   4  374.54   18.99
   2  -4   4  364.42   21.50
   2  -4   5   27.10    6.27
   2   4   5   32.75    5.94
  -2  -4   5   26.44    4.78
  -2   4   5   22.83    6.03
   2  -4   6  627.81   29.65
   2   4   6  592.61   26.80
  -2  -4   6  643.58   24.18
  -2   4   6  619.53   29.12
   2  -4   7  315.65   21.84
   2   4   7  289.13   19.19
  -2   4   7  317.83   21.40
  -2  -4   7  363.92   18.86
  -2   4   8  912.19   37.26
   2  -4   8  917.84   37.82
  -2  -4   8  869.46   31.43
   2   4   8  869.98   34.48
  -2  -4   9  164.88   14.18
   2  -4   9  193.82   17.82
  -2   4   9  174.06   16.88
   2   4   9  160.75   15.33
  -2   4  10  348.17   24.11
   2  -4  10  327.24   23.77
   2   4  10  304.87   22.00
  -2  -4  10  300.74   20.27
   2   4  11   -1.28    3.65
   2  -4  11   -0.81    2.70
  -2  -4  11    3.39    3.67
  -2   4  11    2.74    3.33
  -2   4  12   20.53    6.52
   2  -4  12   27.93    7.39
   2   4  12   10.11    3.78
  -2  -4  12   18.30    5.75
   2  -4  13   13.24    6.18
   2   4  13    0.72    1.71
  -2  -4  13    6.77    3.64
  -2   4  13    5.42    3.65
   2  -4  14  121.87   15.60
  -2  -4  14  125.52   14.93
  -2   4  14  103.48   14.57
   2   4  14   80.42   12.28
   2   4  15  281.09   24.40
  -2   4  15  311.17   26.79
  -2  -4  15  312.87   25.11
  -2   4  16   52.25    9.70
   2  -4  16   71.64   13.00
   2   4  16   76.94   13.25
  -2  -4  16   81.12   13.73
   2  -4  17    1.57    3.31
  -2  -4  17   -0.13    2.58
   2   4  17    6.42    5.72
  -2   4  17    4.18    5.91
   2   4  18    5.30    5.62
   2  -4  18   14.72    7.43
  -2  -4  18    7.79    5.02
  -2   4  18   10.18    2.94
   2   4  19   -1.38    3.71
  -2  -4  19   -1.91    1.85
  -2   4  19    8.16    6.48
   2  -4  19    8.03    6.61
   2   4  20  138.04   18.90
  -2   4  20  111.94   17.32
   2  -4  20  115.82   17.11
  -2  -4  20  124.25   18.35
  -2   4  21    3.16    3.92
  -2  -4  21    3.27    6.27
   2  -4  21    6.06    3.83
   2   4  21    6.90    5.20
   2   4  22   49.24   12.25
  -2   4  22   59.66   13.26
  -2  -4  22   57.79   13.54
   2  -4  22   62.19   14.00
  -2   4  23    7.61    6.88
   2  -4  23    5.33    3.28
   2   4  23   18.11    5.80
  -2  -4  23   24.92   10.76
   2   4  24   19.28    6.66
  -2  -4  24    6.78    5.85
   2  -4  24   20.77    8.59
  -2   4  24   18.99    6.82
  -2   4  25   34.05    9.61
  -2  -4  25   43.24   12.07
   2  -4  25   50.27   14.92
   2   4  25   50.47   11.64
   2  -4  26    0.05    5.01
  -2  -4  26   -3.05    3.57
   2   4  26   -1.10    5.48
  -2   4  26    4.69    4.80
  -2  -4  27   19.54    8.33
   2  -4  27   24.41   10.37
  -2   4  27   30.76    9.75
   2   4  27   30.92   11.24
   2  -4  28   31.31   10.62
  -2   4  28   11.98    6.15
  -2  -4  28   23.58   10.76
   2   4  28   15.01    9.17
  -2  -4  29   -6.36    3.33
   2  -4  29   -0.36    4.23
   2   4  29    6.12    4.60
  -2   4  29   -1.32    1.91
  -2   4  30   -2.45    5.65
   2   4  30    5.73    8.11
  -2  -4  30    9.06    7.73
   2  -4  30    2.40    3.82
   2   4  31    4.32    6.59
   2  -4  31   17.88   11.09
  -2  -4  31   -6.26    4.42
  -2   4  31    2.66    6.68
  -2  -5   0 3605.63   59.50
   2  -5   0 3568.55   72.02
   2  -5   1    9.10    2.71
  -2  -5  -1   23.01    5.16
  -2  -5   1   16.82    4.51
   2  -5  -1   14.67    4.14
  -2  -5   2  119.61   10.84
   2  -5  -2  127.56   13.61
   2  -5   2  115.62   13.12
   2   5   3   78.59    9.43
  -2  -5   3   79.50    8.81
   2  -5  -3   75.65   10.71
   2  -5   3   58.55    9.86
  -2  -5   4  103.11   10.19
   2  -5   4   74.87   11.23
   2   5   4   80.60    9.80
  -2  -5   5  324.68   18.22
   2   5   5  358.78   20.99
   2  -5   5  354.49   23.39
  -2   5   6   56.94    9.20
  -2  -5   6   77.37    9.33
   2  -5   6   45.26    8.74
   2   5   6   69.83    9.50
   2  -5   7  424.94   26.30
   2   5   7  435.57   24.88
  -2   5   7  442.47   26.89
  -2  -5   7  446.78   22.71
   2  -5   8 1487.26   50.07
  -2   5   8 1337.74   48.14
   2   5   8 1460.81   47.35
  -2  -5   8 1452.26   42.91
  -2   5   9   -0.17    2.28
  -2  -5   9    8.79    3.80
   2  -5   9    1.90    2.57
   2   5   9    3.33    3.63
   2  -5  10  270.84   22.40
   2   5  10  262.74   21.18
  -2   5  10  223.19   20.99
  -2  -5  10  284.12   20.38
   2   5  11   75.48   11.71
  -2  -5  11   72.20   10.94
   2  -5  11   74.74   12.22
  -2   5  11   87.62   13.27
   2   5  12   16.77    5.91
   2  -5  12   28.54    8.12
  -2   5  12    9.45    2.69
  -2  -5  12   19.51    6.34
  -2  -5  13   95.25   13.26
   2  -5  13   84.57   13.80
  -2   5  13   74.07   12.21
   2   5  13   83.00   12.46
  -2  -5  14  532.58   32.88
   2   5  14  556.70   34.61
   2  -5  14  519.09   33.98
  -2   5  14  596.77   36.38
  -2  -5  15  152.05   17.85
  -2   5  15  172.76   20.59
   2   5  15  154.94   18.90
   2   5  16   15.40    5.66
   2  -5  16   12.95    6.79
  -2  -5  16   14.29    5.18
  -2   5  16   15.78    4.86
   2   5  17   13.01    4.17
   2  -5  17   10.64    5.04
  -2   5  17   15.09    8.60
  -2  -5  17   22.78    8.08
  -2  -5  18  119.10   17.06
   2  -5  18  115.66   17.97
  -2   5  18  117.50   17.88
   2   5  18   96.96   17.06
  -2   5  19  122.50   18.58
  -2  -5  19  123.89   18.94
   2   5  19  155.07   21.00
   2  -5  19  139.87   19.33
  -2   5  20   44.88   10.62
  -2  -5  20   60.98   12.74
   2   5  20   70.86   14.30
   2  -5  20   31.28    9.28
  -2   5  21    0.54    4.40
   2   5  21    6.18    2.84
  -2  -5  21    9.04    7.80
   2  -5  21   10.03    7.34
  -2  -5  22  125.78   19.76
   2   5  22  144.95   21.86
   2  -5  22  142.55   20.31
  -2   5  22  145.56   21.05
   2   5  23   -0.45    4.35
  -2  -5  23   -1.08    4.82
   2  -5  23    0.05    7.55
  -2   5  23    0.02    2.85
   2   5  24   25.09    9.53
   2  -5  24   46.73   12.08
  -2  -5  24   21.48    8.88
  -2   5  24   21.81    8.08
  -2  -5  25    3.55    2.08
   2  -5  25    5.45    3.83
  -2   5  25    2.23    6.59
   2   5  25    4.33    4.77
   2   5  26   29.91   10.49
  -2  -5  26   32.67   10.55
   2  -5  26   44.91   12.12
  -2   5  26   48.04   13.55
   2   5  27    4.65    3.45
  -2  -5  27    5.80    8.78
   2  -5  27    7.19    3.13
  -2   5  27   12.16    7.51
  -2   5  28   64.50   15.42
   2   5  28   65.29   14.97
  -2  -5  28   39.18   10.70
   2  -5  28   70.86   16.49
  -2  -5  29   -2.31    4.90
   2   5  29   16.43   12.90
   2  -5  29    1.14    7.03
  -2   5  29    0.25    4.31
  -2  -5  30   15.62    7.89
   2   5  30    7.88    7.55
  -2   5  30   12.49    7.47
   2  -5  30    5.33    8.38
   2  -6   0  601.44   31.84
  -2  -6   0  596.94   27.14
   2  -6   1   40.14    8.29
  -2  -6  -1   30.24    6.28
  -2  -6   1   36.04    6.51
   2  -6  -1   34.64    7.34
   2  -6  -2   25.73    7.17
   2  -6   2   21.19    6.53
  -2  -6   2   25.09    5.58
  -2  -6   3   43.92    7.63
   2  -6   3   42.77    8.97
   2  -6  -3   32.80    7.49
   2   6   4  214.15   16.87
  -2  -6   4  248.77   17.48
   2  -6  -4  247.18   20.73
   2  -6   4  236.39   19.88
   2  -6   5  150.68   15.97
   2   6   5  133.12   14.11
  -2  -6   5  159.67   14.31
   2  -6   6   19.69    7.25
   2   6   6   13.67    5.17
  -2  -6   6    8.27    3.43
  -2   6   7  191.17   18.82
   2  -6   7  152.43   17.00
   2   6   7  180.30   16.98
  -2  -6   7  187.30   15.98
  -2   6   8    4.69    5.63
  -2  -6   8    7.71    2.78
   2  -6   8   12.01    5.79
   2   6   8   12.68    5.42
  -2  -6   9    5.68    3.33
   2   6   9   14.41    6.50
   2  -6   9   17.42    5.80
  -2   6   9   18.65    5.65
   2   6  10   42.52    9.47
  -2  -6  10   36.28    8.05
   2  -6  10   35.32    7.59
  -2   6  10   45.81   10.09
   2   6  11  482.84   31.19
  -2   6  11  545.87   33.95
   2  -6  11  555.08   34.17
  -2  -6  11  565.00   31.26
   2   6  12  126.84   15.80
  -2   6  12  147.08   18.50
  -2  -6  12  119.48   15.68
   2  -6  12  154.16   17.94
  -2  -6  13  111.37   14.71
   2  -6  13  139.46   18.12
   2   6  13  115.63   15.59
   2   6  14  286.59   25.96
  -2  -6  14  264.83   23.47
   2  -6  14  301.87   26.26
  -2   6  14  258.22   25.03
  -2  -6  15  114.06   15.94
   2  -6  15  110.00   16.01
  -2   6  15  127.99   17.89
   2   6  15  137.60   17.51
  -2  -6  16  145.61   19.41
   2  -6  16  159.94   21.11
  -2   6  16  163.53   20.42
   2   6  16  158.89   19.92
  -2  -6  17    0.76    3.89
   2   6  17    0.71    4.23
   2  -6  17    4.54    3.98
  -2   6  17    0.91    5.50
  -2  -6  18   73.44   14.05
   2  -6  18   66.79   13.82
   2   6  18   59.70   11.92
  -2   6  18   71.81   14.33
  -2  -6  19   13.82    7.25
   2   6  19   13.17    7.00
  -2   6  19   23.19    6.43
   2  -6  19   12.14    3.69
   2  -6  20    4.08    4.54
  -2  -6  20    9.76    7.98
  -2   6  20    4.16    2.28
   2   6  20    1.73    2.87
   2   6  21   17.04    7.83
  -2  -6  21    1.62    3.82
   2  -6  21   14.00    7.21
  -2   6  21    6.95    5.78
   2   6  22   42.13   11.23
  -2  -6  22   79.15   17.66
   2  -6  22   89.63   16.57
  -2   6  22   85.50   17.00
  -2  -6  23   28.49   10.28
   2   6  23   20.18    8.97
  -2   6  23   14.08    8.89
   2  -6  23   16.31    7.18
   2  -6  24   79.79   15.72
   2   6  24  106.03   18.20
  -2  -6  24  108.08   19.66
  -2   6  24   97.96   17.60
  -2   6  25    4.18    4.31
   2   6  25    0.86    5.26
  -2  -6  25    6.97    6.86
   2  -6  25    0.11    4.88
   2   6  26   28.26    9.29
  -2  -6  26   29.94   10.56
   2  -6  26   29.04    9.16
  -2   6  26   26.20   12.06
   2   6  27    2.95    2.28
  -2  -6  27   -4.02    3.46
   2  -6  27    2.24    2.12
  -2   6  28    9.90    3.72
   2   6  28   21.68    9.11
   2  -6  28   11.96    7.47
  -2  -6  28   19.46   10.50
  -2  -6  29   20.66   10.39
   2   6  29   30.28   11.32
  -2   6  29   25.19    8.94
   2  -6  29    8.49    4.93
   2   6  30   10.20    4.65
  -2  -6  30   34.81   13.79
  -2   6  30   21.23    8.64
   2  -6  30   30.13   11.82
   2  -7   0    8.46    5.35
  -2  -7   0    3.66    3.10
  -2  -7  -1  828.26   35.55
  -2  -7   1  784.73   33.88
   2  -7   1  763.74   38.22
   2  -7  -1  728.36   36.87
  -2  -7  -2  249.00   19.81
   2  -7  -2  258.79   22.13
   2  -7   2  247.66   21.78
  -2  -7   2  243.14   19.00
  -2  -7   3  668.36   31.52
   2  -7   3  700.33   36.59
   2  -7  -3  724.17   37.39
   2  -7  -4  133.57   16.69
  -2  -7   4  109.71   12.98
   2  -7   4  113.44   14.47
  -2  -7   5  223.39   18.45
   2  -7   5  186.55   19.14
   2  -7  -5  213.28   20.27
   2   7   5  210.14   18.60
  -2  -7   6  277.11   21.03
   2  -7   6  301.66   24.11
   2   7   6  262.00   21.71
   2  -7   7  839.48   41.39
   2   7   7  784.78   37.52
  -2  -7   7  795.95   35.77
   2  -7   8  118.65   15.77
  -2  -7   8  137.61   15.22
   2   7   8  124.28   15.74
   2   7   9   78.22   12.76
  -2   7   9  108.21   15.26
  -2  -7   9  111.23   13.93
   2  -7   9  105.23   15.35
  -2   7  10   51.16   10.74
   2  -7  10   50.28   10.50
   2   7  10   58.87   11.16
  -2  -7  10   51.47    9.79
  -2   7  11 2103.56   68.75
   2   7  11 1933.50   64.86
  -2  -7  11 2035.33   61.73
   2  -7  11 2018.31   66.98
   2  -7  12  361.06   28.57
  -2  -7  12  359.42   26.82
   2   7  12  402.01   29.13
  -2   7  12  406.25   30.54
   2  -7  13   99.34   15.39
   2   7  13  121.91   17.15
  -2   7  13  128.15   17.94
   2   7  14  106.66   16.68
   2  -7  14   72.05   13.83
   2   7  15    8.59    4.30
   2  -7  15    1.03    1.76
  -2  -7  15    0.04    1.90
  -2   7  15    0.96    3.80
   2   7  16  156.07   20.48
  -2  -7  16  177.70   20.87
   2  -7  16  129.67   18.48
  -2   7  16  155.21   21.09
   2   7  17  185.13   22.40
  -2   7  17  234.64   25.84
   2  -7  17  181.19   21.63
  -2  -7  17  183.11   21.96
   2   7  18   45.60   10.98
   2  -7  18   63.00   14.44
  -2  -7  18   46.47   11.21
  -2   7  18   64.51   15.40
  -2  -7  19   71.29   14.51
   2   7  19   87.83   16.22
  -2   7  19   63.02   13.32
   2  -7  19   38.34   11.39
   2  -7  20    3.64    4.57
  -2   7  20    2.89    3.20
  -2  -7  20    1.46    2.59
   2   7  20    7.21    7.98
  -2  -7  21  106.41   18.12
   2  -7  21  121.78   19.66
  -2   7  21  101.25   18.20
   2   7  21  107.72   17.54
   2   7  22    0.49    5.85
  -2  -7  22    4.97    5.80
   2  -7  22    1.40    3.37
  -2   7  22    9.95    9.17
  -2  -7  23    7.65    6.33
  -2   7  23   -0.55    4.23
   2  -7  23   -0.88    5.79
   2   7  23   -4.02    6.33
   2   7  24    0.44    2.95
  -2  -7  24    0.17    2.83
  -2   7  24   -3.08    3.73
   2  -7  24    2.23    7.01
   2  -7  25  111.20   18.40
   2   7  25  116.08   19.26
  -2  -7  25   84.22   17.50
  -2   7  25  131.58   21.62
  -2  -7  26    4.24    6.86
   2  -7  26    0.95    6.20
   2   7  26   12.78    5.65
  -2   7  26    5.72    5.25
   2   7  27    5.89    4.57
  -2   7  27   10.45    6.56
   2  -7  27   11.99    4.37
   2   7  28   -5.36    4.97
   2  -7  28    2.14    3.63
  -2   7  28   -0.28    3.09
   2   7  29   16.86    8.16
   2  -7  29   49.01   14.88
  -2   7  29   29.28   10.01
   2  -8   0   12.37    5.12
  -2  -8   0   17.89    5.79
   2  -8  -1    4.56    6.16
   2  -8   1    7.17    4.12
  -2  -8   1   11.43    3.33
  -2  -8  -1    6.61    3.54
  -2  -8  -2   31.95    7.25
   2  -8   2   37.55    9.63
  -2  -8   2   45.41    8.91
   2  -8  -2   23.93    7.86
   2  -8  -3  142.18   17.50
  -2  -8  -3  136.89   15.86
  -2  -8   3  132.68   15.23
   2  -8   3  162.87   17.96
   2  -8  -4  237.65   22.52
  -2  -8   4  218.14   19.76
   2  -8   4  221.22   22.28
  -2  -8  -4  217.99   20.04
  -2  -8   5  243.94   20.73
   2  -8  -5  201.91   21.22
   2  -8   5  230.90   21.78
   2  -8  -6    4.46    6.77
   2   8   6    3.94    4.19
  -2  -8   6    8.29    3.19
   2  -8   6    2.34    4.03
  -2  -8   7   70.53   11.68
   2   8   7   67.74   11.83
   2  -8   7   79.06   13.64
   2  -8  -7   60.92   11.23
   2   8   8    0.73    2.67
  -2  -8   8   -1.61    3.33
   2  -8   8   -1.81    2.58
   2  -8   9   93.16   14.46
   2   8   9   96.61   14.74
  -2  -8   9   95.63   13.43
  -2  -8  10   82.86   13.14
   2  -8  10   75.86   13.36
   2   8  10   77.06   13.36
  -2   8  10   91.79   15.29
  -2  -8  11    0.11    2.15
   2   8  11    1.73    3.06
   2  -8  11    0.36    3.95
  -2   8  11   -2.36    4.07
   2  -8  12   22.44    7.33
  -2  -8  12   15.93    5.49
   2   8  12   17.66    6.53
  -2   8  12   15.29    5.48
  -2   8  13   14.06    8.05
   2  -8  13    7.37    5.70
  -2  -8  13    3.76    2.18
   2   8  13   10.69    5.91
  -2  -8  14   43.66   10.34
   2  -8  14   33.82    8.89
   2   8  14   29.90    9.44
  -2   8  14   40.84   10.07
   2   8  15  237.47   25.16
  -2  -8  15  285.56   26.25
   2  -8  15  274.09   26.99
  -2   8  15  301.13   29.19
   2  -8  16    2.10    3.00
   2   8  16   10.45    7.17
  -2   8  16   -1.07    3.62
  -2  -8  16    2.88    4.31
  -2  -8  17   97.78   16.57
   2  -8  17  122.64   18.75
  -2   8  17  102.02   17.04
   2   8  17   87.99   16.04
   2   8  18   28.84    7.24
  -2  -8  18   27.19    7.04
   2  -8  18   19.75    7.87
  -2   8  18   11.97    8.19
   2  -8  19   74.54   16.17
  -2   8  19   66.37   15.83
   2   8  19  107.57   18.09
  -2  -8  19   79.31   14.91
   2  -8  20    2.17    4.46
   2   8  20   -1.46    3.89
  -2   8  20   -2.77    3.45
  -2  -8  20   -1.98    4.63
  -2  -8  21  140.93   21.54
   2  -8  21  139.82   20.79
  -2   8  21  144.40   21.17
   2   8  21  117.27   19.58
  -2   8  22   -3.28    5.14
  -2  -8  22    9.95    5.50
   2   8  22    4.21    3.99
   2  -8  22    4.92    6.57
   2   8  23   11.11    5.60
  -2  -8  23   24.20    8.37
   2  -8  23   25.89   10.88
  -2   8  23   25.57    9.19
   2   8  24   10.46    6.32
  -2  -8  24   19.61   10.21
   2  -8  24    3.70    2.20
  -2   8  24   12.32    6.81
  -2   8  25  201.70   25.58
   2  -8  25  188.54   25.01
   2   8  25  129.83   22.06
   2   8  26   21.57    7.31
  -2   8  26   10.72    3.65
   2   8  27   13.75    7.54
   2  -8  27   16.61    8.23
  -2   8  27    5.06    3.20
   2   8  28   -9.87    7.51
  -2   8  28   -1.10    6.42
   2  -8  28   -2.31    5.03
   2  -9   0   36.32    9.26
  -2  -9   0   24.23    6.80
  -2  -9  -1  164.80   18.52
   2  -9  -1  159.73   19.69
   2  -9   1  166.75   19.40
  -2  -9   1  166.99   18.56
  -2  -9  -2   16.44    4.39
   2  -9  -2    9.82    3.74
  -2  -9   2   23.97    7.35
   2  -9   2   14.72    5.99
  -2  -9  -3  434.89   30.13
   2  -9   3  365.14   29.30
  -2  -9   3  429.04   29.23
   2  -9  -3  384.54   30.65
   2  -9  -4  120.60   16.23
  -2  -9  -4  129.26   16.95
  -2  -9   4  134.60   16.89
   2  -9   4   91.02   13.85
  -2  -9   5   10.60    4.48
  -2  -9  -5    6.47    3.99
   2  -9   5    7.20    4.76
   2  -9  -5    9.22    4.27
  -2  -9   6  271.40   24.06
   2  -9   6  283.09   26.00
   2  -9  -6  286.10   26.30
  -2  -9   7 1195.87   50.18
   2  -9   7 1141.89   52.81
   2  -9  -7 1161.73   52.66
   2  -9   8  492.92   34.95
  -2  -9   8  498.92   32.34
   2  -9  -8  559.91   37.64
   2   9   8  564.99   35.75
  -2  -9   9   22.09    7.74
   2  -9   9   46.78   11.18
   2   9   9   31.42    9.14
  -2  -9  10  308.23   26.22
   2   9  10  368.91   29.49
   2  -9  10  386.22   31.37
  -2  -9  11   47.52   10.17
   2  -9  11   73.43   14.04
   2   9  11   79.88   14.20
  -2   9  12    1.68    2.31
   2   9  12    2.68    2.47
  -2  -9  12    0.07    3.55
   2  -9  12    2.91    3.66
  -2   9  13  153.69   20.12
  -2  -9  13  109.73   16.62
   2   9  13  157.04   20.89
   2  -9  13  172.65   21.63
  -2  -9  14   28.35    9.64
   2  -9  14   27.51    7.11
   2   9  14   35.63   10.83
  -2   9  14   37.98    9.94
  -2  -9  15  117.80   18.06
  -2   9  15  147.23   20.78
   2  -9  15  115.05   16.50
   2   9  15  126.80   19.99
  -2   9  16   57.48   13.32
   2  -9  16   45.01   10.52
   2   9  16   49.44   12.61
  -2  -9  16   63.93   13.52
  -2  -9  17  257.85   27.65
   2   9  17  246.50   26.89
   2  -9  17  252.06   27.44
  -2   9  17  249.01   27.60
   2  -9  18   24.92   10.66
   2   9  18   10.55    4.13
  -2   9  18   12.48    7.12
  -2  -9  18   12.48    7.69
   2  -9  19   17.96    6.88
  -2   9  19   35.97   10.98
   2   9  19   24.94    9.45
  -2  -9  19   30.34   11.01
  -2   9  20    0.56    5.23
  -2  -9  20    6.55    6.03
   2  -9  20    2.83    2.49
   2   9  20    1.94    3.23
  -2  -9  21   55.20   14.78
  -2   9  21   39.45   12.34
   2  -9  21   34.45   10.04
   2   9  21   30.72   10.22
   2   9  22   51.32   13.78
  -2   9  22   40.66   12.05
   2  -9  22   67.08   14.77
   2  -9  23   24.14    9.21
  -2   9  23   21.45    9.29
   2   9  23    6.95    6.44
   2   9  24    5.93    8.26
  -2   9  24    1.92    2.44
   2  -9  24   -4.08    3.81
  -2   9  25   11.77    9.23
   2  -9  25   29.56    9.68
   2   9  25   30.09   10.19
   2   9  26   -1.11    4.92
  -2   9  26   -0.06    4.88
   2  -9  26    0.56    6.95
   2   9  27    1.84    3.63
   2  -9  27   -5.78    6.25
  -2   9  27   -2.07    2.74
  -2 -10   0   81.67   13.49
   2 -10   0   70.58   13.06
   2 -10  -1    1.68    3.45
  -2 -10  -1    4.19    4.23
  -2 -10   1    9.64    6.97
   2 -10   1    8.17    6.16
   2 -10  -2   -2.83    2.52
   2 -10   2    2.65    2.75
  -2 -10  -2    7.63    6.71
  -2 -10   2   -0.92    3.45
  -2 -10  -3    6.36    3.70
  -2 -10   3    8.16    5.21
   2 -10   3   12.76    5.79
   2 -10  -3    6.53    4.93
   2 -10   4   81.97   13.81
  -2 -10   4   72.25   12.50
  -2 -10  -4   61.18   11.39
   2 -10  -4   64.77   13.89
  -2 -10   5   19.13    6.69
  -2 -10  -5   25.91    9.25
   2 -10  -5   10.19    3.37
   2 -10  -6  102.49   16.75
   2 -10   6  140.63   19.19
  -2 -10  -6  142.35   18.46
  -2 -10   6  109.19   16.06
  -2 -10   7   -1.50    1.86
   2 -10  -7    6.55    6.11
   2 -10   7    4.10    3.27
   2 -10  -8   18.22    8.26
  -2 -10   8   13.50    7.05
   2 -10   8   18.98    8.90
   2 -10  -9    5.85    4.15
  -2 -10   9    2.37    4.00
   2 -10   9    1.29    3.65
   2 -10 -10    5.52    4.88
  -2 -10  10   -3.23    3.63
   2 -10  10    2.17    4.06
   2  10  10    3.64    2.32
  -2 -10  11   68.23   12.98
   2 -10  11  100.48   17.18
   2  10  11  119.61   18.20
   2 -10  12   72.06   14.21
  -2 -10  12   60.07   12.74
   2  10  12   56.34   12.98
   2  10  13   -1.11    6.09
   2 -10  13    8.65    6.50
  -2 -10  13    0.93    4.80
   2  10  14   26.60   11.05
  -2 -10  14   11.79    5.71
   2 -10  14   28.69    7.65
   2  10  15   66.79   14.77
   2 -10  15   40.44   12.56
  -2  10  15   45.75   12.32
  -2 -10  15   49.74   11.21
  -2 -10  16    9.18    4.31
  -2  10  16   17.23    6.03
   2  10  16   25.70    9.67
   2 -10  17   -0.31    4.19
  -2 -10  17   -0.17    5.49
  -2  10  17    3.73    7.08
   2  10  17    1.27    5.38
  -2 -10  18   46.37   13.88
   2 -10  18   37.74    9.95
  -2  10  18   27.34   10.52
   2  10  18   61.90   14.52
   2 -10  19   38.06   12.61
   2  10  19   55.05   13.72
  -2  10  19   40.65   12.12
   2 -10  20   -0.62    4.10
   2  10  20    7.89    4.56
  -2  10  21    4.27    5.42
   2  10  21   30.20   11.05
   2 -10  21   14.58   10.28
  -2  10  22   92.75   18.11
   2 -10  22   72.84   16.54
   2  10  22   78.75   17.41
   2 -10  23   10.26    6.74
  -2  10  23    9.57    3.52
   2  10  24    6.90    5.23
  -2  10  24    8.15    3.25
  -2  10  25   -0.74    5.23
   2  10  25   -2.96    6.14
   2 -10  25    4.49    2.51
   2 -11   0  263.97   27.18
  -2 -11   0  273.77   26.71
   2 -11  -1   18.48    6.53
  -2 -11  -1   15.67    5.19
   2 -11   1   14.55    6.05
  -2 -11   1   27.05    9.18
   2 -11  -2    1.62    2.62
  -2 -11  -2    2.32    3.90
  -2 -11   2    1.00    2.94
   2 -11   2    3.85    3.40
  -2 -11   3   12.87    7.00
   2 -11  -3    5.13    5.63
   2 -11   3   -2.70    3.66
  -2 -11  -3   10.45    4.43
  -2 -11   4  640.81   40.37
  -2 -11  -4  527.14   37.23
   2 -11   4  598.70   41.07
   2 -11  -4  627.38   41.87
   2 -11  -5   25.70    8.69
   2 -11   5   32.79   10.02
  -2 -11   5   15.77    8.29
  -2 -11  -5   13.22    5.00
  -2 -11   6  157.69   19.57
  -2 -11  -6  143.15   19.43
   2 -11   6  137.73   19.37
   2 -11  -6  154.58   20.99
   2 -11  -7  206.24   24.10
   2 -11   7  176.58   22.71
  -2 -11   7  187.45   22.39
   2 -11  -8   20.16    8.61
   2 -11   8    6.96    3.87
  -2 -11  -8   14.83    8.55
  -2 -11   8   13.91    5.97
   2 -11  -9   56.12   12.39
  -2 -11   9   29.38    7.13
   2 -11   9   42.40    9.80
   2 -11 -10  250.27   27.04
   2 -11  10  238.47   26.25
  -2 -11  10  206.93   23.50
   2 -11 -11    5.53    4.96
   2 -11  11   -0.82    3.82
  -2 -11  11    2.00    3.69
   2 -11  12   46.03   11.91
  -2 -11  12   46.08   11.13
   2 -11 -12   52.53   12.03
   2 -11  13   44.38   11.94
   2  11  13   28.24   10.00
  -2 -11  13    7.60    3.33
   2 -11  14   77.14   15.03
  -2 -11  14  117.68   20.05
   2  11  14  115.23   18.88
   2  11  15   15.13    9.51
   2 -11  15    8.44    6.42
   2 -11  16   35.17   11.50
   2  11  16   34.86    9.93
   2 -11  17    3.72    2.23
   2  11  17    1.78    2.54
  -2  11  18   33.88   10.64
   2  11  18   36.60   10.97
   2 -11  18   39.92   12.15
  -2  11  19    3.60    4.19
   2  11  19   -0.90    2.52
   2 -11  19    1.05    2.40
   2 -11  20    2.08    4.60
  -2  11  20    0.59    4.16
   2  11  20   12.50    7.98
  -2  11  21    3.29    3.88
   2  11  21    2.81    4.82
   2 -11  22    3.41    4.19
   2  11  22    2.13    3.41
  -2  11  22    8.30    3.26
   2  11  23   29.79    9.35
   2 -11  23   15.09    6.82
  -2  11  23   14.91    8.30
   2 -12   0   65.29   14.92
  -2 -12   0   67.72   14.87
  -2 -12   1   17.79    7.67
   2 -12   1   34.05    8.18
  -2 -12  -1   19.56    7.85
   2 -12  -1   39.78   11.53
  -2 -12  -2   24.37   10.26
  -2 -12   2    8.67    4.71
   2 -12  -2    7.96    5.11
   2 -12   2   23.05    8.88
   2 -12  -3   13.97    7.73
  -2 -12   3   24.69    9.76
   2 -12   3   16.25    9.28
  -2 -12  -3    7.82    5.59
   2 -12   4   12.50    5.61
   2 -12  -4   19.78    8.88
  -2 -12  -4   10.12    6.28
  -2 -12   4   18.14    5.94
  -2 -12   5    9.62    5.77
   2 -12   5   11.52    5.41
   2 -12  -5   15.58    9.12
  -2 -12  -5    7.18    4.37
  -2 -12  -6   10.96    4.67
  -2 -12   6    2.49    3.27
   2 -12   6    7.89    8.38
   2 -12  -6   -3.20    4.13
   2 -12  -7   -0.02    1.95
  -2 -12  -7    1.56    2.43
  -2 -12   7    0.90    3.56
   2 -12  -8   13.51    8.10
  -2 -12  -8   11.12    7.23
  -2 -12   8   -1.66    5.87
   2 -12   8   16.73    7.82
   2 -12  -9   14.82    5.24
  -2 -12   9   23.97    8.81
  -2 -12  -9   23.38    8.72
   2 -12   9   17.29    7.25
   2 -12 -10    4.25    5.65
  -2 -12 -10    3.87    4.47
   2 -12  10    4.22    5.68
   2 -12  11   20.64    8.73
   2 -12 -11   33.10   11.55
   2 -12  12    5.37    4.35
   2 -12 -12    4.01    6.17
   2 -12  13    1.79    3.52
   2 -12 -13    0.86    4.96
   2 -12 -14   13.59    6.79
   2 -12  14   13.54    8.65
   2 -12  15   12.75    8.84
   2 -12 -15   15.83    6.09
   2 -12  16    7.75    8.27
   2  12  16   -0.34    3.87
   2 -12  17   -4.08    5.34
   2  12  17   -5.87    6.37
   2 -12  18    7.53    2.51
   2  12  18    1.90    5.96
   2 -12  19   11.17    7.53
   2  12  19   15.04    6.98
   2 -12  20    4.91    7.53
   2  12  20   -2.26    6.12
   2 -12  21   -1.47    2.45
   2  12  21   10.71    9.10
   2 -12  22    4.50    4.32
   2  12  22   -8.23    9.12
   2 -13   0  236.53   27.57
  -2 -13   0  220.48   26.76
  -2 -13  -1   62.35   14.59
  -2 -13   1   37.66   10.33
   2 -13   1   38.67   10.53
   2 -13  -1   73.97   15.36
  -2 -13   2   12.56    7.66
   2 -13   2   -2.21    5.66
  -2 -13  -2    8.41    4.04
   2 -13  -2    0.20    6.05
   2 -13  -3   13.26    6.93
  -2 -13   3   14.46    6.69
  -2 -13  -3    3.12    5.94
   2 -13   3   14.10    6.63
  -2 -13   4   32.61   10.58
   2 -13  -4   43.95   11.24
  -2 -13  -4   26.13    8.73
   2 -13   4   39.68   11.94
   2 -13   5    9.74    6.83
   2 -13  -5    2.35    2.02
  -2 -13  -5   -5.99    6.10
  -2 -13   5    3.39    6.82
   2 -13   6   21.88    8.79
  -2 -13  -6   37.61   11.45
   2 -13  -6   20.26    8.45
   2 -13   7  113.76   18.18
  -2 -13  -7  105.54   18.72
   2 -13  -7  150.13   21.43
   2 -13  -8    4.58    5.38
   2 -13   8   -5.50    7.03
  -2 -13  -8   12.56    5.49
   2 -13  -9   39.17   12.24
  -2 -13  -9   47.72   13.64
   2 -13   9   33.72   11.15
  -2 -13 -10    9.00    5.59
   2 -13 -10   30.15    9.68
   2 -13  10   23.65    9.57
  -2 -13 -11   63.08   15.47
   2 -13 -11   50.82   12.97
   2 -13  11   70.73   15.58
  -2 -13 -12    7.77    2.28
   2 -13  12    7.35    2.21
   2 -13 -13    2.55    4.11
   2 -13  13   -0.60    4.15
  -2 -13 -13   -0.85    3.21
   2 -13  14    2.04    2.10
   2 -13 -14    7.68    8.73
   2 -13 -15   23.19   10.91
   2 -13  15   40.29   11.57
   2 -13  16   -4.36    3.52
   2 -13 -16    3.75    7.60
   2 -13  17   21.56    8.41
   2 -13 -17   15.19    6.59
   2 -13  18    3.60    5.08
   2 -13 -18    7.45    6.79
   2  13  19   -1.57    2.54
   2 -13  19   -1.17    5.81
   2 -14   0   70.79   15.89
  -2 -14   0   73.59   18.28
  -2 -14   1   -6.45    2.20
   2 -14   1   -0.29    3.19
  -2 -14  -1    2.93    3.39
  -2 -14  -2    1.43    2.37
   2 -14   2    3.21    5.19
   2 -14  -2   -7.45    5.82
   2 -14   3   31.95   10.36
   2 -14  -3   18.17    6.60
  -2 -14  -3   26.74    9.01
  -2 -14  -4   -0.68    7.25
   2 -14  -4   24.96    7.64
   2 -14   4   24.12    8.73
   2 -14   5    6.85    7.76
   2 -14  -5    4.51    5.35
  -2 -14  -5    2.18    5.13
  -2 -14  -6    0.85    4.31
   2 -14   6    2.51    8.16
   2 -14  -6    3.72    6.80
   2 -14  -7   27.42   11.62
  -2 -14  -7   20.67    9.12
   2 -14   7   35.61   11.40
  -2 -14  -8   14.15    7.74
   2 -14  -8   11.05    7.76
   2 -14   8   14.80    8.34
  -2 -14  -9    5.65    6.98
   2 -14   9    4.06    3.97
   2 -14  -9   -2.76    3.43
  -2 -14 -10    3.76    6.48
   2 -14  10    3.14    3.35
   2 -14 -10    4.33    5.03
   2 -14 -11   -1.64    6.58
   2 -14  11    6.59    7.38
  -2 -14 -11    2.93    6.44
   2 -14  12   -4.31    5.04
  -2 -14 -12    1.12    5.29
  -2 -14 -13   17.09    7.85
   2 -14  13   19.57    8.34
   2 -14 -13    6.18    5.90
   2 -14  14    7.88    5.75
   2 -14 -14    1.74    6.52
  -2 -14 -14   14.74    4.66
   2 -14  15    2.50    5.06
  -2 -14 -15    0.18    2.61
   2 -14 -15    7.89    8.01
   2 -14 -16  -11.20    8.69
   2 -14  16   -1.29    6.13
  -2 -14 -16    8.54    8.55
   2 -15   0   29.88   10.53
   2 -15   1    2.27    6.61
   2 -15  -1    1.14    6.33
   2 -15   2    5.64    2.29
   2 -15  -2   10.14    6.64
   2 -15   3   43.82   12.21
   2 -15  -3   27.95   11.93
   2 -15   4   44.62   13.22
   2 -15  -4   50.24   12.45
   2 -15   5   -0.20    6.43
   2 -15  -5   -0.54    4.47
  -2 -15  -5   -9.90    8.98
   2 -15  -6   36.67   11.00
  -2 -15  -6   46.25   15.58
   2 -15   6   32.75   12.17
   2 -15  -7   28.58    9.57
  -2 -15  -7   27.12   11.46
   2 -15   7   33.98   11.67
   2 -15  -8   86.04   18.68
  -2 -15  -8   96.29   19.59
   2 -15   8   92.07   17.67
  -2 -15  -9    0.63    5.74
   2 -15  -9    5.32    3.56
   2 -15   9   10.76    9.36
   2 -15  10   15.05    7.88
   2 -15 -10    9.72    5.64
  -2 -15 -10    9.52   10.57
  -2 -15 -11   -4.08    4.52
   2 -15  11    5.84    7.88
   2 -15 -11    5.29    9.42
   2 -15  12    2.11    2.59
   2 -15 -12   12.51    6.38
   2 -15  13   -3.90    5.24
  -2 -15 -13   -9.80    8.74
   2 -16   0   14.24    8.39
   2 -16   1   -2.90    5.71
   2 -16  -1    2.41    6.47
   2 -16   2   -4.45    4.93
   2 -16  -2   -4.40    6.98
   2 -16   3   -1.17    6.99
   2 -16  -3    6.16    7.86
   2 -16  -4    9.38    7.14
   2 -16   4   -4.96    7.59
   2 -16  -5   10.36    7.56
   2 -16   5    0.21    5.73
   2 -16  -6    3.95    5.12
   2 -16   6    4.25    6.72
   2 -16  -7    4.27    2.48
   2 -16   7   -1.67    3.48
   3   0   0    1.22    1.46
   3   0   1    1.66    1.21
   3   0  -1    0.24    0.46
   3   0   2  794.28   21.59
   3   0  -2  860.85   19.22
   3   0   3    1.20    1.74
   3   0   4   34.00    5.50
  -3   0   4   35.72    4.55
  -3   0   5   -0.89    1.66
   3   0   5   -1.16    1.66
  -3   0   6   56.37    6.38
   3   0   6   44.62    7.19
  -3   0   7   -1.24    0.83
   3   0   7    0.58    1.57
   3   0   8   11.66    3.88
  -3   0   8    8.10    3.15
  -3   0   9   -0.56    0.98
   3   0   9   -0.65    2.97
   3   0  10  125.48   13.68
  -3   0  10  120.05   12.21
  -3   0  11   -0.90    3.02
   3   0  11   -1.83    3.47
  -3   0  12    7.25    3.38
   3   0  12    9.87    4.70
   3   0  13    0.69    1.71
  -3   0  13    1.91    3.35
  -3   0  14    0.62    2.59
   3   0  14    0.77    4.15
  -3   0  15    0.06    3.43
   3   0  15    2.32    5.20
  -3   0  16   12.49    5.25
   3   0  16    5.60    6.13
  -3   0  17   -2.64    4.62
   3   0  17    0.20    2.34
   3   0  18  583.81   38.04
  -3   0  18  543.03   35.17
   3   0  19   -1.59    5.34
  -3   0  19   -2.42    2.83
  -3   0  20   -0.55    3.62
   3   0  20    0.54    4.69
  -3   0  21   -0.76    2.93
   3   0  21    0.47    5.26
  -3   0  22    0.95    1.73
   3   0  22   10.93    7.69
  -3   0  23   -0.90    4.58
   3   0  23    8.14    5.91
  -3   0  24    0.59    4.33
   3   0  24    6.29    7.48
  -3   0  25    4.57    7.08
   3   0  25    1.71    3.76
  -3   0  26   24.63    9.92
   3   0  26   33.81   11.65
  -3   0  27    5.97    8.40
   3   0  27   -1.18    4.43
  -3   0  28    1.36    4.24
   3   0  28    4.87    5.91
  -3   0  29    1.48    4.65
   3   0  29   -2.00    4.60
  -3   0  30   24.63    9.08
   3   0  30   13.96    8.90
  -3   0  31   -3.87    4.40
   3   0  31   -1.22    5.32
   3   1   0    1.20    0.87
   3  -1   0    0.75    1.43
   3  -1   1  859.83   24.74
   3   1   1  836.20   17.40
   3  -1  -1  805.54   23.09
   3  -1   2 1676.26   36.05
   3  -1  -2 1685.91   33.60
   3   1   2 1641.33   28.76
   3   1   3 3637.56   46.35
   3  -1   3 3233.00   52.99
   3  -1   4   14.77    4.57
  -3   1   4   10.96    2.46
  -3  -1   4    5.93    1.75
   3   1   4   14.59    3.58
   3  -1   5  528.40   23.00
  -3   1   5  497.44   20.78
  -3  -1   5  495.89   15.74
  -3  -1   6 1955.65   35.86
   3   1   6 2006.13   45.83
  -3   1   6 2096.42   43.93
  -3  -1   7  296.76   15.18
   3   1   7  290.89   18.38
  -3   1   7  320.69   18.09
   3  -1   7  301.04   19.15
  -3   1   8  824.91   30.25
   3  -1   8  776.68   32.07
   3   1   8  745.21   34.13
  -3  -1   8  814.40   26.90
  -3   1   9  367.24   21.40
   3  -1   9  334.01   21.85
  -3  -1   9  326.69   18.33
   3   1   9  329.79   22.04
  -3  -1  10  905.14   32.06
   3   1  10  870.18   36.91
  -3   1  10  883.98   34.39
   3  -1  10  881.14   37.54
  -3   1  11    4.29    0.86
  -3  -1  11    0.74    1.10
   3   1  11    3.87    1.14
   3  -1  11    6.85    3.83
  -3  -1  12 1575.91   47.52
  -3   1  12 1590.20   49.83
   3  -1  12 1681.08   55.04
  -3  -1  13  413.52   25.45
   3   1  13  404.16   27.44
   3  -1  13  372.36   26.42
  -3   1  13  352.80   24.40
  -3   1  14   30.13    7.62
  -3  -1  14   14.91    4.96
   3   1  14   27.39    6.72
   3  -1  14   14.23    5.58
   3  -1  15  116.00   15.21
   3   1  15   87.29   13.44
  -3  -1  15  111.54   15.02
  -3   1  15  141.01   17.01
  -3   1  16 1007.97   46.13
   3  -1  16 1006.36   48.10
  -3  -1  16  951.41   43.27
   3   1  16 1024.97   47.43
  -3  -1  17  109.22   15.58
   3   1  17  157.40   19.55
   3  -1  17  145.98   18.33
  -3   1  17  162.77   18.93
  -3  -1  18   11.79    5.12
   3   1  18    1.69    3.00
   3  -1  18   10.41    5.69
  -3   1  18   -0.20    2.36
  -3   1  19   23.52    7.71
  -3  -1  19   14.45    4.00
   3   1  19   25.72    8.58
   3  -1  19   21.33    8.40
  -3  -1  20  374.58   30.74
   3   1  20  358.42   31.17
   3  -1  20  403.61   32.83
  -3   1  20  328.43   29.86
  -3   1  21   22.61    8.56
  -3  -1  21   15.69    7.58
   3   1  21   28.26    7.66
   3  -1  21   22.21    8.10
   3   1  22  134.25   19.88
   3  -1  22   96.13   18.03
  -3   1  22  120.05   18.21
  -3  -1  22   97.18   16.26
   3  -1  23  279.03   29.16
   3   1  23  280.64   29.12
  -3   1  23  231.26   26.47
  -3  -1  23  288.92   28.10
  -3  -1  24   62.69   13.92
   3   1  24   81.78   15.54
   3  -1  24   64.72   14.62
  -3   1  24   95.54   17.02
  -3   1  25    1.44    2.94
  -3  -1  25    5.27    4.51
   3   1  25   -1.33    2.49
   3  -1  25    3.89    2.23
   3   1  26  143.66   21.89
   3  -1  26  169.62   22.85
  -3   1  26  179.74   23.95
  -3  -1  26  128.58   20.55
  -3   1  27   37.28   11.08
  -3  -1  27   64.30   14.42
   3   1  27   27.00   10.42
   3  -1  27   40.92   11.71
  -3   1  28   28.74   11.89
  -3  -1  28   29.28   11.66
   3   1  28    4.60    6.23
   3  -1  28    8.71    5.03
  -3   1  29    8.36    4.12
  -3  -1  29    7.32    5.61
   3   1  29    4.90    6.29
   3  -1  29   15.71    7.29
  -3   1  30   47.65   14.28
   3   1  30   44.65   13.94
   3  -1  30   62.21   17.12
  -3  -1  30   30.33   11.13
  -3   1  31   37.72   12.49
   3  -1  31   46.32   13.87
   3   1  31   33.36   11.53
  -3  -1  31   40.15   12.36
   3  -2   0   -0.93    1.87
   3   2   1    0.58    0.64
   3  -2  -1    1.52    2.05
   3  -2   1    4.44    2.22
   3  -2  -2  209.09   13.82
   3   2   2  226.03   10.24
   3  -2   2  224.43   14.77
   3  -2   3  463.33   22.03
   3  -2  -3  509.03   21.75
  -3  -2   4  690.58   13.58
   3  -2   4  682.21   27.28
  -3  -2   5  331.93   12.05
   3   2   5  330.79   17.61
  -3   2   5  353.68   19.09
   3  -2   5  358.50   20.14
   3  -2   6    1.31    2.33
  -3  -2   6   -0.50    1.54
   3   2   6    0.63    2.12
  -3   2   6   -0.38    1.10
   3  -2   7  236.49   17.45
  -3  -2   7  235.02   13.28
   3   2   7  200.44   15.04
  -3   2   7  198.55   15.44
  -3  -2   8  379.79   18.71
   3  -2   8  382.55   22.86
  -3   2   8  327.97   20.51
   3  -2   9   -0.53    2.19
  -3  -2   9    8.86    4.06
   3   2   9   11.34    4.22
  -3   2   9    9.47    4.32
  -3  -2  10   -0.55    2.30
   3   2  10   -1.09    2.10
  -3   2  10    0.07    1.08
   3  -2  10    3.92    3.53
  -3   2  11   38.26    7.74
  -3  -2  11   23.23    5.51
   3   2  11   27.22    6.93
   3  -2  11   19.91    6.01
   3   2  12   94.64   13.08
   3  -2  12   59.99   10.31
  -3  -2  12   96.86   12.29
  -3   2  12   94.52   12.62
  -3  -2  13   43.73    8.62
   3   2  13   54.53   10.21
  -3   2  13   43.73    9.12
   3  -2  13   42.63    8.73
  -3  -2  14   74.57   10.97
   3   2  14   84.56   12.95
  -3   2  14   92.97   12.84
   3  -2  14   70.00   11.78
  -3  -2  15   67.07   11.58
   3   2  15  101.28   15.11
   3  -2  15   75.53   12.39
  -3   2  15   68.24   11.90
  -3  -2  16  124.09   15.93
   3   2  16  111.81   16.53
   3  -2  16  135.06   17.38
  -3   2  16  137.18   16.70
  -3  -2  17   66.33   12.16
   3   2  17   50.66   12.23
   3  -2  17   54.56   11.72
  -3   2  17   55.53   11.14
  -3  -2  18   95.49   15.05
   3   2  18   97.14   15.68
   3  -2  18  121.01   17.18
  -3   2  18  122.30   16.73
  -3   2  19    2.20    3.74
  -3  -2  19    6.93    5.56
   3   2  19    2.00    4.34
   3  -2  19    2.53    6.39
  -3   2  20   36.08   10.54
  -3  -2  20   28.95    8.37
   3   2  20   28.19    8.58
   3  -2  20   39.89   10.43
  -3  -2  21   50.68   12.24
   3   2  21   71.19   14.30
  -3   2  21   50.14   12.07
   3  -2  21   53.67   12.18
   3   2  22   17.56    8.16
  -3  -2  22    8.59    6.02
   3  -2  22   10.34    5.13
  -3   2  22   12.48    5.29
  -3   2  23    8.52    7.09
  -3  -2  23   -1.11    3.97
   3   2  23    8.85    6.24
   3  -2  23    1.23    3.46
  -3   2  24   -1.65    3.39
  -3  -2  24   -0.17    5.46
   3   2  24   -1.51    4.22
   3  -2  24   -5.08    6.32
  -3  -2  25    7.94    5.60
   3   2  25    2.97    4.79
   3  -2  25    5.82    3.49
  -3   2  25    8.57    5.54
  -3   2  26   -1.52    5.80
  -3  -2  26    1.52    2.40
   3   2  26    0.65    4.65
   3  -2  26   -0.15    5.09
  -3  -2  27   32.87   11.82
   3   2  27   13.85    6.60
   3  -2  27   18.90    7.92
  -3   2  27   32.55   10.73
  -3  -2  28    6.07    7.11
   3   2  28    8.81    5.85
  -3   2  28    6.81    4.11
   3  -2  28    8.56    4.38
  -3   2  29    3.52    4.52
   3   2  29    1.72    3.82
  -3  -2  29   -1.40    4.99
   3  -2  29    6.77    7.46
  -3   2  30   -1.21    3.12
  -3  -2  30   -0.86    4.05
   3   2  30    5.95    3.72
   3  -2  30    4.71    6.46
  -3   2  31   -0.09    4.55
   3   2  31   -1.92    5.37
   3  -2  31   -2.64    2.92
  -3  -2  31    9.11    8.27
   3  -3   0   -3.17    3.10
   3   3   1   75.73    6.31
   3  -3   1   81.94   10.17
  -3  -3   1   88.39    5.02
   3  -3  -1   95.50   10.83
   3  -3  -2  840.99   31.16
   3  -3   2  787.47   31.06
   3   3   2  853.81   21.79
   3  -3   3  135.30   12.94
  -3  -3   3  137.27    6.24
   3   3   3  155.52   10.15
   3  -3   4  449.04   24.16
  -3  -3   4  505.89   13.91
   3   3   4  459.11   19.50
   3  -3   5 3601.39   68.64
   3   3   5 3505.87   57.39
  -3  -3   6  791.33   21.96
  -3   3   6  739.84   30.89
   3   3   6  777.49   28.28
   3  -3   6  827.09   33.65
  -3  -3   7   74.65    7.53
  -3   3   7   72.55   10.03
   3  -3   7   79.50   10.57
   3   3   7   81.53    9.58
   3   3   8  346.64   21.07
  -3  -3   8  390.68   19.07
   3  -3   8  348.28   22.82
  -3   3   8  303.17   21.42
  -3  -3   9 1239.51   37.03
   3  -3   9 1158.00   43.37
  -3   3   9 1203.13   43.04
   3   3  10  193.20   17.26
  -3  -3  10  201.77   15.63
   3  -3  10  208.43   19.20
  -3   3  10  194.91   17.59
   3  -3  11   38.07    8.42
   3   3  11   41.74    8.23
  -3  -3  11   32.89    6.56
  -3   3  11   41.55    8.19
  -3   3  12   -0.31    1.65
   3  -3  12   -3.38    4.03
   3   3  12   -0.01    2.58
  -3  -3  12    0.42    2.23
   3   3  13  452.51   29.44
  -3  -3  13  446.68   26.73
  -3   3  13  453.78   29.88
   3  -3  13  434.81   29.86
  -3   3  14   -1.12    3.54
   3   3  14    0.06    2.56
  -3  -3  14    0.66    2.24
   3  -3  14    2.48    4.83
   3   3  15  352.86   27.09
  -3  -3  15  306.99   24.39
  -3   3  15  337.49   26.60
   3   3  16    1.70    2.11
  -3  -3  16   -3.07    4.23
   3  -3  16   -0.98    2.81
   3   3  17  359.83   28.57
  -3  -3  17  425.66   30.39
   3  -3  17  377.97   30.14
  -3   3  17  399.02   30.60
  -3  -3  18  127.31   17.67
   3  -3  18  135.39   19.06
   3   3  18  142.23   18.26
  -3   3  18  112.98   16.79
   3   3  19  163.30   20.93
  -3  -3  19  157.05   19.87
   3  -3  19  158.30   20.11
  -3   3  19  160.48   21.09
  -3   3  20    7.72    6.84
   3   3  20   17.39    8.27
  -3  -3  20    2.37    3.52
   3  -3  20   13.17    5.56
   3   3  21   83.54   15.30
  -3  -3  21   55.54   12.10
   3  -3  21   68.31   13.92
  -3   3  21   41.06   11.81
   3   3  22   27.37    9.29
  -3  -3  22   25.59    8.47
  -3   3  22   21.35    8.60
   3  -3  22   20.18    7.43
  -3  -3  23  120.49   19.83
   3  -3  23  143.80   20.72
  -3   3  23  103.88   17.98
   3   3  23  146.15   20.64
   3   3  24   -1.87    5.59
  -3  -3  24   12.73    8.05
   3  -3  24   16.18    7.96
  -3   3  24    1.57    6.96
  -3   3  25    6.08    6.15
   3   3  25   -0.12    2.62
  -3  -3  25    5.32    4.35
   3  -3  25    6.59    7.49
   3   3  26   32.73   10.76
  -3  -3  26   38.73   12.94
   3  -3  26   46.38   11.77
  -3   3  26   23.59    8.75
  -3   3  27   49.82   12.98
   3   3  27   51.39   13.93
  -3  -3  27   54.09   13.86
   3  -3  27   66.36   14.28
  -3   3  28   25.95   11.79
   3   3  28   21.16   11.03
  -3  -3  28   13.61    7.08
   3  -3  28   10.16    7.44
  -3   3  29   18.32    8.82
   3   3  29   22.40    8.42
  -3  -3  29   17.80   10.14
   3  -3  29   15.22    7.78
  -3   3  30   38.10   13.03
   3   3  30   16.18    7.02
  -3  -3  30   26.48   11.63
   3  -3  30   38.08   11.16
  -3   3  31   50.04   12.82
   3   3  31   61.54   15.34
  -3  -3  31   70.94   19.35
   3  -3  31   39.31   12.24
  -3  -4   0    1.05    1.37
   3  -4   0    1.75    2.08
  -3  -4   1  332.43   13.37
   3  -4   1  340.30   21.70
   3   4   1  319.01   14.35
   3  -4  -1  302.17   20.87
   3  -4  -2    2.10    1.75
  -3  -4   2    0.78    0.97
   3  -4   2    0.10    2.22
   3   4   2    1.49    0.89
  -3  -4   3   63.08    5.85
   3  -4  -3   66.93    9.64
   3  -4   3   86.79   11.35
   3   4   3   75.09    7.86
   3  -4   4 1062.61   39.44
   3  -4  -4 1093.50   39.50
   3   4   4 1140.73   32.82
  -3  -4   4 1142.30   25.61
   3   4   5   25.26    5.05
  -3  -4   5   32.77    4.62
  -3   4   6  173.74   15.84
   3   4   6  202.13   15.05
  -3  -4   6  192.37   12.05
   3  -4   6  178.86   16.56
  -3  -4   7  110.93    9.90
   3  -4   7  117.45   13.51
  -3   4   7   96.35   12.25
   3   4   7  127.43   12.89
   3  -4   8   51.07    9.30
  -3  -4   8   56.91    7.84
  -3   4   8   57.67    9.72
   3   4   8   42.60    7.73
  -3   4   9  745.52   35.98
  -3  -4   9  835.24   30.44
   3  -4   9  800.64   37.60
   3   4   9  830.85   35.68
   3   4  10   -0.29    1.84
   3  -4  10    2.54    1.74
  -3   4  10    5.93    4.66
  -3  -4  10    3.33    1.25
   3   4  11   -0.63    2.99
  -3  -4  11    0.40    1.22
   3  -4  11    1.85    2.30
  -3   4  11   -3.22    3.58
   3  -4  12   14.31    5.50
   3   4  12   10.10    4.72
  -3  -4  12   12.62    4.41
  -3   4  12   10.09    2.79
   3  -4  13   11.16    6.00
   3   4  13    7.11    4.69
  -3  -4  13    8.78    4.96
  -3   4  13   11.87    5.13
   3   4  14    4.78    5.06
   3  -4  14    3.77    5.90
  -3   4  14    2.90    2.09
  -3  -4  14    6.02    4.21
   3   4  15    5.74    3.45
  -3  -4  15    6.16    4.39
   3  -4  15    3.44    3.77
  -3   4  15    2.48    4.13
  -3   4  16   26.12    9.22
   3   4  16   18.23    6.29
  -3  -4  16   22.03    6.78
   3  -4  16   27.26    9.32
  -3   4  17   11.08    4.47
   3   4  17   18.11    6.31
  -3  -4  17   19.28    6.18
   3  -4  17   15.97    6.76
   3   4  18   -6.23    7.20
  -3   4  18    2.27    2.56
  -3  -4  18   -0.90    2.87
   3  -4  18    3.90    4.81
   3   4  19    7.95    3.16
  -3  -4  19    7.70    4.50
  -3   4  19    2.09    4.57
   3  -4  19    0.95    3.97
   3   4  20   52.01   12.95
  -3  -4  20   55.07   11.32
   3  -4  20   66.75   13.74
  -3   4  20   67.22   13.70
   3   4  21   17.03    8.58
  -3  -4  21   12.56    6.29
   3  -4  21   23.45   10.24
  -3   4  21   17.18    9.07
  -3   4  22   -2.19    3.25
   3   4  22   -1.43    3.62
  -3  -4  22   -0.85    4.23
   3  -4  22   -3.00    2.32
  -3   4  23    1.00    3.73
   3   4  23    3.73    4.96
  -3  -4  23    3.98    2.86
   3  -4  23    9.90    5.79
  -3   4  24   -6.13    7.16
   3   4  24   -0.99    2.15
  -3  -4  24   -1.91    5.38
   3  -4  24    3.14    6.48
  -3   4  25    1.40    3.90
  -3  -4  25    6.68    5.82
   3  -4  25    4.72    6.75
   3   4  25   -0.35    2.28
  -3   4  26   10.96    5.86
   3   4  26    6.21    6.22
  -3  -4  26    6.00    2.83
  -3   4  27   -0.65    5.78
   3   4  27    5.39    7.63
   3  -4  27   -0.25    5.49
  -3  -4  27    4.85    6.84
  -3   4  28    0.83    2.76
   3   4  28    9.03    6.92
   3  -4  28   11.53    7.60
  -3  -4  28   -2.33    2.64
   3   4  29    1.07    4.94
   3  -4  29   10.50    6.94
  -3   4  29    4.20    8.06
  -3   4  30   13.98    9.00
   3   4  30   11.62    4.97
   3  -4  30    9.93    6.75
   3  -5   0    1.16    3.19
  -3  -5   0    0.43    0.87
  -3  -5  -1  334.45   17.29
   3  -5   1  318.07   22.51
  -3  -5   1  378.69   17.58
   3  -5  -1  368.69   24.40
  -3  -5   2  592.70   22.10
   3  -5   2  586.82   30.86
   3   5   2  597.48   24.19
   3  -5  -2  589.89   31.08
  -3  -5   3   22.99    4.25
   3  -5   3   17.78    5.81
   3  -5  -3   33.67    7.63
   3   5   3   22.75    4.74
   3  -5   4   19.97    6.20
   3  -5  -4   10.72    5.12
  -3  -5   4   16.23    3.75
   3   5   4   10.62    4.10
   3  -5   5  359.42   24.66
   3   5   5  334.64   20.24
  -3  -5   5  346.00   17.60
   3  -5  -5  374.53   24.93
   3  -5   6  303.95   22.76
  -3  -5   6  298.24   16.86
   3   5   6  254.48   18.61
   3   5   7  137.84   13.77
  -3  -5   7  134.20   11.70
  -3   5   7  139.27   15.11
  -3   5   8  349.71   24.73
   3  -5   8  375.78   25.94
  -3  -5   8  361.11   20.28
   3   5   8  365.68   24.01
   3   5   9    0.92    2.11
  -3   5   9    3.82    2.89
   3  -5   9    3.19    1.96
  -3  -5   9    0.29    3.00
   3  -5  10   23.57    7.99
   3   5  10   10.81    4.37
  -3   5  10   16.61    5.65
  -3  -5  10    7.61    2.41
   3  -5  11  510.86   32.06
  -3  -5  11  511.21   28.06
   3   5  11  475.42   29.68
  -3   5  11  487.64   31.58
   3  -5  12   45.83    9.37
   3   5  12   29.22    7.87
  -3   5  12   42.66    9.63
  -3  -5  12   38.00    7.94
   3   5  13   33.33    7.04
   3  -5  13   48.82   10.38
  -3   5  13   39.73    9.79
  -3  -5  13   21.95    5.88
   3  -5  14   10.74    5.51
   3   5  14    7.43    5.50
  -3   5  14    9.02    6.76
  -3  -5  14   17.16    7.05
  -3  -5  15   47.42    9.89
   3   5  15   61.54   12.97
  -3   5  15   54.73   10.32
   3  -5  15   55.20   11.40
  -3  -5  16  344.97   28.56
   3  -5  16  349.40   29.19
  -3   5  16  370.03   30.24
   3   5  16  346.03   29.27
  -3  -5  17  138.87   18.37
   3  -5  17  131.40   18.53
  -3   5  17  133.56   18.17
   3   5  17  124.70   18.15
   3   5  18   25.07    8.33
  -3   5  18   14.42    6.70
  -3  -5  18   37.94   11.49
   3  -5  18   23.03    7.64
   3   5  19   24.73    9.80
  -3  -5  19   21.09    6.47
   3  -5  19   35.12    9.73
  -3   5  19   23.35    8.42
   3  -5  20   78.95   15.07
   3   5  20   81.93   15.15
  -3  -5  20   76.52   15.30
  -3   5  20   62.23   14.23
  -3  -5  21   88.16   15.72
   3   5  21   76.52   14.76
   3  -5  21  100.20   17.56
  -3   5  21   82.09   16.50
   3   5  22   72.60   15.07
   3  -5  22   93.36   17.83
  -3  -5  22   71.75   14.48
  -3   5  22   80.81   15.81
  -3   5  23   -8.06    6.23
   3   5  23    1.67    2.17
  -3  -5  23   -1.29    3.92
   3  -5  23    1.01    4.46
  -3  -5  24  224.27   26.81
   3  -5  24  250.15   28.51
  -3   5  24  215.49   26.33
   3   5  24  222.22   26.21
   3   5  25   10.22    8.45
  -3  -5  25    6.21    4.89
   3  -5  25    4.24    4.07
  -3   5  25    2.54    2.06
  -3   5  26   51.28   13.52
  -3  -5  26   58.18   15.95
   3   5  26   96.92   19.34
   3  -5  26   48.90   15.71
  -3   5  27   54.46   13.90
   3   5  27   23.74    9.67
   3  -5  27   40.88   15.86
  -3   5  28   28.68   10.29
   3   5  28   13.59    5.68
   3  -5  28   13.94    7.11
  -3   5  29   10.70    8.90
   3   5  29   -0.68    6.39
   3  -5  29   -3.44    6.71
  -3   5  30   29.33    8.65
   3   5  30   46.10   15.02
   3  -5  30   31.45   11.17
   3  -6   0   -1.23    2.86
  -3  -6   0   -2.04    2.22
   3  -6  -1    8.68    3.90
  -3  -6   1    6.10    1.94
  -3  -6  -1   12.93    4.21
   3  -6   1    8.58    4.89
  -3  -6   2  363.15   20.22
   3  -6   2  302.32   23.69
   3   6   3   36.02    6.94
   3  -6  -3   40.24    8.95
  -3  -6   3   36.99    6.34
   3  -6   3   38.27    8.69
  -3  -6   4   42.21    7.25
   3  -6  -4   62.54   10.44
   3   6   4   45.50    7.79
   3  -6   4   36.49    8.71
   3  -6   5   67.84   11.59
  -3  -6   5   43.82    6.74
   3  -6  -5   51.48   10.08
   3   6   5   64.44    9.90
   3  -6  -6  125.73   15.44
   3  -6   6  111.51   14.65
  -3  -6   6  145.04   12.96
   3   6   6  137.83   14.55
  -3  -6   7    0.72    2.67
   3  -6   7   -1.60    5.48
   3   6   7    0.28    1.31
   3  -6   8   64.96   10.91
   3   6   8   53.27    9.27
  -3  -6   8   59.40    8.25
   3   6   9    9.53    3.45
  -3  -6   9   18.44    4.71
  -3   6   9   25.46    7.21
   3  -6   9   16.89    7.18
  -3  -6  10    5.41    2.15
   3   6  10    8.91    4.72
   3  -6  10    8.15    3.76
  -3   6  10    2.82    4.29
   3   6  11   10.51    5.26
  -3   6  11   14.43    6.82
   3  -6  11   12.94    4.98
  -3  -6  11    7.38    4.40
  -3  -6  12    2.73    3.25
  -3   6  12    0.44    3.55
   3  -6  12   -1.84    3.40
   3   6  12   -2.33    5.29
   3   6  13   42.85    9.92
   3  -6  13   28.91    7.95
  -3  -6  13   32.65    7.62
  -3   6  13   29.67    8.64
   3   6  14   66.85   11.56
  -3  -6  14   74.17   12.20
   3  -6  14   78.63   14.47
  -3   6  14   53.91   13.11
   3   6  15   13.00    6.71
   3  -6  15    4.92    3.90
  -3  -6  15   14.21    7.41
  -3   6  15    7.75    4.65
   3  -6  16    9.46    8.22
   3   6  16    3.38    4.84
  -3  -6  16   -0.68    2.32
  -3   6  16    1.58    1.84
   3  -6  17   16.39    5.99
   3   6  17   18.78    7.72
  -3  -6  17    9.78    4.14
  -3   6  17   11.84    6.49
   3  -6  18   12.33    3.45
  -3  -6  18    4.26    3.78
   3   6  18    2.88    3.69
  -3   6  18   13.35    7.23
   3   6  19    5.40    3.52
  -3  -6  19   -2.50    5.41
  -3   6  19    7.27    6.03
   3  -6  19   10.81    8.88
   3   6  20   12.77    7.26
   3  -6  20    2.55    1.85
  -3  -6  20   14.01    6.35
  -3   6  20   12.72    4.89
   3   6  21    2.80    4.71
  -3   6  21   -1.18    4.85
  -3  -6  21    1.22    4.12
   3  -6  21    1.48    8.30
   3   6  22   -1.66    4.33
  -3  -6  22    5.68    7.32
   3  -6  22    6.16    6.05
  -3   6  22   -3.38    1.96
   3   6  23    3.46    4.04
  -3   6  23    1.86    6.90
  -3  -6  23   19.54   12.02
   3  -6  23    6.42    3.71
   3   6  24    3.59    3.75
   3  -6  24   15.90    8.72
  -3   6  24   11.07    5.75
   3   6  25    0.26    2.75
   3  -6  25   -1.21    5.58
  -3   6  25    2.71    7.77
   3   6  26   -0.13    5.70
   3  -6  26    4.77    6.93
  -3   6  26    6.45    5.91
  -3   6  27    1.98    4.85
   3   6  27   -5.89    8.66
   3  -6  27   -0.46    5.34
   3   6  28    6.65    4.96
   3  -6  28   11.66    6.98
  -3   6  28    6.15    8.69
   3   6  29   36.52   11.80
   3  -6  29   23.51    9.70
  -3   6  29   41.21   11.74
   3  -7   0    2.58    4.13
  -3  -7   0   -0.70    1.87
  -3  -7  -1  484.06   26.64
   3  -7   1  494.43   31.59
  -3  -7   1  537.05   27.22
   3  -7  -1  461.82   30.97
  -3  -7  -2   20.30    5.47
   3  -7  -2    8.69    3.10
  -3  -7   2   14.95    4.42
   3  -7   2   25.83    8.74
   3  -7  -3  747.51   38.49
  -3  -7   3  672.21   30.49
   3  -7   3  658.96   36.99
   3  -7  -4 1024.54   45.91
  -3  -7   4  985.88   36.54
   3  -7   4 1017.25   45.94
  -3  -7   5  932.45   36.41
   3  -7   5  903.24   43.41
   3  -7  -5  917.29   43.41
   3   7   5  923.72   38.51
  -3  -7   6  157.02   14.93
   3  -7   6  153.04   18.04
   3   7   6  170.90   17.48
   3  -7  -6  137.03   17.04
   3  -7  -7    2.01    4.77
   3  -7   7    3.34    3.53
  -3  -7   7    1.97    2.10
   3   7   7    5.01    2.92
   3  -7   8  326.92   27.23
  -3  -7   8  279.02   20.66
   3   7   8  291.36   23.45
  -3  -7   9  603.26   30.83
   3   7   9  562.21   33.13
   3  -7   9  621.27   36.82
  -3   7  10   62.76   11.64
   3   7  10   62.11   11.58
   3  -7  10   46.84   10.56
  -3  -7  10   75.04   11.13
  -3  -7  11    1.79    2.51
   3  -7  11    2.12    3.58
  -3   7  11    1.72    3.45
   3   7  11   11.05    5.80
   3   7  12   93.24   15.01
  -3  -7  12   97.92   13.49
  -3   7  12  111.03   16.37
   3  -7  12   97.07   14.57
  -3  -7  13  816.41   41.47
  -3   7  13  734.44   42.78
   3  -7  13  824.98   44.45
   3   7  13  736.29   41.72
   3   7  14   18.99    5.79
   3  -7  14   14.70    4.99
  -3   7  14   19.10    8.39
  -3  -7  14   12.14    4.85
   3   7  15    4.29    3.84
   3  -7  15    3.77    4.70
  -3  -7  15    3.01    2.56
  -3   7  15   -0.39    6.29
   3   7  16    8.32    5.13
   3  -7  16   25.01    8.48
  -3   7  16   19.33    7.65
  -3  -7  16   28.07    7.77
  -3   7  17  301.33   28.72
  -3  -7  17  333.38   28.67
   3  -7  17  376.70   32.41
   3   7  17  286.59   28.28
   3   7  18   10.53    6.47
   3  -7  18    4.87    4.92
  -3  -7  18    9.41    5.99
  -3   7  18    4.51    4.54
  -3   7  19  231.86   26.38
  -3  -7  19  246.52   27.37
   3  -7  19  204.84   25.16
   3   7  19  237.01   26.29
   3   7  20   56.38   13.53
  -3   7  20   32.19    9.99
   3  -7  20   36.95   11.41
  -3   7  21   81.82   16.35
   3  -7  21   60.36   14.67
   3   7  21   57.05   14.50
   3   7  22   34.15    9.98
   3  -7  22   28.71   11.50
  -3   7  22   25.24   11.65
   3   7  23  220.68   27.10
   3  -7  23  238.73   28.68
  -3   7  23  180.24   24.43
   3   7  24   -2.89    5.43
   3  -7  24    1.07    3.27
  -3   7  24    9.45    7.18
   3   7  25   54.45   14.06
   3  -7  25   14.24    9.41
  -3   7  25   43.73   12.76
   3   7  26   -3.41    4.08
   3  -7  26    1.98    4.53
  -3   7  26    0.64    4.21
   3  -7  27  212.59   27.59
  -3   7  27  191.98   27.07
   3   7  27  236.55   29.29
   3   7  28   16.89    9.00
   3  -7  28    9.74    5.80
  -3   7  28   -2.08    4.25
   3  -8   0   -0.99    4.24
  -3  -8   0    1.95    3.89
   3  -8  -1   13.41    6.58
   3  -8   1   11.13    4.10
  -3  -8  -1    9.68    4.49
  -3  -8   1    7.28    3.77
  -3  -8  -2    2.50    3.42
   3  -8  -2   -3.03    4.43
  -3  -8   2    2.77    3.10
   3  -8   2    2.14    5.15
  -3  -8  -3  110.63   14.26
  -3  -8   3  112.02   14.10
   3  -8   3  106.01   15.53
   3  -8  -3  105.33   14.91
  -3  -8   4   64.09   10.04
   3  -8   4   60.55   11.84
   3  -8  -4   42.60   10.48
   3  -8   5   41.32    9.64
   3  -8  -5   55.06   10.89
  -3  -8   5   38.68    8.23
   3  -8   6   64.71   12.27
   3  -8  -6   37.10    8.92
   3   8   6   62.84   10.84
  -3  -8   6   66.03   10.78
  -3  -8   7   12.21    5.66
   3  -8  -7   13.24    5.86
   3   8   7    4.86    1.80
  -3  -8   8   98.77   13.30
   3  -8   8  101.28   15.54
   3   8   8   99.39   14.65
   3  -8  -8   86.73   14.67
   3  -8   9  157.54   18.80
   3   8   9  141.44   17.53
  -3  -8   9  137.97   15.78
  -3  -8  10   17.04    4.63
   3   8  10   20.02    6.22
  -3  -8  11    7.56    4.76
   3  -8  11    2.40    2.97
   3   8  11   12.63    5.64
  -3  -8  12   13.46    5.17
  -3   8  12   36.94   11.37
   3  -8  12   22.17    7.61
   3   8  12   23.84    6.84
  -3  -8  13    5.27    4.30
   3  -8  13   16.37    8.31
  -3   8  13   12.71    5.25
   3   8  13   13.94    5.59
  -3   8  14   -1.45    4.70
   3  -8  14    1.69    4.35
  -3  -8  14   -0.98    1.76
   3   8  14    4.77    5.87
   3  -8  15   55.51   12.21
  -3  -8  15   57.88   12.30
  -3   8  15   58.87   12.61
   3   8  15   44.23   11.08
   3  -8  16   -3.20    3.30
  -3   8  16    2.30    3.11
   3   8  16    1.46    4.02
   3  -8  17   72.13   14.77
  -3   8  17   61.37   13.36
   3   8  17   61.69   12.66
   3   8  18    3.49    2.84
   3  -8  18   -1.08    2.82
  -3   8  18    7.10    7.25
   3   8  19    9.71    7.89
   3  -8  19    8.05    7.19
  -3   8  19    0.02    2.58
  -3   8  20   23.98   10.12
   3  -8  20   31.91   10.42
   3   8  20   19.08    6.97
   3   8  21    2.39    6.99
  -3   8  21   -3.73    4.73
   3  -8  21    1.15    5.66
   3  -8  22    7.02    6.96
   3   8  22    5.21    7.03
  -3   8  22   15.85    7.32
   3   8  23   -8.45    6.27
   3  -8  23   -4.28    4.82
  -3   8  23   -3.59    6.07
   3   8  24   20.39    9.91
   3  -8  24    7.76    6.05
  -3   8  24    1.34    6.06
   3   8  25    9.48    5.98
   3  -8  25    4.89    2.67
  -3   8  25    9.81    6.60
   3   8  26    4.73    6.80
  -3   8  26    2.04    5.67
   3  -8  26    9.70    6.74
   3   8  27   -2.77    5.14
   3  -8  27   -1.93    7.09
  -3   8  27    0.29    4.56
  -3  -9   0    8.23    5.49
   3  -9   0   -0.32    2.58
  -3  -9  -1  628.24   35.58
   3  -9   1  718.24   42.28
  -3  -9   1  674.98   36.26
   3  -9  -1  625.36   39.22
  -3  -9  -2   71.03   11.58
   3  -9  -2   61.27   12.36
  -3  -9   2   53.34   10.13
   3  -9   2   49.17   11.76
  -3  -9  -3   -1.24    1.39
   3  -9   3    0.37    2.48
   3  -9  -3   -2.32    3.08
  -3  -9   3   -1.10    2.35
  -3  -9   4  206.68   19.82
  -3  -9  -4  184.43   19.23
   3  -9  -4  176.18   20.41
   3  -9   4  203.35   21.90
   3  -9  -5  953.82   49.30
  -3  -9   5  949.93   42.94
   3  -9   5  936.89   48.45
  -3  -9  -5 1096.61   48.30
  -3  -9   6  214.62   20.51
   3  -9  -6  175.88   21.15
   3  -9   6  196.46   22.46
   3  -9  -7  168.96   21.06
  -3  -9   7  194.26   19.41
   3  -9   8  115.56   17.38
   3  -9  -8  128.84   18.15
   3   9   8  124.24   17.58
  -3  -9   8  133.16   16.60
   3  -9   9  361.26   30.30
   3  -9  -9  351.37   29.83
   3   9   9  409.23   31.11
  -3  -9   9  394.06   28.72
   3  -9 -10  100.24   16.49
   3   9  10  197.47   21.51
  -3  -9  10  134.00   17.26
   3  -9  10  192.18   22.61
   3  -9  11   60.76   11.96
  -3  -9  11   69.47   13.67
   3   9  11   66.05   12.65
  -3  -9  12   -4.77    3.35
   3  -9  12    7.01    5.93
   3   9  12   12.96    6.56
   3   9  13  120.54   17.58
   3  -9  13  134.31   18.62
   3  -9  14   89.97   16.35
   3   9  14   58.67   13.25
   3  -9  15   11.09    5.01
  -3   9  15    5.22    6.26
   3   9  15   14.84    6.36
   3  -9  16  285.24   28.58
  -3   9  16  231.27   25.93
   3   9  16  256.29   27.70
   3  -9  17  181.12   23.29
  -3   9  17  157.78   21.62
   3   9  17  176.30   22.66
   3  -9  18    1.00    5.15
   3   9  18    3.49    2.71
  -3   9  18    6.19    5.73
   3  -9  19  111.49   18.63
  -3   9  19  128.62   20.44
   3   9  19  150.86   21.78
  -3   9  20   84.27   16.38
   3  -9  20  123.84   20.76
   3   9  20   90.61   17.86
  -3   9  21   41.95   12.96
   3   9  21   57.33   13.23
   3  -9  21   53.91   14.19
  -3   9  22   -4.28    6.45
   3  -9  22    7.83    5.99
   3   9  22    1.24    2.92
   3   9  23  161.29   23.77
   3  -9  23  158.33   22.83
  -3   9  23  188.86   26.59
   3   9  24   27.72    9.56
  -3   9  24    9.07    5.08
   3  -9  24   29.47    9.03
   3   9  25   14.65    5.33
   3  -9  25   26.45    7.59
  -3   9  25   34.15   11.74
  -3   9  26   24.34   10.01
   3  -9  26   34.14    9.64
   3   9  26   20.96    9.89
   3 -10   0    2.72    5.28
  -3 -10   0   -0.79    4.68
   3 -10  -1    4.63    5.49
  -3 -10  -1   10.41    5.32
  -3 -10   1    9.38    5.81
   3 -10   1   16.32    6.35
   3 -10  -2    1.16    4.90
  -3 -10   2   -0.90    3.65
  -3 -10  -2    2.42    2.43
   3 -10   2    2.21    3.27
  -3 -10   3   14.51    6.14
   3 -10  -3   21.16    7.34
   3 -10   3   14.93    8.29
  -3 -10  -3    8.03    4.68
  -3 -10   4   10.54    5.41
   3 -10   4    1.31    3.34
  -3 -10  -4   12.08    6.12
   3 -10  -4   21.60    7.96
  -3 -10  -5    0.67    1.90
   3 -10  -5    3.02    2.06
   3 -10   5   -0.96    4.84
  -3 -10   5    4.99    4.33
  -3 -10  -6    8.47    5.91
   3 -10  -6    6.83    4.10
   3 -10   6    1.94    5.05
  -3 -10   6    5.74    4.79
   3 -10  -7   40.87    9.71
   3 -10   7   53.71   11.78
  -3 -10   7   76.46   14.08
   3 -10   8  132.28   19.88
   3 -10  -8  136.24   19.41
   3 -10   9   67.62   14.17
   3 -10  -9   78.35   14.35
   3 -10 -10   54.19   11.22
   3 -10  10   48.27   12.04
   3  10  10   63.40   13.10
   3 -10  11   13.89    9.04
   3 -10 -11   13.85    7.17
   3  10  11    6.26    3.49
   3 -10  12   -3.54    3.32
   3  10  12   -1.58    4.29
   3 -10  13   13.99    8.19
   3  10  13    6.37    4.59
   3  10  14   39.54   11.30
   3 -10  14   30.87    9.72
   3 -10  15    2.02    3.81
   3  10  15   -1.58    4.67
   3 -10  16   15.29    7.50
   3  10  16   32.61   10.47
   3 -10  17   13.17    8.46
  -3  10  17   24.00    9.19
   3  10  17   24.13    9.81
   3 -10  18   57.27   13.86
  -3  10  18   61.21   14.74
   3  10  18   62.59   14.86
   3 -10  19   21.94   10.49
  -3  10  19    8.04    5.67
   3  10  19    5.75    8.37
   3 -10  20    8.42    4.89
  -3  10  20   12.56    6.08
   3  10  20   21.87    9.29
   3 -10  21    9.88    4.71
  -3  10  21   17.87    7.19
   3  10  21    8.58    2.65
   3 -10  22   25.98    9.45
  -3  10  22   26.97    8.86
   3  10  22   23.37   10.27
  -3  10  23    4.32    7.00
   3 -10  23    2.04    3.74
   3  10  23    2.87    5.57
  -3  10  24   -4.49    2.71
   3 -10  24    5.02    5.08
   3  10  24   -1.66    3.38
  -3 -11   0    1.72    4.46
   3 -11   0   -1.73    6.34
  -3 -11   1   25.82    7.37
   3 -11   1   39.25   10.28
  -3 -11  -1   17.60    5.42
   3 -11  -1   43.54   10.77
  -3 -11   2  183.04   21.56
   3 -11   2  181.44   22.70
  -3 -11  -2  135.81   19.26
   3 -11  -2  162.84   21.66
   3 -11  -3   32.92    9.66
  -3 -11   3   42.89   11.91
   3 -11   3   41.45   10.43
  -3 -11  -3   23.42    7.31
   3 -11   4   34.21   11.46
   3 -11  -4   39.25    9.29
  -3 -11  -4   39.35   10.51
  -3 -11  -5   40.28   11.36
   3 -11  -5   31.50   10.25
   3 -11   5   47.79   11.80
   3 -11   6   81.54   16.14
   3 -11  -6   51.77   13.73
   3 -11  -7   -1.89    3.11
   3 -11   7    1.97    2.01
   3 -11  -8    9.04    6.49
   3 -11   8    5.52    6.09
  -3 -11  -8   11.77    7.12
   3 -11  -9    7.90    5.24
   3 -11   9    5.76    4.73
   3 -11  10    8.35    7.03
   3 -11 -10    9.68    6.87
   3 -11 -11   11.69    7.09
   3 -11  11    0.49    3.60
   3  11  12  258.49   27.71
   3 -11  12  292.93   29.71
   3 -11 -12  298.38   30.27
   3  11  13   21.96    6.91
   3 -11  13   15.56    7.62
   3 -11 -13   16.93    6.15
   3 -11  14   23.91   10.25
   3 -11 -14   51.24   12.59
   3  11  14   42.08   10.95
   3  11  15   18.66    9.44
   3 -11  15   26.12    9.95
   3 -11  16   10.59    5.82
   3  11  16   17.39    9.37
   3 -11  17   -0.84    3.23
   3  11  17   -3.37    5.01
   3 -11  18    3.86    4.12
   3  11  18    3.24    4.66
   3 -11  19   25.38    8.67
   3  11  19   36.42   11.86
   3 -11  20   86.87   18.63
   3  11  20  114.83   20.05
   3 -11  21    2.91    4.29
   3  11  21   -0.65    3.87
  -3  11  21    4.20    4.67
   3 -11  22   77.55   17.54
  -3  11  22  134.52   22.37
   3  11  22  150.84   25.02
  -3  11  23    1.41    4.75
   3  11  23    5.54    8.34
   3 -11  23   -1.30    4.71
   3 -12   0    1.91    5.20
   3 -12   1   18.26    7.04
   3 -12  -1   17.63    8.22
  -3 -12  -2   13.40    7.87
   3 -12   2   25.12    9.47
   3 -12  -2   14.52   10.12
   3 -12  -3    3.21    3.87
  -3 -12  -3    1.02    4.01
   3 -12   3   -1.28    2.42
   3 -12   4    2.28    4.87
   3 -12  -4    4.30    6.43
  -3 -12  -4    0.59    4.95
   3 -12   5    0.74    4.53
   3 -12  -5   -6.48    5.41
  -3 -12  -5   -3.18    4.30
   3 -12   6    3.82    5.24
  -3 -12  -6   15.29    7.25
   3 -12  -6    6.61    4.66
   3 -12   7    4.46    5.95
  -3 -12  -7    6.79    4.52
   3 -12  -7   13.89    6.91
  -3 -12  -8    2.57    5.77
   3 -12   8   11.23    7.65
   3 -12  -8    3.69    3.00
   3 -12  -9   21.69   11.13
  -3 -12  -9   15.68    7.64
   3 -12   9   30.73    9.74
   3 -12 -10   21.05   10.71
   3 -12  10   17.59    9.20
  -3 -12 -10   18.32    7.71
   3 -12  11    4.23    6.00
   3 -12 -11   -0.78    4.93
   3 -12 -12   31.57    9.17
   3 -12  12   18.63    8.45
   3 -12 -13    3.49    7.66
   3 -12  13   -2.02    4.22
   3 -12  14   20.80    8.24
   3 -12 -14   19.51    8.50
   3 -12 -15    9.51    7.78
   3 -12  15    3.58    4.88
   3  12  15   13.51    5.97
   3 -12  16   -0.68    2.79
   3  12  16   -1.31    5.33
   3 -12 -16    0.60    4.14
   3 -12  17   75.48   15.58
   3 -12 -17   91.15   17.41
   3  12  17   59.67   14.32
   3 -12  18    8.37    6.85
   3  12  18   -2.32    7.79
   3 -12  19    0.03    2.93
   3  12  19    5.40    8.49
   3 -12  20   -1.73    3.78
   3  12  20    0.38    5.06
   3  12  21    2.29    6.51
   3 -12  21    1.39    6.30
   3 -13   0   -4.01    4.45
   3 -13   1  142.83   22.07
   3 -13  -1  180.21   23.25
   3 -13   2  173.61   23.50
   3 -13  -2  149.11   21.61
   3 -13   3    8.80    8.04
   3 -13  -3   -0.36    3.11
   3 -13  -4   49.91   12.61
   3 -13   4   41.46   12.56
   3 -13   5   63.55   13.53
   3 -13  -5   83.65   16.57
   3 -13  -6    2.14    4.49
  -3 -13  -6    3.93    8.97
   3 -13   6    3.27    6.06
  -3 -13  -7   13.29    8.97
   3 -13  -7    6.82    4.30
   3 -13   7    9.34    7.30
  -3 -13  -8   44.18   13.65
   3 -13  -8   26.58   10.10
   3 -13   8   26.31    9.53
   3 -13   9   68.79   15.06
  -3 -13  -9   71.96   15.60
   3 -13  -9   88.75   18.26
   3 -13 -10    0.03    4.13
  -3 -13 -10    1.47    4.75
   3 -13  10   -2.20    4.58
   3 -13 -11   46.23   13.15
  -3 -13 -11   43.93   11.53
   3 -13  11   58.14   13.92
  -3 -13 -12   15.91    9.39
   3 -13 -12   19.42   12.03
   3 -13  12   13.20    8.68
   3 -13 -13  141.78   22.86
   3 -13  13  112.59   18.97
  -3 -13 -13  137.12   21.85
   3 -13  14    2.40    4.98
   3 -13 -14   -0.96    3.37
   3 -13 -15   12.77    8.35
   3 -13  15    4.35    7.23
   3 -13  16   10.09    6.12
   3 -13 -16    3.76    5.42
   3 -13  17   16.05    7.63
   3 -13 -17   28.47    9.34
   3 -13 -18    0.78    4.86
   3 -13  18    3.74    6.88
   3 -14   0   -1.72    2.20
   3 -14   1   13.61    6.74
   3 -14  -1    5.85    4.70
   3 -14  -2    1.80    5.24
   3 -14   2    8.76    3.34
   3 -14   3    4.51    8.69
   3 -14  -3    6.74    4.63
   3 -14   4    3.62    2.97
   3 -14  -4    5.28    4.24
   3 -14   5   -1.73    3.64
   3 -14  -5    3.12    4.71
   3 -14  -6   34.67   11.01
   3 -14   6   42.36   13.61
   3 -14  -7   15.69    8.17
   3 -14   7   17.48   11.36
   3 -14  -8    4.48    7.10
   3 -14   8    1.09    2.29
   3 -14  -9    2.78    5.10
   3 -14   9    2.54    3.36
   3 -14 -10    8.53    7.45
   3 -14  10   16.18    8.56
   3 -14  11    8.27    7.89
   3 -14 -11    9.64    7.72
   3 -14 -12    9.35    7.68
   3 -14  12   -8.82    6.03
   3 -14 -13   16.77    8.63
   3 -14  13    7.60    8.17
   3 -14 -14    8.66    8.00
   3 -14  14    5.20    3.17
   3 -14  15   -2.70    5.31
   3 -14 -15    2.04    3.20
   3 -15   0   -7.20    8.63
   3 -15   1   12.95    6.09
   3 -15  -1   -3.78    4.61
   3 -15   2  195.22   26.75
   3 -15  -2  148.33   23.07
   3 -15   3   40.15   12.84
   3 -15  -3   24.14    9.24
   3 -15   4  119.31   19.58
   3 -15  -4   91.74   18.92
   3 -15  -5   -0.69    4.17
   3 -15   5   -1.80    2.90
   3 -15   6  120.49   20.97
   3 -15  -6  131.98   21.88
   3 -15  -7    4.81    3.44
   3 -15   7   11.08    2.51
   3 -15  -8   25.74   11.27
   3 -15   8   28.01   11.18
   3 -15  -9   15.03   10.18
   3 -15   9   -4.13    5.61
   3 -15 -10   22.05   10.60
   3 -15  10   40.67   12.39
   3 -15  11   -2.28    7.05
   3 -15 -11   -0.38    5.48
   3 -16   0    6.16    7.38
   3 -16   1    9.02    4.08
   3 -16  -1   14.77    7.11
   3 -16   2   20.69    8.84
   3 -16  -2   -5.46    7.85
   3 -16   3  -11.44   10.53
   3 -16  -3    2.43    3.55
   3 -16   4    8.70    6.39
   3 -16  -4   -1.33    2.35
   4   0   0 7257.47   65.58
   4   0  -1   -0.40    0.92
   4   0   1    0.04    0.77
   4   0  -2  504.13   16.85
   4   0   2  477.80   18.87
   4   0   3    0.84    1.33
   4   0  -3    1.77    0.93
   4   0  -4  476.41   17.78
   4   0   4  454.32   20.79
  -4   0   5   -0.09    0.92
   4   0   5   -1.06    1.83
   4   0   6   77.60    9.60
  -4   0   6   73.51    7.59
  -4   0   7    1.93    2.20
   4   0   7   -0.35    1.54
   4   0   8  374.82   23.14
  -4   0   8  402.26   20.20
  -4   0   9   -0.39    0.79
   4   0   9    2.12    2.28
   4   0  10  222.95   18.81
  -4   0  10  253.45   17.96
  -4   0  11    5.25    3.75
   4   0  11    0.17    1.80
   4   0  12  197.66   18.80
  -4   0  12  202.81   17.48
  -4   0  13    0.23    2.05
   4   0  13   -1.84    3.80
   4   0  14 1938.46   64.41
  -4   0  14 1890.50   57.92
  -4   0  15    1.87    3.15
   4   0  15    2.16    2.43
   4   0  16  448.76   33.14
  -4   0  16  327.35   26.53
  -4   0  17    0.27    2.26
   4   0  17   -1.45    4.61
   4   0  18   54.35   11.65
  -4   0  18   58.77   12.12
  -4   0  19    1.21    1.90
   4   0  19    1.55    3.99
  -4   0  20   59.25   12.03
   4   0  20   50.64   11.61
  -4   0  21    3.44    6.00
   4   0  21    0.91    6.47
   4   0  22   74.75   14.67
  -4   0  22   64.31   14.95
  -4   0  23    4.45    5.07
   4   0  23   -4.08    5.23
   4   0  24   18.09    8.59
  -4   0  24    4.41    5.37
  -4   0  25   -2.13    3.60
   4   0  25   -3.24    3.14
  -4   0  26   -1.03    5.12
   4   0  26   -6.20    8.07
  -4   0  27    0.05    2.31
   4   0  27   -0.43    5.08
  -4   0  28   52.81   12.92
   4   0  28   40.03   12.38
  -4   0  29    0.67    5.07
   4   0  29    5.28    6.87
  -4   0  30   30.79   10.62
   4   0  30   45.30   11.48
  -4   0  31  -13.05   11.18
   4   0  31    0.55    5.00
   4  -1   0  192.14   12.81
   4   1   0  170.83    8.14
   4   1   1  396.53   14.23
   4  -1  -1  424.65   18.80
   4   1  -1  419.10   10.97
   4  -1   1  443.06   20.14
   4   1  -2  260.32    8.24
   4   1   2  240.85   12.03
   4  -1   2  289.02   15.94
   4  -1  -2  274.14   15.10
   4  -1  -3   91.78    9.07
   4   1   3   83.41    7.77
   4   1  -3   82.57    5.32
   4  -1   3  105.72   10.48
   4  -1  -4 2216.88   44.13
   4   1  -4 2214.28   28.76
   4  -1   5  222.71   15.91
  -4  -1   5  247.86   11.00
   4  -1   6   22.02    5.31
  -4   1   6   23.39    4.63
   4   1   6   32.96    5.49
  -4  -1   6   23.08    3.83
  -4  -1   7  121.73    9.44
   4   1   7  133.75   12.79
   4  -1   7  134.20   13.66
  -4   1   7  127.23   11.79
  -4  -1   8  803.59   26.86
   4   1   8  840.52   34.19
   4  -1   8  870.97   35.22
  -4  -1   9    9.71    3.23
  -4   1   9   19.80    4.73
   4   1   9    6.36    3.88
   4  -1   9   13.55    4.82
   4   1  10  251.10   20.48
   4  -1  10  199.10   17.95
  -4   1  10  224.93   18.07
  -4  -1  10  199.56   15.10
   4   1  11  122.29   15.29
  -4  -1  11  137.14   13.27
   4  -1  11  132.52   15.21
  -4   1  11  145.10   14.77
   4   1  12  195.81   18.63
   4  -1  12  179.58   18.36
  -4   1  12  176.09   16.74
  -4  -1  12  156.54   15.29
   4   1  13   68.21   11.21
   4  -1  13   68.80   11.21
  -4   1  13   80.88   12.37
  -4  -1  13   72.22   10.81
   4   1  14  504.87   32.12
  -4   1  14  441.94   29.34
   4  -1  14  510.93   32.07
  -4  -1  14  473.58   28.55
   4   1  15 1182.65   50.78
   4  -1  15 1323.48   54.13
  -4   1  15 1255.21   51.67
  -4  -1  15 1310.91   49.61
   4   1  16  261.97   24.95
   4  -1  16  276.79   24.73
  -4   1  16  254.55   23.86
  -4  -1  16  269.60   23.23
  -4   1  17   27.44    8.01
  -4  -1  17   30.39    8.53
   4   1  17   26.11    9.31
   4  -1  17   33.80    8.42
   4   1  18  342.41   29.31
  -4   1  18  326.44   27.56
  -4  -1  18  336.80   28.19
  -4   1  19    3.83    4.99
  -4  -1  19   -0.06    2.10
   4   1  19    4.16    3.38
   4  -1  19   -4.83    2.23
  -4   1  20   24.09    8.70
  -4  -1  20   39.57    9.57
   4   1  20   20.57    7.13
   4  -1  20   23.48    9.55
  -4   1  21   30.82    8.96
   4  -1  21   72.78   15.63
  -4  -1  21   46.21   10.72
   4   1  21   54.24   11.66
   4   1  22  311.65   29.31
  -4   1  22  316.59   30.00
   4  -1  22  309.45   30.48
  -4  -1  22  281.33   28.74
  -4   1  23   -3.83    3.11
  -4  -1  23    7.08    7.27
   4   1  23    5.80    4.08
   4  -1  23   -0.98    3.20
  -4   1  24    8.80    6.06
  -4  -1  24   17.18    8.26
   4   1  24   14.70    6.33
   4  -1  24    6.40    7.27
   4   1  25   98.83   17.88
   4  -1  25  128.52   19.80
  -4   1  25   81.36   17.25
  -4  -1  25  111.89   19.07
   4   1  26  143.03   21.32
   4  -1  26  176.59   23.02
  -4   1  26  216.84   25.96
  -4  -1  26  177.82   24.63
  -4   1  27   -3.05    6.18
  -4  -1  27    5.76    5.79
   4   1  27    9.25    5.84
   4  -1  27    7.29    5.95
  -4   1  28   70.73   16.16
   4  -1  28   96.14   18.89
  -4  -1  28   55.01   15.23
   4   1  28   60.63   14.53
  -4   1  29    4.79    3.90
  -4  -1  29   24.83   12.31
   4   1  29   13.15    7.09
   4  -1  29   23.73    9.44
  -4   1  30    7.36    6.16
   4   1  30    1.21    2.56
  -4   1  31   31.06   10.79
   4   1  31   52.41   13.49
   4  -1  31   28.26   11.67
   4  -2   0  468.20   22.65
   4  -2   1    6.26    3.06
   4   2   1    7.25    1.70
   4  -2  -1    1.58    1.94
   4   2   2  410.38   15.00
   4  -2   2  470.29   23.03
   4  -2  -2  441.17   21.80
   4  -2  -3 1001.93   33.13
   4  -2   3  981.00   34.16
   4   2   3 1025.34   26.34
   4  -2  -4 1868.41   45.49
   4  -2   4 1764.00   46.64
   4   2   5   70.95    8.22
   4  -2   5  100.91   11.40
   4   2   6  217.72   15.44
   4  -2   6  198.37   16.55
  -4  -2   6  188.08    9.59
   4   2   7  752.20   30.19
   4  -2   7  762.65   33.10
  -4   2   7  709.91   29.97
  -4  -2   7  716.54   21.30
   4   2   8  120.01   12.71
  -4   2   8  151.98   14.50
   4  -2   8  155.17   15.30
  -4  -2   8  128.84   10.33
   4  -2   9   16.51    5.54
  -4  -2   9   17.78    4.20
   4   2   9   11.72    3.41
  -4   2   9   12.57    4.22
  -4  -2  10    7.71    3.46
   4   2  10    8.25    4.39
   4  -2  10   10.32    4.86
  -4   2  10    7.19    3.37
   4   2  11   55.37    9.63
   4  -2  11   45.92   10.41
  -4   2  11   64.19   10.24
  -4  -2  11   79.39    9.98
   4   2  12  146.14   16.78
  -4  -2  12  110.08   12.78
   4  -2  12   88.65   12.92
  -4   2  12  138.79   15.20
   4   2  13   84.17   13.30
   4  -2  13  104.06   13.94
  -4   2  13   94.64   13.95
  -4  -2  13   78.26   10.94
   4   2  14   78.76   13.61
  -4   2  14   62.79   10.86
   4  -2  14   55.98   11.33
  -4  -2  14   49.31    8.90
   4   2  15  126.56   17.10
  -4  -2  15  126.10   15.29
   4  -2  15  127.13   17.02
  -4   2  15  109.61   15.25
   4   2  16   71.43   13.16
   4  -2  16   67.71   12.61
  -4   2  16   64.89   11.76
  -4  -2  16   72.21   11.44
   4  -2  17   87.44   14.97
   4   2  17   74.11   14.11
  -4   2  17   62.89   12.20
  -4  -2  17   70.43   11.96
   4   2  18  188.11   21.48
  -4   2  18  134.36   18.17
  -4  -2  18  155.71   19.10
  -4   2  19   12.76    7.67
  -4  -2  19    4.88    5.57
   4   2  19    4.62    4.25
   4  -2  19    4.20    2.44
  -4   2  20    6.29    6.89
  -4  -2  20    2.98    2.22
   4   2  20   -3.33    4.66
   4  -2  20    4.31    4.17
  -4   2  21   29.93    8.82
  -4  -2  21   20.86    7.61
   4   2  21   28.39   10.00
   4  -2  21   30.95    9.19
  -4   2  22    2.61    2.41
  -4  -2  22    7.37    4.35
   4   2  22   14.28    6.90
   4  -2  22    5.02    7.01
  -4   2  23   20.22    8.67
  -4  -2  23    8.66    4.95
   4   2  23   20.02    7.95
   4  -2  23   22.02   10.75
  -4   2  24    4.04    6.29
  -4  -2  24    0.22    5.59
   4   2  24    7.62    7.74
   4  -2  24   -0.57    5.11
  -4   2  25    6.29    4.71
  -4  -2  25   -2.13    6.90
   4   2  25   -3.90    6.09
   4  -2  25   -4.02    4.28
  -4   2  26   35.29    9.16
  -4  -2  26   35.10   11.52
   4   2  26   31.98   11.10
   4  -2  26   45.12   13.09
  -4   2  27   -0.33    4.53
   4  -2  27    2.78    4.51
  -4   2  28   -0.20    3.53
   4   2  28    2.64    4.15
   4  -2  28   -4.89    7.72
   4   2  29   13.03    7.43
   4  -2  29   37.11   12.64
  -4   2  29   20.79   10.42
  -4   2  30   11.45   10.27
   4   2  30   -2.03    7.15
   4  -2  30    6.77    9.22
   4  -3   0 1342.68   42.54
   4  -3  -1    7.96    2.88
   4  -3   1   16.43    4.93
   4   3   1   14.74    2.31
   4  -3   2   41.19    7.68
   4   3   2   57.05    5.37
   4  -3  -2   54.28    8.22
   4  -3  -3  492.65   25.36
   4  -3   3  446.95   24.80
   4   3   3  504.76   19.04
   4   3   4    6.08    2.32
   4  -3   4    0.32    1.76
   4  -3  -4    5.05    2.97
   4  -3  -5  261.41   18.69
   4  -3   5  269.50   19.61
   4   3   5  247.70   15.44
   4   3   6  966.55   32.84
   4  -3   6 1019.81   39.55
   4   3   7   92.02   10.69
  -4  -3   7  106.22    8.01
  -4   3   7  112.29   12.90
   4  -3   7  104.25   12.96
   4   3   8  155.72   14.38
  -4  -3   8  123.34    9.63
  -4   3   8  158.26   15.43
   4  -3   8  131.75   14.63
   4   3   9  118.20   13.27
  -4   3   9  124.44   13.72
   4  -3   9  124.81   14.48
  -4  -3   9  129.56   11.29
   4   3  10   49.09    8.97
  -4  -3  10   47.16    7.37
   4  -3  10   49.54   10.13
  -4   3  10   50.71    9.71
   4   3  11  227.85   19.55
  -4  -3  11  232.58   17.31
   4  -3  11  235.99   20.76
   4   3  12   39.78    9.39
   4  -3  12   17.42    8.81
  -4  -3  12   36.36    7.23
  -4   3  12   25.80    7.61
   4  -3  13   13.88    6.84
   4   3  13    9.11    5.34
  -4  -3  13    8.77    4.92
  -4   3  13   14.95    5.62
   4   3  14    3.38    2.90
  -4  -3  14    8.18    5.26
   4  -3  14   10.87    4.42
  -4   3  14    0.52    2.43
   4   3  15   95.68   15.05
  -4  -3  15   96.48   13.08
  -4   3  15  100.02   14.79
   4  -3  15   95.95   14.66
   4   3  16    0.98    4.06
  -4  -3  16   -1.11    3.22
   4  -3  16    0.02    2.67
  -4   3  16    0.85    1.71
   4   3  17  198.69   21.60
  -4  -3  17  159.82   18.94
   4  -3  17  162.50   20.29
  -4   3  17  198.09   22.28
  -4  -3  18   90.07   14.45
   4   3  18   66.09   12.69
   4  -3  18   76.19   13.67
  -4   3  18   81.06   15.02
   4   3  19  103.59   16.54
  -4  -3  19  102.62   16.19
   4  -3  19  111.75   17.73
  -4   3  19  100.85   16.43
   4   3  20   81.22   15.54
  -4   3  20   57.46   12.49
  -4  -3  20   51.21   11.79
   4  -3  20   70.16   14.40
   4   3  21  446.87   35.67
  -4  -3  21  495.83   36.84
   4  -3  21  523.54   38.17
  -4   3  21  519.70   38.41
  -4   3  22    3.34    5.22
  -4  -3  22   -0.71    2.48
   4   3  22    1.12    2.82
   4  -3  22   -0.17    4.73
  -4   3  23   45.70   12.65
  -4  -3  23   47.43   12.61
   4   3  23   45.97   13.06
   4  -3  23   46.75   14.20
  -4   3  24   -1.67    4.14
   4   3  24   -4.33    3.82
   4  -3  24    0.84    2.99
  -4   3  25   54.02   13.97
   4   3  25   52.44   13.00
   4  -3  25   45.35   12.67
  -4   3  26   13.77    6.77
   4   3  26   20.10    9.51
   4  -3  26   41.38   12.63
  -4   3  27    7.85    9.62
   4   3  27    1.29    5.96
   4  -3  27    9.55    5.81
  -4   3  28   13.80    9.51
   4   3  28    7.27    5.79
   4  -3  28   13.35    6.99
   4  -3  29  101.44   19.27
   4   3  29   71.68   15.35
  -4   3  29   88.57   18.86
  -4   3  30    0.99    2.40
   4   3  30    7.99    6.46
   4  -3  30    3.01    5.32
  -4  -4   0   21.66    3.36
   4  -4   0   27.56    6.13
   4  -4  -1   22.57    4.95
  -4  -4   1   23.73    2.82
   4  -4   1   27.55    7.17
   4   4   1   23.10    3.63
   4  -4   2  120.64   13.77
   4   4   2  138.17    9.86
   4  -4  -2  143.82   15.03
   4  -4  -3   41.07    7.98
   4  -4   3   58.01    9.26
   4   4   3   50.67    6.25
   4  -4   4  154.91   16.02
   4  -4  -4  146.42   15.29
  -4  -4   4  136.47    6.41
   4  -4   5  909.23   38.45
  -4  -4   5  862.70   19.22
   4  -4  -5  854.01   36.85
   4   4   5  906.89   30.35
   4  -4   6  125.88   14.92
  -4  -4   6  130.72    8.68
   4   4   6  134.71   12.53
  -4  -4   7  249.22   13.86
   4  -4   7  232.22   20.40
  -4   4   8    2.04    4.37
   4   4   8    4.76    2.41
   4  -4   8    0.40    1.85
  -4  -4   8   -0.04    1.40
   4   4   9    1.19    2.48
   4  -4   9    0.15    1.14
  -4  -4   9    1.11    1.79
  -4   4   9   -1.88    2.06
  -4  -4  10   42.41    6.93
   4   4  10   42.34    8.06
  -4   4  10   64.27   11.24
   4  -4  10   52.11    9.91
   4  -4  11   15.23    6.25
   4   4  11   20.34    6.29
  -4  -4  11   14.39    4.23
  -4   4  11   13.16    5.13
   4  -4  12    0.75    3.15
   4   4  12    4.16    4.19
  -4  -4  12    2.30    2.72
  -4   4  12   -3.70    1.21
   4  -4  13   -2.34    4.79
  -4   4  13    5.27    2.99
   4   4  13   11.09    5.35
  -4  -4  13   10.09    4.19
  -4  -4  14  112.80   14.10
   4  -4  14  116.34   16.38
  -4   4  14   92.71   14.77
   4   4  14  108.34   15.55
   4   4  15   31.03    8.23
  -4  -4  15   31.32    7.49
  -4   4  15   47.99   10.75
   4  -4  15   26.37   10.90
   4   4  16   43.39   10.64
  -4  -4  16   35.18    8.91
   4  -4  16   30.12   10.59
  -4   4  16   26.92    9.72
   4   4  17   27.14    9.85
  -4  -4  17   26.88    7.88
  -4   4  17   21.29    8.71
   4  -4  17   27.06    8.39
   4   4  18   38.34   10.23
  -4  -4  18   27.34    8.11
  -4   4  18   59.83   13.31
  -4  -4  19  124.03   17.70
   4  -4  19  134.71   19.60
  -4   4  19  155.50   21.10
   4   4  19  137.50   19.56
   4   4  20    1.10    4.21
  -4  -4  20   -2.88    2.06
   4  -4  20    1.59    5.15
  -4   4  20    2.39    2.02
   4   4  21   16.59    8.16
  -4  -4  21   27.42   12.01
   4  -4  21   13.52    6.95
  -4   4  21   13.09    6.14
  -4   4  22   30.87    9.31
   4   4  22   42.74    9.88
   4  -4  22   37.66   10.85
   4   4  23   -0.65    4.36
   4  -4  23   -5.94    5.40
  -4   4  23    1.01    3.13
   4   4  24   -0.67    2.43
   4  -4  24   -2.17    5.68
  -4   4  24    5.87    7.44
  -4   4  25   -4.06    3.01
   4  -4  25    2.67    2.94
  -4   4  26   -0.71    4.12
   4   4  26   -3.28    7.16
   4  -4  26   -5.49    6.90
  -4   4  27    3.56    5.87
   4   4  27   -0.14    3.58
   4  -4  27    3.89    6.04
   4   4  28   19.05    6.81
   4  -4  28    6.90    4.94
  -4   4  28   18.88    8.24
   4   4  29    9.61    8.84
   4  -4  29    2.91    3.26
  -4   4  29    8.09    6.87
   4   4  30   18.73   10.08
   4  -4  30   21.64    9.43
  -4   4  30   17.36    8.74
   4  -5   0  338.62   24.58
  -4  -5   0  295.88   14.66
   4  -5  -1    2.10    2.62
   4  -5   1    2.07    2.00
  -4  -5  -1   -0.94    0.77
  -4  -5   1   -0.42    0.71
   4   5   2  193.67   12.85
  -4  -5   2  169.47    9.96
   4  -5   2  173.18   17.51
   4  -5  -2  154.76   16.50
   4  -5   3  248.59   20.74
   4   5   3  291.65   16.79
  -4  -5   3  252.45   11.74
   4  -5  -3  268.84   21.63
   4  -5  -4  115.08   14.24
   4  -5   4  117.89   14.75
   4   5   4  114.69   11.15
  -4  -5   4  103.52    7.62
   4  -5   5   90.26   12.74
   4  -5  -5  108.92   14.05
  -4  -5   5  107.70    8.21
   4   5   5  111.69   11.47
   4   5   6   15.72    4.40
   4  -5  -6   12.57    5.31
   4  -5   6   18.22    5.71
  -4  -5   6   13.44    3.02
   4   5   7    5.79    4.63
   4  -5   7    1.71    2.22
  -4  -5   7    9.85    2.59
  -4  -5   8  233.43   15.11
   4  -5   8  214.88   20.69
   4   5   8  218.78   18.41
  -4  -5   9  166.59   13.55
   4  -5   9  196.50   20.19
  -4   5   9  148.81   17.45
   4   5   9  199.96   17.68
  -4  -5  10  322.96   20.15
  -4   5  10  344.03   26.56
   4  -5  10  379.97   27.81
   4   5  10  349.93   24.81
  -4  -5  11   46.25    8.49
   4  -5  11   34.86    8.71
  -4   5  11   50.83   10.35
   4   5  11   61.14   10.64
  -4  -5  12  111.42   13.92
   4  -5  12  125.88   16.66
  -4   5  12  106.28   14.98
   4   5  12  110.43   15.12
   4   5  13    9.24    2.43
   4  -5  13   37.46    9.52
  -4  -5  13   40.05    8.42
  -4   5  13   22.20    7.03
  -4  -5  14  518.13   31.08
   4  -5  14  562.23   36.79
  -4   5  14  600.50   38.29
   4   5  14  525.15   34.81
   4  -5  15    5.09    3.68
   4   5  15    4.48    3.35
  -4  -5  15   13.30    5.40
  -4   5  15    3.14    2.59
  -4  -5  16  153.47   18.66
   4  -5  16  166.43   20.48
   4   5  16  194.71   22.10
   4   5  17   61.10   12.33
  -4   5  17   47.34   13.09
   4  -5  17   41.69   13.61
   4  -5  18   98.95   17.94
   4   5  18  107.63   17.27
   4   5  19    2.73    3.94
   4  -5  19   -0.34    5.47
  -4   5  19    2.51    5.41
   4  -5  20  103.66   17.35
  -4   5  20   81.77   15.11
   4   5  20   80.40   15.46
   4   5  21    7.37    3.02
   4  -5  21   13.49    4.35
  -4   5  21    7.70    5.62
   4  -5  22  209.16   26.26
  -4   5  22  161.26   22.73
   4   5  22  158.51   21.67
   4   5  23   25.93   10.10
   4  -5  23   32.34   11.07
  -4   5  23   19.20    7.57
   4   5  24   47.15   12.83
   4  -5  24   53.41   12.49
  -4   5  24   33.04    9.49
   4   5  25   21.13    9.15
   4  -5  25   10.18    5.02
  -4   5  25   16.55    7.10
   4   5  26   12.76    7.99
   4  -5  26    2.73    3.35
  -4   5  26    4.35    6.75
   4   5  27   -1.16    5.50
   4  -5  27    1.61    4.55
  -4   5  27    5.38    4.76
   4   5  28   14.90    8.35
   4  -5  28   16.72   10.57
  -4   5  28   30.31   11.22
   4   5  29   10.87    6.37
  -4   5  29    3.31    3.07
   4  -6   0  212.01   20.32
  -4  -6   0  214.71   14.77
  -4  -6  -1   27.69    4.94
   4  -6   1   43.50    9.73
  -4  -6   1   37.98    5.98
   4  -6  -1   35.75    9.74
   4  -6  -2  154.04   17.43
  -4  -6   2  122.50   10.75
   4  -6   2  154.43   17.17
   4  -6   3    6.04    3.86
   4   6   3    1.01    2.10
   4  -6  -3    1.92    3.28
  -4  -6   3   10.84    2.67
   4  -6  -4  217.25   20.66
   4  -6   4  259.96   22.66
   4   6   4  231.08   17.44
  -4  -6   4  243.87   14.48
   4  -6   5   35.08    8.35
   4   6   5   24.75    6.14
   4  -6  -5   27.34    7.19
  -4  -6   5   29.83    5.38
   4  -6   6  259.15   23.10
   4  -6  -6  237.93   22.25
  -4  -6   6  232.21   14.73
   4   6   6  216.14   18.11
   4  -6  -7   36.48    9.42
   4   6   7   33.64    7.45
  -4  -6   7   38.85    6.48
   4  -6   7   37.01    9.22
   4  -6   8    0.64    4.93
  -4  -6   8   -0.96    1.88
   4   6   8   -1.44    2.83
   4   6   9   17.91    6.58
   4  -6   9   12.93    4.13
  -4  -6   9    3.23    3.68
   4   6  10   44.77    8.94
  -4  -6  10   40.62    8.31
   4  -6  10   31.69    8.00
   4   6  11   34.41    8.77
  -4  -6  11   41.26    9.50
   4  -6  11   27.33    6.91
  -4   6  11   34.74    8.26
  -4   6  12  204.23   21.79
   4  -6  12  225.78   23.82
   4   6  12  182.56   19.71
   4   6  13   -0.88    4.10
   4  -6  13    5.76    6.61
  -4   6  13   -2.11    3.98
   4   6  14   24.98    5.87
   4  -6  14   10.48    4.92
  -4   6  14   28.66    8.53
   4  -6  15  364.98   30.75
  -4   6  15  372.18   31.30
   4   6  15  331.90   28.25
   4  -6  16    4.19    4.57
   4   6  16    1.42    3.22
  -4   6  16    5.29    5.16
   4   6  17   15.35    7.66
   4  -6  17   24.95   10.46
  -4   6  17   37.98   10.28
   4   6  18   52.52   11.44
  -4   6  18   64.60   14.04
   4  -6  18   64.63   13.57
   4  -6  19   20.11    8.99
  -4   6  19    9.68    5.03
   4   6  20    5.83    7.07
   4  -6  20    2.18    4.25
  -4   6  20   18.34    9.36
   4   6  21   68.29   14.05
   4  -6  21   75.53   15.19
  -4   6  21   94.47   18.14
   4  -6  22    5.47    5.84
  -4   6  22    3.81    1.86
   4   6  23    4.75    3.66
  -4   6  23    1.78    4.84
   4  -6  23   11.22    8.04
   4   6  24    5.79    4.83
   4  -6  24   10.33    8.22
  -4   6  24    7.77    5.72
   4   6  25   12.03   11.19
   4  -6  25    1.34    4.00
  -4   6  25    2.42    6.47
   4   6  26   69.03   15.76
   4  -6  26   66.27   15.38
  -4   6  26   44.80   13.42
   4   6  27   13.33    9.30
   4  -6  27   16.16    7.10
  -4   6  27    3.26    2.51
   4   6  28   15.14    9.78
   4  -6  28   -0.57    5.49
  -4   6  28   -0.79    5.57
   4  -7   0   63.76   11.33
  -4  -7   0   50.65    8.07
  -4  -7  -1  146.10   14.07
   4  -7  -1  149.47   17.47
   4  -7   1  163.55   19.09
  -4  -7   1  141.63   13.42
   4  -7  -2   24.72    8.50
  -4  -7   2   22.64    5.20
   4  -7   2   39.21    8.68
  -4  -7  -2   27.35    6.75
  -4  -7   3 1519.51   42.32
   4  -7   3 1602.57   59.47
   4  -7  -4  492.95   33.03
  -4  -7   4  448.62   23.67
   4  -7   4  501.73   32.80
   4  -7   5   52.69    9.85
   4  -7  -5   64.33   11.70
   4   7   5   40.26    8.27
  -4  -7   5   60.85    8.90
   4  -7   6  114.10   15.83
   4  -7  -6  109.17   15.62
   4   7   6  121.79   14.52
   4  -7   7  315.09   26.81
   4  -7  -7  309.54   26.47
   4   7   7  255.02   21.67
   4  -7  -8   -0.54    3.33
   4  -7   8   -2.37    2.12
   4   7   8   -1.09    2.78
   4   7   9    9.32    4.18
   4  -7   9    9.52    6.43
   4  -7  10   17.91    4.55
   4   7  10    6.55    4.84
   4   7  11  378.92   28.95
   4  -7  11  449.99   32.85
   4   7  12    7.28    5.11
   4  -7  12   14.90    5.70
  -4   7  13  262.51   25.75
   4  -7  13  259.71   25.72
   4   7  13  295.48   26.76
   4   7  14   33.30    9.02
   4  -7  14   40.74   10.37
  -4   7  14   49.92   11.58
  -4   7  15  307.42   28.71
   4  -7  15  334.77   29.24
   4   7  15  351.78   30.41
   4   7  16   46.10   11.97
   4  -7  16   26.33   10.00
  -4   7  16   20.93    8.67
   4   7  17   26.34    6.94
   4  -7  17   16.86    7.51
  -4   7  17   22.97    7.22
   4  -7  18   62.66   13.94
   4   7  18   35.14   10.32
  -4   7  18   61.55   13.00
   4   7  19   46.04   11.84
  -4   7  19   39.37   11.28
   4  -7  19   24.54    8.57
   4   7  20   15.21    5.34
  -4   7  20   13.38    4.31
   4  -7  20   20.49   11.26
   4  -7  21  206.66   26.15
   4   7  21  215.58   26.23
  -4   7  21  207.96   26.81
   4   7  22   26.61    9.72
   4  -7  22   31.45   11.43
  -4   7  22   30.18    9.56
   4   7  23   21.71    8.98
  -4   7  23    4.61    7.02
   4  -7  23   28.94   10.49
   4   7  24   34.55   10.15
   4  -7  24   46.56   13.04
  -4   7  24   25.68    9.07
   4   7  25   69.33   15.56
   4  -7  25   84.78   17.43
  -4   7  25   81.67   17.29
   4   7  26   -3.72    7.78
   4  -7  26    6.16    8.66
  -4   7  26    5.79    7.54
   4   7  27    6.28    3.46
   4  -7  27   16.19    9.00
  -4   7  27   14.29    8.13
   4  -8   0  203.53   22.13
  -4  -8   0  210.35   18.01
   4  -8  -1    1.70    3.92
  -4  -8  -1   11.06    4.97
   4  -8   1    9.16    5.30
  -4  -8   1    8.94    4.43
  -4  -8  -2   -1.02    3.03
   4  -8  -2   -0.44    2.77
  -4  -8   2    4.63    5.07
   4  -8   2   -2.57    3.89
  -4  -8  -3  275.54   21.44
   4  -8   3  296.13   26.78
   4  -8  -3  216.80   22.55
   4  -8   4   98.85   15.55
  -4  -8  -4   79.46   11.74
   4  -8  -4   87.15   15.38
   4  -8  -5   -2.78    5.01
   4  -8   5    1.85    4.73
   4  -8  -6   60.46   12.53
   4   8   6   55.83   10.57
   4  -8   6   65.07   11.80
   4  -8   7  204.71   21.56
   4   8   7  171.13   17.97
   4  -8  -8  138.59   18.64
   4   8   8  117.34   15.67
   4  -8  -9   26.80    7.17
   4  -8   9   33.95    8.76
   4   8   9   25.73    7.79
   4  -8  10   12.78    6.13
   4  -8 -10    4.99    6.12
   4   8  10    7.15    3.88
   4  -8  11   23.76    8.50
   4   8  11   23.28    7.00
   4  -8  12   23.84    8.29
   4   8  12   13.56    5.13
   4  -8  13   14.16    7.15
   4   8  13   11.35    5.09
   4  -8  14    8.26    5.30
   4   8  14   12.37    8.27
   4  -8  15   37.49   10.08
  -4   8  15   38.03   10.37
   4   8  15   27.61    9.34
   4  -8  16   16.49    6.66
   4   8  16   12.72    6.89
  -4   8  16    2.26    3.03
   4   8  17   71.22   15.06
   4  -8  17   76.27   15.34
  -4   8  17   75.40   14.70
   4   8  18   21.83    9.00
   4  -8  18    6.96    3.61
  -4   8  18   11.24    7.57
   4   8  19   15.14    7.34
   4  -8  19   29.77    9.32
  -4   8  19   14.92    9.31
   4   8  20    5.94    6.69
  -4   8  20   16.10    9.71
   4  -8  20   -3.79    7.38
   4  -8  21   71.99   18.49
  -4   8  21   92.99   17.73
   4   8  21  113.06   18.70
   4   8  22   -0.60    4.77
  -4   8  22    3.50    3.97
   4  -8  22    0.79    3.19
  -4   8  23   19.02    5.58
   4  -8  23   11.33    7.21
   4   8  24   17.76    8.93
   4  -8  24    5.74    5.44
  -4   8  24    6.97    6.21
   4   8  25   58.67   15.42
  -4   8  25   60.73   15.81
   4  -8  25   70.83   16.27
   4   8  26    5.22    4.79
   4  -8  26   10.93    9.28
  -4   8  26    1.85    6.47
   4  -9   0  586.85   39.14
  -4  -9   0   -8.60    3.96
   4  -9   1  219.86   23.90
   4  -9  -1  242.60   24.52
  -4  -9  -1  283.93   23.57
   4  -9   2  211.94   23.20
   4  -9  -2  208.18   23.26
  -4  -9  -2  164.06   18.02
  -4  -9  -3  452.54   30.18
   4  -9   3  427.48   33.37
   4  -9  -3  467.86   34.89
  -4  -9  -4  414.83   29.34
   4  -9   4  489.33   35.25
   4  -9  -4  496.16   36.02
   4  -9   5    5.27    4.27
  -4  -9  -5   -1.87    4.87
   4  -9  -5    2.27    6.43
   4  -9  -6  131.64   18.94
   4  -9   6  184.17   22.05
   4  -9   7  629.16   40.88
   4  -9  -7  595.88   40.21
   4  -9  -8   60.53   12.44
   4  -9   8   51.08   10.46
   4   9   8   53.92   11.29
   4  -9   9   40.83   11.86
   4   9   9   65.60   13.06
   4  -9  10   14.04    5.70
   4  -9 -10   12.72    7.45
   4   9  10    7.29    1.66
   4  -9 -11   79.52   14.16
   4   9  11   79.61   13.90
   4  -9  11   86.04   17.00
   4  -9 -12    9.61    5.48
   4  -9  12   12.12    6.12
   4   9  12   13.43    6.98
   4  -9  13   20.01    8.23
   4   9  13   29.15   10.23
   4  -9  14   46.13   11.94
   4   9  14   53.46   11.61
   4  -9  15  137.18   19.83
   4   9  15  111.59   18.95
   4  -9  16    5.05    5.30
   4   9  16    6.68    7.36
  -4   9  17  129.77   19.98
   4  -9  17  121.05   19.16
   4   9  17   72.89   14.43
   4  -9  18   42.47   11.44
  -4   9  18   49.95   12.00
   4   9  18   59.68   12.26
   4  -9  19    3.02    3.02
   4   9  19    3.08    5.37
   4  -9  20   11.79    8.84
  -4   9  20    0.88    2.98
   4   9  20    4.93    4.97
   4  -9  21   81.09   17.56
  -4   9  21   89.63   17.05
   4   9  21   64.41   14.57
  -4   9  22   65.40   15.46
   4  -9  22   40.92   11.70
   4   9  22   35.25   11.67
   4  -9  23   15.65    7.34
   4   9  23    4.05    6.85
  -4   9  23   10.95    6.48
   4  -9  24   10.29    7.16
  -4   9  24   10.15    8.35
   4   9  24    1.91    2.26
  -4   9  25   13.23    7.23
   4  -9  25    7.35    5.33
   4   9  25    3.87    3.59
   4 -10   0   40.08   11.09
   4 -10   1    7.48    4.92
   4 -10  -1    6.67    7.75
   4 -10  -2   18.78    6.34
   4 -10   2   12.01    7.80
   4 -10  -3   -0.91    3.04
   4 -10   3    0.15    3.79
   4 -10   4   -1.18    4.66
   4 -10  -4    4.17    4.62
   4 -10   5   -5.14    6.31
   4 -10  -5    0.04    6.95
  -4 -10  -5    8.53    6.31
   4 -10   6  138.16   19.36
  -4 -10  -6  167.82   20.25
   4 -10  -6  144.87   20.82
   4 -10  -7   -2.15    2.98
   4 -10   7    5.42    5.12
   4 -10   8  193.76   23.55
   4 -10  -8  117.72   18.49
   4 -10  -9    0.50    3.66
   4 -10   9    3.00    2.51
   4 -10  10    8.39    5.21
   4  10  10    7.42    5.91
   4 -10 -10    7.56    8.00
   4 -10 -11  105.37   17.70
   4  10  11   65.19   12.79
   4 -10  11   84.95   16.55
   4 -10  12   11.14    7.98
   4  10  12   15.12    7.99
   4 -10 -12   16.65    7.55
   4  10  13   12.39    7.31
   4 -10  13    3.61    2.06
   4 -10 -13    7.53    6.30
   4 -10  14    1.15    2.81
   4 -10 -14   14.50    7.98
   4  10  14    8.28    5.43
   4 -10  15    0.34    2.27
   4  10  15   -1.38    3.66
   4 -10  16   19.78    7.97
   4  10  16   30.49   11.80
   4 -10  17    4.70    6.13
   4  10  17    3.66    5.86
   4  10  18   17.35    8.72
   4 -10  18   46.78   13.01
   4 -10  19   20.32    3.85
   4  10  19   -5.20    9.02
   4 -10  20    6.99    3.20
   4  10  20   10.88    6.36
   4 -10  21    2.72    7.01
  -4  10  21   12.84    6.80
   4  10  21   14.51    8.42
  -4  10  22   72.08   17.93
   4  10  22   57.86   14.29
   4 -10  22   33.67   13.34
  -4  10  23    4.60    4.62
   4 -10  23    0.63    3.75
   4  10  23   -8.25    5.39
   4  10  24   15.06    9.76
  -4  10  24    1.62    5.71
   4 -10  24   12.38    2.75
   4 -11   0  277.48   28.04
   4 -11   1   40.71   11.37
   4 -11  -1   42.44   10.71
   4 -11   2   -2.29    5.30
   4 -11  -2    3.94    5.36
   4 -11  -3   49.00   11.66
   4 -11   3   36.43   10.02
   4 -11   4  378.85   33.45
   4 -11  -4  402.43   34.12
   4 -11   5   72.39   14.14
   4 -11  -5   68.24   14.64
   4 -11   6  271.65   28.49
   4 -11  -6  341.04   32.78
   4 -11  -7   -1.62    5.16
   4 -11   7    4.22    3.11
  -4 -11  -8   -0.90    1.84
   4 -11   8    7.84    5.20
   4 -11  -8    5.80    5.41
   4 -11  -9   20.05    7.42
   4 -11   9   28.62    9.09
   4 -11 -10  223.42   26.63
   4 -11  10  232.41   26.69
   4 -11  11   -2.88    2.78
   4 -11 -11    1.90    3.88
   4  11  12   17.30    4.81
   4 -11  12   10.07    5.25
   4 -11  13   17.28    8.69
   4 -11 -13   25.27    7.72
   4  11  13   17.50    9.15
   4 -11  14   90.83   16.92
   4 -11 -14   99.27   18.67
   4  11  14   77.10   16.03
   4 -11  15    2.09    3.58
   4 -11 -15   -3.88    3.62
   4  11  15   -2.48    2.80
   4 -11  16    5.77    7.43
   4 -11 -16    3.84    4.33
   4  11  16    8.80    8.11
   4 -11  17   12.29    8.41
   4  11  17    3.16    5.87
   4 -11  18   15.64    7.64
   4  11  18   14.79    5.54
   4 -11  19    1.09    6.91
   4  11  19   -4.54    6.78
   4 -11  20    9.78    8.47
   4  11  20    6.59    7.21
   4 -11  21   -1.48    4.67
   4  11  21   13.65    9.29
   4  11  22    7.52    8.28
   4 -11  22    7.49    4.86
   4 -12   0   27.32    8.78
   4 -12   1    2.01    3.46
   4 -12  -1   -0.35    5.14
   4 -12   2    3.87    2.72
   4 -12  -2   19.62    8.69
   4 -12   3   51.57   13.54
   4 -12  -3   48.98   12.76
   4 -12  -4    5.23    6.06
   4 -12   4   -1.70    4.00
   4 -12   5    5.00    6.95
   4 -12  -5    7.93    4.72
   4 -12  -6   37.59   10.19
   4 -12   6   49.59   13.35
   4 -12  -7    9.84    9.14
   4 -12   7   -4.18    3.64
   4 -12  -8   14.10    6.07
   4 -12   8   10.55    3.26
   4 -12   9   23.99    8.68
   4 -12  -9   25.98    8.73
   4 -12 -10   10.91    7.78
   4 -12  10   13.45    6.17
   4 -12 -11   23.60    7.94
   4 -12  11   36.48    9.76
   4 -12  12   11.35    8.16
   4 -12 -12   -2.37    6.74
   4 -12  13    2.61    4.59
   4 -12 -13    2.20    4.16
   4 -12 -14   17.68    8.40
   4 -12  14    8.99    6.41
   4 -12 -15   -3.71    4.22
   4 -12  15   12.78    9.11
   4  12  15    6.33    4.43
   4 -12  16   -4.47    2.43
   4 -12 -16   -8.27    7.89
   4  12  16   -4.21    4.86
   4 -12  17   -5.70    6.67
   4  12  17    7.14    7.31
   4 -12 -17   -6.73    7.25
   4 -12  18    2.83    4.70
   4 -12 -18    4.97    3.92
   4 -12  19   20.39    9.95
   4 -12 -19   16.40    7.90
   4  12  19    8.43    6.82
   4 -12  20   17.03   10.67
   4 -12 -20    0.09    2.96
   4  12  20   26.42   13.05
   4 -13   0   34.18   12.06
   4 -13   1   67.23   16.08
   4 -13  -1   50.63   12.68
   4 -13   2   14.25    8.80
   4 -13  -2    1.76    2.82
   4 -13   3  153.99   22.84
   4 -13  -3  157.54   23.18
   4 -13   4    3.84    7.39
   4 -13  -4    0.03    2.51
   4 -13   5   11.78    4.85
   4 -13  -5   -1.38    2.99
   4 -13  -6   -0.40    5.80
   4 -13   6   -1.04    3.90
   4 -13  -7   45.40   12.82
   4 -13   7   57.73   14.14
   4 -13  -8   64.15   15.14
   4 -13   8   65.58   13.80
   4 -13  -9   13.61    6.23
   4 -13   9   12.01    6.29
   4 -13  10    6.14    6.24
   4 -13 -10   12.84    8.44
   4 -13 -11   10.49    6.89
   4 -13  11    0.05    5.38
   4 -13 -12   62.01   14.89
   4 -13  12   35.14   10.80
   4 -13 -13   13.33    7.52
   4 -13  13   20.89    9.99
   4 -13  14   -6.88    7.90
   4 -13 -14   -6.77    5.17
   4 -13  15   47.35   12.81
   4 -13 -15   37.36   11.91
   4 -13  16   18.01    8.92
   4 -13 -16    4.22    3.04
   4 -13 -17   22.17    9.46
   4 -13  17   14.53    7.14
   4 -14   0   68.57   15.74
   4 -14   1    8.49    5.46
   4 -14  -1   22.78    9.19
   4 -14   2   16.63    8.68
   4 -14  -2   -0.44    6.66
   4 -14   3   11.58    8.69
   4 -14  -3    4.08    5.85
   4 -14   4    3.07    3.37
   4 -14  -4    5.94    2.89
   4 -14   5    1.41    6.55
   4 -14  -5    5.14    7.53
   4 -14  -6   37.56   11.07
   4 -14   6   37.30   10.42
   4 -14  -7   34.54   11.23
   4 -14   7   16.05    7.02
   4 -14  -8    4.88    6.31
   4 -14   8    0.88    4.05
   4 -14  -9   10.77    7.52
   4 -14   9   11.11    7.16
   4 -14 -10   15.30    7.75
   4 -14  10    9.02    5.38
   4 -14  11   -4.79    7.21
   4 -14 -11    4.68    5.72
   4 -14  12   -3.29    3.12
   4 -14 -12   -0.20    7.38
   4 -14  13   16.32    7.60
   4 -14 -13   27.06   10.17
   4 -14 -14   10.12    5.79
   4 -14  14   -1.88    5.32
   4 -15   0   43.65   12.18
   4 -15   1    2.92    4.45
   4 -15  -1    1.01    3.78
   4 -15   2    8.87    5.54
   4 -15  -2    6.33    6.59
   4 -15   3    0.42    7.14
   4 -15  -3   -2.25    7.48
   4 -15   4   51.63   13.15
   4 -15  -4   40.60   10.82
   4 -15   5    1.68    2.51
   4 -15  -5    0.38    3.26
   4 -15   6   24.00    9.23
   4 -15  -6    6.52    3.25
   4 -15  -7   -4.65    6.61
   4 -15   7   -4.17    5.72
   4 -15  -8   75.54   16.50
   4 -15   8   70.34   16.02
   4 -15  -9    7.82    5.07
   4 -15   9   -0.06    3.74
   5   0   0   -0.02    0.87
   5   0   1   -1.05    1.25
   5   0  -1    0.14    0.81
   5   0  -2  962.72   26.01
   5   0   2  895.40   28.52
   5   0   3    1.63    1.54
   5   0  -3   -0.19    1.66
   5   0   4 1394.55   39.29
   5   0  -4 1626.58   34.70
   5   0  -5    1.98    1.08
   5   0   5   -0.65    0.85
   5   0   6 1459.91   42.99
   5   0  -6 1340.91   33.79
   5   0   7   -0.87    0.92
   5   0   8  293.07   21.87
  -5   0   8  309.68   18.17
   5   0   9   -1.41    2.83
  -5   0   9   -0.91    2.31
   5   0  10  136.77   15.35
  -5   0  10  135.31   13.16
   5   0  11    0.87    3.50
  -5   0  11    0.10    1.08
   5   0  12  561.42   33.57
  -5   0  12  525.52   28.61
  -5   0  13    1.40    2.77
   5   0  13    1.64    3.77
   5   0  14  160.79   19.20
  -5   0  14  109.18   14.04
  -5   0  15   -1.13    2.30
   5   0  15   -1.65    2.19
   5   0  16  664.66   41.62
  -5   0  16  637.59   37.30
  -5   0  17    1.83    2.75
   5   0  17    5.90    2.02
  -5   0  18   31.96    9.24
   5   0  18   43.70   11.26
  -5   0  19    1.60    3.36
   5   0  19    3.88    5.15
   5   0  20  144.03   20.68
  -5   0  20  101.70   16.66
  -5   0  21    6.40    5.38
   5   0  21    4.28    5.52
  -5   0  22   38.71   11.11
   5   0  22   19.77    7.66
  -5   0  23    6.60    5.77
   5   0  23   -0.20    5.18
   5   0  24  268.51   28.99
  -5   0  24  304.66   32.02
  -5   0  25   19.77   11.51
   5   0  25   10.61    8.84
   5   0  26  144.29   21.81
   5   0  27   -6.57    4.75
   5   0  28   41.76   11.53
   5   0  29   -7.54    6.49
   5   0  30   68.93   14.87
   5   1   0   -0.46    0.52
   5  -1   0    0.02    2.28
   5  -1   1  110.05   10.89
   5   1   1  118.36    9.10
   5   1  -1  123.42    7.45
   5   1  -2    2.30    1.00
   5  -1   2    0.88    1.82
   5  -1  -2    1.35    1.02
   5   1   2    4.79    2.48
   5  -1  -3   12.55    3.77
   5   1  -3   17.55    2.86
   5  -1   3   17.46    4.98
   5   1   3   20.61    4.31
   5  -1   4   17.02    4.05
   5  -1  -4    7.70    3.05
   5   1  -4   12.63    2.30
   5   1   4   12.04    2.93
   5  -1   5   10.10    3.31
   5  -1  -5    8.96    3.54
   5   1  -5   10.97    2.36
   5   1   5   15.84    4.37
   5   1   6  381.05   21.33
   5  -1  -6  363.72   20.06
   5  -1   6  378.18   22.86
   5   1   7   33.60    7.06
   5  -1   7   40.97    8.15
  -5  -1   7   30.07    4.73
   5  -1   8   13.16    4.61
   5   1   8   17.07    5.62
  -5   1   8   24.86    5.06
  -5  -1   8   25.61    4.80
   5   1   9   72.87   10.95
   5  -1   9   70.95   11.18
  -5   1   9   62.38    9.34
  -5  -1   9   78.78    8.69
  -5  -1  10  541.53   25.10
   5   1  10  610.48   34.54
   5  -1  10  583.12   32.50
  -5   1  10  561.90   28.50
  -5  -1  11   30.46    6.54
   5   1  11   28.86    7.96
   5  -1  11   29.54    7.07
  -5   1  11   33.50    7.76
   5   1  12  226.48   21.25
   5  -1  12  222.61   21.09
  -5   1  12  231.83   19.59
  -5  -1  12  216.85   18.01
   5   1  13  375.32   28.07
   5  -1  13  329.84   26.91
  -5   1  13  402.95   26.90
  -5  -1  13  354.64   24.22
   5   1  14  142.94   17.71
   5  -1  14  145.20   17.58
  -5   1  14  117.05   15.42
  -5  -1  14  126.88   14.96
  -5  -1  15   20.18    6.40
   5  -1  15    9.69    4.54
   5   1  15   10.62    6.35
  -5   1  15   14.79    5.49
   5   1  16  213.85   22.42
   5  -1  16  174.54   20.43
  -5   1  16  223.93   22.55
  -5  -1  16  195.43   19.73
  -5   1  17   29.30    9.07
  -5  -1  17   19.99    5.68
   5   1  17   26.14    8.22
   5  -1  17   26.37    7.31
  -5   1  18   44.04   10.60
  -5  -1  18   24.95    7.57
   5   1  18   22.15    6.92
   5  -1  18   34.16   10.66
  -5   1  19   19.63    6.43
  -5  -1  19   26.80    7.38
   5   1  19   10.81    5.26
   5  -1  19   23.75    9.20
   5   1  20   94.54   16.53
   5  -1  20  110.45   18.56
  -5   1  20  115.55   17.54
  -5  -1  20   82.19   14.47
  -5   1  21   52.23   12.60
  -5  -1  21   49.48   11.49
   5   1  21   55.32   12.78
   5  -1  21   31.89    9.77
  -5   1  22    1.00    1.84
   5   1  22    6.06    7.03
   5  -1  22    7.88    5.91
   5  -1  23   83.34   16.45
   5   1  23   87.48   15.70
  -5   1  23  100.40   17.06
   5   1  24  187.34   25.09
   5  -1  24  147.37   22.21
  -5   1  24  128.39   19.68
  -5   1  25    4.95    8.73
   5   1  25   11.82    7.80
   5  -1  25   -4.07    2.90
  -5   1  26   41.92   13.43
   5   1  26   17.78    7.59
   5  -1  26   29.25   10.18
  -5   1  27    7.18    7.32
   5   1  27    7.25    3.11
   5  -1  27   18.98    7.24
  -5   1  28  -10.76    6.29
   5   1  28    2.50    7.89
   5  -1  28    7.32    6.94
   5   1  29   10.17    8.56
   5  -1  29   19.34    9.54
   5   1  30   32.71    8.64
   5  -1  30   54.19   14.91
   5  -2   0   -1.48    1.68
   5   2   1   80.85    6.12
   5  -2   1   84.50   10.26
   5  -2  -1   99.62   11.37
   5  -2   2   97.76   11.49
   5   2   2   99.51    7.61
   5  -2  -2   86.64   10.27
   5   2   3  955.51   26.70
   5  -2  -3  935.94   34.37
   5  -2   3  968.32   35.90
   5  -2   4  672.62   30.84
   5  -2  -4  665.16   29.12
   5  -2  -5  716.80   31.03
   5   2   5  707.93   27.62
   5  -2   5  751.24   33.38
   5   2   6  667.40   28.04
   5   2  -6  621.76   14.47
   5  -2  -6  643.03   29.53
   5  -2   6  681.12   31.88
   5   2   7   73.99    9.81
   5  -2   7   92.07   12.18
  -5  -2   7   86.49    6.53
   5  -2   8    1.34    2.19
   5   2   8    0.55    2.35
  -5  -2   8    3.60    1.73
   5   2   9  473.80   27.35
   5  -2   9  534.33   31.16
  -5   2   9  497.32   28.29
  -5  -2   9  504.55   20.83
   5   2  10  174.94   17.27
   5  -2  10  158.56   17.60
  -5   2  10  182.47   17.36
  -5  -2  10  157.43   13.22
   5   2  11   41.54    9.22
   5  -2  11   42.26   10.15
  -5   2  11   52.99   10.11
  -5  -2  11   56.73    8.41
   5   2  12  115.72   15.11
   5  -2  12  149.51   17.98
  -5  -2  12  139.34   13.71
   5   2  13  579.61   35.44
   5  -2  13  540.49   35.07
  -5   2  13  598.28   34.92
  -5  -2  13  587.72   29.70
   5   2  14   50.76   11.09
   5  -2  14   46.66   10.35
  -5  -2  14   54.09   10.04
  -5   2  14   32.06    8.31
   5   2  15  190.39   21.28
   5  -2  15  174.61   20.83
  -5   2  15  207.72   21.03
  -5  -2  15  190.49   18.38
   5   2  16  121.58   17.68
   5  -2  16   97.87   15.75
  -5   2  16  134.72   17.68
  -5  -2  16   89.49   14.03
   5   2  17  155.99   20.01
   5  -2  17  202.23   22.66
  -5   2  17  171.17   20.03
  -5  -2  17  164.03   19.02
   5   2  18  143.68   19.36
   5  -2  18  126.78   18.33
  -5   2  18  142.98   19.12
   5   2  19   47.96   12.61
   5  -2  19   32.98   10.48
  -5   2  19   35.25   10.76
   5   2  20  168.72   22.07
   5  -2  20  176.04   22.68
  -5   2  20  189.73   22.76
   5   2  21   54.88   14.40
   5  -2  21   31.56   10.48
  -5   2  22   17.64    8.26
   5   2  22   18.12    7.52
   5  -2  22   23.89    9.63
  -5   2  23   14.58    3.22
   5   2  23   18.16    9.23
   5  -2  23   15.84   10.23
  -5   2  24   33.14   13.72
   5   2  24   19.31    8.29
   5  -2  24   19.23    7.58
  -5   2  25   -8.96    8.58
   5   2  25    2.21    6.25
   5  -2  25    0.86    6.34
  -5   2  26   19.00    9.67
   5   2  26   10.10    8.74
   5  -2  26    5.75    3.48
   5   2  27  122.18   20.83
   5  -2  27   88.55   18.22
  -5   2  27  118.35   20.30
  -5   2  28    4.16    7.86
   5   2  28   -6.09    6.76
   5  -2  28    4.62    3.88
  -5   2  29   11.18    7.76
   5   2  29   11.30    8.19
   5  -2  29    8.92    4.83
   5  -3   0   -1.34    1.90
   5  -3   1    5.92    2.63
   5  -3  -1    6.19    1.65
   5   3   1   10.59    1.96
   5  -3   2  250.33   19.55
   5  -3  -2  218.59   17.93
   5   3   2  248.39   11.34
   5   3   3   -0.89    1.08
   5  -3  -3    0.02    2.31
   5   3   4    0.75    1.36
   5  -3   4    0.44    2.63
   5  -3  -4   -1.85    2.92
   5  -3  -5  296.09   21.55
   5   3   5  276.82   17.39
   5   3   6   47.60    7.93
   5  -3  -6   47.78    8.37
   5  -3   6   42.37    8.31
   5   3   7  263.98   18.51
   5  -3  -7  235.03   19.31
   5  -3   7  207.39   19.49
   5  -3   8   13.76    5.30
   5   3   8   20.54    5.40
  -5  -3   8   13.29    3.37
   5  -3   9   20.62    4.87
   5   3   9   28.81    6.95
  -5   3   9   40.35    8.77
  -5  -3   9   29.46    5.22
   5  -3  10   12.55    5.69
   5   3  10    9.33    4.79
  -5   3  10    5.21    2.79
  -5  -3  10   22.54    5.67
   5  -3  11    4.46    4.37
   5   3  11    3.49    2.39
  -5   3  11    0.74    2.59
   5  -3  12    0.42    4.24
  -5  -3  12   -3.76    2.22
   5   3  12    2.01    3.44
  -5   3  12   -1.60    4.35
   5   3  13  216.76   21.24
   5  -3  13  177.39   19.60
  -5   3  13  163.23   18.62
   5   3  14    1.28    2.47
  -5   3  14    2.26    4.12
   5  -3  14    1.58    4.06
   5   3  15  174.01   19.97
   5  -3  15  171.39   21.02
  -5   3  15  171.29   20.15
   5   3  16   35.23    9.53
   5  -3  16   29.52    8.96
  -5   3  16   22.81    8.31
   5   3  17   -0.36    4.88
   5  -3  17    1.12    4.34
  -5   3  17   -1.41    4.17
   5   3  18    1.64    1.96
   5  -3  18   -2.68    3.16
  -5   3  18   -3.73    2.30
   5   3  19   51.43   12.71
   5  -3  19   42.66   11.73
  -5   3  19   31.70    9.67
   5   3  20    3.29    4.53
   5  -3  20   13.43    5.68
   5   3  21   11.10    6.85
   5  -3  21   12.77    5.16
  -5   3  21   13.83    7.72
   5   3  22    1.47    5.89
   5  -3  22   17.85    9.57
  -5   3  22    1.47    4.58
   5   3  23   13.34    7.55
   5  -3  23   41.16   12.18
  -5   3  23   27.72   10.23
   5   3  24   92.81   17.88
   5  -3  24   97.30   19.00
  -5   3  24   59.16   14.01
   5   3  25    9.02    3.07
   5  -3  25   15.74    9.26
  -5   3  25   15.77    7.26
   5   3  26    2.68    4.80
   5  -3  26    1.25    2.70
  -5   3  26    0.42    4.67
   5   3  27   33.12    9.98
  -5   3  27   36.93   12.59
   5   3  28    3.88    3.95
   5  -3  28    5.59    8.42
  -5   3  28   -0.68    2.94
   5   3  29   12.76    4.93
   5  -3  29    9.70    5.19
  -5   3  29   26.21   12.46
   5  -4   0    3.17    4.90
   5  -4   1  291.26   22.27
   5  -4  -1  297.05   22.33
   5  -4   2    1.50    1.97
   5   4   2    4.88    1.38
   5  -4   3    0.63    2.23
   5  -4  -3    7.01    2.80
   5   4   3    4.94    1.65
   5   4   4   62.86    7.74
   5  -4   4   80.78   12.14
   5  -4  -4   76.57   11.65
   5  -4  -5   33.98    7.59
   5  -4   5   19.79    4.36
   5   4   5   38.67    6.39
   5  -4  -6  505.55   30.12
   5   4   6  440.69   23.63
   5  -4   6  485.58   30.28
   5  -4  -7  477.43   29.42
   5  -4   7  391.78   27.80
   5   4   7  438.68   24.55
   5  -4   8  136.02   15.93
   5   4   8  110.80   13.27
   5  -4   9   41.85    8.82
   5   4   9   48.07    9.07
   5   4  10   -0.27    2.01
   5  -4  10   -0.47    2.53
   5  -4  11    9.88    4.75
   5   4  11    5.72    3.48
  -5   4  11    1.81    1.79
   5  -4  12  164.92   19.03
  -5   4  12  170.04   19.64
   5   4  12  174.60   18.64
   5  -4  13   11.37    2.67
   5   4  13   14.96    5.14
  -5   4  13   13.42    5.78
   5   4  14   33.35    8.87
   5  -4  14   57.39   12.82
  -5   4  14   56.32   11.27
   5   4  15    5.69    2.92
  -5   4  15   13.94    7.67
   5  -4  15    8.27    5.81
   5  -4  16  208.47   24.15
  -5   4  16  205.32   23.73
   5   4  16  239.22   24.06
   5  -4  17  128.10   17.81
  -5   4  17  133.86   18.53
   5   4  17  117.59   17.98
   5   4  18    5.60    7.00
  -5   4  18    3.11    4.57
   5  -4  18   12.00    4.62
   5   4  19   53.66   11.69
   5  -4  19   60.29   13.40
  -5   4  19   40.18   10.79
   5   4  20    6.36    4.10
   5  -4  20    2.45    4.51
  -5   4  20    4.09    2.83
   5   4  21   31.99    8.45
   5  -4  21   25.64    9.73
  -5   4  21   13.38    5.17
   5   4  22   -4.77    3.77
  -5   4  22   -0.89    2.94
   5  -4  23  270.80   29.90
  -5   4  23  365.61   34.54
   5   4  23  326.60   32.39
  -5   4  24    2.72    4.31
   5   4  24    5.89    3.85
   5  -4  24    4.93    5.66
   5   4  25   -0.89    3.47
   5  -4  25    9.96    4.06
  -5   4  25    7.09    5.84
   5   4  26   15.12    8.38
   5  -4  26   11.59    4.25
  -5   4  26    4.36    5.09
   5   4  27   -4.96    8.52
   5  -4  27   -6.14    6.55
  -5   4  27    6.14    5.34
   5   4  28    5.15    7.04
   5  -4  28   10.99    7.75
  -5   4  28   -0.69    4.49
   5   4  29   -0.64    5.36
   5  -4  29    4.09    3.15
  -5   4  29   -2.21    2.48
   5  -5   0   -0.89    4.90
   5  -5   1  378.14   26.91
   5  -5  -1  459.51   29.67
   5  -5   2  196.48   19.75
   5  -5  -2  186.79   18.62
   5  -5   3    5.45    4.77
   5   5   3    3.60    1.97
   5  -5  -4   29.28    7.86
   5   5   4   19.13    4.51
   5  -5   4   30.41    7.42
   5  -5   5   94.87   14.18
   5  -5  -5   84.94   13.40
   5   5   5   75.41    9.31
   5  -5   6  248.03   21.95
   5  -5  -6  225.46   21.36
   5   5   6  233.05   17.84
   5  -5  -7  210.49   20.85
   5   5   7  172.06   16.11
   5  -5   7  207.94   21.34
   5  -5  -8  131.59   16.44
   5   5   8   90.24   11.99
   5  -5   8   94.74   14.47
   5   5   9   12.66    4.68
   5  -5   9   22.51    8.09
   5   5  10    5.49    3.13
   5  -5  10   14.02    7.96
   5  -5  11   74.24   13.54
   5   5  11   68.88   11.89
   5  -5  12  220.64   23.52
  -5   5  12  262.58   24.80
   5   5  12  257.10   23.90
   5  -5  13    1.07    2.27
   5   5  13    0.31    1.97
  -5   5  13   -1.62    3.88
   5  -5  14    6.95    5.65
   5   5  14   14.41    5.46
  -5   5  14    4.22    4.96
   5  -5  15   16.24    6.48
   5   5  15    7.14    3.49
  -5   5  15   16.27    7.41
   5  -5  16   39.96   10.55
   5   5  16   36.99    8.97
  -5   5  16   24.86    6.22
   5   5  17   -0.81    2.40
  -5   5  17    1.37    2.93
   5  -5  17    0.86    4.14
   5   5  18   21.09    8.18
  -5   5  18   12.84    6.95
   5  -5  18   21.97    9.57
   5   5  19    6.97    6.16
  -5   5  19   -1.55    4.18
   5  -5  19    2.75    2.87
   5   5  20   -4.02    6.28
   5  -5  20    9.64    6.66
  -5   5  20    9.17    8.37
   5   5  21   86.27   16.25
   5  -5  21   85.14   16.74
  -5   5  21   94.20   18.20
   5   5  22   -4.25    4.32
   5  -5  22   10.75    3.83
  -5   5  22    2.27    6.02
   5   5  23   59.88   15.64
   5  -5  23   55.27   13.53
  -5   5  23   30.43   10.51
   5   5  24   55.28   12.53
   5  -5  24   63.64   13.99
  -5   5  24   66.94   15.75
   5   5  25    7.05    5.40
   5  -5  25    6.63    8.04
  -5   5  25   -1.72    3.67
   5   5  26   17.41    6.02
   5  -5  26   21.26    9.23
  -5   5  26    8.59    6.28
   5   5  27  -12.26    7.27
   5  -5  27    3.22    4.28
  -5   5  27   -5.43    9.29
   5   5  28   20.90   10.38
  -5   5  28   15.27    4.66
   5  -6   0   -3.93    5.30
   5  -6   1  515.19   32.82
   5  -6  -1  529.44   33.84
   5  -6   2  272.84   24.21
   5  -6  -2  257.43   23.21
   5  -6   3  302.90   25.29
   5  -6  -3  286.15   24.63
   5  -6   4  113.75   15.51
   5   6   4   73.47    9.80
   5  -6  -4  132.26   17.57
   5  -6  -5  165.03   19.33
   5  -6   5  165.83   19.45
   5   6   5  168.42   15.18
   5  -6  -6   28.23    9.17
   5  -6   6   12.14    4.79
   5   6   6   23.56    5.77
   5  -6   7   23.20    7.49
   5  -6  -7   21.59    8.54
   5   6   7   17.27    5.81
   5  -6  -8   53.29   10.97
   5  -6   8   43.20   10.47
   5   6   8   37.28    7.85
   5  -6  -9  261.92   25.15
   5   6   9  322.65   24.37
   5  -6   9  317.83   26.97
   5   6  10    7.36    4.95
   5  -6  10    5.05    3.38
   5   6  11   44.84    9.86
   5  -6  11   59.43   12.91
   5  -6  12  199.13   22.07
   5   6  12  201.82   20.64
   5  -6  13   51.78   10.85
  -5   6  13   74.03   13.45
   5   6  13   73.14   13.15
  -5   6  14   -2.16    2.11
   5   6  14    9.01    3.81
   5  -6  14    2.84    6.25
   5  -6  15  170.32   22.29
  -5   6  15  179.08   21.86
   5   6  15  219.24   22.97
   5  -6  16   -3.85    5.26
   5   6  16   -2.64    3.94
  -5   6  16    2.69    3.20
   5  -6  17   -1.55    3.96
   5   6  17    6.97    4.68
  -5   6  17    0.85    3.54
   5   6  18    4.78    2.59
  -5   6  18    0.87    3.24
   5  -6  18   -1.50    2.95
  -5   6  19   13.53    7.06
   5  -6  19    3.90    2.48
   5  -6  20  239.90   27.38
  -5   6  20  208.25   25.94
   5   6  20  226.89   26.56
   5   6  21    1.67    2.87
   5  -6  21   -0.99    3.90
  -5   6  21    2.85    6.50
   5  -6  22  183.91   25.05
  -5   6  22  186.36   25.25
   5   6  22  175.41   23.63
   5   6  23   29.38    9.37
   5  -6  23   30.75   11.58
  -5   6  23   24.24    9.08
   5   6  24   31.61   10.27
   5  -6  24   29.98    9.55
  -5   6  24   30.78   10.83
   5  -6  25    1.08    2.36
  -5   6  25    5.63    4.42
   5   6  26    4.01    5.01
   5  -6  26    2.96    5.48
  -5   6  26    3.97    2.48
   5   6  27   25.18   11.72
   5  -6  27   54.52   13.70
  -5   6  27   20.34   12.09
   5  -7   0    1.45    4.62
   5  -7   1   39.83    9.38
   5  -7  -1   57.96   11.83
   5  -7   2  562.33   36.12
   5  -7  -2  545.64   35.97
   5  -7   3  194.03   21.34
   5  -7  -3  208.33   22.13
   5  -7   4  151.97   18.72
   5  -7  -4  174.34   20.43
   5   7   5   51.78    9.08
   5  -7   5   53.85   10.91
   5  -7  -5   72.20   13.66
   5  -7  -6    3.09    3.28
   5   7   6    5.92    3.58
   5  -7   6    7.16    5.54
   5  -7  -7    3.59    4.77
   5  -7   7    4.70    4.38
   5   7   7   -1.84    2.04
   5  -7  -8   72.69   13.46
   5  -7   8   50.06   11.62
   5   7   8   61.31   10.58
   5  -7  -9  161.48   19.94
   5   7   9  221.49   20.68
   5  -7   9  227.94   23.59
   5  -7 -10    8.62    6.62
   5  -7  10   -1.68    4.90
   5   7  10    4.52    1.59
   5  -7 -11   92.64   14.88
   5  -7  11   65.01   14.05
   5   7  11   64.56   11.46
   5   7  12   36.29   10.24
   5  -7  12   22.27    7.55
   5  -7  13   98.54   15.93
   5   7  13   96.64   14.78
   5   7  14   53.72   11.00
   5  -7  14  112.43   16.79
   5   7  15   24.07    8.16
   5  -7  15   21.00    7.94
  -5   7  15   10.10    5.95
   5   7  16   27.13    9.03
   5  -7  16   23.78    7.74
  -5   7  16   36.98    9.63
   5   7  17    5.21    4.20
   5  -7  17    1.05    5.92
  -5   7  17   -0.68    4.09
   5  -7  18   -5.74    7.11
   5   7  18    3.63    3.90
  -5   7  18    1.75    5.56
   5   7  19    2.79    3.43
  -5   7  19    7.25    4.06
   5  -7  19    7.81    5.40
   5   7  20   -3.75    5.13
  -5   7  20   -2.73    2.51
   5  -7  20   -2.60    4.94
   5   7  21   12.57    7.14
  -5   7  21   20.00    9.67
   5  -7  21   12.85    8.92
   5   7  22  -10.40    9.16
  -5   7  22    9.97    8.02
   5  -7  22   13.06    8.51
   5   7  23   -1.40    4.38
   5  -7  23    9.32    5.60
  -5   7  23   -0.05    2.47
   5   7  24   22.55   11.75
   5  -7  24   20.92   10.03
  -5   7  24   14.96    7.85
   5   7  25   15.30    6.26
  -5   7  25   20.56    9.18
   5  -7  25    2.46    3.69
   5   7  26   13.15    8.24
   5  -7  26   16.17    8.75
  -5   7  26   25.36   11.51
   5  -8   0    5.28    3.58
   5  -8   1  789.17   44.30
   5  -8  -1  718.25   42.29
   5  -8   2  135.62   18.50
   5  -8  -2  119.10   17.17
   5  -8  -3    2.25    4.89
   5  -8   3    7.55    4.08
   5  -8   4   17.31    7.54
   5  -8  -4   35.63    9.32
   5  -8   5 1289.96   56.71
   5  -8  -5 1247.67   56.28
   5   8   6   35.03    7.92
   5  -8  -6   10.22    5.69
   5  -8   6   32.45    8.70
   5  -8  -7    3.64    2.50
   5  -8   7    6.87    7.43
   5   8   7    3.76    2.46
   5  -8   8   11.00    4.84
   5   8   8   14.11    5.17
   5  -8  -9  636.62   41.78
   5   8   9  663.69   38.50
   5  -8   9  655.38   41.64
   5  -8 -10  109.12   17.46
   5   8  10  114.43   16.92
   5  -8  10   97.35   16.40
   5  -8  11   21.35    7.56
   5   8  11   39.27    8.87
   5  -8 -11   53.76   12.61
   5  -8 -12   54.01   12.78
   5  -8  12   50.80   11.80
   5   8  12   36.42    9.60
   5   8  13  304.23   28.52
   5  -8  13  259.09   26.96
   5  -8  14    3.46    3.81
   5   8  14   10.36    7.45
   5  -8  15   15.01    8.56
   5   8  15    3.02    2.52
   5  -8  16    3.68    5.32
   5   8  16    1.91    4.90
   5  -8  17  128.30   20.19
   5   8  17  177.92   23.84
   5   8  18    4.48    4.85
   5  -8  18   -0.45    4.43
  -5   8  18   -1.23    3.33
   5  -8  19  108.18   19.08
  -5   8  19  124.99   19.90
   5   8  19  153.07   23.07
   5   8  20   -0.59    3.94
  -5   8  20    7.56    5.96
   5  -8  20    4.02    5.06
   5   8  21   39.38   13.83
  -5   8  21   37.92   11.76
   5  -8  21   51.95   14.84
   5   8  22   -0.08    4.35
  -5   8  22   12.68    8.83
   5  -8  22    5.65    4.78
   5  -8  23  104.09   19.39
  -5   8  23   91.09   19.14
   5   8  23  122.74   20.82
   5   8  24    6.85    6.29
  -5   8  24   -3.44    5.66
   5  -8  24    7.26    5.10
   5   8  25    5.54    6.86
   5  -8  25   -2.98    2.97
  -5   8  25    5.32    5.14
   5  -9   0    0.26    2.95
   5  -9   1  285.99   27.62
   5  -9  -1  336.88   30.14
   5  -9   2   14.33    6.41
   5  -9  -2    9.14    6.73
   5  -9  -3    5.59    4.79
   5  -9   3    1.78    4.74
   5  -9   4   46.02   12.50
   5  -9  -4   51.52   11.32
   5  -9   5   59.82   11.88
   5  -9  -5   90.57   16.50
   5  -9   6  131.79   19.07
   5  -9  -6  138.51   19.30
   5  -9   7   -2.51    3.20
   5  -9  -7   -1.72    2.65
   5  -9  -8   30.22    9.68
   5   9   8   20.47    6.13
   5  -9   8   23.73    9.17
   5  -9  -9   55.17   12.26
   5  -9   9   30.87   10.22
   5   9   9   42.88   11.45
   5  -9  10   14.10    7.60
   5  -9 -10    4.56    2.80
   5   9  10   17.64    7.32
   5  -9 -11   27.95   10.49
   5  -9  11   20.28    6.22
   5   9  11   39.81    9.07
   5  -9 -12   85.81   16.71
   5   9  12  108.35   16.83
   5  -9  12  102.39   17.36
   5  -9 -13    8.34    6.51
   5  -9  13    3.48    2.18
   5   9  13    3.27    2.59
   5  -9 -14   18.52    6.92
   5   9  14   13.96    5.75
   5  -9  15   33.82    8.89
   5   9  15   60.79   14.03
   5  -9  16   52.68   12.06
   5   9  16   31.46    9.47
   5  -9  17   19.45    8.29
   5   9  17   14.33    7.96
   5  -9  18    2.93    4.13
   5   9  18   -2.85    5.30
   5  -9  19   -0.87    4.57
   5   9  19   -1.93    5.13
   5  -9  20   27.01    9.70
   5   9  20   26.78    8.82
  -5   9  21   -0.58    5.79
   5   9  21    1.63    3.70
   5  -9  21   -1.04    2.47
  -5   9  22    8.33    6.57
   5  -9  22    1.07    4.17
   5   9  22   -4.79    4.77
  -5   9  23    6.86    8.53
   5  -9  23   -6.81    6.57
   5   9  23    1.74    4.44
  -5   9  24    3.06    3.85
   5  -9  24    3.43    5.33
   5   9  24   -0.77    5.78
   5 -10   0   -1.33    4.04
   5 -10   1   70.83   14.80
   5 -10  -1   90.24   16.77
   5 -10   2  178.69   22.72
   5 -10  -2  149.06   20.69
   5 -10   3  156.55   20.04
   5 -10  -3  143.45   20.17
   5 -10   4  343.52   31.47
   5 -10  -4  332.63   30.82
   5 -10   5  322.09   30.35
   5 -10  -5  318.56   30.43
   5 -10   6  211.84   24.92
   5 -10  -6  191.18   23.18
   5 -10  -7    2.22    6.34
   5 -10   7   11.00    7.41
   5 -10   8   27.26   10.01
   5 -10  -8   10.36    7.39
   5 -10  -9    7.77    6.66
   5 -10   9   -0.95    5.78
   5 -10 -10   -1.84    4.65
   5 -10  10    6.23    6.62
   5  10  10    4.27    5.37
   5 -10  11   69.30   14.43
   5 -10 -11   64.21   13.63
   5  10  11   58.54   13.83
   5 -10  12   14.54    6.33
   5  10  12   27.98   11.34
   5 -10 -12   17.58    6.39
   5 -10 -13  115.46   19.05
   5 -10  13   79.75   15.26
   5  10  13  103.39   17.91
   5 -10  14   -4.65    2.98
   5 -10 -14   -1.82    2.52
   5  10  14   -0.02    2.87
   5 -10 -15    1.64    3.51
   5 -10  15   -0.17    2.71
   5  10  15    0.23    3.38
   5 -10 -16   86.60   16.49
   5 -10  16   92.19   16.80
   5  10  16   71.66   16.69
   5 -10  17   15.60    8.61
   5 -10 -17    3.79    4.37
   5  10  17    6.68    5.39
   5 -10  18    1.56    2.37
   5  10  18   -0.40    4.41
   5 -10  19    7.20    7.91
   5  10  19   10.90    7.27
   5 -10  20   40.46   12.24
   5  10  20   50.03   13.04
   5 -10  21    4.91    4.19
   5  10  21    4.80    6.54
   5  10  22   48.82   12.71
   5 -10  22   32.08   14.20
   5 -11   0    1.43    2.28
   5 -11   1    1.68    2.19
   5 -11  -1   -0.07    4.82
   5 -11   2   95.83   18.30
   5 -11  -2   85.18   16.43
   5 -11   3   26.23    9.52
   5 -11  -3   14.99    8.73
   5 -11  -4   16.11    7.79
   5 -11   4    5.06    4.58
   5 -11   5    7.73    3.14
   5 -11  -5    0.02    4.49
   5 -11  -6    2.96    2.23
   5 -11   6    5.86    4.66
   5 -11  -7   56.67   13.17
   5 -11   7   42.30   10.60
   5 -11  -8   22.05    6.02
   5 -11   8   25.34    7.98
   5 -11   9   54.74   13.62
   5 -11  -9   62.28   13.87
   5 -11 -10   74.84   15.98
   5 -11  10   51.07   12.57
   5 -11 -11   66.51   14.67
   5 -11  11   59.82   13.93
   5 -11 -12   44.36   11.99
   5 -11  12   53.31   13.00
   5 -11  13   -1.28    3.81
   5 -11 -13    3.98    3.17
   5  11  14   -5.66    8.13
   5 -11  14    0.33    5.17
   5 -11 -14    0.93    2.30
   5 -11 -15   11.90    4.85
   5 -11  15    5.67    2.01
   5  11  15    9.42    5.50
   5 -11  16   41.65   13.72
   5 -11 -16   38.20   11.64
   5  11  16   42.28   13.13
   5 -11  17   -5.38    5.40
   5  11  17    9.43    8.51
   5 -11 -17   13.84    7.17
   5 -11  18    1.47    2.39
   5 -11 -18    3.20    4.53
   5  11  18    5.35    5.89
   5 -11  19   -1.19    3.27
   5 -11 -19    0.37    4.91
   5  11  19   -4.53    9.13
   5 -11  20    2.51    4.89
   5 -11 -20   19.29    9.91
   5  11  20    2.31    6.51
   5 -11  21   -2.66    2.69
   5  11  21    3.05    5.58
   5 -12   0    9.68    7.21
   5 -12   1   36.11   11.65
   5 -12  -1   41.63   12.57
   5 -12   2   20.57    7.30
   5 -12  -2   20.53    8.51
   5 -12   3   -5.35    4.18
   5 -12  -3    9.66    4.51
   5 -12   4   15.52    9.56
   5 -12  -4   10.48    4.88
   5 -12   5   49.56   14.15
   5 -12  -5   48.46   13.60
   5 -12  -6   18.35    8.57
   5 -12   6    9.49    6.47
   5 -12  -7    6.97    6.38
   5 -12   7    2.46    3.53
   5 -12  -8   30.95   10.66
   5 -12   8   69.17   15.67
   5 -12  -9   -2.99    2.62
   5 -12   9   10.38    7.42
   5 -12  10   27.53   10.93
   5 -12 -10   20.55    9.53
   5 -12  11   -3.04    5.31
   5 -12 -11   -1.28    3.85
   5 -12 -12   70.69   14.85
   5 -12  12   89.71   18.23
   5 -12 -13   32.24   10.82
   5 -12  13   63.90   14.73
   5 -12  14   15.35    8.15
   5 -12 -14   29.16   13.04
   5 -12  15    9.68    7.81
   5 -12 -15   -0.48    5.86
   5 -12  16   14.13    9.44
   5 -12 -16   19.97    8.35
   5 -12 -17   21.01    9.33
   5 -12  17   13.73    7.26
   5 -12  18    5.47    6.34
   5 -12 -18   -2.17    2.28
   5 -13   0   -2.30    7.36
   5 -13   1   37.16   12.30
   5 -13  -1   37.98   10.93
   5 -13   2   15.35    8.56
   5 -13  -2   15.38    7.90
   5 -13   3   17.16    8.67
   5 -13  -3    5.72    3.39
   5 -13   4   24.17    9.94
   5 -13  -4   27.02   11.12
   5 -13  -5    2.06    3.52
   5 -13   5   -0.95    3.35
   5 -13  -6   -1.34    3.82
   5 -13   6    7.80    6.35
   5 -13  -7    8.60    8.12
   5 -13   7    9.46    5.39
   5 -13  -8   14.79    6.08
   5 -13   8   25.52    9.99
   5 -13  -9   62.79   15.25
   5 -13   9   61.90   14.37
   5 -13 -10   12.20    8.14
   5 -13  10   12.73    8.39
   5 -13  11   -7.21    7.28
   5 -13 -11   -2.70    3.88
   5 -13  12   33.72   11.65
   5 -13 -12   30.56   10.30
   5 -13  13   10.06    7.10
   5 -13 -13    1.19    4.50
   5 -13 -14   30.33    9.39
   5 -13  14   24.64   10.25
   5 -13 -15   -0.36    5.81
   5 -13  15   11.66    6.41
   5 -13  16   -3.48    3.62
   5 -13 -16    3.90    3.54
   5 -14   0    1.29    6.19
   5 -14   1   17.66    8.46
   5 -14  -1   14.68    6.92
   5 -14   2   16.16    7.11
   5 -14  -2   20.91    9.75
   5 -14   3    2.83    4.72
   5 -14  -3    9.63    5.98
   5 -14   4   14.20    8.22
   5 -14  -4    7.72    6.11
   5 -14  -5   34.20   11.44
   5 -14   5   59.38   14.30
   5 -14   6    2.95    4.49
   5 -14  -6   -7.77    9.60
   5 -14  -7    1.09    6.99
   5 -14   7   -3.03    4.51
   5 -14  -8    5.03    5.18
   5 -14   8    8.33    5.11
   5 -14  -9   20.07   10.17
   5 -14   9   13.90    9.89
   5 -14 -10   16.18    9.63
   5 -14  10   47.75   13.37
   5 -14 -11    0.12    5.73
   5 -14  11    0.65    2.89
   5 -14  12   13.15    7.90
   5 -14 -12    5.97    8.09
   5 -15   0   -2.03    3.55
   5 -15   1   15.99    7.11
   5 -15  -1    0.88    3.32
   5 -15   2   20.48   11.95
   5 -15  -2   32.19   11.65
   5 -15   3    7.67    5.29
   5 -15  -3   11.76    6.57
   5 -15  -4   11.16    5.11
   5 -15   4    4.60    4.63
   5 -15  -5   -4.33    7.28
   5 -15   5   -3.86    2.31
   5 -15  -6    8.38    5.68
   5 -15   6   12.34    6.89
   6   0   0 5100.04   68.07
   6   0   1    0.52    0.70
   6   0  -1    1.65    2.02
   6   0  -2  213.50   13.24
   6   0   2  166.96   13.23
   6   0  -3    0.98    0.84
   6   0   3   -0.90    0.96
   6   0  -4  960.34   29.01
   6   0   4  891.22   34.36
   6   0  -5   -0.71    1.60
   6   0   5   -0.47    1.76
   6   0   6  258.36   19.62
   6   0  -6  270.80   16.84
   6   0  -7    0.39    0.81
   6   0   7    1.81    2.65
   6   0   8 1876.44   56.40
   6   0  -8 1824.98   45.55
   6   0   9    0.66    3.62
   6   0  10 1881.43   59.47
  -6   0  10 1989.08   51.65
   6   0  11    2.05    2.04
  -6   0  11    1.32    4.03
   6   0  12   51.93    9.91
  -6   0  12   34.89    8.02
   6   0  13    0.12    2.38
  -6   0  13   -3.88    1.55
   6   0  14  967.40   49.21
  -6   0  14  914.79   42.16
   6   0  15   -0.57    3.90
  -6   0  15   -2.86    2.47
   6   0  16   17.13    6.96
   6   0  17    2.91    3.30
   6   0  18   60.20   12.57
   6   0  19   -4.75    5.19
   6   0  20   14.16    6.12
   6   0  21   -1.73    4.75
   6   0  22   82.11   15.63
   6   0  23    1.94    2.92
   6   0  24   56.99   12.77
   6   0  25    0.73    6.23
   6   0  26  123.85   21.39
   6   0  27    0.37    5.39
   6   0  28    1.66    4.35
   6  -1   0   38.91    6.81
   6   1   0   35.43    5.13
   6  -1  -1   61.39    8.25
   6   1   1   50.35    6.55
   6   1  -1   42.07    5.16
   6  -1   1   58.86    8.56
   6   1  -2    1.13    1.18
   6  -1  -2   -1.62    1.97
   6  -1   2   -0.60    0.97
   6   1   2    2.87    2.22
   6  -1   3    4.54    3.28
   6   1  -3    6.66    1.63
   6  -1  -3    9.66    4.26
   6   1   3   10.15    3.60
   6   1  -4  268.28   11.24
   6   1   4  277.90   17.63
   6  -1  -4  253.39   18.00
   6  -1   4  300.14   20.54
   6  -1   5    1.56    1.95
   6  -1  -5    3.05    2.66
   6   1  -5    4.45    1.54
   6   1   5    5.89    3.18
   6   1   6  217.87   16.83
   6  -1   6  216.68   18.34
   6   1  -6  189.44   11.15
   6  -1  -6  188.99   15.66
   6   1  -7   41.62    5.40
   6  -1  -7   47.46    8.08
   6   1   7   41.33    8.08
   6   1   8   12.18    5.09
   6   1  -8   18.43    3.87
   6  -1  -8   11.33    4.69
   6  -1   8   19.67    5.79
   6   1   9   14.07    5.23
   6  -1   9   22.95    6.40
   6   1  10    2.15    1.55
   6  -1  10    0.98    1.85
   6   1  11    2.29    2.55
  -6   1  11    0.10    2.13
   6  -1  11    7.23    6.56
   6   1  12   43.84   10.33
   6  -1  12   39.67   10.06
  -6   1  12   49.15    9.23
   6   1  13  398.35   29.77
   6  -1  13  423.65   32.73
  -6   1  13  427.05   28.53
   6   1  14  349.59   28.54
   6  -1  14  297.01   26.86
  -6   1  14  336.43   26.04
   6   1  15   91.32   15.06
   6  -1  15   77.78   14.19
  -6   1  15  111.07   15.48
   6   1  16    1.47    2.03
   6  -1  16   -0.46    6.13
  -6   1  16    3.58    4.37
   6   1  17   30.88    8.95
   6  -1  17   42.38   10.72
  -6   1  17   49.23   10.88
   6   1  18    8.46    3.82
   6  -1  18   13.35    3.93
  -6   1  18    6.88    5.47
   6   1  19  185.94   22.55
   6  -1  19  200.53   24.39
  -6   1  19  183.37   22.29
   6   1  20   -3.42    5.19
   6  -1  20   -2.64    4.20
   6   1  21  125.81   20.08
   6  -1  21  118.25   19.13
   6   1  22    5.21    7.03
   6  -1  22   -0.65    5.26
   6   1  23    4.10    6.29
   6  -1  23    0.61    5.05
   6   1  24   10.55    5.76
   6  -1  24    8.47    8.00
   6   1  25   22.19    7.87
   6  -1  25    3.14    6.98
   6   1  26    9.09    5.61
   6  -1  26   10.22    6.47
   6   1  27    3.26    2.57
   6  -1  27   13.74    6.79
   6   1  28   -3.81    6.16
   6  -1  28   12.93    8.81
   6   2   0  217.63    8.18
   6  -2   0  284.90   19.86
   6   2   1  150.27    8.83
   6  -2   1  160.12   15.13
   6  -2  -1  169.14   15.13
   6   2   2   10.30    2.64
   6  -2  -2   18.12    5.19
   6  -2   2   20.17    5.31
   6   2   3  536.81   20.77
   6  -2  -3  483.19   26.33
   6  -2   3  518.98   27.89
   6   2   4  990.29   31.50
   6  -2  -4  985.21   37.61
   6  -2   4 1011.88   39.51
   6   2   5  100.31   10.54
   6  -2   5   93.90   12.68
   6  -2  -5   96.42   11.87
   6  -2  -6  365.40   23.64
   6   2   6  413.72   22.62
   6  -2   6  412.71   26.21
   6   2   7  592.99   28.67
   6  -2  -7  689.52   32.63
   6  -2   7  643.54   33.68
   6   2   8   56.77    9.59
   6   2  -8   43.84    4.76
   6  -2  -8   63.04   10.55
   6  -2   8   70.78   11.76
   6  -2   9    7.91    5.25
   6   2   9    5.03    2.97
   6   2  10   99.43   14.06
   6  -2  10  125.89   17.00
   6   2  11  794.44   39.19
   6  -2  11  841.95   41.71
  -6   2  11  869.82   40.26
   6   2  12   85.27   13.65
   6  -2  12   99.95   15.27
  -6   2  12   82.24   12.62
   6   2  13  427.95   31.07
   6  -2  13  503.18   34.21
  -6   2  13  468.02   30.98
   6   2  14   31.99    8.44
   6  -2  14   44.93   11.99
  -6   2  14   26.77    8.33
   6  -2  15    3.66    3.53
  -6   2  15    0.23    3.31
   6  -2  16   62.63   14.61
   6   2  16   39.81   10.94
  -6   2  16   53.08   11.21
   6   2  17   69.91   12.49
   6  -2  17   59.31   13.32
  -6   2  17   36.36   13.91
   6   2  18  127.86   19.27
   6  -2  18  109.06   16.48
  -6   2  18   81.62   15.02
   6   2  19   66.69   14.76
   6  -2  19   61.49   13.58
  -6   2  19   65.54   14.30
   6   2  20    0.12    4.39
   6  -2  20    0.60    2.92
  -6   2  20   -0.68    2.20
   6  -2  21   92.50   17.88
   6   2  21   67.49   14.52
  -6   2  21   87.41   15.27
   6   2  22   36.60   10.43
   6  -2  22   30.99    9.43
  -6   2  22   45.11   14.83
   6   2  23   -2.13    6.32
   6  -2  23   13.03    7.96
   6   2  24   11.91    9.63
   6  -2  24   10.91    8.68
   6   2  25   66.76   15.16
   6  -2  25   76.36   15.58
   6   2  26    8.27    5.82
   6  -2  26    2.98    3.92
   6   2  27   11.44    7.07
   6  -2  27    3.97    4.79
   6   2  28   24.77    9.08
   6  -2  28   27.89   11.16
   6  -3   0    3.09    2.50
   6  -3   1   44.73    8.27
   6  -3  -1   29.92    6.69
   6   3   2   10.06    2.30
   6  -3  -2   10.11    5.26
   6  -3   2    1.77    2.61
   6   3   3   -1.20    0.97
   6  -3   3    1.45    2.99
   6  -3  -3   -0.96    2.59
   6  -3  -4  617.66   32.18
   6  -3   4  555.94   31.18
   6   3   4  525.56   22.12
   6   3   5   58.20    8.24
   6  -3   5   73.66   11.67
   6  -3  -5   59.16   10.03
   6   3   6    1.99    1.68
   6  -3  -6    4.33    2.96
   6   3   7  225.57   18.96
   6  -3  -7  241.74   20.97
   6  -3   7  260.85   22.20
   6   3   8  124.56   14.16
   6  -3  -8  125.09   14.77
   6  -3   8  130.55   15.85
   6  -3   9   -1.21    1.93
   6   3   9   -1.35    2.47
   6  -3  -9    0.76    2.87
   6   3  10  121.17   15.11
   6  -3  10  164.91   18.64
   6  -3  11    3.00    2.23
   6   3  11    3.88    1.28
   6   3  12  194.62   20.62
   6  -3  12  236.49   23.06
  -6   3  12  218.84   21.53
   6   3  13    3.73    3.18
  -6   3  13   15.31    4.60
   6  -3  13   24.68    8.54
   6   3  14   40.16    9.76
  -6   3  14   37.69    9.50
   6  -3  14   47.49   10.69
   6   3  15   21.45    8.07
  -6   3  15   20.40    7.54
   6  -3  15   19.86    6.70
   6   3  16  246.75   25.33
   6  -3  16  267.90   26.86
  -6   3  16  247.01   25.31
   6   3  17   11.38    5.82
   6  -3  17   18.68    8.29
  -6   3  17    7.60    5.31
   6   3  18  181.36   22.98
   6  -3  18  162.05   20.93
   6   3  19  130.74   18.96
   6  -3  19  117.34   18.83
   6  -3  20   17.60    5.85
   6   3  20   11.18    5.00
  -6   3  20   13.86    7.45
   6   3  21    4.04    5.10
   6  -3  21   16.65    8.38
  -6   3  21    1.24    6.66
   6   3  22   61.29   13.26
   6  -3  22   44.64   11.97
  -6   3  22   51.52   13.44
   6   3  23   17.88    9.22
   6  -3  23   17.63    8.97
  -6   3  23   14.93    8.00
   6   3  24   25.35   10.14
   6  -3  24   27.00   10.46
  -6   3  24   14.98    8.67
   6   3  25   -8.15    5.73
   6  -3  25   -0.38    5.76
  -6   3  25    4.70    7.87
   6   3  26   -4.66    6.56
   6  -3  26   -8.22    8.62
   6   3  27   -2.92    6.56
   6  -3  27   -2.39    3.45
   6   3  28    7.92    6.74
   6  -3  28   15.71    9.80
   6  -4   0  101.27   13.72
   6  -4   1  113.61   14.64
   6  -4  -1  127.63   15.38
   6  -4   2    8.59    5.26
   6  -4  -2    3.94    4.75
   6   4   2    2.81    1.37
   6  -4   3   68.95   11.41
   6  -4  -3   84.98   12.55
   6   4   3   73.38    7.23
   6   4   4    8.56    2.39
   6  -4  -4   19.14    5.88
   6  -4   4    9.07    4.95
   6   4   5    5.48    2.19
   6  -4   5    1.23    3.28
   6   4   6    0.82    1.16
   6  -4   6    9.76    5.59
   6  -4  -6    6.43    3.34
   6  -4  -7  307.78   24.65
   6  -4   7  296.25   24.49
   6   4   7  353.58   22.90
   6  -4  -8  609.24   35.14
   6  -4   8  674.84   38.26
   6   4   8  618.75   31.55
   6  -4  -9  117.30   15.87
   6  -4   9  141.29   17.54
   6   4   9  119.12   14.34
   6  -4 -10  275.14   24.10
   6  -4  10  238.82   23.66
   6   4  10  213.53   19.98
   6  -4  11   14.74    4.21
   6   4  11   13.09    5.19
   6  -4  12   13.31    3.92
   6   4  12   16.45    6.32
   6  -4  13   36.61    9.80
   6   4  13   30.44   10.10
  -6   4  13   18.33    6.25
   6  -4  14   28.35    8.18
   6   4  14   21.46    6.91
  -6   4  14   40.73   10.24
   6  -4  15  171.90   21.58
  -6   4  15  204.05   23.09
   6   4  15  182.28   21.28
   6   4  16   41.40   10.11
  -6   4  16   42.03   10.90
   6  -4  16   60.37   12.52
   6   4  17   62.96   12.46
   6  -4  17   78.91   16.43
  -6   4  17   48.63   11.64
   6  -4  18  121.50   19.77
  -6   4  18  136.96   19.81
   6   4  18  122.04   18.28
   6   4  19   17.57    7.24
   6  -4  19   17.11    9.99
  -6   4  19   10.00    2.50
   6   4  20    7.58    7.05
   6  -4  20   -1.55    3.60
  -6   4  20    0.29    1.93
   6   4  21   30.17    8.93
   6  -4  21   28.33    9.46
  -6   4  21   23.06    8.48
   6   4  22   43.50   11.33
  -6   4  22   28.06   11.49
   6   4  23   30.58    9.98
   6  -4  23   39.41   13.18
  -6   4  23   28.16   12.72
   6   4  24   -4.26    6.45
   6  -4  24   -8.30    7.66
  -6   4  24    5.02    3.33
   6   4  25   29.01   10.07
   6  -4  25   43.43   11.05
  -6   4  25   21.77    8.19
   6   4  26   17.21    8.78
   6  -4  26    7.94    3.70
  -6   4  26   11.02    7.30
   6   4  27   11.79    7.48
   6  -4  27    9.53    7.27
  -6   4  27   13.48   10.90
   6  -5   0    0.32    1.66
   6  -5   1  218.60   21.37
   6  -5  -1  193.29   20.28
   6  -5   2   37.82    9.32
   6  -5  -2   53.57   10.95
   6  -5  -3   -2.57    3.07
   6   5   3    3.73    2.31
   6  -5   3    0.54    4.29
   6  -5  -4    2.28    4.31
   6  -5   4    2.32    3.17
   6   5   4    0.93    1.77
   6  -5   5  254.31   23.46
   6   5   5  218.60   16.36
   6  -5  -5  222.08   21.93
   6   5   6  102.59   11.78
   6  -5   6  108.73   15.03
   6  -5  -6  101.31   14.30
   6  -5  -7  147.88   18.79
   6   5   7  167.05   15.90
   6  -5   7  165.66   19.89
   6   5   8   13.18    5.28
   6  -5   8   15.69    7.07
   6  -5  -8   11.56    6.20
   6  -5  -9  143.44   17.82
   6  -5   9  156.34   18.36
   6   5   9  173.32   17.96
   6   5  10    8.65    4.15
   6  -5  10    7.28    5.13
   6  -5 -10   12.01    5.59
   6   5  11   11.75    6.80
   6  -5 -11    5.16    5.03
   6  -5  11    3.64    4.62
   6   5  12   18.78    6.28
   6  -5  12   29.17    9.02
   6  -5  13  131.78   18.94
   6   5  13  121.17   17.35
   6  -5  14   49.98   11.83
   6   5  14   38.21    9.84
   6  -5  15   14.22    9.76
   6   5  15   22.48    7.11
  -6   5  15   26.48    9.23
   6  -5  16    8.98    5.44
   6   5  16    9.50    4.59
  -6   5  16   21.83    8.92
   6   5  17   -0.22    2.13
  -6   5  17    4.42    5.17
   6  -5  17   -2.54    6.05
   6  -5  18  118.15   19.20
  -6   5  18  154.88   21.61
   6   5  18  166.20   21.70
   6   5  19   23.43    8.68
  -6   5  19   36.70   12.22
   6  -5  19   27.15   10.55
   6   5  20   -3.43    5.54
  -6   5  20    3.25    2.77
   6  -5  20    2.87    4.96
   6   5  21   43.82   11.93
   6  -5  21   57.06   14.36
  -6   5  21   29.71   12.02
   6   5  22    1.38    3.64
   6  -5  22   -7.98    8.28
  -6   5  22   -5.81    7.26
   6   5  23   14.92   10.78
   6  -5  23   19.48    9.53
  -6   5  23   13.91    8.63
   6   5  24   55.53   14.48
  -6   5  24   64.39   16.50
   6  -5  24   36.99   10.54
   6   5  25   19.77    8.76
   6  -5  25   23.61   10.71
  -6   5  25   11.21    4.61
   6   5  26    5.70    5.32
   6  -5  26    6.11    3.11
  -6   5  26    6.17    6.53
   6   5  27    5.56    8.35
   6  -5  27    1.86    6.01
  -6   5  27    3.24    3.62
   6  -6   0    7.13    1.97
   6  -6   1  158.96   18.77
   6  -6  -1  162.51   19.66
   6  -6   2   11.47    5.75
   6  -6  -2   11.25    6.86
   6  -6  -3   -1.85    3.70
   6  -6   3   15.92    8.36
   6  -6   4  701.20   40.60
   6  -6  -4  713.98   40.59
   6   6   5   83.24   10.62
   6  -6   5   51.59   11.36
   6  -6  -5   78.31   13.35
   6  -6   6   42.81    9.72
   6  -6  -6   28.02    9.51
   6   6   6   27.37    5.99
   6  -6  -7  216.19   22.64
   6   6   7  189.54   17.79
   6  -6   7  223.87   22.63
   6  -6  -8   12.50    7.03
   6  -6   8   -0.15    2.72
   6   6   8   20.57    6.00
   6   6   9    2.54    2.75
   6  -6   9    5.43    3.98
   6  -6  -9    8.97    4.36
   6  -6 -10   70.99   13.37
   6  -6  10   46.62   10.67
   6   6  10   58.94   10.84
   6  -6 -11  226.70   24.29
   6  -6  11  250.93   25.55
   6   6  11  260.00   24.26
   6  -6 -12  118.89   17.93
   6  -6  12  107.04   16.44
   6   6  12   99.39   15.46
   6   6  13   22.83    7.59
   6  -6  13   16.23    6.33
   6  -6  14  352.94   31.71
   6   6  14  329.84   28.72
   6  -6  15  127.52   18.86
   6   6  15   94.67   15.56
   6  -6  16   22.71    8.74
   6   6  16   36.38   11.04
   6  -6  17   23.05    8.96
   6   6  17   21.61    7.31
  -6   6  17    6.53    4.03
   6   6  18   75.38   13.86
  -6   6  18   64.04   15.36
   6  -6  18   68.36   15.69
  -6   6  19   14.62    6.01
   6  -6  19   13.82    4.69
   6   6  20   12.36    6.98
  -6   6  20   14.48    6.61
   6  -6  20   17.27    7.44
   6   6  21   26.05   10.33
  -6   6  21    9.33    2.32
   6  -6  21   12.82    8.79
   6   6  22   44.08   12.39
   6  -6  22   51.39   12.96
  -6   6  22   45.24   13.70
   6   6  23   22.00    7.27
   6  -6  23   32.12   11.05
  -6   6  23   31.34   12.09
   6   6  24   63.53   15.18
   6  -6  24   58.38   14.85
  -6   6  24   62.43   16.14
   6   6  25   40.18   12.14
   6  -6  25   72.54   15.85
  -6   6  25   50.79   14.41
   6   6  26   78.08   15.80
   6  -6  26   77.93   16.68
  -6   6  26   79.99   18.23
   6  -7   0  188.75   21.61
   6  -7   1  110.26   16.54
   6  -7  -1  118.10   17.44
   6  -7   2  288.89   26.27
   6  -7  -2  274.01   26.77
   6  -7   3  111.93   15.99
   6  -7  -3  131.13   19.63
   6  -7  -4   -1.64    2.00
   6  -7   4   -0.81    2.10
   6  -7  -5   28.00    6.46
   6  -7   5   37.21    9.74
   6  -7  -6    3.98    5.11
   6  -7   6   -1.97    5.52
   6  -7   7   -2.66    2.77
   6  -7  -7    6.22    5.67
   6  -7  -8    4.14    5.90
   6  -7   8   -3.43    4.03
   6   7   8    3.73    4.08
   6  -7  -9   13.81    7.94
   6  -7   9   13.82    7.58
   6   7   9    9.78    5.09
   6  -7  10   64.21   13.65
   6   7  10   67.15   12.73
   6  -7 -10   54.79   12.59
   6  -7 -11   -1.58    2.04
   6  -7  11    1.94    3.95
   6   7  11   -1.09    5.65
   6   7  12   24.24    8.24
   6  -7  12   27.91    9.45
   6  -7 -12   23.77    7.55
   6   7  13   11.81    5.69
   6  -7  13    6.69    3.03
   6   7  14   27.93    9.09
   6  -7  14   28.91   10.39
   6   7  15   16.97    7.83
   6  -7  15    7.60    3.02
   6   7  16   12.45    7.95
   6  -7  16   -6.18    4.33
   6   7  17   18.10    7.16
   6  -7  17   21.59    9.18
   6  -7  18   14.08    6.72
   6   7  18   25.80    7.69
   6   7  19    0.23    2.51
  -6   7  19   -2.10    6.56
   6  -7  19   -2.00    4.60
   6   7  20    1.14    2.75
  -6   7  20   -0.77    3.10
  -6   7  21    4.28    4.25
   6  -7  21    2.55    4.56
   6   7  22   19.64    9.14
  -6   7  22   19.67    7.28
   6  -7  22   17.37    6.77
   6   7  23    0.22    3.89
  -6   7  23   15.93    9.20
   6  -7  23    3.00    5.80
   6   7  24   13.26   11.01
   6  -7  24   -2.96    4.94
  -6   7  24   -3.48    5.77
   6   7  25   10.45    7.64
   6  -7  25    3.98    6.84
  -6   7  25    5.60    4.30
   6  -8   0    8.91    4.35
   6  -8   1   13.01    4.88
   6  -8  -1    5.92    6.31
   6  -8   2   33.05    9.27
   6  -8  -2   31.50    9.92
   6  -8   3  211.60   23.21
   6  -8  -3  218.28   24.74
   6  -8   4   49.01   11.64
   6  -8  -4   45.19    9.72
   6  -8   5  193.63   22.64
   6  -8  -5  172.26   21.33
   6  -8  -6    8.02    5.93
   6  -8   6    4.25    6.53
   6  -8   7  363.46   31.28
   6  -8  -7  269.45   27.04
   6  -8   8    7.57    4.97
   6  -8  -8   -1.57    3.66
   6  -8  -9   24.05    8.85
   6  -8   9   24.20    8.31
   6  -8 -10   12.44    3.16
   6  -8  10   14.98    7.79
   6  -8 -11  192.34   23.47
   6  -8  11  199.22   23.29
   6  -8 -12    2.74    5.35
   6  -8  12   18.78    8.91
   6   8  12   13.03    7.13
   6  -8  13    4.30    5.16
   6  -8 -13    5.94    6.43
   6   8  13    4.12    5.39
   6  -8 -14   14.74    8.00
   6  -8  14   10.23    7.71
   6   8  14    6.97    5.97
   6  -8 -15  344.51   32.71
   6  -8  15  382.18   33.75
   6   8  15  298.86   29.80
   6  -8  16   -1.16    3.50
   6   8  16    0.72    4.03
   6  -8  17  114.62   19.29
   6   8  17  111.21   19.17
   6   8  18   -1.86    2.51
   6  -8  18   -1.47    4.56
   6   8  19   81.80   15.78
   6  -8  19   61.72   15.09
   6   8  20   13.22    6.34
   6  -8  20   13.66    5.40
   6  -8  21  133.13   21.25
   6   8  21  127.96   22.58
   6   8  22   10.02    8.67
   6  -8  22    6.52    5.95
   6   8  23   45.78   13.45
  -6   8  23   35.49   12.76
   6  -8  23   57.02   15.88
   6   8  24    2.45    5.15
  -6   8  24    5.57    4.67
   6  -8  24    2.54    3.37
   6  -9   0  101.03   17.39
   6  -9   1    7.80    5.40
   6  -9  -1    8.07    4.35
   6  -9   2   -1.96    5.63
   6  -9  -2   -1.82    2.40
   6  -9   3    7.87    6.72
   6  -9  -3    1.81    5.83
   6  -9   4    7.05    6.48
   6  -9  -4    7.40    4.86
   6  -9   5  184.84   22.65
   6  -9  -5  161.87   21.42
   6  -9  -6   38.89   11.02
   6  -9   6   66.24   14.36
   6  -9  -7    7.30    5.92
   6  -9   7   -7.62    5.01
   6  -9   8   31.99    8.51
   6  -9  -8   28.24   10.42
   6  -9   9   12.45    7.82
   6  -9  -9    4.07    5.40
   6  -9 -10    8.52    2.28
   6  -9  10    5.79    6.29
   6  -9 -11   -3.42    4.26
   6  -9  11    8.03    2.73
   6  -9  12   13.87    7.49
   6  -9 -12    1.25    2.93
   6  -9 -13   16.33    6.38
   6  -9  13    4.48    4.56
   6  -9  14   24.39   10.82
   6  -9 -14   29.35   10.40
   6  -9  15    0.24    2.47
   6  -9 -15    9.87    7.59
   6  -9  16    8.70    4.21
   6  -9 -16   12.04    8.07
   6  -9  17   -0.25    3.67
   6  -9 -17    1.11    3.14
   6   9  17    7.74    3.88
   6  -9  18    1.45    4.65
   6  -9 -18   -5.29    6.43
   6   9  18    5.87    5.85
   6  -9  19   -5.83    7.16
   6   9  19    5.65    5.62
   6  -9  20   23.00    7.60
   6   9  20   17.19   10.07
   6   9  21   13.03    7.19
   6  -9  21   18.39    6.29
   6  -9  22    6.33    6.13
   6   9  22   15.88    7.05
   6 -10   0  110.24   19.30
   6 -10   1   11.52    6.67
   6 -10  -1   11.94    7.42
   6 -10   2    4.75    4.10
   6 -10  -2    6.16    2.98
   6 -10   3   42.05   11.64
   6 -10  -3   46.96   12.15
   6 -10   4  151.75   21.51
   6 -10  -4  153.42   21.44
   6 -10  -5    2.06    5.01
   6 -10   5   15.84    8.08
   6 -10  -6   74.26   13.92
   6 -10   6   58.35   13.32
   6 -10  -7    4.47    3.76
   6 -10   7    9.85    7.26
   6 -10   8  108.17   17.93
   6 -10  -8  132.04   20.94
   6 -10   9   10.78    7.42
   6 -10  -9   -2.98    5.27
   6 -10  10   68.28   15.07
   6 -10 -10   31.88    9.67
   6 -10 -11  102.64   18.30
   6 -10  11   99.51   18.26
   6 -10 -12  102.02   18.71
   6 -10  12   75.94   14.79
   6 -10  13    7.20    7.94
   6 -10 -13   -2.52    5.08
   6 -10 -14  125.69   20.45
   6 -10  14   81.05   16.00
   6 -10 -15   50.66   13.12
   6 -10  15   59.73   14.42
   6 -10  16   -5.59    6.42
   6 -10 -16    8.30    6.09
   6 -10  17   -5.77    3.59
   6 -10 -17    1.41    4.30
   6 -10  18   78.15   16.08
   6 -10 -18   94.73   18.93
   6 -10  19   13.84    5.51
   6 -10 -19   15.89    6.36
   6 -10  20    6.84    7.83
   6 -10 -20    5.75    8.74
   6 -10  21   75.78   17.11
   6 -10 -21   87.02   16.84
   6 -11   0   12.29    2.28
   6 -11   1   24.34   10.36
   6 -11  -1   16.70    7.42
   6 -11   2   30.87   11.27
   6 -11  -2   23.89    9.05
   6 -11   3   66.14   16.20
   6 -11  -3   41.03   12.00
   6 -11   4    1.23    5.49
   6 -11  -4   -2.25    3.67
   6 -11  -5   -4.15    4.20
   6 -11   5    8.34    9.60
   6 -11  -6   -1.59    2.52
   6 -11   6   -3.29    4.92
   6 -11  -7    9.76    6.61
   6 -11   7    5.87    2.61
   6 -11  -8   -5.74    2.81
   6 -11   8    5.46    6.38
   6 -11  -9   16.18    7.83
   6 -11   9   21.10    9.06
   6 -11  10    7.81    9.07
   6 -11 -10  -15.64    8.71
   6 -11  11   -0.34    3.11
   6 -11 -11    8.75    7.54
   6 -11  12   16.44    7.51
   6 -11 -12   28.91    9.88
   6 -11 -13   32.10   11.41
   6 -11  13   45.19   12.75
   6 -11  14    1.91    4.42
   6 -11 -14    8.20    9.27
   6 -11  15   11.28    8.78
   6 -11 -15    4.56    3.92
   6 -11  16   12.41    5.40
   6 -11 -16    9.17    6.88
   6 -11  17    5.33    5.05
   6 -11 -17   13.74    4.62
   6 -11  18   21.63    9.18
   6 -11 -18   16.74    8.45
   6 -11  19    0.03    1.90
   6 -11 -19    7.47    5.85
   6 -12   0   27.89   11.00
   6 -12   1   15.97    6.97
   6 -12  -1   25.82    8.02
   6 -12   2   64.36   14.68
   6 -12  -2   61.30   15.04
   6 -12   3   27.98   10.47
   6 -12  -3   31.52   10.79
   6 -12   4   19.57    7.66
   6 -12  -4   17.55    8.52
   6 -12  -5   -6.89    2.42
   6 -12   5   17.52    8.21
   6 -12  -6   -2.89    4.38
   6 -12   6    9.81    8.74
   6 -12  -7    9.32    7.45
   6 -12   7    9.48    5.75
   6 -12  -8    8.96    4.90
   6 -12   8    3.06    4.77
   6 -12  -9   20.47    9.18
   6 -12   9   41.35   12.79
   6 -12 -10    5.11    6.18
   6 -12  10    7.33    6.54
   6 -12  11   88.41   18.03
   6 -12 -11   61.87   15.06
   6 -12  12    2.53    6.39
   6 -12 -12    6.46    6.86
   6 -12  13   11.50    5.36
   6 -12 -13   14.98   10.05
   6 -12 -14   15.93    8.57
   6 -12  14   19.95    7.11
   6 -12 -15   -1.39    3.19
   6 -12  15    2.09    6.78
   6 -12  16   55.35   14.90
   6 -12 -16   45.41   14.07
   6 -13   0   57.28   14.62
   6 -13   1    2.77    5.14
   6 -13  -1   -1.74    5.22
   6 -13   2   11.28    3.84
   6 -13  -2    2.90    5.89
   6 -13   3   -4.55    7.77
   6 -13  -3    0.70    2.90
   6 -13   4   -0.46    3.43
   6 -13  -4    7.91    2.67
   6 -13  -5   -1.26    4.41
   6 -13   5   -1.01    4.28
   6 -13   6    4.92    5.69
   6 -13  -6    2.42    6.32
   6 -13  -7   13.37    7.45
   6 -13   7   16.62    8.50
   6 -13  -8   -1.37    3.62
   6 -13   8    7.86    4.77
   6 -13  -9   11.22    7.17
   6 -13   9   15.61    7.13
   6 -13 -10   -2.51    3.48
   6 -13  10   17.37    8.64
   6 -13 -11    3.75    7.08
   6 -13  11   12.09    8.54
   6 -13  12    3.88    3.50
   6 -13 -12   -4.27    4.47
   6 -13  13    4.33    4.55
   6 -13 -13    4.20    5.59
   6 -14   0   76.06   15.88
   6 -14   1    3.09    2.95
   6 -14  -1    0.81    8.57
   6 -14   2   10.70    7.00
   6 -14  -2    8.98    7.07
   6 -14   3   82.19   17.50
   6 -14  -3   68.15   15.94
   6 -14  -4   56.27   15.06
   6 -14   4   39.53   13.37
   6 -14  -5   -0.62    2.51
   6 -14   5    5.61    3.32
   6 -14  -6    8.41    4.66
   6 -14   6   12.23    8.82
   6 -14   7   51.60   14.38
   6 -14  -7   14.82    6.66
   6 -14   8   32.57   12.00
   6 -14  -8   47.75   14.17
   6 -14  -9    6.10    2.92
   6 -14   9    3.88    6.96
   7   0   0    1.66    3.03
   7   0   1    0.90    1.71
   7   0  -1   -0.93    1.67
   7   0   2  963.51   36.61
   7   0  -2  899.50   29.08
   7   0   3   -2.10    1.76
   7   0  -3    1.00    1.58
   7   0  -4  536.53   22.84
   7   0   4  452.97   24.98
   7   0  -5    0.45    0.94
   7   0   5    2.50    3.10
   7   0   6  116.31   14.12
   7   0  -6  121.07   11.01
   7   0  -7    0.65    1.58
   7   0   7    0.83    1.96
   7   0   8  518.85   31.24
   7   0  -8   63.43   10.01
   7   0   9    7.79    4.33
   7   0  10   85.91   12.88
   7   0  11   -2.32    5.76
   7   0  12  133.91   17.29
   7   0  13    1.23    4.30
   7   0  14  770.00   44.93
   7   0  15   -1.98    3.97
   7   0  16  515.22   39.32
   7   0  17    3.98    4.25
   7   0  18   60.52   12.93
   7   0  19   -0.62    2.53
   7   0  20   90.37   15.42
   7   0  21    0.60    2.29
   7   0  22   65.55   16.25
   7   0  23    1.98    6.09
   7   0  24  124.79   20.89
   7   0  25    2.49    4.99
   7   0  26   84.96   17.75
   7   0  27    9.82    8.11
   7  -1   0    0.92    2.10
   7   1   0   -0.19    1.00
   7  -1  -1  207.52   16.49
   7   1   1  211.67   14.26
   7   1  -1  173.53   11.31
   7  -1   1  238.91   17.73
   7  -1  -2  421.49   23.60
   7   1   2  346.03   18.78
   7  -1   2  415.67   24.15
   7  -1  -3  148.52   14.09
   7  -1   3  125.29   13.87
   7   1   4   85.13   10.48
   7  -1  -4  111.77   12.28
   7  -1   4   85.33   11.78
   7  -1   5    2.51    3.90
   7  -1  -5    0.59    2.73
   7   1   5   -0.72    1.43
   7   1   6  423.38   25.14
   7  -1   6  424.96   27.59
   7  -1   7   18.29    5.93
   7  -1  -7   10.99    4.84
   7   1   7   11.15    3.44
   7   1   8  289.25   22.83
   7  -1   8  283.59   23.47
   7  -1  -8  251.89   19.91
   7  -1  -9  211.35   18.27
   7   1   9  208.89   20.91
   7  -1   9  213.32   21.10
   7  -1 -10   30.87    7.30
   7   1  10   30.07    7.52
   7  -1  10   19.82    5.57
   7   1  11  301.10   26.14
   7  -1 -11  278.97   22.16
   7  -1  12  469.85   34.32
   7   1  13    2.29    3.43
   7  -1  13    6.12    2.51
   7   1  14   99.22   15.45
   7  -1  14   91.07   15.60
   7   1  15   -0.85    2.87
   7  -1  15    2.24    2.65
   7   1  16   -1.93    5.09
   7  -1  16   -2.05    2.09
   7   1  17    5.76    4.76
   7  -1  17   15.05    2.60
   7   1  18   11.03    6.97
   7  -1  18   19.08    8.14
   7   1  19    1.59    4.27
   7  -1  19    7.48    5.70
   7   1  20   -2.77    6.39
   7  -1  20    5.02    4.51
   7   1  21    6.88    7.51
   7  -1  21    8.95    8.78
   7   1  22   -4.44    4.56
   7  -1  22   -3.59    5.01
   7   1  23   -0.60    5.27
   7  -1  23    0.56    3.21
   7   1  24   -6.78    7.67
   7  -1  24   -2.98    6.49
   7   1  25    3.23    6.45
   7  -1  25   11.25    7.23
   7   1  26    3.29    4.62
   7  -1  26    3.90    6.95
   7   1  27    7.79    8.32
   7  -1  27   -0.15    3.18
   7  -2   0    3.93    3.08
   7  -2   1  446.41   27.12
   7  -2  -1  419.73   25.89
   7   2   2   81.20    8.12
   7  -2  -2   85.76   11.69
   7   2   3   91.98    9.30
   7  -2  -3   76.56   11.27
   7  -2   3   87.19   12.39
   7  -2   4    2.70    4.64
   7   2   4    1.44    2.30
   7  -2  -4    4.43    3.79
   7   2   5 1063.81   36.34
   7  -2  -5 1058.15   41.56
   7  -2   5 1081.58   44.00
   7  -2  -6   32.91    7.56
   7  -2   6   47.63    8.73
   7   2   6   34.40    6.70
   7   2   7  200.34   17.57
   7  -2   7  196.57   19.81
   7  -2  -7  233.50   19.87
   7  -2   8   44.46    9.49
   7   2   8   34.17    7.46
   7  -2  -8   34.39    7.75
   7  -2   9    6.53    5.93
   7  -2  -9    3.56    4.22
   7   2   9   -0.30    2.40
   7   2  10  301.58   23.92
   7  -2 -10  313.17   25.29
   7  -2  10  359.60   27.84
   7   2  11  103.53   15.14
   7  -2 -11   84.11   13.50
   7  -2  11   78.43   13.44
   7   2  12   22.86    5.92
   7  -2  12   26.97    6.57
   7   2  13  219.53   23.38
   7  -2  13  249.06   25.70
   7   2  14    2.21    4.31
   7  -2  14    6.53    6.73
   7   2  15   54.51   11.00
   7  -2  15   42.49   10.32
   7   2  16  141.34   20.33
   7  -2  16  131.50   19.21
   7   2  17   49.67   12.27
   7  -2  17   46.47   11.78
   7   2  18   -5.15    4.09
   7  -2  18    1.11    2.31
   7   2  19  229.54   26.36
   7  -2  19  243.83   27.35
   7   2  20  143.95   21.92
   7  -2  20  166.86   23.17
   7   2  21   11.15    7.19
   7  -2  21   -2.91    5.47
   7   2  22    2.98    4.38
   7  -2  22    1.27    2.74
   7  -2  23  125.19   21.59
   7   2  23   96.50   17.98
   7   2  24   14.57    7.66
   7  -2  24   -1.70    3.26
   7   2  25    5.17    5.93
   7  -2  25    4.32    4.74
   7   2  26    7.91    7.24
   7  -2  26    9.78    4.90
   7   2  27    8.43    5.27
   7  -2  27   10.52    5.33
   7  -3   0    1.26    3.53
   7  -3  -1   45.83    9.02
   7  -3   1   31.57    7.86
   7  -3  -2   31.84    7.51
   7  -3   2   23.41    7.09
   7  -3  -3   11.46    5.23
   7  -3   3    5.46    3.74
   7  -3  -4   46.70    8.96
   7  -3   4   60.54   11.86
   7  -3  -5  546.22   31.83
   7  -3   5  585.24   34.22
   7   3   5  570.42   26.55
   7  -3  -6    4.60    4.04
   7   3   6    4.93    2.46
   7  -3   6   14.82    6.25
   7   3   7  106.89   13.30
   7  -3   7  101.48   13.79
   7  -3  -7   93.50   13.74
   7  -3  -8   81.57   12.46
   7   3   8   91.21   12.22
   7  -3   8   48.13   10.96
   7   3   9   82.67   12.17
   7  -3  -9   97.13   14.43
   7  -3   9  105.63   15.90
   7  -3  10   -1.75    1.75
   7   3  10    5.65    4.45
   7  -3 -10    7.95    5.31
   7   3  11  193.91   20.06
   7  -3 -11  195.14   20.95
   7  -3  11  202.54   22.33
   7   3  12  121.67   16.13
   7  -3 -12  125.24   16.87
   7   3  13   18.03    5.47
   7  -3  13   37.00    9.87
   7   3  14   -4.01    6.03
   7  -3  14   17.58    7.99
   7   3  15   23.85    8.47
   7  -3  15   47.01   11.51
   7   3  16    7.34    7.43
   7  -3  16   -0.81    4.65
   7   3  17    9.49    5.47
   7  -3  17   32.91   10.97
   7   3  18    2.85    5.02
   7  -3  18   -2.43    3.20
   7   3  19    0.53    6.28
   7  -3  19   -1.30    3.02
   7   3  20    0.12    4.86
   7  -3  20    3.32    2.90
   7   3  21    7.07    3.00
   7  -3  21    9.80    6.33
   7   3  22    1.65    4.48
   7  -3  22    6.19    7.85
   7   3  23   10.94    8.72
   7  -3  23    2.23    2.97
   7   3  24   15.02    7.33
   7  -3  24   49.79   14.11
   7   3  25   14.00    7.84
   7  -3  25    0.84    3.48
   7   3  26   -7.11    8.21
   7  -3  26   -4.38    5.50
   7  -4   0    2.09    4.20
   7  -4   1  164.00   18.56
   7  -4  -1  141.86   17.23
   7  -4   2  512.57   32.23
   7  -4  -2  515.78   32.56
   7  -4  -3   14.31    4.04
   7  -4   3   18.17    7.89
   7  -4  -4  638.75   36.80
   7  -4   4  603.17   35.08
   7  -4  -5  136.68   17.60
   7  -4   5  123.32   16.73
   7  -4  -6   77.97   13.68
   7  -4   6   78.78   13.08
   7  -4   7   56.40   10.70
   7  -4  -7   29.99    7.71
   7  -4   8  133.72   17.64
   7   4   8  101.34   13.63
   7  -4  -8  135.21   17.60
   7  -4  -9  169.08   19.03
   7  -4   9  191.20   21.15
   7   4   9  174.61   17.66
   7  -4  10   11.61    4.15
   7   4  10    5.60    3.80
   7  -4 -10    7.05    4.96
   7  -4  11    1.24    3.26
   7   4  11    3.80    5.15
   7  -4 -11    6.06    5.56
   7  -4  12    2.01    3.46
   7   4  12   19.98    6.39
   7  -4 -12   13.34    6.11
   7  -4  13  177.09   22.86
   7  -4 -13  211.60   23.49
   7   4  13  186.32   20.77
   7  -4  14    9.13    5.13
   7   4  14    2.08    3.81
   7   4  15   15.14    6.38
   7  -4  15   13.29    7.28
   7  -4  16   87.11   15.92
   7   4  16  104.48   16.04
   7   4  17   48.43   12.38
   7  -4  17   78.75   15.92
  -7   4  17   45.01   10.64
   7   4  18   89.15   15.59
  -7   4  18   51.22   11.88
   7  -4  18   80.56   15.65
   7   4  19   26.25    9.74
  -7   4  19   50.11   14.63
   7  -4  19   29.20    8.43
   7  -4  20   49.04   12.66
   7   4  20  103.53   17.53
   7   4  21    3.57    3.40
   7  -4  21    6.34    8.01
   7   4  22    6.40    7.25
   7  -4  22   12.51    8.33
   7   4  23    0.71    4.96
   7  -4  23    6.63    6.39
   7   4  24   22.92   11.50
   7  -4  24    9.93    7.02
   7   4  25    9.18    3.62
   7  -4  25    3.22    4.30
   7   4  26    6.22    8.68
   7  -4  26   29.44   10.21
   7  -5   0    1.89    5.38
   7  -5   1    3.61    2.27
   7  -5  -1    1.11    2.71
   7  -5  -2   17.05    7.61
   7  -5   2   26.05    8.45
   7  -5  -3   46.22   10.22
   7  -5   3   48.88   10.10
   7  -5   4   25.70    7.28
   7  -5  -4   27.22    9.10
   7  -5  -5   16.55    5.87
   7  -5   5   26.71    8.56
   7  -5  -6  109.58   17.03
   7  -5   6  101.23   15.99
   7  -5   7  105.58   16.02
   7  -5  -7  152.70   19.56
   7  -5   8    1.20    6.77
   7  -5  -8    2.09    1.94
   7  -5  -9   -0.12    3.26
   7  -5   9    1.37    4.02
   7  -5  10   -3.76    5.21
   7  -5 -10    4.49    2.60
   7   5  11   26.97    7.87
   7  -5  11   39.44   10.67
   7  -5 -11   47.61   11.39
   7   5  12   29.60    7.45
   7  -5  12   32.80   10.14
   7  -5 -12   21.02    7.32
   7  -5 -13    5.58    6.41
   7  -5  13   -2.38    2.88
   7   5  13   -3.86    4.61
   7  -5  14   10.45    6.13
   7   5  14   11.65    6.07
   7  -5 -14    9.19    3.99
   7  -5  15   13.24    7.49
   7   5  15   13.44    7.41
   7   5  16   51.03   12.13
   7  -5  16   25.69    9.36
   7   5  17    2.96    3.54
   7  -5  17    3.67    6.45
   7   5  18   -0.46    4.64
   7  -5  18    4.43    7.04
   7   5  19    5.16    5.44
  -7   5  19   15.88    6.93
   7  -5  19   15.74    9.01
   7   5  20   15.11    7.28
  -7   5  20    1.23    4.69
   7  -5  20    3.03    5.78
   7   5  21    9.55    7.69
  -7   5  21    6.04    5.22
   7  -5  21   -0.75    5.26
   7   5  22   23.79    7.87
   7  -5  22   25.79   10.11
  -7   5  22    2.54    6.73
   7   5  23    4.96    5.06
   7  -5  23   18.63    9.58
   7   5  24   23.40    8.88
   7  -5  24   31.62   10.74
   7   5  25    0.33    5.20
   7  -5  25    0.29    2.91
   7  -6   0   -1.24    2.76
   7  -6   1  356.08   29.71
   7  -6  -1  325.05   28.52
   7  -6   2  358.94   29.40
   7  -6  -2  341.24   28.74
   7  -6  -3    7.97    5.13
   7  -6   3   -0.12    3.37
   7  -6   4   -3.58    3.66
   7  -6  -4    0.96    1.77
   7  -6   5  398.67   31.27
   7  -6  -5  357.52   30.01
   7  -6  -6    2.39    4.05
   7  -6   6    4.86    5.65
   7  -6  -7  111.63   17.44
   7  -6   7  100.17   16.34
   7  -6   8   15.67    7.01
   7  -6  -8   17.67    6.11
   7  -6   9   68.34   13.73
   7  -6  -9   37.61    9.80
   7  -6 -10  205.21   23.97
   7  -6  10  157.05   20.35
   7  -6  11   24.45    8.57
   7  -6 -11   13.26    5.47
   7  -6 -12  351.99   31.29
   7  -6  12  300.53   28.48
   7  -6 -13  135.42   20.01
   7  -6  13  134.58   19.04
   7  -6  14    0.97    2.80
   7  -6 -14    7.00    5.22
   7  -6 -15    2.55    4.43
   7  -6  15    4.42    4.30
   7   6  15   15.09    7.40
   7  -6  16   70.49   15.50
   7   6  16   73.58   15.22
   7  -6  17   10.34    7.01
   7   6  17   28.12   10.39
   7   6  18    3.55    5.29
   7  -6  18    7.06    6.11
   7   6  19    2.94    5.40
   7  -6  19   19.54    8.52
   7   6  20   54.30   14.13
   7  -6  20   47.72   13.00
   7   6  21    2.39    8.19
   7  -6  21   -1.90    3.68
   7   6  22    6.65    6.42
  -7   6  22    5.36    7.07
   7  -6  22    8.50    4.11
   7   6  23   10.41    6.06
  -7   6  23   27.47   11.33
   7  -6  23   42.07   13.20
   7   6  24    5.76    6.65
   7  -6  24   14.35    8.90
  -7   6  24    5.91    8.81
   7  -7   0    2.06    3.44
   7  -7   1   -2.16    3.08
   7  -7  -1    7.67    5.32
   7  -7   2   63.76   12.89
   7  -7  -2   39.95    9.14
   7  -7   3  113.06   16.95
   7  -7  -3   90.18   16.43
   7  -7   4   -1.81    1.93
   7  -7  -4   -3.95    2.13
   7  -7  -5   35.96   10.94
   7  -7   5   36.91    9.45
   7  -7  -6   -3.36    2.06
   7  -7   6   -1.05    2.19
   7  -7  -7   11.14    6.97
   7  -7   7    4.31    2.57
   7  -7   8    0.41    2.23
   7  -7  -8   -2.70    3.58
   7  -7   9   88.75   15.46
   7  -7  -9   84.10   16.15
   7  -7 -10    4.31    3.83
   7  -7  10   18.57    8.73
   7  -7 -11   16.04    9.74
   7  -7  11    4.76    3.99
   7  -7  12   15.94    7.63
   7  -7 -12    6.21    5.31
   7  -7 -13  214.02   25.80
   7  -7  13  165.32   21.29
   7  -7  14   40.87   11.69
   7  -7 -14   22.42    7.70
   7  -7  15   -7.01    5.84
   7  -7 -15    0.60    2.15
   7  -7  16   13.15    7.50
   7  -7 -16   13.66    6.27
   7  -7  17    5.46    6.53
   7  -7 -17   11.84    6.10
   7  -7  18   -2.95    3.41
   7  -7  19   45.23   14.69
   7  -7  20   40.23   15.26
   7  -7  21   27.91    7.44
   7  -7  22   22.29    9.51
   7  -7  23   21.73    8.50
   7  -8   0    0.51    5.62
   7  -8   1  378.62   33.24
   7  -8  -1  342.40   31.43
   7  -8   2   30.22    9.49
   7  -8  -2   32.13    9.20
   7  -8   3   43.68   11.16
   7  -8  -3   51.03   12.13
   7  -8  -4   22.99    9.41
   7  -8   4   16.60    7.69
   7  -8  -5   49.42   12.56
   7  -8   5   53.84   12.94
   7  -8  -6   -2.32    3.52
   7  -8   6    3.53    4.79
   7  -8  -7   70.68   15.50
   7  -8   7   44.56   11.53
   7  -8  -8    6.91    7.54
   7  -8   8    6.95    2.77
   7  -8   9  233.55   25.71
   7  -8  -9  275.49   28.44
   7  -8  10   19.30    8.55
   7  -8 -10   13.71    8.55
   7  -8 -11   12.38    6.27
   7  -8  11   16.77    9.06
   7  -8 -12    9.69    7.25
   7  -8  12   19.16    9.10
   7  -8  13   39.75   12.36
   7  -8 -13   46.37   12.07
   7  -8  14    0.63    4.59
   7  -8 -14    3.95    3.55
   7  -8 -15  100.86   18.28
   7  -8  15   87.86   17.32
   7  -8  16   -4.52    6.78
   7  -8 -16   -2.63    3.40
   7  -8  17   59.52   14.58
   7  -8 -17   68.85   15.55
   7  -8  18    6.48    4.33
   7  -8 -18   13.69    7.94
   7  -8  19   76.73   16.13
   7  -8 -19   54.73   14.61
   7  -8 -20   32.44   12.48
   7  -8  20   11.04    8.27
   7  -8  21   16.00    8.71
   7  -8  22   33.56   10.89
   7  -9   0    3.41    2.39
   7  -9   1   -5.81    3.24
   7  -9  -1    1.42    4.01
   7  -9   2    3.54    4.36
   7  -9  -2    4.42    2.63
   7  -9   3    2.85    2.73
   7  -9  -3   -1.40    5.15
   7  -9  -4   16.42    7.08
   7  -9   4   16.40    8.77
   7  -9   5  103.73   17.09
   7  -9  -5   99.32   17.87
   7  -9  -6    1.83    5.25
   7  -9   6    5.08    4.39
   7  -9  -7   49.06   13.13
   7  -9   7   41.96   13.28
   7  -9  -8    7.67    3.80
   7  -9   8   15.32    7.40
   7  -9  -9   22.86    9.94
   7  -9   9   37.77   13.87
   7  -9  10    5.55    3.78
   7  -9 -10    8.42    3.64
   7  -9  11   46.32   10.80
   7  -9 -11   40.30   11.49
   7  -9 -12    8.16    5.60
   7  -9  12    5.40    6.79
   7  -9 -13   60.79   14.26
   7  -9  13   75.99   15.50
   7  -9  14   -0.58    2.47
   7  -9 -14   16.46   10.15
   7  -9  15   -1.57    3.42
   7  -9 -15    4.46    2.83
   7  -9  16    6.82    5.12
   7  -9 -16    1.14    3.23
   7  -9 -17  155.55   24.65
   7  -9  17  162.22   23.31
   7  -9  18    4.29    6.30
   7  -9 -18   -2.94    7.38
   7  -9  19   12.83    4.64
   7  -9 -19   13.44    8.87
   7  -9  20   -2.77    3.26
   7  -9 -20   -0.06    2.78
   7  -9 -21   27.72   12.97
   7  -9  21   20.52   11.04
   7 -10   0    6.10    6.10
   7 -10   1   -4.50    2.61
   7 -10  -1   -1.15    4.74
   7 -10   2   93.01   17.39
   7 -10  -2   87.41   17.02
   7 -10   3   39.51   11.90
   7 -10  -3   35.22   10.21
   7 -10  -4   -1.33    4.29
   7 -10   4   -6.61    7.15
   7 -10   5    5.64    5.41
   7 -10  -5   19.60    7.93
   7 -10  -6   67.51   14.66
   7 -10   6   59.05   14.47
   7 -10  -7   16.13    6.14
   7 -10   7   44.44   10.49
   7 -10  -8   65.63   14.97
   7 -10   8   43.78   12.62
   7 -10  -9   60.00   14.51
   7 -10   9   78.29   15.57
   7 -10  10   79.83   16.04
   7 -10 -10   82.87   17.56
   7 -10  11   -2.73    3.81
   7 -10 -11    4.74    5.75
   7 -10  12   98.79   18.02
   7 -10 -12  100.23   18.46
   7 -10  13   27.04    8.44
   7 -10 -13   10.18    4.28
   7 -10 -14   -2.21    3.80
   7 -10  14   -1.10    3.59
   7 -10  15   13.34    9.27
   7 -10 -15   16.54    9.55
   7 -10 -16   92.25   17.84
   7 -10  16   97.97   17.95
   7 -10  17    2.58    5.28
   7 -10 -17   12.83    7.42
   7 -10  18   -5.40    5.51
   7 -10 -18   -1.48    3.76
   7 -10  19    2.18    2.77
   7 -10 -19   22.40    8.97
   7 -11   0   -3.41    5.01
   7 -11   1    1.63    3.64
   7 -11  -1    9.60    5.64
   7 -11   2   -2.16    4.93
   7 -11  -2   22.82   10.32
   7 -11   3   10.90    4.40
   7 -11  -3   -2.63    6.81
   7 -11  -4    4.29    5.30
   7 -11   4    7.94    5.36
   7 -11  -5   14.99    6.02
   7 -11   5   38.31   12.38
   7 -11   6    7.29    5.15
   7 -11  -6   -6.26    4.05
   7 -11  -7   -1.61    3.04
   7 -11   7    6.93    4.94
   7 -11  -8   -1.67    2.64
   7 -11   8    7.42    5.16
   7 -11  -9   -5.33    6.05
   7 -11   9    0.96    3.98
   7 -11 -10    3.53    4.39
   7 -11  10   -4.46    5.57
   7 -11  11   -0.03    3.82
   7 -11 -11    9.02    2.61
   7 -11  12   10.13    3.77
   7 -11 -12    7.41    6.47
   7 -11  13    2.03    3.01
   7 -11 -13   24.55   10.15
   7 -11  14    5.77    5.13
   7 -11 -14    0.26    3.42
   7 -11 -15  -10.64    6.99
   7 -11  15   15.55    8.62
   7 -11 -16   -5.10    5.56
   7 -11  16    0.27    4.29
   7 -11  17   10.61    5.67
   7 -11 -17    9.78    5.59
   7 -12   0    0.03    4.27
   7 -12   1    5.58    4.88
   7 -12  -1   11.64    7.05
   7 -12   2   36.20    8.59
   7 -12  -2   45.18   11.31
   7 -12   3   62.76   14.76
   7 -12  -3   61.24   15.83
   7 -12  -4   -7.67    6.41
   7 -12   4   -7.08    7.77
   7 -12  -5   -6.68    6.31
   7 -12   5    4.93    5.81
   7 -12   6   17.30    9.05
   7 -12  -6   16.18    6.33
   7 -12   7   -4.64    4.93
   7 -12  -7    8.27    6.08
   7 -12  -8   49.42   14.91
   7 -12   8   48.15   13.21
   7 -12  -9   58.56   12.74
   7 -12   9   75.58   15.71
   7 -12 -10    2.37    3.65
   7 -12  10   28.99   10.74
   7 -12 -11    3.99    5.14
   7 -12  11   -2.54    5.99
   7 -12  12   13.02    7.08
   7 -12 -12   -3.29    5.81
   7 -12  13   63.84   16.16
   7 -12 -13   61.81   16.46
   7 -12  14   -0.25    3.87
   7 -12 -14    4.09    6.01
   7 -13   0   -3.10    3.36
   7 -13   1   52.82   13.88
   7 -13  -1   28.69    9.87
   7 -13   2    1.81    4.02
   7 -13  -2   -2.07    3.71
   7 -13  -3   12.34    7.49
   7 -13   3    0.20    4.01
   7 -13  -4    4.53    7.80
   7 -13   4    1.96    4.88
   7 -13  -5    4.20    5.16
   7 -13   5    6.89    5.38
   7 -13   6   -2.53    3.78
   7 -13  -6   11.20    9.99
   7 -13   7    2.09    5.23
   7 -13  -7   17.31    9.45
   7 -13   8   -1.93    6.29
   7 -13  -8    5.82    7.51
   7 -13  -9   15.56    8.34
   7 -13   9   18.33    7.60
   7 -13 -10    1.33    2.75
   7 -13  10   11.86    5.49
   7 -14   0    7.03    5.15
   7 -14   1   -3.21    3.54
   7 -14  -1   -1.26    5.20
   8   0   3   -0.54    3.14
   8   0   4   85.48   11.45
   8   0   5   -3.00    2.99
   8   0   6   95.90   13.58
   8   0   7    3.23    2.46
   8   0   8   28.74    7.72
   8   0   9    0.52    4.08
   8   0  10  468.68   32.13
   8   0  11   -1.89    2.79
   8   0  12    8.29    4.94
   8   0  13    4.72    3.82
   8   0  14  146.84   21.13
   8   0  15   -1.92    4.83
   8   0  16   40.88   11.83
   8   0  17    1.55    2.97
   8   0  18   42.89   11.38
   8   0  19   -0.63    3.31
   8   0  20   15.17    7.79
   8   0  21   -3.85    4.59
   8   0  22   34.88   11.09
   8   0  23   -2.31    8.40
   8   0  24   11.68    5.68
   8   0  25    6.02    8.34
   8  -1   0  401.39   24.98
   8  -1   1  339.47   22.39
   8  -1  -1  251.34   20.47
   8  -1   2    1.20    2.63
   8  -1  -2   -1.17    2.24
   8  -1   3   26.84    6.77
   8  -1   4  277.49   22.60
   8  -1   5    3.30    1.60
   8   1   6  140.51   15.55
   8  -1   6   97.65   13.90
   8   1   7   57.86   10.36
   8  -1   7   73.32   12.60
   8   1   8   73.14   12.55
   8  -1   8   81.20   13.34
   8   1   9   27.65    9.00
   8  -1   9   31.33    8.69
   8   1  10   31.78    8.76
   8  -1  10   37.34    9.42
   8   1  11   17.36    7.21
   8  -1  11   14.91    7.37
   8   1  12  374.75   30.32
   8  -1  12  335.33   29.60
   8   1  13    2.61    4.17
   8  -1  13   10.05    3.13
   8  -1  14   82.94   15.17
   8   1  14   62.66   13.52
   8   1  15   89.13   15.90
   8  -1  15   87.93   15.56
   8   1  16   43.58   12.28
   8  -1  16   41.65   11.92
   8   1  17   18.79    6.74
   8  -1  17   54.83   13.34
   8   1  18  404.55   35.44
   8  -1  18  417.56   36.40
   8   1  19    1.61    4.60
   8  -1  19    0.60    4.67
   8   1  20   12.34    9.45
   8  -1  20   -5.50    7.12
   8   1  21   51.24   14.46
   8  -1  21   35.24   12.99
   8  -1  22  120.06   21.27
   8   1  22  116.09   18.14
   8   1  23   -7.61    8.74
   8  -1  23   -0.59    4.07
   8   1  24   61.41   15.13
   8  -1  24   59.83   15.25
   8   1  25   38.03   14.56
   8  -1  25   45.71   14.35
   8  -2   0   65.64   10.46
   8  -2  -1   75.86   12.01
   8  -2   1  116.40   14.55
   8  -2   2   16.75    5.14
   8  -2  -2    5.61    2.37
   8  -2  -3  272.80   22.70
   8  -2   3  304.36   24.37
   8  -2  -4   19.45    6.46
   8  -2   4   11.50    5.25
   8  -2   5   12.13    3.64
   8  -2  -5   19.46    6.68
   8  -2   6   58.62   10.53
   8  -2  -6   54.17   10.36
   8  -2   7  352.62   27.51
   8  -2  -7  464.40   29.82
   8  -2   8    6.29    2.33
   8  -2   9    8.42    3.68
   8   2  10    2.19    2.06
   8  -2  10   -2.62    4.48
   8   2  11  143.70   18.34
   8  -2  11  126.31   17.88
   8   2  12   87.38   14.81
   8  -2  12   55.77   12.07
   8   2  13   27.62    9.40
   8  -2  13   22.08    7.58
   8   2  14   35.57   10.09
   8  -2  14   34.04    9.27
   8   2  15    5.91    4.61
   8  -2  15   10.93    5.74
   8   2  16   11.36    7.73
   8  -2  16   12.26    8.45
   8   2  17    7.95    7.20
   8  -2  17   -0.31    2.87
   8   2  18    0.40    5.52
   8  -2  18   -8.37    7.94
   8   2  19   79.75   16.33
   8  -2  19   54.30   14.27
   8   2  20   31.96   12.17
   8  -2  20   38.93   11.27
   8  -2  21  114.47   20.89
   8   2  21   91.06   17.69
   8   2  22   -0.69    4.19
   8  -2  22   -9.85    7.24
   8   2  23    3.21    3.79
   8  -2  23   -6.87    5.86
   8   2  24    0.93    6.89
   8  -2  24    3.63    4.54
   8   2  25    1.45    2.93
   8  -2  25    3.79    2.91
   8  -3   0   28.85    8.09
   8  -3  -1   46.52   10.11
   8  -3   1   34.91    8.65
   8  -3  -2   27.28    7.49
   8  -3   2   23.95    7.10
   8  -3  -3  116.61   15.76
   8  -3   3  108.14   15.03
   8  -3  -4   80.40   12.85
   8  -3   4   99.81   14.60
   8  -3   5   30.00    7.29
   8  -3  -5   29.11    8.66
   8  -3  -6  300.03   26.12
   8  -3   6  302.00   25.69
   8  -3   7  112.49   15.68
   8  -3  -7  144.96   17.79
   8  -3   8  130.47   17.23
   8  -3  -8  123.93   16.41
   8  -3   9    6.80    5.39
   8  -3  -9    0.25    2.12
   8  -3  10    1.25    2.36
   8  -3 -10    3.81    2.82
   8  -3 -11   97.20   15.20
   8  -3  11  117.86   16.73
   8  -3 -12   -4.06    3.59
   8  -3  12   -6.15    4.71
   8  -3  13   25.54    9.56
   8   3  14   18.81    6.73
   8  -3  14   18.06    9.82
   8   3  15   34.60   10.46
   8  -3  15   38.37   11.00
   8   3  16    9.91    2.75
   8  -3  16   49.49   12.73
   8   3  17  100.17   17.42
   8  -3  17  118.98   18.27
   8   3  18   -0.12    4.11
   8  -3  18   15.21    9.47
   8   3  19  140.63   21.31
   8  -3  19  111.85   18.37
   8   3  20    3.63    4.88
   8  -3  20   -1.62    6.00
   8   3  21   74.19   14.87
   8  -3  21   78.88   15.96
   8   3  22   38.57   11.98
   8  -3  22   11.47    7.58
   8   3  23    8.86    6.21
   8  -3  23   -4.27    3.82
   8   3  24    7.68    6.42
   8  -3  24    6.27    5.53
   8   3  25   16.03   11.36
   8  -3  25   10.77    7.14
   8  -4   0   23.50    7.88
   8  -4  -1   35.11    9.11
   8  -4   1   74.34   13.07
   8  -4   2  164.81   19.71
   8  -4  -2  202.90   21.31
   8  -4  -3   -2.00    3.40
   8  -4   3   -2.18    1.95
   8  -4   4   30.72    9.81
   8  -4  -4   21.55    6.31
   8  -4  -5  242.37   23.39
   8  -4   5  286.43   25.46
   8  -4   6   54.92   11.06
   8  -4  -6   30.47    8.71
   8  -4  -7   85.03   14.49
   8  -4   7   81.85   14.91
   8  -4   8  114.93   16.95
   8  -4  -8  128.24   17.70
   8  -4   9   32.49    9.38
   8  -4  -9   44.72   10.49
   8  -4  10   46.77   11.29
   8  -4 -10   29.87    8.97
   8  -4  11   32.99   10.10
   8  -4 -11   56.10   13.29
   8  -4  12    7.39    2.66
   8  -4 -12    3.19    5.59
   8  -4  13    8.76    5.94
   8  -4 -13   14.10    8.22
   8  -4 -14    3.41    4.19
   8  -4  14   -0.64    2.85
   8  -4 -15   18.92    6.56
   8  -4  15   28.62   10.18
   8  -4  16   -0.88    4.47
   8  -4  17   29.33   10.21
   8  -4  18   44.69   11.74
   8   4  19   30.29   10.59
   8  -4  19   18.20   10.42
   8   4  20    5.85    5.67
   8  -4  20   24.98   11.60
   8   4  21   -2.34    4.57
   8  -4  21   -1.71    3.59
   8   4  22   -1.22    6.38
   8  -4  22   14.10    9.68
   8   4  23   -0.03    3.67
   8  -4  23   19.57   12.14
   8   4  24    7.96    8.62
   8  -4  24   16.57    8.93
   8  -5   0 1079.14   51.30
   8  -5  -1   33.91    9.88
   8  -5   1   49.00   10.64
   8  -5  -2   15.37    7.08
   8  -5   2    5.85    6.21
   8  -5   3  106.44   16.34
   8  -5  -3   78.45   15.14
   8  -5  -4  105.35   16.78
   8  -5   4   73.17   13.83
   8  -5  -5   92.32   14.93
   8  -5   5   69.78   14.28
   8  -5  -6  124.67   17.96
   8  -5   6  154.42   19.99
   8  -5  -7   56.96   11.80
   8  -5   7   84.33   15.54
   8  -5   8   41.87   10.93
   8  -5  -8   74.82   15.62
   8  -5   9   24.96    8.83
   8  -5  -9   27.20    8.51
   8  -5  10   68.85   14.19
   8  -5 -10   96.70   16.05
   8  -5  11   29.06   10.12
   8  -5 -11   31.55   10.44
   8  -5  12   -3.26    5.09
   8  -5 -12   -2.68    6.05
   8  -5  13   19.91    7.76
   8  -5 -13    5.16    5.97
   8  -5  14   37.37   10.41
   8  -5 -14   47.00   12.47
   8  -5 -15   -4.70    8.24
   8  -5  15    0.72    4.25
   8  -5 -16   -4.79    6.67
   8  -5  16    1.03    2.79
   8  -5 -17   15.87    8.14
   8  -5  17   11.10    3.78
   8  -5 -18   75.55   15.59
   8  -5  18   52.42   13.59
   8  -5  19  -10.36    6.89
   8  -5  20   26.42   10.65
   8  -5  21   15.71    8.79
   8  -5  22   48.72   13.82
   8  -5  23    3.21    4.33
   8  -6   0    1.40    3.67
   8  -6   1    5.67    4.81
   8  -6  -1    9.37    4.32
   8  -6   2  476.94   35.75
   8  -6  -2  434.77   34.44
   8  -6   3  143.34   19.84
   8  -6  -3  112.83   17.60
   8  -6  -4    6.28    4.92
   8  -6   4    5.85    5.45
   8  -6   5    9.89    4.46
   8  -6  -5    4.50    5.14
   8  -6   6    6.33    6.16
   8  -6  -6   10.19    7.68
   8  -6  -7    6.72    4.57
   8  -6   7    7.29    4.79
   8  -6  -8   -0.58    4.04
   8  -6   8    1.46    3.02
   8  -6   9    0.85    3.96
   8  -6  -9   -1.94    6.52
   8  -6  10   11.01    4.54
   8  -6 -10   33.73    9.95
   8  -6  11   14.20    8.50
   8  -6 -11   24.29    8.50
   8  -6 -12   25.96    8.64
   8  -6  12   38.86   11.79
   8  -6  13    1.14    4.70
   8  -6 -13    1.19    5.58
   8  -6  14   50.51   12.83
   8  -6 -14   18.67    9.32
   8  -6  15   -0.68    3.09
   8  -6 -15    5.14    5.60
   8  -6  16    1.69    3.06
   8  -6 -16    5.61    3.60
   8  -6 -17   14.82    6.73
   8  -6  17    0.33    3.88
   8  -6  18   54.26   13.47
   8  -6 -18   40.69   11.61
   8  -6 -19   -5.25    2.71
   8  -6  19    0.93    2.21
   8  -6 -20   19.11    9.89
   8  -6  20    4.57    5.75
   8  -6  21   16.85    5.88
   8  -6  22   15.71    7.05
   8  -7   0    9.20    4.76
   8  -7   1  223.43   24.56
   8  -7  -1  217.70   24.26
   8  -7  -2   13.48    7.74
   8  -7   2   10.49    4.71
   8  -7   3  334.86   30.17
   8  -7  -3  320.20   30.25
   8  -7  -4   39.14   12.97
   8  -7   4   35.95   10.41
   8  -7   5    2.33    5.15
   8  -7  -5   -5.75    4.13
   8  -7   6    2.15    5.52
   8  -7  -6   -2.43    5.43
   8  -7  -7   70.53   14.94
   8  -7   7   69.23   14.03
   8  -7   8   80.18   15.34
   8  -7  -8   97.39   16.86
   8  -7  -9   16.38    9.33
   8  -7   9   29.05   10.88
   8  -7 -10   52.70   11.67
   8  -7  10   99.24   17.94
   8  -7  11  199.84   24.90
   8  -7 -11  176.58   22.69
   8  -7  12    1.22    6.21
   8  -7 -12    2.20    4.06
   8  -7 -13   44.60   12.30
   8  -7  13   23.67    8.49
   8  -7  14   10.00    4.79
   8  -7 -14   11.20    7.68
   8  -7  15   -1.11    4.29
   8  -7 -15   13.35    7.85
   8  -7  16    0.71    6.75
   8  -7 -16    4.64    3.75
   8  -7  17   41.27   11.87
   8  -7 -17   28.49    9.95
   8  -7 -18    0.74    2.53
   8  -7  18    0.05    3.57
   8  -7 -19   56.11   13.50
   8  -7  19   45.50   12.35
   8  -7 -20   11.51   10.34
   8  -7  20   -7.44    7.12
   8  -7 -21   28.05   11.72
   8  -7  21   65.85   16.23
   8  -8   0  190.84   23.65
   8  -8   1   36.80   11.42
   8  -8  -1   41.26   10.48
   8  -8  -2   -1.75    4.41
   8  -8   2   13.64    8.53
   8  -8  -3    7.89    5.09
   8  -8   3   12.64    5.90
   8  -8  -4    9.00    3.70
   8  -8   4    2.64    3.61
   8  -8   5   48.76   13.02
   8  -8  -5   57.97   14.09
   8  -8   6   48.91   12.56
   8  -8  -6   28.71    9.77
   8  -8   7   45.36   12.85
   8  -8  -7   67.58   15.03
   8  -8  -8   -2.32    3.53
   8  -8   8   -3.37    4.17
   8  -8  -9    1.96    3.41
   8  -8   9    1.62    6.57
   8  -8  10   12.40    8.86
   8  -8 -10    1.38    3.95
   8  -8  11   82.48   16.86
   8  -8 -11  105.75   19.59
   8  -8  12    8.55    6.45
   8  -8 -12   -1.60    3.43
   8  -8  13    0.78    4.55
   8  -8 -13   10.61    7.83
   8  -8 -14   10.92    8.08
   8  -8  14    3.29    5.86
   8  -8 -15  105.73   19.64
   8  -8  15  113.28   19.87
   8  -8  16    9.55    6.53
   8  -8 -16   -1.00    2.33
   8  -8  17   52.17   13.45
   8  -8 -17   42.48   10.94
   8  -8  18    0.33    4.67
   8  -8 -18    3.38    2.84
   8  -8 -19   33.86   13.06
   8  -8  19   36.91   11.24
   8  -8 -20    0.95    8.43
   8  -8  20    4.78    6.52
   8  -9   0   95.33   18.66
   8  -9   1   52.70   12.79
   8  -9  -1   61.76   14.90
   8  -9   2   22.13    9.15
   8  -9  -2   17.56    8.75
   8  -9  -3   57.17   14.18
   8  -9   3   43.91   11.50
   8  -9  -4    2.28    6.42
   8  -9   4    5.82    6.36
   8  -9  -5    9.39    2.10
   8  -9   5   30.76    9.60
   8  -9   6   19.51    8.35
   8  -9  -6   10.53    6.55
   8  -9  -7  210.70   27.34
   8  -9   7  269.14   29.72
   8  -9  -8   65.12   15.03
   8  -9   8   68.95   14.46
   8  -9  -9    6.57    5.58
   8  -9   9   -4.61    5.36
   8  -9 -10    5.49    2.57
   8  -9  10    6.13    3.62
   8  -9  11   45.82   14.65
   8  -9 -11   53.44   13.80
   8  -9  12   25.27   10.81
   8  -9 -12   12.84    8.00
   8  -9  13   25.53    6.82
   8  -9 -13   50.21   14.02
   8  -9  14   20.60    7.47
   8  -9 -14   10.23    7.08
   8  -9 -15    2.51    2.64
   8  -9  15   18.78    8.16
   8  -9  16    1.24    3.12
   8  -9 -16    1.89    3.34
   8  -9  17   44.05   12.41
   8  -9 -17   44.23   14.24
   8  -9  18   81.93   18.76
   8  -9 -18   63.72   16.28
   8 -10   0    2.63    4.95
   8 -10   1   15.64    9.03
   8 -10  -1    2.98    3.40
   8 -10   2    7.70    6.97
   8 -10  -2   -6.97    6.62
   8 -10  -3   10.25    5.41
   8 -10   3    5.73    4.27
   8 -10  -4   90.15   18.65
   8 -10   4   82.99   16.34
   8 -10  -5    0.60    3.06
   8 -10   5   -2.78    5.00
   8 -10   6    1.92    4.12
   8 -10  -6   -3.62    2.97
   8 -10   7    6.17    5.51
   8 -10  -7   16.24    8.49
   8 -10   8   21.43    9.56
   8 -10  -8   -3.25    6.05
   8 -10  -9    4.41    4.08
   8 -10   9   12.32    7.01
   8 -10 -10   -0.03    7.75
   8 -10  10    7.14    4.54
   8 -10 -11    0.51    4.04
   8 -10  11   16.24    9.14
   8 -10  12    7.71    4.65
   8 -10 -12   -2.53    6.36
   8 -10  13    2.22    3.26
   8 -10 -13   20.86   10.04
   8 -10  14   57.83   15.02
   8 -10 -14   96.88   19.24
   8 -10  15   -1.28    5.62
   8 -10 -15   -2.88    7.98
   8 -10  16   -2.35    4.85
   8 -10 -16   -3.64    5.73
   8 -11   0   40.11   12.09
   8 -11   1   -2.23    4.35
   8 -11  -1    8.30    4.21
   8 -11   2   -1.59    3.69
   8 -11  -2    5.39    4.46
   8 -11  -3    8.03    7.34
   8 -11   3   12.19    5.54
   8 -11   4  149.41   22.49
   8 -11  -4  147.90   22.76
   8 -11  -5   12.86    6.27
   8 -11   5    2.95    3.25
   8 -11   6   -4.25    2.99
   8 -11  -6   -2.55    6.30
   8 -11   7   -0.22    6.26
   8 -11  -7   16.26    9.47
   8 -11   8    7.37    4.39
   8 -11  -8    7.82    5.71
   8 -11  -9   27.57    8.66
   8 -11   9   37.80   11.51
   8 -11 -10   83.52   17.81
   8 -11  10   85.44   17.24
   8 -11 -11    1.51    2.81
   8 -11  11    5.30    9.29
   8 -11 -12   28.13    9.52
   8 -11  12   25.85    9.96
   8 -11  13   -3.18    4.07
   8 -11 -13   -4.02    4.88
   8 -11  14   31.65   11.52
   8 -11 -14   43.61   13.26
   8 -12   0   38.84   10.26
   8 -12   1   26.73   11.21
   8 -12  -1   35.53   11.40
   8 -12  -2   -0.80    2.71
   8 -12   2    9.31    6.85
   8 -12  -3   -0.58    3.83
   8 -12   3    8.62    9.32
   8 -12  -4   11.03    5.52
   8 -12   4    1.43    3.29
   8 -12  -5    1.46    7.17
   8 -12   5    4.61    4.93
   8 -12  -6    8.40    6.26
   8 -12   6   15.23    7.19
   8 -12   7    2.93    4.19
   8 -12  -7   11.25    8.15
   8 -12   8    4.99    5.03
   8 -12  -8   12.08    6.52
   8 -12   9    6.28    7.05
   8 -12  -9    6.43    3.53
   8 -12  10    7.26    6.16
   8 -12 -10   17.57    9.10
   8 -13   0   -4.13    6.45
   8 -13   1    7.51    4.84
   8 -13  -1    6.42    5.79
   8 -13  -2    5.51    6.82
   8 -13   2    0.09    2.86
   8 -13  -3    5.56    7.14
   8 -13   3   -0.17    3.98
   9   0  13    3.87    7.33
   9   0  14   35.52    9.86
   9   0  15   13.21    9.46
   9   0  16   20.36    9.04
   9   0  17    1.18    4.11
   9   0  18   48.84   13.40
   9   0  19   12.09    9.71
   9   0  20   49.10   11.63
   9   0  21    5.33    7.45
   9   0  22   -6.34    8.55
   9   0  23    1.70    5.85
   9  -1   8  204.77   22.85
   9  -1   9  144.86   18.97
   9  -1  10  160.48   21.04
   9  -1  11   14.75    6.35
   9  -1  12  150.22   20.00
   9  -1  13   42.88   10.59
   9  -1  14    3.20    5.67
   9  -1  15    8.44    7.10
   9  -1  16   91.17   17.40
   9  -1  17   11.29    2.97
   9  -1  18    7.56    7.30
   9   1  19   -2.59    3.13
   9  -1  19   -6.17   10.30
   9   1  20   40.88   12.83
   9  -1  20   31.83   10.72
   9   1  21    1.55    3.80
   9  -1  21   -2.95    3.45
   9   1  22    8.49    3.75
   9  -1  22    4.22    7.30
   9   1  23   45.30   14.80
   9  -1  23   30.18    8.03
   9  -2   4    7.39    4.11
   9  -2   5   73.45   13.17
   9  -2   6   22.95    8.56
   9  -2   7   42.15   10.92
   9  -2   8    6.29    3.58
   9  -2   9   41.94   11.21
   9  -2  10   26.25    8.88
   9  -2  11   -1.51    3.25
   9  -2  12   17.08    9.34
   9  -2  13    6.64    4.43
   9  -2  14    7.42    4.58
   9  -2  15   85.77   16.49
   9  -2  16    0.07    4.57
   9  -2  17   61.76   13.58
   9  -2  18    2.03    3.48
   9  -2  19    8.82    6.30
   9  -2  20    5.33    4.72
   9  -2  21    5.30    8.31
   9  -2  22    1.16    6.44
   9  -2  23    6.40    6.27
   9  -3   0    5.69    4.50
   9  -3   1  273.97   24.95
   9  -3   2   -3.48    5.15
   9  -3   3   56.74   12.35
   9  -3   4    8.05    6.61
   9  -3   5  260.18   24.23
   9  -3   6    1.78    3.06
   9  -3   7   -0.24    2.42
   9  -3   8    4.95    4.08
   9  -3  10   33.00   10.44
   9  -3  11    4.27    6.57
   9  -3  12    6.56    7.65
   9  -3  13   22.49    6.40
   9  -3  14    2.54    4.60
   9  -3  15  138.88   21.03
   9  -3  16    2.99    3.93
   9  -3  17    6.18    7.54
   9  -3  18    7.76    6.01
   9  -3  19   52.29   14.00
   9  -3  20   42.06   12.06
   9  -3  21    3.88    6.78
   9  -3  22   12.31    6.99
   9  -4   0   -2.85    3.43
   9  -4   1    3.53    2.56
   9  -4  -1    9.67    6.51
   9  -4   2   32.88    9.36
   9  -4  -2   23.32    7.41
   9  -4  -3    2.45    2.42
   9  -4   3   -1.03    4.89
   9  -4  -4    8.22    5.26
   9  -4   4   -1.82    4.13
   9  -4   5   20.84    8.33
   9  -4   6   25.50    8.80
   9  -4   7    9.53    5.91
   9  -4   8  119.98   18.29
   9  -4   9   13.34    6.42
   9  -4  10   11.56    4.69
   9  -4  11   -0.51    3.88
   9  -4  12   -2.73    4.95
   9  -4  13    0.10    3.78
   9  -4  14   20.24    8.52
   9  -4  15   -5.95    8.33
   9  -4  16    5.59    3.69
   9  -4  17    8.39    6.57
   9  -4  18   -8.24    5.55
   9  -4  19    0.34    5.38
   9  -4  20    1.78    2.54
   9  -4  21    5.08    6.32
   9  -4  22   26.01   10.52
   9  -5   0    0.86    4.44
   9  -5   1    0.86    3.92
   9  -5  -1    0.17    4.99
   9  -5   2  139.66   19.37
   9  -5  -2   84.93   15.36
   9  -5  -3   19.43    9.07
   9  -5   3   15.79    6.95
   9  -5  -4   -4.56    5.14
   9  -5   4   -4.03    5.48
   9  -5  -5   -2.23    6.62
   9  -5   5   11.15    6.22
   9  -5   6   66.27   14.62
   9  -5  -6   45.68   11.83
   9  -5   7    2.25    5.00
   9  -5  -7    3.04    4.09
   9  -5  -8  136.20   20.30
   9  -5   8   93.06   16.46
   9  -5   9   11.06    5.38
   9  -5  10   81.51   16.40
   9  -5  11   26.08    8.80
   9  -5  12  106.46   18.88
   9  -5  13   47.21   11.73
   9  -5  14   50.70   11.63
   9  -5  15   21.72    7.79
   9  -5  16  164.46   23.48
   9  -5  17   12.10    6.90
   9  -5  18   -4.26    7.70
   9  -5  19    3.48    3.10
   9  -5  20   25.43   10.18
   9  -5  21   41.26   15.28
   9  -6   0    0.59    3.20
   9  -6  -1    2.90    2.82
   9  -6   1    4.71    3.07
   9  -6  -2    5.84    4.98
   9  -6   2    6.31    4.41
   9  -6  -3   16.77    9.68
   9  -6   3   42.10   11.98
   9  -6  -4    5.04    5.47
   9  -6   4    8.32    5.60
   9  -6  -5    5.10    4.08
   9  -6   5    5.21    5.40
   9  -6   6    5.23    5.65
   9  -6  -6   -0.29    4.13
   9  -6   7    7.44    6.93
   9  -6  -7    1.53    5.86
   9  -6   8   25.24   11.12
   9  -6  -8   19.71    8.42
   9  -6   9   -0.07    5.17
   9  -6  -9    0.50    2.76
   9  -6 -10   -1.44    2.81
   9  -6  10   -7.73    9.45
   9  -6  11    0.63    2.94
   9  -6 -11    4.29    2.81
   9  -6  12    5.20    7.97
   9  -6 -12    2.78    2.34
   9  -6  13   10.87    4.70
   9  -6  14    6.50    5.72
   9  -6  15   -2.48    6.67
   9  -6  16    1.59    5.70
   9  -6  17   41.44   13.19
   9  -6  18   43.42   12.57
   9  -6  19    3.64    8.87
   9  -6  20   -3.89    5.74
   9  -7   0    5.21    3.91
   9  -7  -1    6.56    3.46
   9  -7   1   14.16    8.07
   9  -7  -2   33.75   10.59
   9  -7   2   27.67    9.92
   9  -7   3  163.61   22.24
   9  -7  -3  146.88   21.26
   9  -7  -4   -4.37    7.61
   9  -7   4    5.72    2.32
   9  -7  -5   74.04   14.94
   9  -7   5   73.81   16.66
   9  -7   6    7.95    2.80
   9  -7  -6    8.24    5.83
   9  -7   7   -5.13    4.20
   9  -7  -7   10.99    7.67
   9  -7   8   11.86    8.48
   9  -7  -8   12.25    7.81
   9  -7  -9   87.36   18.41
   9  -7   9  105.07   17.18
   9  -7 -10   47.28   12.12
   9  -7  10   33.51   11.84
   9  -7 -11   -3.25    6.84
   9  -7  11   -3.05    6.02
   9  -7  12   22.58    8.92
   9  -7 -12   46.05   11.77
   9  -7  13  160.40   23.39
   9  -7 -13  187.87   25.90
   9  -7  14   12.80    7.84
   9  -7 -14    4.52    6.28
   9  -7  15   20.19    7.92
   9  -7  16   93.40   18.25
   9  -7  17   88.22   17.90
   9  -7  18   15.12   10.98
   9  -7  19    7.80    7.75
   9  -8   0  -13.86    9.10
   9  -8  -1   -3.66    6.21
   9  -8   1    4.16    4.59
   9  -8  -2    0.79    2.61
   9  -8   2   18.25    7.03
   9  -8  -3   12.04    7.46
   9  -8   3    9.32    5.80
   9  -8  -4   13.94    7.72
   9  -8   4    1.02    5.10
   9  -8  -5   52.66   13.58
   9  -8   5   40.77   12.17
   9  -8   6   19.58    8.69
   9  -8  -6   10.42    5.60
   9  -8   7    5.97    6.61
   9  -8  -7    9.18    6.40
   9  -8   8    7.37    5.18
   9  -8  -8   12.48    9.00
   9  -8   9    9.01    6.84
   9  -8  -9   11.51    5.69
   9  -8 -10    9.70    5.11
   9  -8  10    0.31    2.97
   9  -8 -11    5.46    3.27
   9  -8  11    3.75    4.41
   9  -8  12    3.56    3.69
   9  -8 -12   -7.06    7.34
   9  -8  13    2.32    4.66
   9  -8 -13   -3.47    5.87
   9  -8  14   16.31    9.79
   9  -8 -14   26.40   11.11
   9  -8  15    4.01    3.01
   9  -8 -15   19.13   10.08
   9  -8  16    4.50    2.27
   9  -8 -16   16.21   11.58
   9  -8  17   25.29   11.09
   9  -9   0    2.16    4.03
   9  -9  -1   48.94   13.26
   9  -9   1   49.58   13.59
   9  -9  -2    8.84    5.18
   9  -9   2   21.90    8.77
   9  -9  -3   10.08    6.73
   9  -9   3   15.12    6.67
   9  -9  -4    6.10    6.29
   9  -9   4   11.13    7.34
   9  -9  -5   15.93    7.67
   9  -9   5   19.50    9.94
   9  -9  -6  125.39   20.41
   9  -9   6  136.97   21.61
   9  -9   7   13.18    4.87
   9  -9  -7   20.67    9.15
   9  -9   8   11.05    5.79
   9  -9  -8   19.90    8.98
   9  -9   9  111.56   18.66
   9  -9  -9   90.88   17.69
   9  -9  10   -2.85    3.25
   9  -9 -10   -2.19    8.17
   9  -9 -11    4.11    4.54
   9  -9  11   14.86    6.79
   9  -9 -12   14.88    7.65
   9  -9  12   10.25    3.84
   9  -9  13   74.31   16.82
   9  -9 -13   72.77   17.98
   9  -9  14   18.37   10.23
   9  -9 -14   -6.88    4.50
   9  -9  15   29.67   12.66
   9  -9 -15   25.72    9.95
   9 -10   0    1.40    2.61
   9 -10  -1   -2.90    5.44
   9 -10   1    4.91    7.00
   9 -10  -2   -5.72    8.51
   9 -10   2   -2.51    4.32
   9 -10  -3    6.68    5.05
   9 -10   3    1.02    2.57
   9 -10  -4   28.60   12.02
   9 -10   4   20.06    9.16
   9 -10  -5   12.00   11.01
   9 -10   5   -2.70    4.48
   9 -10  -6   -2.69    3.92
   9 -10   6   -6.32    6.67
   9 -10   7   -2.70    5.67
   9 -10  -7   -3.43    5.53
   9 -10   8   15.37    8.87
   9 -10  -8    0.54    6.02
   9 -10   9   24.73    8.85
   9 -10  -9   22.61   10.48
   9 -10  10    1.98    6.32
   9 -10 -10   -2.54    3.22
   9 -10 -11   -2.09    5.40
   9 -10  11    5.27    6.88
   9 -10 -12   10.66    5.85
   9 -10  12   21.90   10.33
   9 -10 -13    4.84    5.81
   9 -10  13    2.03    3.06
   9 -11   0   -1.05    5.63
   9 -11  -1    7.68    4.16
   9 -11   1   10.02    9.04
   9 -11  -2   81.37   17.23
   9 -11   2   57.21   15.48
   9 -11  -3    5.41    4.15
   9 -11   3   20.59    6.61
   9 -11  -4    9.98    7.24
   9 -11   4   10.31    7.53
   9 -11  -5    4.54    4.66
   9 -11   5   -1.31    5.54
   9 -11  -6   -0.60    5.90
   9 -11   6   17.11   10.13
   9 -11   7   -0.96    4.66
   9 -11  -7    6.45    8.43
   9 -11   8   33.21   11.65
   9 -11  -8    3.92    5.01
   9 -11   9   14.72    7.94
   9 -11  -9   11.87    8.22
   9 -12   0    3.89    8.72
   9 -12  -1    2.01    5.85
   9 -12   1    3.23    5.73
  10  -3  13   38.98   10.27
  10  -3  14   10.20    8.80
  10  -3  15   51.86   13.52
  10  -3  16    8.66    5.85
  10  -3  17    7.66    5.40
  10  -3  18   -1.12    4.84
  10  -3  19   35.44   10.68
  10  -3  20   16.86    8.39
  10  -4   8   -0.05    4.09
  10  -4   9    5.19    6.69
  10  -4  10    3.93    4.86
  10  -4  11    8.15    6.43
  10  -4  12    9.53    6.16
  10  -4  13   34.83   11.62
  10  -4  14   -4.72    6.20
  10  -4  15    5.05    6.53
  10  -4  16   -8.88    8.70
  10  -4  17   21.56   11.71
  10  -4  18    6.59    9.03
  10  -4  19   13.54    7.40
  10  -5   4   79.49   15.60
  10  -5   5   -2.34    6.08
  10  -5   6    3.25    5.84
  10  -5   7   -0.70    3.69
  10  -5   8   42.72   12.39
  10  -5   9   38.28   12.52
  10  -5  10  112.87   19.46
  10  -5  11   19.39    9.07
  10  -5  12    2.56    3.88
  10  -5  13   -2.54    5.36
  10  -5  14   -5.44    3.33
  10  -5  15    5.93    8.79
  10  -5  16    5.42    5.60
  10  -5  17   21.80   10.25
  10  -5  18   22.51    7.55
  10  -6   0   88.62   17.54
  10  -6   1   -3.44    4.11
  10  -6   2   -5.72    5.60
  10  -6   3    5.25    4.91
  10  -6   4   40.06   10.88
  10  -6   5    9.62    6.06
  10  -6   6   15.88    9.57
  10  -6   7   -3.98    3.34
  10  -6   8   19.51    9.68
  10  -6   9   11.21    7.51
  10  -6  10   75.06   16.94
  10  -6  11   -0.38    5.42
  10  -6  12   -1.16    4.52
  10  -6  13    9.34    6.54
  10  -6  14    9.09    7.29
  10  -6  15    0.96    6.73
  10  -6  16   19.31   10.31
  10  -6  17    4.86    4.97
  10  -7   0    7.25    5.83
  10  -7   1  121.12   20.62
  10  -7  -1   73.85   16.82
  10  -7   2    8.34    3.33
  10  -7  -2   29.64   10.10
  10  -7  -3   58.24   13.51
  10  -7   3   68.24   14.10
  10  -7  -4   12.84    6.95
  10  -7   4   11.03    4.14
  10  -7   5   14.69    9.13
  10  -7   6   -3.22    4.22
  10  -7   7   81.26   18.94
  10  -7   8   -7.19    8.78
  10  -7   9   -1.84    7.07
  10  -7  10   -7.47    8.88
  10  -7  11   93.06   18.81
  10  -7  12   16.62    7.72
  10  -7  13   34.20   10.83
  10  -7  14   -2.71    5.98
  10  -7  15   17.35    8.25
  10  -8   0   43.77   13.19
  10  -8   1   12.46    2.96
  10  -8  -1    2.49    4.05
  10  -8  -2    6.70    4.71
  10  -8   2   11.49    7.15
  10  -8  -3   -2.92    3.86
  10  -8   3    4.42    6.28
  10  -8  -4   -4.72    7.39
  10  -8   4    3.60    4.90
  10  -8  -5   -2.35    4.55
  10  -8   5    3.04    3.50
  10  -8  -6   23.08   10.64
  10  -8   6   11.61    6.51
  10  -8   7   50.88   13.85
  10  -8  -7   94.54   19.24
  10  -8   8    3.22    7.69
  10  -8   9   -0.69    3.71
  10  -8  10   10.95    7.18
  10  -8  11   47.57   10.45
  10  -8  12    8.37   10.20
  10  -8  13   23.48   10.44
  10  -9   0   85.02   17.82
  10  -9   1    4.76    7.08
  10  -9  -1   18.96    9.60
  10  -9  -2    7.54    3.90
  10  -9   2   12.67    4.93
  10  -9  -3   38.46   13.18
  10  -9   3   38.98   12.09
  10  -9  -4   32.60   11.76
  10  -9   4   23.61    9.21
  10  -9  -5   16.46    7.94
  10  -9   5   23.54   10.54
  10  -9  -6   -1.48    5.11
  10  -9   6    7.84    7.88
  10  -9   7   95.54   17.97
  10  -9  -7   57.01   14.81
  10  -9   8   18.28    9.24
  10  -9  -8    7.32    9.28
  10  -9   9   -0.20    4.62
  10  -9  -9   -7.85    8.72
  10  -9  10   15.21    7.40
  10  -9  11   17.77    6.41
  10 -10   0   15.91    4.18
  10 -10   1    2.73    4.30
  10 -10  -1   15.13    8.86
  10 -10  -2   10.92    7.84
  10 -10   2   -2.49    5.94
  10 -10  -3   14.46    7.98
  10 -10   3   13.24    8.30
  10 -10  -4   -4.10    4.32
  10 -10   4    1.16    2.98
  10 -10  -5   10.44    5.73
  10 -10   5   -3.28    2.67
  10 -10  -6   -5.17    6.71
  10 -10   6   -0.97    2.98
  10 -10  -7    4.84    5.89
  10 -10   7    5.22    5.15
  11  -8   7  -10.81    3.95
   0   0   0    0.00    0.00

TITL 037_230K_SulfamerazineF2_ in Pbca
REM Pbca (#61 in standard setting)
CELL 0.68890   9.120005  11.633877  22.869718  90.0000  90.0000  90.0000
ZERR    8.00   0.000286   0.000265   0.000444   0.0000   0.0000   0.0000
LATT  1
SYMM -x+1/2,-y, z+1/2
SYMM -x, y+1/2,-z+1/2
SYMM  x+1/2,-y+1/2,-z
SFAC C H N O S
UNIT 88.00 96.00 32.00 16.00 8.00
TREF
HKLF 4
END
_computing_structure_solution     'SHELXT 2014/5 (Sheldrick, 2014)'
;
_shelx_hkl_checksum              5875
loop_
_space_group_symop_operation_xyz
'x, y, z'
'-x+1/2, -y, z+1/2'
'-x, y+1/2, -z+1/2'
'x+1/2, -y+1/2, -z'
'-x, -y, -z'
'x-1/2, y, -z-1/2'
'x, -y-1/2, z-1/2'
'-x-1/2, y-1/2, z'
loop_
_atom_site_label
_atom_site_type_symbol
_atom_site_fract_x
_atom_site_fract_y
_atom_site_fract_z
_atom_site_U_iso_or_equiv
_atom_site_adp_type
_atom_site_occupancy
_atom_site_site_symmetry_order
_atom_site_calc_flag
_atom_site_refinement_flags_posn
_atom_site_refinement_flags_adp
_atom_site_refinement_flags_occupancy
_atom_site_disorder_assembly
_atom_site_disorder_group
S1 S 0.33227(7) 0.34628(5) 0.38971(2) 0.03034(17) Uani 1 1 d . . . . .
O2 O 0.19755(19) 0.39706(15) 0.40957(7) 0.0371(4) Uani 1 1 d . . . . .
O1 O 0.3421(2) 0.22375(13) 0.38630(7) 0.0398(4) Uani 1 1 d . . . . .
N4 N 0.6663(2) 0.42624(17) 0.48542(8) 0.0332(5) Uani 1 1 d . . . . .
N3 N 0.6557(2) 0.28545(16) 0.40892(9) 0.0344(5) Uani 1 1 d . . . . .
N2 N 0.4512(2) 0.39489(18) 0.43749(9) 0.0328(5) Uani 1 1 d . . . . .
N1 N 0.4558(3) 0.5324(2) 0.15509(11) 0.0486(6) Uani 1 1 d . . . . .
C1 C 0.3758(3) 0.40411(19) 0.32163(10) 0.0311(5) Uani 1 1 d . . . . .
C2 C 0.4482(3) 0.3377(2) 0.28029(11) 0.0401(6) Uani 1 1 d . . . . .
H2 H 0.4768 0.2631 0.2894 0.052 Uiso 1 1 calc R U . . .
C3 C 0.4775(3) 0.3821(2) 0.22585(11) 0.0432(7) Uani 1 1 d . . . . .
H3 H 0.5283 0.3378 0.1987 0.056 Uiso 1 1 calc R U . . .
C4 C 0.4319(3) 0.4930(2) 0.21058(10) 0.0370(6) Uani 1 1 d . . . . .
C5 C 0.3595(3) 0.5591(2) 0.25294(11) 0.0379(6) Uani 1 1 d . . . . .
H5 H 0.3294 0.6334 0.2439 0.049 Uiso 1 1 calc R U . . .
C6 C 0.3325(3) 0.51531(19) 0.30779(10) 0.0339(5) Uani 1 1 d . . . . .
H6 H 0.2852 0.5602 0.3356 0.044 Uiso 1 1 calc R U . . .
C7 C 0.5982(3) 0.36650(19) 0.44329(9) 0.0294(5) Uani 1 1 d . . . . .
C8 C 0.8080(3) 0.4011(2) 0.49273(11) 0.0390(6) Uani 1 1 d . . . . .
H8 H 0.8608 0.4408 0.5211 0.051 Uiso 1 1 calc R U . . .
C9 C 0.8789(3) 0.3194(2) 0.46015(11) 0.0393(6) Uani 1 1 d . . . . .
H9 H 0.9777 0.3032 0.4661 0.051 Uiso 1 1 calc R U . . .
C10 C 0.7987(3) 0.2621(2) 0.41814(11) 0.0369(6) Uani 1 1 d . . . . .
C11 C 0.8658(4) 0.1692(3) 0.38142(14) 0.0543(8) Uani 1 1 d . . . . .
H11A H 0.8196 0.0971 0.3902 0.071 Uiso 1 1 calc R U . . .
H11B H 0.9688 0.1640 0.3897 0.071 Uiso 1 1 calc R U . . .
H11C H 0.8519 0.1869 0.3408 0.071 Uiso 1 1 calc R U . . .
H1N2 H 0.416(3) 0.444(2) 0.4588(12) 0.043(8) Uiso 1 1 d . . . . .
H1N1 H 0.516(3) 0.495(3) 0.1370(13) 0.048(9) Uiso 1 1 d . . . . .
H2N1 H 0.445(3) 0.604(3) 0.1491(13) 0.052(9) Uiso 1 1 d . . . . .
loop_
_atom_site_aniso_label
_atom_site_aniso_U_11
_atom_site_aniso_U_22
_atom_site_aniso_U_33
_atom_site_aniso_U_23
_atom_site_aniso_U_13
_atom_site_aniso_U_12
S1 0.0324(4) 0.0309(3) 0.0277(3) -0.0020(2) -0.0003(2) -0.0040(2)
O2 0.0282(10) 0.0502(10) 0.0328(8) -0.0022(7) 0.0013(7) -0.0016(8)
O1 0.0524(13) 0.0287(8) 0.0384(9) -0.0027(7) -0.0013(8) -0.0081(8)
N4 0.0296(13) 0.0382(11) 0.0319(9) -0.0037(8) -0.0032(8) 0.0016(9)
N3 0.0343(13) 0.0326(10) 0.0362(10) -0.0017(8) 0.0029(9) 0.0047(9)
N2 0.0307(13) 0.0356(11) 0.0321(10) -0.0081(8) -0.0012(8) 0.0042(9)
N1 0.0638(19) 0.0414(13) 0.0406(12) 0.0062(10) 0.0161(12) 0.0039(13)
C1 0.0332(15) 0.0300(11) 0.0300(10) -0.0017(8) 0.0028(9) -0.0020(10)
C2 0.0493(18) 0.0324(12) 0.0385(13) -0.0009(10) 0.0077(12) 0.0079(11)
C3 0.0564(19) 0.0373(13) 0.0359(12) -0.0032(10) 0.0150(12) 0.0081(12)
C4 0.0425(16) 0.0354(12) 0.0332(11) -0.0007(9) 0.0044(10) -0.0044(11)
C5 0.0457(17) 0.0275(11) 0.0406(12) 0.0001(9) 0.0049(11) -0.0004(11)
C6 0.0386(16) 0.0276(11) 0.0355(11) -0.0048(9) 0.0064(10) -0.0021(10)
C7 0.0295(14) 0.0299(11) 0.0288(10) 0.0010(8) -0.0002(9) 0.0027(10)
C8 0.0336(16) 0.0481(15) 0.0353(12) 0.0002(10) -0.0025(11) 0.0005(11)
C9 0.0266(15) 0.0510(15) 0.0403(13) 0.0065(11) 0.0018(11) 0.0056(11)
C10 0.0367(16) 0.0358(12) 0.0381(12) 0.0069(10) 0.0080(11) 0.0064(11)
C11 0.051(2) 0.0504(16) 0.0614(19) -0.0055(14) 0.0114(15) 0.0155(14)
loop_
_atom_type_symbol
_atom_type_description
_atom_type_scat_dispersion_real
_atom_type_scat_dispersion_imag
_atom_type_scat_source
C C 0.0033 0.0016 'International Tables Vol C Tables 4.2.6.8 and 6.1.1.4'
H H 0.0000 0.0000 'International Tables Vol C Tables 4.2.6.8 and 6.1.1.4'
N N 0.0061 0.0033 'International Tables Vol C Tables 4.2.6.8 and 6.1.1.4'
O O 0.0106 0.0060 'International Tables Vol C Tables 4.2.6.8 and 6.1.1.4'
S S 0.1246 0.1234 'International Tables Vol C Tables 4.2.6.8 and 6.1.1.4'
loop_
_geom_angle_atom_site_label_1
_geom_angle_atom_site_label_2
_geom_angle_atom_site_label_3
_geom_angle
_geom_angle_site_symmetry_1
_geom_angle_site_symmetry_3
O1 S1 O2 118.72(11) . .
O1 S1 N2 109.78(11) . .
O2 S1 N2 102.29(11) . .
O1 S1 C1 108.78(10) . .
O2 S1 C1 108.58(11) . .
N2 S1 C1 108.16(11) . .
C8 N4 C7 115.1(2) . .
C7 N3 C10 115.5(2) . .
C7 N2 S1 128.37(17) . .
C7 N2 H1N2 119(2) . .
S1 N2 H1N2 112(2) . .
C4 N1 H1N1 113(2) . .
C4 N1 H2N1 117(2) . .
H1N1 N1 H2N1 122(3) . .
C2 C1 C6 119.9(2) . .
C2 C1 S1 120.15(18) . .
C6 C1 S1 119.91(18) . .
C3 C2 C1 120.0(2) . .
C3 C2 H2 120.0 . .
C1 C2 H2 120.0 . .
C2 C3 C4 121.0(2) . .
C2 C3 H3 119.5 . .
C4 C3 H3 119.5 . .
N1 C4 C3 119.6(2) . .
N1 C4 C5 122.1(2) . .
C3 C4 C5 118.3(2) . .
C6 C5 C4 120.7(2) . .
C6 C5 H5 119.7 . .
C4 C5 H5 119.7 . .
C5 C6 C1 120.1(2) . .
C5 C6 H6 119.9 . .
C1 C6 H6 119.9 . .
N3 C7 N4 127.4(2) . .
N3 C7 N2 119.4(2) . .
N4 C7 N2 113.1(2) . .
N4 C8 C9 122.7(3) . .
N4 C8 H8 118.6 . .
C9 C8 H8 118.6 . .
C8 C9 C10 117.6(3) . .
C8 C9 H9 121.2 . .
C10 C9 H9 121.2 . .
N3 C10 C9 121.6(2) . .
N3 C10 C11 116.9(2) . .
C9 C10 C11 121.5(3) . .
C10 C11 H11A 109.5 . .
C10 C11 H11B 109.5 . .
H11A C11 H11B 109.5 . .
C10 C11 H11C 109.5 . .
H11A C11 H11C 109.5 . .
H11B C11 H11C 109.5 . .
loop_
_geom_bond_atom_site_label_1
_geom_bond_atom_site_label_2
_geom_bond_distance
_geom_bond_site_symmetry_2
S1 O1 1.4305(17) .
S1 O2 1.4370(18) .
S1 N2 1.640(2) .
S1 C1 1.742(2) .
N4 C8 1.336(3) .
N4 C7 1.341(3) .
N3 C7 1.335(3) .
N3 C10 1.349(3) .
N2 C7 1.387(3) .
N2 H1N2 0.82(3) .
N1 C4 1.367(3) .
N1 H1N1 0.82(3) .
N1 H2N1 0.85(3) .
C1 C2 1.388(3) .
C1 C6 1.389(3) .
C2 C3 1.374(3) .
C2 H2 0.9300 .
C3 C4 1.399(3) .
C3 H3 0.9300 .
C4 C5 1.403(3) .
C5 C6 1.376(3) .
C5 H5 0.9300 .
C6 H6 0.9300 .
C8 C9 1.370(4) .
C8 H8 0.9300 .
C9 C10 1.380(4) .
C9 H9 0.9300 .
C10 C11 1.499(4) .
C11 H11A 0.9600 .
C11 H11B 0.9600 .
C11 H11C 0.9600 .
loop_
_geom_hbond_atom_site_label_D
_geom_hbond_atom_site_label_H
_geom_hbond_atom_site_label_A
_geom_hbond_distance_DH
_geom_hbond_distance_HA
_geom_hbond_distance_DA
_geom_hbond_angle_DHA
_geom_hbond_site_symmetry_A
C6 H6 O1 0.93 2.51 3.412(3) 162.9 8_665
C8 H8 O2 0.93 2.52 3.241(3) 134.5 5_666
C9 H9 O2 0.93 2.62 3.255(3) 125.6 1_655
N2 H1N2 N4 0.82(3) 2.11(3) 2.930(3) 178(3) 5_666
N1 H1N1 O2 0.82(3) 2.27(3) 3.087(3) 176(3) 6_656
N1 H2N1 O1 0.85(3) 2.52(3) 3.041(3) 120(2) 3_655
N1 H2N1 N3 0.85(3) 2.65(3) 3.441(3) 154(3) 3_655
loop_
_geom_torsion_atom_site_label_1
_geom_torsion_atom_site_label_2
_geom_torsion_atom_site_label_3
_geom_torsion_atom_site_label_4
_geom_torsion
_geom_torsion_site_symmetry_1
_geom_torsion_site_symmetry_2
_geom_torsion_site_symmetry_3
_geom_torsion_site_symmetry_4
O1 S1 N2 C7 47.1(2) . . . .
O2 S1 N2 C7 174.0(2) . . . .
C1 S1 N2 C7 -71.5(2) . . . .
O1 S1 C1 C2 -16.9(3) . . . .
O2 S1 C1 C2 -147.4(2) . . . .
N2 S1 C1 C2 102.3(2) . . . .
O1 S1 C1 C6 160.4(2) . . . .
O2 S1 C1 C6 29.8(2) . . . .
N2 S1 C1 C6 -80.4(2) . . . .
C6 C1 C2 C3 0.3(4) . . . .
S1 C1 C2 C3 177.5(2) . . . .
C1 C2 C3 C4 -1.7(4) . . . .
C2 C3 C4 N1 -176.5(3) . . . .
C2 C3 C4 C5 1.9(4) . . . .
N1 C4 C5 C6 177.6(3) . . . .
C3 C4 C5 C6 -0.8(4) . . . .
C4 C5 C6 C1 -0.6(4) . . . .
C2 C1 C6 C5 0.9(4) . . . .
S1 C1 C6 C5 -176.4(2) . . . .
C10 N3 C7 N4 -0.1(4) . . . .
C10 N3 C7 N2 -179.0(2) . . . .
C8 N4 C7 N3 0.7(4) . . . .
C8 N4 C7 N2 179.6(2) . . . .
S1 N2 C7 N3 -3.9(3) . . . .
S1 N2 C7 N4 177.04(17) . . . .
C7 N4 C8 C9 -0.7(4) . . . .
N4 C8 C9 C10 0.3(4) . . . .
C7 N3 C10 C9 -0.4(3) . . . .
C7 N3 C10 C11 178.4(2) . . . .
C8 C9 C10 N3 0.3(4) . . . .
C8 C9 C10 C11 -178.4(3) . . . .
