#------------------------------------------------------------------------------
#$Date: 2017-09-28 15:56:19 +0300 (Thu, 28 Sep 2017) $
#$Revision: 201424 $
#$URL: file:///home/coder/svn-repositories/cod/cif/1/54/74/1547422.cif $
#------------------------------------------------------------------------------
#
# This file is available in the Crystallography Open Database (COD),
# http://www.crystallography.net/
#
# All data on this site have been placed in the public domain by the
# contributors.
#
data_1547422
loop_
_publ_author_name
'Anuradha R. Pallipurath'
'Jonathan M. Skelton'
'Mark R. Warren'
'Naghmeh Kamali'
'Patrick McArdle'
'Andrea Erxleben'
_publ_section_title
;
 Sulfamerazine: Understanding the Influence of Slip Planes in the
 Polymorphic Phase Transformation through X-Ray Crystallographic Studies
 and ab Initio Lattice Dynamics
;
_journal_name_full               'Molecular Pharmaceutics'
_journal_page_first              3735
_journal_page_last               3748
_journal_paper_doi               10.1021/acs.molpharmaceut.5b00504
_journal_volume                  12
_journal_year                    2015
_chemical_absolute_configuration ad
_chemical_formula_moiety         'C11 H12 N4 O2 S'
_chemical_formula_sum            'C11 H12 N4 O2 S'
_chemical_formula_weight         264.31
_chemical_name_common            Sulfamerazine
_chemical_name_systematic        4-amino-N-(4-methylpyrimidin-2-yl)
_space_group_crystal_system      orthorhombic
_space_group_IT_number           33
_space_group_name_Hall           'P 2c -2n'
_space_group_name_H-M_alt        'P n a 21'
_symmetry_space_group_name_Hall  'P 2c -2n'
_symmetry_space_group_name_H-M   'P n a 21'
_atom_sites_solution_hydrogens   mixed
_cell_angle_alpha                90
_cell_angle_beta                 90
_cell_angle_gamma                90
_cell_formula_units_Z            8
_cell_length_a                   14.48520(10)
_cell_length_b                   8.20200(10)
_cell_length_c                   21.9002(3)
_cell_measurement_reflns_used    10719
_cell_measurement_temperature    240
_cell_measurement_theta_max      29.4920
_cell_measurement_theta_min      1.8010
_cell_volume                     2601.91(5)
_computing_cell_refinement
;
CrysAlisPro, Agilent Technologies,
Version 1.171.37.35 (release 13-08-2014 CrysAlis171 .NET)
(compiled Aug 13 2014,18:06:01)
;
_computing_data_collection
;
CrysAlisPro, Agilent Technologies,
Version 1.171.37.35 (release 13-08-2014 CrysAlis171 .NET)
(compiled Aug 13 2014,18:06:01)
;
_computing_data_reduction
;
CrysAlisPro, Agilent Technologies,
Version 1.171.37.35 (release 13-08-2014 CrysAlis171 .NET)
(compiled Aug 13 2014,18:06:01)
;
_computing_molecular_graphics    OSCAIL
_computing_structure_refinement  'SHELXL-2014/7 (Sheldrick, 2014)'
_computing_structure_solution    SHELXT
_diffrn_ambient_temperature      240
_diffrn_measured_fraction_theta_full 0.998
_diffrn_measured_fraction_theta_max 0.998
_diffrn_measurement_device       'CrystalLogic Kappa (3 circle)'
_diffrn_measurement_device_type  'Rigaku Saturn724+ (2x2 bin mode)'
_diffrn_measurement_method
;
omega rotation with 1 degree frames
;
_diffrn_measurement_specimen_support 'MiTeGen loop'
_diffrn_radiation_monochromator  'double crystal Silicon 111'
_diffrn_radiation_source         'Diamond Light Source Beamline I19'
_diffrn_radiation_type           Synchrotron
_diffrn_radiation_wavelength     0.68890
_diffrn_reflns_av_R_equivalents  0.0455
_diffrn_reflns_av_unetI/netI     0.0447
_diffrn_reflns_Laue_measured_fraction_full 0.998
_diffrn_reflns_Laue_measured_fraction_max 0.998
_diffrn_reflns_limit_h_max       20
_diffrn_reflns_limit_h_min       -13
_diffrn_reflns_limit_k_max       11
_diffrn_reflns_limit_k_min       -11
_diffrn_reflns_limit_l_max       27
_diffrn_reflns_limit_l_min       -31
_diffrn_reflns_number            23512
_diffrn_reflns_point_group_measured_fraction_full 0.988
_diffrn_reflns_point_group_measured_fraction_max 0.969
_diffrn_reflns_theta_full        24.415
_diffrn_reflns_theta_max         29.474
_diffrn_reflns_theta_min         1.803
_exptl_absorpt_coefficient_mu    0.249
_exptl_absorpt_correction_T_max  1.00000
_exptl_absorpt_correction_T_min  0.98405
_exptl_absorpt_process_details
;
CrysAlisPro, Agilent Technologies,
Version 1.171.36.28 (release 01-02-2013 CrysAlis171 .NET)
Empirical absorption correction using spherical harmonics,
implemented in SCALE3 ABSPACK scaling algorithm.
;
_exptl_crystal_colour            Colourless
_exptl_crystal_density_diffrn    1.349
_exptl_crystal_description       Parallelepiped
_exptl_crystal_F_000             1104
_exptl_crystal_size_max          0.50
_exptl_crystal_size_mid          0.40
_exptl_crystal_size_min          0.20
_refine_diff_density_max         0.256
_refine_diff_density_min         -0.307
_refine_diff_density_rms         0.046
_refine_ls_abs_structure_details
;
 Flack x determined using 2253 quotients [(I+)-(I-)]/[(I+)+(I-)]
 (Parsons, Flack and Wagner, Acta Cryst. B69 (2013) 249-259).
;
_refine_ls_abs_structure_Flack   -0.02(5)
_refine_ls_extinction_coef       .
_refine_ls_extinction_method     none
_refine_ls_goodness_of_fit_ref   1.035
_refine_ls_hydrogen_treatment    mixed
_refine_ls_matrix_type           full
_refine_ls_number_parameters     344
_refine_ls_number_reflns         7694
_refine_ls_number_restraints     1
_refine_ls_restrained_S_all      1.035
_refine_ls_R_factor_all          0.0644
_refine_ls_R_factor_gt           0.0473
_refine_ls_shift/su_max          0.087
_refine_ls_shift/su_mean         0.003
_refine_ls_structure_factor_coef Fsqd
_refine_ls_weighting_details
'w=1/[\s^2^(Fo^2^)+(0.0541P)^2^+0.3587P] where P=(Fo^2^+2Fc^2^)/3'
_refine_ls_weighting_scheme      calc
_refine_ls_wR_factor_gt          0.1115
_refine_ls_wR_factor_ref         0.1250
_reflns_Friedel_coverage         0.896
_reflns_Friedel_fraction_full    0.977
_reflns_Friedel_fraction_max     0.938
_reflns_number_gt                6081
_reflns_number_total             7694
_reflns_threshold_expression     'I > 2\s(I)'
_cod_data_source_file            Exp_Form-I2FSynchrotron_Form-I_240K.cif
_cod_data_source_block           240k_smz-f1_a
_cod_database_code               1547422
_shelx_space_group_comment
;
The symmetry employed for this shelxl refinement is uniquely defined
by the following loop, which should always be used as a source of
symmetry information in preference to the above space-group names.
They are only intended as comments.
;
_shelx_estimated_absorpt_t_min   0.886
_shelx_estimated_absorpt_t_max   0.952
_shelx_res_file
;
    240k_smz-f1_a.res created by SHELXL-2014/7
TITL 240k_smz-f1_a.res in Pna2(1)
REM Old TITL 008_240K_SulfamerazineF1_ in Pna2(1)
REM SHELXT solution in Pna2(1)
REM R1 0.102,  Rweak 0.018,  Alpha 0.003,  Orientation as input
REM Flack x =  0.096 ( 0.041 ) from Parsons' quotients
REM Formula found by SHELXT:  C26 N4 O4 S2
CELL  0.68890  14.4852   8.2020  21.9002   90.000   90.000   90.000
ZERR    8.000   0.0001   0.0001   0.0003    0.000    0.000    0.000
REM SG 33 4 4 Pna21 PGmm2 Orthorhombic
LATT -1
REM SG  ASUN  1  .5 .5 1.
REM SG  ORGN  on 2(1)
SYMM -X,-Y,0.5+Z
SYMM 0.5+X,0.5-Y,Z
SYMM 0.5-X,0.5+Y,0.5+Z
SFAC C H N O S
UNIT 88.00 96.00 32.00 16.00 8.00
L.S. 10
SIZE    0.50  0.40  0.20
BOND $H
FMAP 2
PLAN 20
ACTA
CONF
EQIV $1 x, y-1, z
HTAB N5 O4_$1
EQIV $2 -x+3/2, y+1/2, z-1/2
HTAB N1 O4_$2
EQIV $3 x, y+1, z
HTAB N1 O1_$3
HTAB N2 N8
HTAB N6 N4
LIST 4
WGHT    0.054100    0.358700
FVAR       0.51921   0.35344
S1    5    0.645917    0.495395    0.344157    11.00000    0.03025    0.03460 =
         0.03191    0.00290   -0.00166   -0.00206
S2    5    0.577794    0.496023    0.652622    11.00000    0.02915    0.03427 =
         0.03075    0.00350   -0.00103   -0.00193
O1    4    0.689182    0.370897    0.308725    11.00000    0.04834    0.03472 =
         0.04350   -0.00473    0.00144   -0.00175
O2    4    0.548844    0.522325    0.337567    11.00000    0.03175    0.05187 =
         0.04143    0.00770   -0.00621   -0.00528
O3    4    0.675261    0.468448    0.658964    11.00000    0.03068    0.05090 =
         0.03924    0.00674   -0.00552   -0.00294
O4    4    0.535505    0.623051    0.687424    11.00000    0.04537    0.03465 =
         0.04404   -0.00377   -0.00070   -0.00206
N1    3    0.842196    1.116457    0.312299    11.00000    0.04336    0.03517 =
         0.06661   -0.00845    0.01972   -0.00605
N2    3    0.655146    0.448715    0.417076    11.00000    0.02716    0.04925 =
         0.03449    0.00787    0.00071    0.00009
N3    3    0.814502    0.409075    0.417463    11.00000    0.03046    0.04118 =
         0.04222    0.00380   -0.00032    0.00300
N4    3    0.727995    0.429198    0.509514    11.00000    0.03671    0.08403 =
         0.03488    0.00731   -0.00138    0.01246
N5    3    0.380219   -0.119738    0.695412    11.00000    0.05311    0.03610 =
         0.09436   -0.00405    0.01783   -0.00875
AFIX  93
H5A   2    0.323703   -0.118244    0.707430    11.00000   -1.30000
H5B   2    0.407569   -0.211273    0.689118    11.00000   -1.30000
AFIX   0
N6    3    0.568212    0.538358    0.579390    11.00000    0.02876    0.05618 =
         0.03285    0.01111    0.00159    0.00225
N7    3    0.409776    0.585730    0.579891    11.00000    0.03044    0.04405 =
         0.04175    0.00203    0.00242    0.00432
N8    3    0.495984    0.565986    0.487615    11.00000    0.03852    0.07738 =
         0.03815    0.00691   -0.00285    0.01298
C1    1    0.704591    0.677651    0.334172    11.00000    0.02927    0.03468 =
         0.02860    0.00214   -0.00050    0.00079
C2    1    0.794650    0.679588    0.310585    11.00000    0.03053    0.03445 =
         0.02916    0.00092    0.00186    0.00388
AFIX  43
H2    2    0.823572    0.582581    0.299749    11.00000   -1.30000
AFIX   0
C3    1    0.839796    0.825527    0.303605    11.00000    0.02849    0.03815 =
         0.03091   -0.00108    0.00434   -0.00001
AFIX  43
H3    2    0.899760    0.826357    0.288433    11.00000   -1.30000
AFIX   0
C4    1    0.797294    0.972725    0.318876    11.00000    0.03265    0.03545 =
         0.03173   -0.00367    0.00098   -0.00229
C5    1    0.706707    0.969422    0.342593    11.00000    0.03458    0.03490 =
         0.04200   -0.00253    0.00488    0.00424
AFIX  43
H5    2    0.677522    1.066326    0.353250    11.00000   -1.30000
AFIX   0
C6    1    0.661329    0.822851    0.350012    11.00000    0.03118    0.03962 =
         0.04066   -0.00089    0.00730    0.00323
AFIX  43
H6    2    0.601645    0.821219    0.365651    11.00000   -1.30000
AFIX   0
C7    1    0.737015    0.428720    0.449242    11.00000    0.02939    0.03688 =
         0.03877    0.00742   -0.00150    0.00224
C8    1    0.806496    0.404534    0.540639    11.00000    0.04875    0.12591 =
         0.04018    0.00340   -0.00749    0.02521
AFIX  43
H8    2    0.804190    0.402352    0.583069    11.00000   -1.30000
AFIX   0
C9    1    0.889600    0.382518    0.512512    11.00000    0.03773    0.10822 =
         0.05241   -0.00216   -0.01175    0.01990
AFIX  43
H9    2    0.942943    0.364021    0.535107    11.00000   -1.30000
AFIX   0
C10   1    0.892208    0.388460    0.449863    11.00000    0.03336    0.04860 =
         0.05831    0.00155    0.00036    0.00747
C11   1    0.979030    0.369514    0.414060    11.00000    0.03568    0.07600 =
         0.07580   -0.00513    0.00546    0.00931
AFIX 137
H11A  2    0.981939    0.261371    0.397403    11.00000   -1.30000
H11B  2    1.031171    0.387317    0.440285    11.00000   -1.30000
H11C  2    0.979913    0.447650    0.381428    11.00000   -1.30000
AFIX   0
C12   1    0.518944    0.315997    0.665846    11.00000    0.02825    0.03115 =
         0.03160   -0.00019    0.00229   -0.00035
C13   1    0.563381    0.168012    0.655608    11.00000    0.03226    0.03431 =
         0.05466    0.00054    0.00824    0.00449
AFIX  43
H13   2    0.624116    0.167063    0.641844    11.00000   -1.30000
AFIX   0
C14   1    0.518148    0.023612    0.665693    11.00000    0.04082    0.03332 =
         0.06351   -0.00235    0.00878    0.00531
AFIX  43
H14   2    0.548453   -0.074641    0.658801    11.00000   -1.30000
AFIX   0
C15   1    0.426499    0.023135    0.686330    11.00000    0.04270    0.03409 =
         0.04199   -0.00160    0.00309   -0.00252
C16   1    0.382169    0.172404    0.696536    11.00000    0.03324    0.03781 =
         0.03093   -0.00367    0.00542   -0.00152
AFIX  43
H16   2    0.321321    0.173852    0.710075    11.00000   -1.30000
AFIX   0
C17   1    0.428194    0.317461    0.686633    11.00000    0.03120    0.03147 =
         0.03387   -0.00194    0.00201    0.00149
AFIX  43
H17   2    0.398520    0.416140    0.693862    11.00000   -1.30000
AFIX   0
C18   1    0.486565    0.565118    0.548276    11.00000    0.03248    0.04137 =
         0.03266    0.00384   -0.00013    0.00184
C19   1    0.418330    0.597495    0.456969    11.00000    0.04825    0.12403 =
         0.03751    0.00296   -0.00797    0.02636
AFIX  43
H19   2    0.420714    0.600768    0.414551    11.00000   -1.30000
AFIX   0
C20   1    0.335583    0.625138    0.484970    11.00000    0.04116    0.11159 =
         0.05523   -0.00431   -0.01182    0.02824
AFIX  43
H20   2    0.283067    0.650054    0.462394    11.00000   -1.30000
AFIX   0
C21   1    0.332339    0.614933    0.547848    11.00000    0.03473    0.05681 =
         0.04973   -0.00538   -0.00326    0.00982
C22   1    0.245659    0.635423    0.583668    11.00000    0.03482    0.08908 =
         0.07683   -0.00432    0.00378    0.01223
AFIX 137
H22A  2    0.247629    0.737088    0.605349    11.00000   -1.30000
H22B  2    0.239797    0.547357    0.612280    11.00000   -1.30000
H22C  2    0.193705    0.635024    0.556453    11.00000   -1.30000
AFIX   0
H1N1  2    0.890524    1.120650    0.291833    11.00000    0.05482
H2N1  2    0.811647    1.200289    0.314700    11.00000    0.05971
H1N2  2    0.617611    0.479627    0.437569    11.00000    0.03139
H1N6  2    0.617440    0.500931    0.561374    11.00000    0.07601
HKLF 4
REM  240k_smz-f1_a.res in Pna2(1)
REM R1 =  0.0473 for    6081 Fo > 4sig(Fo)  and  0.0644 for all    7694 data
REM    344 parameters refined using      1 restraints
END
WGHT      0.0484      0.4605
REM Highest difference peak  0.256,  deepest hole -0.307,  1-sigma level  0.046
Q1    1   0.5453  0.3981  0.6552  11.00000  0.05    0.26
Q2    1   0.6804  0.5922  0.3444  11.00000  0.05    0.23
Q3    1   0.8078  0.7698  0.3006  11.00000  0.05    0.20
Q4    1   0.6847  0.3849  0.5281  11.00000  0.05    0.18
Q5    1   0.5419  0.2559  0.6516  11.00000  0.05    0.18
Q6    1   0.6989  0.4305  0.3388  11.00000  0.05    0.18
Q7    1   0.5882  0.4963  0.3421  11.00000  0.05    0.18
Q8    1   0.2705  0.5694  0.4706  11.00000  0.05    0.18
Q9    1   0.5927  0.5428  0.3422  11.00000  0.05    0.18
Q10   1   0.4226  0.2311  0.6980  11.00000  0.05    0.18
Q11   1   0.7578  0.9655  0.3416  11.00000  0.05    0.17
Q12   1   0.4767  0.0287  0.6914  11.00000  0.05    0.17
Q13   1   0.4672  0.5204  0.4794  11.00000  0.05    0.17
Q14   1   0.7563  0.7042  0.3299  11.00000  0.05    0.17
Q15   1   0.5415  0.6107  0.3454  11.00000  0.05    0.17
Q16   1   0.2590  0.6304  0.6303  11.00000  0.05    0.17
Q17   1   0.4677  0.3178  0.6564  11.00000  0.05    0.17
Q18   1   0.6339  0.4558  0.6580  11.00000  0.05    0.16
Q19   1   0.4448  0.8466  0.4777  11.00000  0.05    0.16
Q20   1   0.7229  0.4763  0.4882  11.00000  0.05    0.16
;
_shelx_res_checksum              61930
_shelx_hkl_file
;
   0   0 -29    5.76    5.02
   0   0 -28  248.52   19.12
   0   0 -27    1.40    1.85
   0   0 -26  553.97   27.56
   0   0 -25    0.60    1.91
   0   0 -24    0.81    2.35
   0   0 -23    0.93    1.54
   0   0 -22   47.80    7.84
   0   0 -21    0.46    2.38
   0   0 -20  631.47   26.49
   0   0 -19    1.74    3.14
   0   0 -18   59.57    7.60
   0   0 -17    0.93    1.20
   0   0 -16  350.54   17.58
   0   0 -15   -1.07    0.88
   0   0 -14   61.19    6.84
   0   0 -13    1.08    2.25
   0   0 -12 3892.45   50.36
   0   0 -11    0.70    1.30
   0   0 -10  415.49   14.98
   0   0  -9    0.62    1.14
   0   0  -7    0.87    0.69
   0   0  -5    1.35    0.81
   0   0  -4 4370.10   31.09
   0   0  -3    2.42    0.77
   0   0  -2  188.02    4.54
   0   0   4 4418.84   23.33
   0   0   5    0.19    0.29
   0   0   7    0.01    0.73
   0   0   9    0.19    0.44
   0   0  10  413.47   11.32
   0   0  11    0.62    0.34
   0   0  12 3938.34   38.22
   0   0  13   -0.33    0.53
   0   0  14   58.84    5.10
   0   0  15   -1.26    1.40
   0   0  16  376.47   13.99
   0   0  17    0.30    1.01
   0   0  17   -0.70    0.85
   0   0  18   66.73    6.28
   0   0  19   -0.01    1.11
   0  -1 -31   12.95    5.50
   0  -1 -30    2.48    3.90
   0  -1 -29   -1.03    3.21
   0  -1 -28    1.01    1.91
   0  -1 -27    3.97    3.40
   0  -1 -26    2.56    3.17
   0   1 -26   -0.92    2.25
   0   1 -25    2.80    2.71
   0  -1 -25    4.09    1.37
   0  -1 -24   -1.02    1.19
   0   1 -24   -1.56    1.34
   0  -1 -23    6.07    2.97
   0   1 -23    1.84    2.62
   0  -1 -22    1.06    2.30
   0   1 -22   -1.62    2.01
   0  -1 -21  121.91   11.67
   0   1 -21  122.81   11.65
   0   1 -20   -0.23    1.90
   0  -1 -20    0.14    1.81
   0  -1 -19   23.20    5.51
   0   1 -19   26.42    5.44
   0  -1 -18    1.72    1.55
   0   1 -18    1.08    2.23
   0  -1 -17   20.47    4.64
   0   1 -17   23.94    4.71
   0   1 -16   -0.85    1.80
   0  -1 -16   -0.89    1.14
   0  -1 -15   76.40    7.91
   0   1 -15   80.78    7.89
   0   1 -14    1.41    2.19
   0  -1 -14   -0.33    1.10
   0   1 -13  139.61    9.84
   0  -1 -13  147.98   10.65
   0   1 -12   -1.53    1.08
   0  -1 -12    0.91    1.28
   0  -1 -11   56.29    6.15
   0   1 -11   51.33    5.42
   0   1 -10    0.34    0.65
   0  -1 -10    0.70    0.80
   0   1  -9 1803.16   28.65
   0  -1  -9 1790.47   31.18
   0   1  -9 1729.60   17.37
   0   1  -8   -0.62    1.07
   0   1  -8   -0.26    0.25
   0  -1  -8   -0.26    0.54
   0  -1  -7 1610.67   26.39
   0   1  -7 1661.46   15.84
   0   1  -7 1642.68   23.48
   0   1  -6    0.04    0.23
   0   1  -6    0.41    0.57
   0  -1  -6   -0.37    0.63
   0   1  -5 2878.08   25.38
   0  -1  -5 2874.17   28.53
   0  -1  -5 2966.01   31.26
   0   1  -5 2932.06   20.18
   0  -1  -4   -0.05    0.40
   0   1  -4    0.11    0.39
   0  -1  -4    0.33    0.44
   0   1  -4    0.00    0.44
   0   1  -3 1358.03   14.00
   0  -1  -3 1327.23   17.33
   0  -1  -2   -0.16    0.31
   0   1  -2   -0.12    0.26
   0  -1  -2    0.68    0.26
   0   1  -1  502.97    8.83
   0  -1  -1  509.46    9.51
   0  -1   0    0.34    0.56
   0   1   0    0.08    0.35
   0  -1   1  502.63    8.14
   0   1   1  510.87    9.53
   0   1   2    0.09    0.28
   0  -1   2    0.00    0.20
   0  -1   5 2848.29   17.22
   0  -1   6    0.23    0.24
   0  -1   7 1626.07   14.87
   0   1   8    1.07    0.64
   0  -1   8    0.51    0.43
   0  -1   9 1770.33   18.17
   0   1   9 1825.02   27.29
   0  -1  10    0.08    0.38
   0   1  10   -0.13    0.94
   0  -1  11   50.02    3.39
   0   1  11   58.22    5.26
   0   1  12    2.01    1.21
   0  -1  12    0.44    0.38
   0   1  13  145.49    8.83
   0  -1  13  152.85    6.71
   0   1  14   -0.26    1.28
   0  -1  14   -0.23    0.88
   0   1  15   77.18    5.81
   0  -1  15   77.19    5.15
   0   1  15   87.18    7.30
   0   1  16    1.06    1.33
   0   1  16   -0.02    0.54
   0  -1  16   -0.23    0.54
   0  -1  17   21.26    2.90
   0   1  17   23.02    3.88
   0   1  17   17.19    2.70
   0   1  18   -0.40    1.10
   0   1  18   -0.21    1.05
   0   1  19   14.47    3.77
   0   1  20    1.30    2.58
   0  -2 -30   99.70   12.63
   0  -2 -29    7.01    4.83
   0  -2 -28   31.94    6.83
   0  -2 -27   -2.27    1.76
   0  -2 -26  183.15   16.11
   0  -2 -25   -1.86    2.16
   0  -2 -24    7.99    3.65
   0  -2 -23    2.85    1.50
   0  -2 -22  129.56   12.82
   0  -2 -21   -0.47    2.18
   0  -2 -20  165.01   13.56
   0  -2 -19    0.71    2.53
   0   2 -19    2.85    0.89
   0   2 -18   64.08    7.63
   0  -2 -18   77.91    8.97
   0   2 -17   -0.34    0.96
   0  -2 -17    0.21    1.24
   0   2 -16  889.50   26.63
   0  -2 -16  907.12   29.09
   0   2 -15    0.03    0.84
   0  -2 -15    0.64    1.01
   0   2 -14  317.12    9.49
   0   2 -14  340.37   15.32
   0  -2 -14  328.36   16.79
   0   2 -13    0.99    0.90
   0   2 -13    0.43    0.69
   0  -2 -13   -0.40    1.64
   0   2 -12 1771.14   31.64
   0  -2 -12 1701.19   36.41
   0   2 -12 1763.68   22.65
   0   2 -11   -0.10    0.58
   0  -2 -11   -0.88    1.30
   0   2 -11    0.83    1.10
   0   2 -10 2259.30   25.08
   0   2 -10 2201.43   31.92
   0  -2 -10 2234.09   38.36
   0  -2  -9    1.15    1.24
   0   2  -9    0.69    0.92
   0   2  -8  176.47    7.05
   0  -2  -8  151.20    9.05
   0  -2  -7   -0.24    0.89
   0   2  -7    1.26    0.92
   0  -2  -7    0.10    0.85
   0  -2  -6 1722.86   28.28
   0  -2  -6 1752.95   28.36
   0   2  -6 1746.35   22.47
   0  -2  -5    0.24    0.64
   0   2  -5    0.55    0.81
   0  -2  -5    0.76    0.96
   0  -2  -4 1688.05   26.12
   0   2  -4 1754.18   22.75
   0  -2  -4 1737.00   25.19
   0  -2  -3    1.16    0.64
   0  -2  -3   -0.43    0.82
   0   2  -3   -0.51    0.81
   0  -2  -2  658.04   15.38
   0  -2  -2  667.41   13.19
   0   2  -2  653.66   14.28
   0   2  -1    0.18    0.64
   0  -2  -1    0.61    0.66
   0  -2  -1   -0.28    0.50
   0  -2   1    2.10    0.72
   0   2   1    1.45    0.63
   0  -2   1    0.07    0.48
   0   2   2  655.89   15.16
   0  -2   2  669.41    8.96
   0   2   3   -0.16    0.81
   0  -2   3    1.42    0.74
   0  -2   4 1763.86   19.71
   0   2   4 1809.67   26.16
   0  -2   5   -0.23    0.48
   0   2   5    0.69    0.83
   0  -2   6 1826.71   19.13
   0   2   6 1689.27   26.36
   0   2   7    1.53    0.75
   0  -2   7    0.21    0.56
   0   2   8  153.55    8.19
   0  -2   8  165.41    5.67
   0   2   9    1.66    0.85
   0  -2   9    0.40    0.27
   0   2  10 2183.27   32.55
   0  -2  10 2206.75   20.57
   0  -2  11    0.89    0.58
   0   2  11    0.25    0.81
   0   2  11   -0.78    1.04
   0  -2  12 1736.20   19.10
   0   2  12 1810.32   34.27
   0   2  12 1810.34   30.97
   0   2  13   -0.26    1.24
   0   2  13    1.17    1.80
   0  -2  13    0.48    0.61
   0   2  14  351.56   14.21
   0   2  14  338.81   15.71
   0  -2  14  306.83    8.59
   0  -2  15   -0.04    0.36
   0   2  15    0.71    1.59
   0   2  15    0.29    0.75
   0   2  16  839.50   23.24
   0   2  16  839.66   25.65
   0   2  17   -0.94    0.92
   0   2  17   -0.37    0.94
   0   2  18   71.70    7.98
   0   2  18   73.67    7.16
   0   2  19   -0.31    1.58
   0   2  19    2.48    2.21
   0   2  20  143.70   11.70
   0   2  21   -2.74    1.82
   0   2  22   83.01    9.77
   0  -3 -30    0.55    2.34
   0  -3 -29    2.86    2.66
   0  -3 -28   -1.15    2.16
   0  -3 -27   13.35    4.61
   0  -3 -26   -0.86    1.71
   0  -3 -25    3.36    2.55
   0  -3 -24   -0.79    1.86
   0  -3 -23    5.73    3.98
   0  -3 -22   -2.32    2.04
   0  -3 -21  100.62   10.91
   0  -3 -20    2.68    2.72
   0  -3 -19  142.71   12.94
   0  -3 -18   -0.57    1.14
   0  -3 -17   52.82    7.34
   0  -3 -16   -1.65    3.23
   0  -3 -15  128.04   11.18
   0  -3 -14    2.39    1.89
   0   3 -14   -0.73    0.84
   0   3 -13  141.22    7.78
   0  -3 -13  138.35   10.71
   0   3 -12    0.28    0.77
   0  -3 -12    2.92    1.10
   0  -3 -11  135.41   10.15
   0   3 -11  142.67    7.86
   0   3 -10    0.31    0.82
   0  -3 -10    0.36    0.81
   0   3  -9 2889.34   35.62
   0  -3  -9 2788.76   43.87
   0  -3  -9 2829.04   43.91
   0   3  -8   -0.30    0.92
   0  -3  -8   -0.24    1.02
   0  -3  -8    0.71    1.66
   0  -3  -7   14.80    2.94
   0  -3  -7   15.23    3.42
   0   3  -7   13.71    2.35
   0  -3  -6   -0.23    0.67
   0  -3  -6    1.11    1.24
   0   3  -6    0.12    0.58
   0   3  -5  612.92   16.79
   0  -3  -5  627.56   18.91
   0  -3  -5  574.79   16.70
   0  -3  -4   -0.76    1.21
   0  -3  -4   -0.26    0.37
   0   3  -4   -0.67    0.78
   0   3  -3  785.85   19.25
   0  -3  -3  788.59   20.20
   0  -3  -3  754.45   17.33
   0   3  -2   -0.73    0.98
   0  -3  -2    0.02    0.34
   0  -3  -2    0.68    0.76
   0   3  -1 1613.83   28.12
   0  -3  -1 1518.88   21.11
   0  -3  -1 1582.71   27.49
   0   3   0   -0.67    1.29
   0  -3   0    1.38    1.18
   0  -3   0    0.48    0.70
   0  -3   1 1642.23   18.94
   0   3   1 1610.75   28.34
   0  -3   1 1633.38   26.63
   0  -3   2   -0.44    0.71
   0  -3   2    0.60    0.61
   0   3   2    0.08    0.85
   0  -3   3  835.67   18.12
   0  -3   3  826.59   11.95
   0   3   3  802.48   20.59
   0  -3   4    0.21    0.23
   0  -3   4    0.60    0.57
   0   3   4    0.73    1.18
   0   3   5  622.88   18.60
   0  -3   5  617.08   15.04
   0   3   6   -0.53    1.33
   0  -3   6    0.27    0.65
   0  -3   7   16.37    2.30
   0   3   7   18.54    3.57
   0  -3   8    0.35    0.77
   0   3   8    0.75    1.59
   0   3   9 2808.28   41.73
   0  -3   9 2829.25   29.29
   0   3  10   -0.38    0.66
   0  -3  10   -0.61    0.41
   0  -3  11  140.76    6.16
   0   3  11  137.41    9.57
   0   3  12   -0.49    1.35
   0  -3  12   -0.29    0.33
   0  -3  13  128.80    5.69
   0   3  13  166.06   11.73
   0   3  13  147.98   10.19
   0   3  14    1.26    1.71
   0   3  14    1.55    1.21
   0  -3  14   -0.02    0.59
   0   3  15   94.01    9.16
   0   3  15  125.09    9.75
   0   3  16    1.16    1.83
   0   3  16    0.01    1.11
   0   3  17   52.85    6.87
   0   3  17   43.33    6.29
   0   3  18    2.92    2.18
   0   3  18    0.98    2.62
   0   3  19  119.01   10.21
   0   3  19  113.08   10.82
   0   3  20    0.94    2.47
   0   3  21   86.35    9.96
   0   3  22    1.38    2.12
   0   3  23    4.13    2.52
   0  -4 -29    2.39    3.06
   0  -4 -28    3.43    1.40
   0  -4 -27    0.69    2.04
   0  -4 -26   68.60   10.01
   0  -4 -25   -1.29    1.99
   0  -4 -24    1.90    3.71
   0  -4 -23    1.30    1.91
   0  -4 -22  276.04   18.96
   0  -4 -21    1.68    2.29
   0  -4 -20   38.09    6.72
   0  -4 -19   -0.17    1.23
   0  -4 -18  177.02   14.15
   0  -4 -17    6.29    4.20
   0  -4 -16  875.38   30.54
   0  -4 -15    3.59    2.35
   0   4 -14  195.52   11.15
   0  -4 -14  198.23   14.12
   0  -4 -13   -1.63    1.87
   0   4 -13    3.29    1.54
   0  -4 -12  780.07   26.37
   0   4 -12  767.74   21.50
   0  -4 -11    0.31    2.03
   0   4 -11    1.12    1.48
   0  -4 -10 2078.65   41.60
   0   4 -10 2050.05   35.46
   0  -4 -10 2097.66   40.99
   0  -4  -9    0.12    1.16
   0   4  -9    0.67    1.21
   0  -4  -9    1.98    1.64
   0  -4  -8  575.30   21.37
   0  -4  -8  540.18   19.60
   0   4  -8  593.94   19.14
   0   4  -7    1.18    0.89
   0  -4  -7   -0.91    1.60
   0  -4  -7    0.17    0.83
   0  -4  -6 1057.24   25.37
   0  -4  -6 1074.81   27.95
   0   4  -6 1053.59   25.55
   0  -4  -5    1.39    1.68
   0   4  -5    0.33    1.57
   0  -4  -5   -0.77    1.10
   0   4  -4 2080.13   36.47
   0  -4  -4 2141.47   38.36
   0  -4  -3    1.93    1.56
   0  -4  -3    0.77    1.12
   0   4  -3    0.99    1.03
   0  -4  -2  627.25   16.53
   0  -4  -2  605.60   19.67
   0   4  -2  591.76   19.33
   0  -4  -1   -0.49    0.56
   0   4  -1    0.80    1.42
   0  -4  -1   -0.45    0.72
   0  -4   0  301.76   13.57
   0  -4   0  298.58    9.91
   0   4   0  299.81   13.94
   0  -4   1    0.91    0.89
   0  -4   1    1.08    1.53
   0   4   1   -0.27    0.88
   0   4   2  588.27   19.92
   0  -4   2  599.50   18.34
   0  -4   2  565.18   12.19
   0   4   3    0.48    1.57
   0  -4   3   -0.04    0.37
   0  -4   3    1.12    1.51
   0   4   4 2181.61   38.89
   0  -4   4 2099.63   33.70
   0  -4   4 2163.19   21.62
   0  -4   5    0.51    0.81
   0   4   5    0.64    1.74
   0  -4   5    2.40    1.41
   0  -4   6 1054.74   15.74
   0   4   6 1023.70   27.11
   0  -4   6 1056.59   22.73
   0  -4   7   -0.67    0.79
   0   4   7    1.38    2.14
   0  -4   8  552.95   16.14
   0   4   8  585.83   20.95
   0   4   9    0.97    1.97
   0  -4   9    1.39    0.96
   0  -4  10 2142.09   30.02
   0   4  10 2110.12   40.79
   0  -4  11   -0.54    0.82
   0   4  11    0.34    1.39
   0   4  12  822.68   26.30
   0   4  13   -0.53    1.64
   0  -4  13    0.68    0.74
   0   4  14  176.31   12.55
   0   4  14  189.88   13.84
   0   4  15    1.79    1.26
   0   4  15    0.41    1.69
   0   4  16  807.69   29.17
   0   4  16  809.67   28.10
   0   4  17   -1.85    1.73
   0   4  17   -0.99    1.48
   0   4  18  175.97   14.19
   0   4  18  172.27   13.37
   0   4  19    1.26    2.00
   0   4  19   -0.34    1.29
   0   4  20   47.21    7.34
   0   4  20   46.44    7.58
   0   4  21    1.78    1.89
   0   4  22  328.10   20.67
   0   4  23    0.22    3.31
   0   4  24   -0.34    2.58
   0  -5 -28   -0.10    3.12
   0  -5 -27    5.67    3.34
   0  -5 -26    3.83    4.31
   0  -5 -25    0.66    1.43
   0  -5 -24   -0.60    2.43
   0  -5 -23   22.44    6.06
   0  -5 -22   -3.84    2.51
   0  -5 -21    7.36    3.83
   0  -5 -20    4.22    2.66
   0  -5 -19    8.28    2.59
   0  -5 -18   -2.16    2.32
   0  -5 -17    6.99    3.00
   0  -5 -16    0.78    1.22
   0  -5 -15   12.51    3.51
   0  -5 -14   -2.29    3.33
   0   5 -13   44.10    5.69
   0  -5 -13   42.63    6.69
   0   5 -12    0.78    1.62
   0  -5 -12   -1.67    1.50
   0   5 -11   11.46    3.16
   0  -5 -11   18.39    4.30
   0  -5 -10    2.13    2.27
   0   5 -10   -1.52    1.00
   0  -5 -10    0.78    1.88
   0   5  -9    1.63    1.81
   0  -5  -9    4.06    1.86
   0  -5  -9    2.77    1.76
   0   5  -8    1.35    1.32
   0  -5  -8    0.77    1.67
   0  -5  -8    0.03    1.15
   0  -5  -7  128.70   10.56
   0   5  -7  147.42   10.73
   0  -5  -7  138.43   10.04
   0  -5  -6   -0.52    1.14
   0  -5  -6    0.54    2.02
   0   5  -6   -1.38    1.88
   0  -5  -5  181.66   10.85
   0  -5  -5  158.74   11.47
   0   5  -5  171.25   11.67
   0  -5  -4    0.29    0.78
   0   5  -4    0.65    0.69
   0  -5  -4   -1.10    2.40
   0  -5  -3  198.01   12.67
   0   5  -3  199.05   12.46
   0  -5  -3  196.29   10.62
   0  -5  -2    0.74    0.61
   0  -5  -2   -0.17    1.26
   0   5  -2   -0.89    1.65
   0  -5  -1   59.04    6.71
   0  -5  -1   55.51    5.16
   0   5  -1   50.09    6.19
   0   5   0   -0.16    0.95
   0  -5   0    0.20    0.81
   0  -5   0   -1.41    1.23
   0  -5   1   48.83    4.33
   0  -5   1   45.97    5.95
   0   5   1   39.73    5.49
   0  -5   2    0.51    1.02
   0   5   2    1.61    2.81
   0  -5   2   -0.61    1.09
   0  -5   3  194.61   11.52
   0  -5   3  202.48    7.71
   0   5   3  211.29   13.26
   0   5   4    0.04    0.87
   0  -5   4    1.05    0.58
   0  -5   4    0.01    0.39
   0  -5   5  181.39   11.01
   0   5   5  178.43   12.52
   0  -5   5  159.98    6.41
   0  -5   6    1.17    1.47
   0  -5   6   -0.28    0.46
   0   5   6   -0.17    1.27
   0   5   7  129.71   10.92
   0  -5   7  132.42    9.07
   0  -5   7  121.69    5.61
   0  -5   8   -0.24    0.56
   0   5   8   -1.30    1.83
   0  -5   8   -1.42    1.25
   0  -5   9    2.08    1.15
   0  -5   9    2.34    1.07
   0   5   9    2.25    1.38
   0  -5  10    0.55    1.75
   0   5  10   -0.60    2.68
   0  -5  11   19.71    3.72
   0   5  11   25.18    4.79
   0   5  12    0.36    1.90
   0  -5  12    1.50    0.82
   0   5  13   45.86    6.84
   0   5  14    0.73    1.73
   0   5  15   12.25    3.83
   0   5  15    6.78    3.32
   0   5  16   -1.37    2.42
   0   5  16    2.69    2.30
   0   5  17    6.33    3.84
   0   5  17    6.00    2.49
   0   5  18   -1.54    1.95
   0   5  18   -1.52    2.63
   0   5  19    8.37    3.49
   0   5  19    8.55    3.81
   0   5  20   -2.57    2.04
   0   5  20   -1.70    2.25
   0   5  21    4.29    3.06
   0   5  21    7.21    2.67
   0   5  22    4.30    3.80
   0   5  23   32.52    6.98
   0   5  24    3.24    3.07
   0   5  25    9.06    4.61
   0  -6 -26   98.08   12.85
   0  -6 -25   -2.52    2.23
   0  -6 -24   25.72    6.21
   0  -6 -23   -4.29    3.80
   0  -6 -22  203.34   16.99
   0  -6 -21    2.46    1.60
   0  -6 -20  100.55   11.41
   0  -6 -19    3.09    3.17
   0  -6 -18   -1.98    2.24
   0  -6 -17   -3.14    3.11
   0  -6 -16  219.41   16.59
   0  -6 -15    3.66    1.40
   0  -6 -14    6.45    3.60
   0  -6 -13    1.34    2.45
   0   6 -13   -2.48    1.30
   0  -6 -12  257.20   16.51
   0   6 -12  253.89   15.74
   0  -6 -11    0.14    1.95
   0   6 -11    1.29    2.78
   0  -6 -10  370.47   18.75
   0   6 -10  334.53   17.93
   0  -6 -10  326.17   18.64
   0   6  -9    1.65    2.30
   0  -6  -9   -1.03    2.32
   0  -6  -9   -1.84    2.60
   0  -6  -8   50.58    6.75
   0  -6  -8   36.16    6.11
   0   6  -8   44.40    6.90
   0   6  -7    3.34    2.29
   0  -6  -7   -0.39    1.18
   0  -6  -7    1.56    2.68
   0  -6  -6 2036.19   40.61
   0  -6  -6 2085.40   46.21
   0   6  -6 2185.93   45.19
   0  -6  -5    0.06    1.05
   0   6  -5    1.51    2.11
   0  -6  -4  879.18   29.02
   0  -6  -4  941.66   25.76
   0   6  -4  908.80   29.47
   0   6  -3    0.79    0.94
   0  -6  -3    1.83    1.93
   0  -6  -3    0.36    0.71
   0   6  -2 1572.14   38.97
   0  -6  -2 1528.15   30.40
   0  -6  -2 1592.04   38.49
   0  -6  -1    0.97    2.32
   0  -6  -1    0.08    2.10
   0   6  -1    3.38    3.57
   0  -6   0 1140.71   32.01
   0  -6   0 1153.35   24.77
   0   6   0 1150.60   33.13
   0  -6   1   -0.08    2.07
   0   6   1    4.12    2.74
   0  -6   1    2.13    1.87
   0  -6   2 1573.68   36.64
   0   6   2 1555.49   39.12
   0  -6   2 1570.40   25.46
   0  -6   3    2.29    2.64
   0   6   3    3.79    2.89
   0  -6   3    0.58    1.21
   0   6   4  909.95   30.26
   0  -6   4  911.48   27.97
   0   6   5    3.28    1.50
   0  -6   5    3.16    2.93
   0  -6   5   -0.55    0.58
   0   6   6 2206.53   47.86
   0  -6   6 2223.47   42.25
   0  -6   7    0.43    1.47
   0   6   7   -2.87    2.29
   0  -6   8   33.28    5.16
   0   6   8   38.95    6.49
   0   6   9   -1.08    2.34
   0  -6   9    0.87    1.88
   0  -6  10  384.72   17.33
   0   6  10  371.04   19.93
   0   6  11    5.38    2.89
   0  -6  11    1.11    1.58
   0   6  12  302.75   18.41
   0   6  13   -0.68    1.67
   0   6  14   17.74    5.19
   0   6  15    1.86    1.71
   0   6  15   -0.81    1.99
   0   6  16  250.70   17.85
   0   6  16  219.30   16.86
   0   6  17    2.21    2.30
   0   6  17    0.39    1.94
   0   6  18    8.51    4.08
   0   6  18    5.03    1.83
   0   6  19   -1.10    2.83
   0   6  19    1.31    3.88
   0   6  20   83.78   10.88
   0   6  20   77.06   10.18
   0   6  21    4.02    2.27
   0   6  21   -1.37    2.54
   0   6  22  174.16   16.19
   0   6  23    1.09    1.75
   0   6  24   38.60    8.06
   0   6  25   -1.39    2.85
   0   6  26   82.00   12.09
   0  -7 -25    8.73    4.75
   0  -7 -24   -2.64    3.53
   0  -7 -23    4.46    2.18
   0  -7 -22    0.58    2.20
   0  -7 -21   10.75    4.70
   0  -7 -20    3.29    3.74
   0  -7 -19   23.93    6.04
   0  -7 -18    2.58    2.79
   0  -7 -17    0.21    2.31
   0  -7 -16   -0.23    1.93
   0  -7 -15   32.05    6.68
   0  -7 -14    2.46    3.07
   0  -7 -13   33.78    6.45
   0   7 -12    1.58    3.31
   0  -7 -12    1.00    1.33
   0  -7 -11   15.03    3.28
   0   7 -11   26.64    5.53
   0   7 -10    2.29    2.51
   0  -7 -10    8.44    3.13
   0  -7  -9  166.38   14.16
   0   7  -9  178.62   14.18
   0  -7  -9  157.87   12.61
   0  -7  -8    1.89    2.90
   0   7  -8    3.10    2.97
   0  -7  -8   -1.44    1.96
   0  -7  -7  713.18   28.75
   0   7  -7  725.98   28.71
   0  -7  -7  741.19   26.50
   0  -7  -6    5.81    3.65
   0  -7  -6   -1.92    1.95
   0   7  -6    0.52    2.64
   0  -7  -5  445.81   19.54
   0  -7  -5  445.24   22.40
   0   7  -5  501.89   23.25
   0  -7  -4    0.85    1.20
   0  -7  -4    0.11    1.32
   0   7  -4   -0.49    1.43
   0  -7  -3   51.78    6.37
   0   7  -3   56.46    7.79
   0  -7  -3   47.23    7.29
   0  -7  -2    2.43    1.92
   0   7  -2   -1.28    2.28
   0  -7  -2    1.64    3.65
   0  -7  -1 1423.43   38.59
   0   7  -1 1369.44   39.41
   0  -7  -1 1448.41   30.69
   0   7   0    7.33    5.31
   0  -7   0    3.27    2.16
   0  -7   0    0.95    2.80
   0   7   1 1468.39   40.56
   0  -7   1 1406.20   37.91
   0   7   2    1.65    3.30
   0  -7   2   -1.22    1.99
   0  -7   3   63.40    8.12
   0   7   3   48.67    7.57
   0   7   4    2.63    3.01
   0  -7   4    1.38    1.95
   0   7   5  455.43   23.24
   0  -7   5  406.77   19.87
   0  -7   6   -0.29    1.81
   0   7   6   -0.35    2.38
   0   7   7  676.30   28.28
   0  -7   7  736.81   26.63
   0  -7   8    0.49    1.69
   0   7   8    2.92    2.91
   0  -7   9  173.17   12.77
   0   7   9  112.26   11.95
   0   7  10    1.15    1.95
   0  -7  10    0.51    1.66
   0   7  11   18.26    4.98
   0   7  12    1.41    2.36
   0   7  13   32.58    7.09
   0   7  14    0.73    1.82
   0   7  15   24.72    6.30
   0   7  15   17.07    5.07
   0   7  16   -4.69    3.51
   0   7  16   -1.50    2.38
   0   7  17    3.98    3.37
   0   7  17    8.41    4.32
   0   7  18   -0.73    2.15
   0   7  18   -0.64    2.88
   0   7  19   15.98    4.92
   0   7  19   19.50    6.19
   0   7  20    2.87    3.60
   0   7  20   -2.36    3.31
   0   7  21   15.54    5.12
   0   7  21    1.78    2.36
   0   7  22    3.00    3.33
   0   7  23    5.41    1.96
   0   7  24    3.51    3.14
   0   7  25   16.00    5.89
   0  -8 -22   21.93    5.65
   0  -8 -21   -2.83    3.12
   0  -8 -20   31.17    6.99
   0  -8 -19   -1.25    2.16
   0  -8 -18    2.45    2.09
   0  -8 -17   -1.51    2.59
   0  -8 -16   49.93    8.15
   0  -8 -15   -0.53    1.57
   0  -8 -14   10.66    4.18
   0  -8 -13    4.80    3.26
   0   8 -12   19.09    6.23
   0  -8 -12   11.69    4.19
   0   8 -11   -2.47    2.52
   0  -8 -11   -0.92    2.78
   0  -8 -10   77.89    9.50
   0   8 -10   70.88    9.93
   0   8  -9   -1.50    2.88
   0  -8  -9   -1.91    2.76
   0  -8  -8   -1.08    2.17
   0   8  -8   -0.80    1.72
   0  -8  -7    0.23    2.12
   0   8  -7   -0.50    2.33
   0  -8  -7    4.22    3.28
   0   8  -6  138.46   13.31
   0  -8  -6  152.24   12.50
   0  -8  -6  137.85   13.09
   0   8  -5   -1.28    2.33
   0  -8  -5    1.04    2.05
   0  -8  -5   -1.38    1.72
   0  -8  -4   74.57    8.62
   0  -8  -4   67.38    9.50
   0   8  -4   68.69    9.35
   0   8  -3    0.05    2.21
   0  -8  -3    1.53    1.82
   0  -8  -2   69.85    9.38
   0   8  -2   63.33    9.19
   0   8  -1   -0.62    2.13
   0  -8  -1    0.88    1.59
   0  -8   0  135.87   12.77
   0   8   0  138.91   13.36
   0  -8   1    0.57    2.06
   0   8   1   -0.07    2.75
   0  -8   2   67.20    9.07
   0   8   2   58.05    8.66
   0   8   3   -0.13    1.23
   0  -8   3    0.38    2.03
   0  -8   4   71.96    9.18
   0   8   4   84.51   10.78
   0   8   5    4.40    3.63
   0  -8   5    2.04    1.81
   0  -8   6  152.77   13.21
   0   8   6  148.71   14.01
   0  -8   7    2.92    2.66
   0   8   7    0.28    1.67
   0  -8   8   -2.00    2.05
   0   8   8   -0.03    2.23
   0  -8   9    1.19    2.84
   0   8   9    3.38    3.72
   0   8  10   60.23    8.90
   0   8  11   -2.56    2.07
   0   8  12   11.65    3.12
   0   8  13    2.73    2.86
   0   8  14    9.97    4.43
   0   8  14   12.74    4.38
   0   8  15   -1.32    1.67
   0   8  15    0.19    1.83
   0   8  16   34.77    7.19
   0   8  16   66.03    9.97
   0   8  17    1.91    2.15
   0   8  17   -7.41    4.55
   0   8  18   -0.77    1.98
   0   8  18    0.64    4.34
   0   8  19    2.27    3.65
   0   8  19   -0.16    1.64
   0   8  20   29.02    7.26
   0   8  20   17.34    6.05
   0   8  21   -3.85    3.83
   0   8  21    0.38    2.00
   0   8  22   18.87    6.11
   0  -9 -20    1.70    3.08
   0  -9 -19    1.31    3.62
   0  -9 -18   -2.75    2.91
   0  -9 -17   12.58    3.75
   0  -9 -16   -0.08    2.45
   0  -9 -15    4.87    4.20
   0  -9 -14   -6.31    3.57
   0  -9 -13    0.58    2.82
   0  -9 -12   -0.49    1.92
   0   9 -11   24.50    6.35
   0  -9 -11   24.80    5.46
   0   9 -10    0.22    1.89
   0  -9 -10    1.52    2.35
   0   9  -9   14.32    4.63
   0   9  -8   -2.52    2.93
   0   9  -7   15.37    5.37
   0   9  -6    1.10    2.26
   0  -9  -5    0.31    1.40
   0   9  -5    3.86    1.32
   0   9  -4    3.32    3.10
   0  -9  -4   -3.30    3.83
   0   9  -3   27.94    6.55
   0  -9  -3   34.79    7.38
   0   9  -2    3.01    1.89
   0  -9  -2    3.99    2.18
   0  -9  -1    4.36    2.88
   0   9  -1    9.43    3.90
   0  -9   0    0.01    2.10
   0   9   0    1.92    1.87
   0   9   1   -0.35    2.83
   0  -9   1    6.13    4.12
   0  -9   2   -0.29    2.26
   0   9   2   -2.10    2.46
   0   9   3   31.06    6.78
   0  -9   3   44.35    8.10
   0   9   4    1.36    2.92
   0  -9   4   -0.45    1.88
   0   9   5    1.63    2.35
   0  -9   5    4.35    2.36
   0  -9   6   -0.01    1.78
   0   9   6   -1.96    2.60
   0  -9   7    8.94    3.37
   0   9   7    8.79    2.83
   0   9   8   -2.23    2.31
   0  -9   8    0.89    3.24
   0   9   9   21.25    6.07
   0   9  10   -4.92    3.78
   0   9  11   38.54    8.40
   0   9  12   -0.62    2.79
   0   9  13    1.60    2.48
   0   9  13   -0.10    2.95
   0   9  14   -1.56    3.09
   0   9  14    2.32    3.67
   0   9  15   -0.08    1.48
   0   9  15   11.67    4.53
   0   9  16   -2.59    3.13
   0   9  16    1.79    2.74
   0   9  17   17.89    5.61
   0   9  17   21.61    6.34
   0   9  18    1.72    4.95
   0   9  18   -0.27    2.82
   0   9  19    9.98    4.20
   0   9  19   -0.95    2.90
   0   9  20   -0.78    2.31
   0   9  20    8.47    3.95
   0  10 -10   15.22    6.11
   0  10  -9    2.32    3.16
   0  10  -8    4.56    2.84
   0  10  -7   -2.69    3.53
   0  10  -6   72.13   10.93
   0  10  -5   -1.18    2.43
   0  10  -4   64.12    9.63
   0  10  -3    1.29    4.00
   0  10  -2   12.90    4.39
   0  10  -1    1.02    1.51
   0 -10   0  104.88   12.12
   0  10   0  107.61   13.17
   0 -10   1    0.14    3.19
   0  10   1   -3.33    2.05
   0  10   2   37.96    7.86
   0 -10   2   27.19    6.39
   0  10   3    4.57    3.55
   0 -10   3    1.13    1.71
   0 -10   4   50.42    8.90
   0  10   4   54.18    9.07
   0 -10   5   -1.54    1.84
   0  10   5   -3.28    3.59
   0 -10   6   83.52   10.74
   0  10   6   83.30   11.48
   0  10   7    2.90    3.32
   0  10   8   -1.90    1.97
   0  10   9   -0.28    1.70
   0  10  10   57.88    9.84
   0  10  11    2.03    2.85
   0  10  11    2.11    3.71
   0  10  12   18.38    5.65
   0  10  12   24.35    5.58
   0  10  13   -2.61    2.70
   0  10  13    2.09    3.90
   0  10  14   -1.38    3.53
   0  10  14    2.39    5.07
   0  10  15    4.54    3.08
   0  10  15   -3.92    2.81
   0  10  16   18.47    5.23
   0  10  16   19.47    6.58
   0  11  -9    1.17    2.35
   0  11  -8   -0.73    3.12
   0  11  -7    1.80    2.47
   0  11  -6   -1.82    2.93
   0  11  -5    5.33    3.18
   0  11  -4    0.55    1.51
   0  11  -3    4.68    3.43
   0  11  -2    4.50    4.11
   0  11  -1    0.14    1.90
   0  11   0   -1.45    1.97
   0  11   1    0.46    3.89
   0  11   2   -5.57    3.90
   0  11   3    7.74    4.09
   0  11   4    3.36    2.31
   0  11   5    3.93    3.86
   0  11   6    6.90    5.28
   0  11   7   -1.78    2.46
   0  11   8    8.03    5.89
   0  11   8    2.54    3.49
   0  11   9    2.35    2.55
   0  11   9    4.88    4.49
   0  11  10    5.11    3.23
   0  11  10   -1.04    3.12
   1   0 -31    2.95    2.85
   1   0 -30   -4.74    2.95
   1   0 -29    8.51    5.22
   1   0 -28    5.56    3.55
   1   0 -27   -0.64    1.56
  -1   0 -26   -0.83    1.32
   1   0 -26    2.12    2.75
   1   0 -25    0.62    3.21
  -1   0 -25   -1.23    1.37
   1   0 -24    1.35    1.78
  -1   0 -24    0.97    2.10
   1   0 -23    2.66    3.16
  -1   0 -23   -0.49    1.62
  -1   0 -22    2.08    1.14
   1   0 -22    1.55    1.75
   1   0 -21   -2.17    1.20
  -1   0 -21    0.01    1.71
  -1   0 -20    0.35    1.18
   1   0 -20   -0.71    1.30
   1   0 -19   -0.60    1.64
  -1   0 -19   -0.84    1.96
   1   0 -18   -0.75    0.90
  -1   0 -18    1.48    2.09
   1   0 -17    2.35    0.81
  -1   0 -17    2.58    2.45
  -1   0 -16    0.57    1.35
   1   0 -16    1.12    1.97
   1   0 -15   -1.31    1.23
  -1   0 -15   -1.06    1.81
  -1   0 -14    0.66    0.78
   1   0 -14   -0.32    1.42
  -1   0 -13    1.13    2.14
   1   0 -13    0.46    0.72
   1   0 -12   -0.92    0.95
  -1   0 -12   -0.73    0.97
   1   0 -11    2.77    1.54
  -1   0 -11    1.38    1.15
  -1   0 -10   -0.59    0.57
   1   0 -10    0.94    0.70
  -1   0  -9    0.94    1.56
   1   0  -9   -0.87    1.21
   1   0  -8   -0.56    1.07
  -1   0  -8    0.56    0.85
   1   0  -7   -0.10    0.74
  -1   0  -7   -0.43    0.74
   1   0  -6   -0.45    0.80
   1   0  -6   -0.69    0.53
  -1   0  -5   -0.27    0.34
   1   0  -5    0.10    0.52
   1   0  -5    0.00    0.22
  -1   0  -4    1.36    0.75
   1   0  -4    0.42    0.72
   1   0  -4    0.22    0.32
  -1   0  -3   -0.01    0.42
   1   0  -3   -0.15    0.33
   1   0  -3   -0.21    0.42
   1   0  -2   -0.14    0.27
   1   0  -2    0.31    0.14
   1   0  -1    0.00    0.23
   1   0  -1    0.09    0.25
   1   0   1   -0.03    0.11
   1   0   2   -0.02    0.24
   1   0   3    0.25    0.38
   1   0   4   -0.36    0.22
   1   0   5    0.82    0.57
   1   0   6   -0.04    0.41
   1   0   7   -0.19    0.47
   1   0   8    0.53    0.47
   1   0   8    0.06    0.24
  -1   0   8    0.20    0.56
   1   0   9    0.31    0.52
  -1   0   9   -0.26    0.71
   1   0   9    0.37    0.44
   1   0  10   -0.03    0.20
   1   0  10    0.31    0.53
   1   0  11   -0.26    0.35
   1   0  11    0.55    0.79
  -1   0  11   -0.09    0.41
   1   0  12    0.13    0.67
   1   0  12    0.32    0.24
  -1   0  12    0.05    0.68
   1   0  13   -0.41    0.43
   1   0  13    0.17    0.75
  -1   0  13    0.03    0.57
   1   0  14    0.08    0.51
   1   0  14    0.22    0.25
  -1   0  14    0.01    0.68
   1   0  15   -1.00    1.12
  -1   0  15    0.81    0.85
   1   0  15    0.63    0.32
  -1   0  16    0.70    1.40
   1   0  16    0.00    0.34
   1   0  16    0.03    1.43
   1   0  17    1.04    0.94
  -1   0  17    0.96    0.90
  -1   0  18    0.09    0.77
   1   0  18    0.13    0.65
   1   0  19   -0.17    1.50
   1   0  20    0.24    1.25
   1  -1 -31   11.82    5.14
   1  -1 -30   54.37    9.80
  -1  -1 -29   80.69   10.72
   1  -1 -29   48.27    8.22
   1   1 -28   26.03    6.10
   1  -1 -28   41.05    8.47
  -1  -1 -28   31.99    6.81
  -1  -1 -27    7.80    3.44
   1  -1 -27    4.78    3.12
   1   1 -27    8.69    4.55
  -1  -1 -26  117.16   13.02
   1   1 -26  110.43   12.48
   1  -1 -26  104.12   12.45
   1   1 -25   97.92   11.83
   1  -1 -25  119.99   13.03
  -1  -1 -25  117.76   12.88
  -1  -1 -24    3.90    3.12
   1  -1 -24    1.95    2.69
   1   1 -24    2.63    1.75
   1   1 -23   74.22    9.59
  -1  -1 -23   86.97   10.34
   1  -1 -23   71.16    9.53
  -1   1 -22   69.32    9.24
   1  -1 -22   52.11    8.26
   1   1 -22   70.51    9.22
  -1  -1 -22   61.76    8.61
  -1  -1 -21   12.68    5.01
   1  -1 -21    8.37    3.03
   1   1 -21   10.92    4.37
  -1   1 -21   12.37    4.01
   1   1 -20  131.46   11.87
   1  -1 -20  123.10   11.74
  -1  -1 -20  136.86   12.56
  -1   1 -20  119.58   11.32
  -1   1 -19  162.56   12.91
  -1  -1 -19  167.46   13.28
   1   1 -19  148.50   12.45
   1  -1 -19  161.48   12.91
  -1   1 -18   32.39    5.68
   1   1 -18   34.22    6.05
  -1  -1 -18   40.09    6.22
   1  -1 -18   41.76    6.59
   1  -1 -17  146.98   11.67
  -1   1 -17  153.02   11.84
   1   1 -17  133.57   11.18
  -1  -1 -17  143.43   12.08
  -1  -1 -16  268.08   16.11
  -1   1 -16  259.12   14.90
   1  -1 -16  247.87   15.09
   1   1 -16  280.04   15.09
  -1   1 -15   16.07    4.04
   1  -1 -15   16.47    4.09
   1   1 -15   18.94    3.82
  -1  -1 -15   15.83    4.10
   1  -1 -14  134.66   10.31
   1   1 -14  125.34    9.36
  -1   1 -14  133.59    9.93
   1   1 -13  580.58   19.43
  -1  -1 -13  536.14   20.35
  -1   1 -13  546.39   19.47
   1  -1 -13  548.94   20.39
  -1  -1 -12 1269.73   29.85
   1   1 -12 1252.13   27.43
  -1   1 -12 1184.95   27.52
   1  -1 -12 1251.52   29.49
   1   1 -11  449.30   15.63
  -1  -1 -11  435.91   17.04
  -1   1 -11  432.34   15.88
   1  -1 -11  419.15   16.79
   1   1 -10  749.12   19.02
  -1   1 -10  730.10   19.74
   1  -1 -10  764.88   21.58
   1   1 -10  809.65   15.13
  -1  -1 -10  724.97   20.92
   1   1  -9  922.87   19.86
   1   1  -9  913.00   15.64
  -1   1  -9  938.82   21.05
  -1  -1  -9  947.07   22.79
   1  -1  -9  911.60   22.26
   1  -1  -9  914.12   19.09
  -1  -1  -8  588.74   17.04
   1   1  -8  580.01   14.86
   1  -1  -8  607.41   17.26
   1  -1  -8  615.59   15.18
  -1   1  -8  592.66   15.75
   1   1  -8  626.75   12.57
   1  -1  -7  854.77   19.79
   1   1  -7  871.20   14.58
  -1  -1  -7  894.63   19.85
   1  -1  -7  856.09   17.20
   1   1  -7  883.60   16.76
   1  -1  -6 1670.75   22.89
   1   1  -6 1656.44   19.65
  -1  -1  -6 1664.47   25.42
   1  -1  -6 1638.22   25.96
   1   1  -6 1661.22   20.67
  -1  -1  -5  887.49   17.28
   1   1  -5  882.33   13.33
   1  -1  -5  856.59   15.81
   1  -1  -5  867.73   18.09
   1   1  -5  863.05   13.62
   1   1  -4 2746.28   20.26
   1   1  -4 2726.98   23.89
   1  -1  -4 2695.96   26.94
  -1   1  -4 2746.41   17.35
  -1  -1  -4 2772.66   28.10
   1  -1  -4 2698.96   29.21
  -1   1  -3 2081.59   16.16
   1   1  -3 2129.45   20.38
   1   1  -3 2169.64   14.13
   1  -1  -3 2114.29   22.74
  -1  -1  -3 2106.66   22.24
   1  -1  -3 2146.05   24.07
   1   1  -2   77.29    3.89
   1  -1  -2   74.44    4.17
   1   1  -2   74.51    2.71
   1  -1  -2   68.80    3.93
  -1  -1  -2   84.65    3.92
   1  -1  -1 3198.17   25.60
   1  -1  -1 3269.14   25.00
  -1  -1  -1 3091.72   20.57
   1   1  -1 3160.81   20.53
   1   1  -1 3179.68   24.74
   1  -1   1 3261.85   24.11
   1   1   1 3202.91   25.01
   1   1   1 3224.26   24.92
   1   1   2   76.12    3.96
   1   1   2   78.10    4.13
   1   1   3 2157.26   21.13
   1   1   3 2166.65   23.54
   1   1   4 2662.69   27.68
   1   1   4 2723.68   24.36
   1  -1   4 2656.22   22.28
   1   1   5  858.98   14.19
   1  -1   5  892.87   13.12
   1   1   5  879.14   16.69
   1   1   6 1666.46   24.01
   1  -1   6 1669.15   18.76
   1   1   6 1646.13   19.89
   1   1   7  933.62   18.74
   1  -1   7  935.81   14.49
   1  -1   8  619.33   12.42
   1   1   8  595.04   15.70
   1   1   8  631.01   13.13
   1   1   9  952.34   16.48
   1   1   9  939.19   20.31
   1  -1   9  908.36   15.90
   1   1  10  774.55   19.22
  -1  -1  10  755.98    9.72
   1  -1  10  810.53   15.53
   1   1  10  816.17   15.72
   1   1  11  431.47   14.79
   1   1  11  460.34   12.10
  -1  -1  11  429.35    8.09
   1  -1  11  446.97   12.10
   1   1  12 1278.42   26.23
   1  -1  12 1271.77   21.36
   1   1  12 1177.32   20.15
  -1  -1  12 1194.67   14.63
  -1   1  12 1232.72   24.81
   1  -1  13  614.35   15.32
   1   1  13  579.50   14.39
   1   1  13  608.80   18.71
  -1   1  13  585.57   17.62
  -1  -1  13  582.92   10.99
   1   1  14  114.42    8.50
  -1  -1  14  114.43    5.15
   1  -1  14  116.99    6.98
   1   1  14  121.57    6.76
  -1   1  14  122.18    8.22
   1   1  15   18.68    2.91
  -1   1  15   18.29    3.53
   1   1  15   14.43    3.12
   1  -1  15   12.03    2.26
  -1  -1  15   16.49    2.13
   1  -1  16  258.51   11.31
   1   1  16  248.22   10.11
   1   1  16  266.62   13.72
  -1  -1  16  222.01    8.02
  -1   1  16  258.71   12.71
   1   1  17  146.96   10.44
   1  -1  17  125.74    8.03
   1   1  17  135.68    7.66
  -1   1  18   34.41    4.94
   1  -1  18   37.09    4.62
   1   1  18   40.22    5.46
  -1   1  19  152.17   10.70
   1   1  19  152.06   11.23
  -1   1  20  125.38    9.99
   1   1  20  109.79    9.73
   1   1  21    6.22    2.73
   1  -2 -30    6.60    3.04
  -1  -2 -30    4.00    3.20
  -1  -2 -29    1.96    1.35
   1  -2 -29    3.47    2.98
   1  -2 -28   14.75    4.18
  -1  -2 -28   15.51    5.40
  -1  -2 -27    8.80    3.49
   1  -2 -27    2.23    2.69
   1  -2 -26   18.25    5.61
  -1  -2 -26    3.15    2.66
   1  -2 -25   21.06    5.53
  -1  -2 -25   27.74    5.95
   1   2 -24   15.23    4.93
   1  -2 -24   13.35    4.82
  -1  -2 -24   24.39    6.50
  -1  -2 -23   21.34    4.78
   1  -2 -23   16.27    4.82
   1   2 -23   16.21    5.12
  -1  -2 -22    7.00    2.85
   1  -2 -22   14.17    4.58
  -1  -2 -21    7.78    2.55
   1   2 -21    3.78    2.54
  -1  -2 -20   72.98    9.23
   1  -2 -20   65.06    8.62
   1   2 -20   67.49    8.54
   1   2 -19   28.82    5.28
   1  -2 -19   29.30    6.40
  -1  -2 -19   37.71    6.60
   1  -2 -18    7.06    2.72
   1   2 -18   12.29    3.21
   1  -2 -17   47.62    7.01
   1   2 -17   36.15    5.79
  -1  -2 -17   38.34    6.39
   1  -2 -16   27.47    5.26
  -1  -2 -16   38.09    6.15
   1   2 -16   35.68    5.73
   1   2 -15   21.91    3.06
   1  -2 -15   18.46    4.59
  -1  -2 -15   21.12    4.43
   1   2 -15   23.66    4.08
   1   2 -14   95.28    8.07
   1  -2 -14  102.65    9.56
   1   2 -14   92.56    6.06
  -1  -2 -14   83.02    8.22
   1   2 -13   15.50    2.51
  -1  -2 -13   15.93    3.67
   1  -2 -13   21.74    4.10
   1   2 -13   19.32    3.38
  -1   2 -13   12.93    1.43
   1   2 -12   10.22    2.29
  -1   2 -12    9.38    1.29
   1  -2 -12    9.59    2.52
   1   2 -12    9.17    1.89
  -1  -2 -12    8.73    2.05
   1  -2 -11    2.33    1.02
  -1   2 -11    3.06    0.68
  -1  -2 -11    3.23    1.30
   1  -2 -11    5.41    2.21
   1   2 -11    3.00    1.44
   1   2 -11    2.27    0.99
   1   2 -10   53.24    4.75
   1   2 -10   47.35    4.22
  -1  -2 -10   46.69    5.58
  -1   2 -10   50.06    3.27
   1  -2 -10   50.79    5.39
   1  -2 -10   54.68    6.15
   1   2  -9  196.46    8.40
   1  -2  -9  180.97    9.93
   1   2  -9  184.29    8.31
  -1   2  -9  184.09    6.44
  -1  -2  -9  176.97   10.38
   1  -2  -9  192.64   10.75
   1   2  -8  128.95    6.42
  -1  -2  -8  127.46    8.47
   1   2  -8  120.43    6.49
   1  -2  -8  118.29    8.21
   1  -2  -8  123.79    8.01
  -1   2  -8  121.69    5.36
   1   2  -7  181.54    7.87
  -1   2  -7  171.01    6.53
   1   2  -7  175.17    6.65
  -1  -2  -7  193.50    9.78
   1  -2  -7  178.81    9.34
  -1   2  -6  208.62    7.33
   1   2  -6  212.66    8.56
   1  -2  -6  204.64    9.90
  -1  -2  -6  220.12   10.14
   1  -2  -6  217.75   10.35
   1   2  -6  219.07    6.58
  -1  -2  -5   32.17    3.54
  -1   2  -5   36.11    3.08
   1  -2  -5   29.88    3.74
   1  -2  -5   32.66    3.67
   1   2  -5   27.88    3.12
   1   2  -4  186.46    7.93
  -1   2  -4  157.39    6.64
   1  -2  -4  180.20    8.44
  -1  -2  -4  181.26    7.98
   1  -2  -3 1433.90   23.67
   1  -2  -3 1392.61   22.28
   1   2  -3 1350.11   21.41
  -1  -2  -3 1429.77   20.53
  -1   2  -3 1349.88   19.77
   1  -2  -2 4452.10   37.30
   1  -2  -2 4433.94   40.64
   1   2  -2 4447.33   38.82
  -1   2  -2 4383.88   36.82
  -1  -2  -2 4504.05   40.07
   1   2  -1 4186.04   37.85
  -1   2  -1 4340.57   37.36
  -1  -2  -1 4311.17   37.50
   1  -2  -1 4286.06   39.20
  -1  -2  -1 4122.45   27.62
   1  -2  -1 4210.61   34.53
   1  -2   0 7632.31   50.37
   1  -2   0 7542.79   43.07
  -1   2   0 7584.45   49.52
   1  -2   1 4237.07   31.50
  -1  -2   1 4225.11   33.96
  -1  -2   2 4453.91   32.84
   1  -2   2 4407.04   36.71
   1  -2   2 4412.78   31.16
  -1  -2   3 1383.41   17.27
   1   2   3 1403.13   22.97
   1   2   4  167.74    8.05
   1  -2   4  180.98    7.23
  -1  -2   4  189.64    5.89
  -1  -2   5   38.39    2.48
   1  -2   5   33.90    3.07
   1   2   5   32.93    3.44
   1   2   6  193.16    9.01
   1  -2   6  200.46    7.51
   1   2   7  175.57    8.62
   1  -2   7  172.69    6.99
   1   2   7  175.40    9.51
   1   2   8  124.45    7.43
   1   2   8  115.45    7.84
   1  -2   8  115.87    5.85
   1   2   9  189.09    9.22
   1  -2   9  175.79    7.16
   1   2   9  169.80    9.91
   1   2  10   53.53    5.09
   1   2  10   52.37    5.70
   1  -2  10   56.36    4.08
   1   2  11    2.07    1.53
   1  -2  11    1.88    0.59
   1   2  12   10.52    3.02
   1   2  12   10.84    2.57
   1  -2  12    6.30    1.40
   1   2  13   19.12    3.76
   1   2  13   23.00    3.40
   1  -2  13   12.90    2.37
   1  -2  14   92.90    6.00
  -1   2  14  102.03    8.39
   1   2  14   99.13    7.44
   1   2  14   97.78    8.31
   1   2  15   20.53    4.13
   1   2  15   17.85    3.51
  -1   2  15   16.07    3.85
   1  -2  15   17.80    2.73
  -1   2  16   35.92    5.33
   1   2  16   30.72    4.89
   1  -2  16   25.60    3.34
  -1   2  17   34.98    5.04
   1   2  17   32.20    4.41
  -1   2  17   32.21    5.31
   1   2  17   37.14    5.35
   1   2  18   14.01    2.98
  -1   2  18   15.40    3.05
  -1   2  18   20.53    4.47
   1   2  18   16.20    3.86
  -1   2  19   27.51    4.60
   1   2  19   28.04    5.10
  -1   2  19   20.92    4.44
  -1   2  20   54.81    7.41
   1   2  20   63.35    7.95
  -1   2  21   13.30    4.26
   1   2  21   15.41    3.99
   1   2  22   11.25    4.23
   1  -3 -30   22.28    6.16
  -1  -3 -30   26.56    6.48
   1  -3 -29   22.11    5.76
  -1  -3 -29   33.47    6.69
   1  -3 -28   16.53    5.50
  -1  -3 -28   14.80    4.86
   1  -3 -27   10.16    4.41
  -1  -3 -27    6.38    3.23
  -1  -3 -26   65.77    9.60
   1  -3 -26   63.03    9.80
   1  -3 -25   26.34    6.25
  -1  -3 -25   35.76    6.80
  -1  -3 -24   18.82    5.55
   1  -3 -24   29.48    6.65
   1  -3 -23   78.09   10.58
  -1  -3 -23   82.56   10.84
  -1  -3 -22  154.67   14.63
   1  -3 -22  140.54   13.45
   1  -3 -21   43.63    7.01
  -1  -3 -21   34.45    7.24
   1  -3 -20  179.84   14.54
  -1  -3 -20  150.97   13.53
  -1  -3 -19  141.94   12.74
   1  -3 -19  151.88   13.11
  -1  -3 -18   55.12    7.70
   1  -3 -18   70.63    8.93
   1  -3 -17  193.61   14.24
  -1  -3 -17  188.00   13.93
  -1  -3 -16  802.93   28.25
   1  -3 -16  726.30   27.37
   1  -3 -15   62.12    7.73
  -1  -3 -15   85.01    9.35
   1   3 -14  585.92   17.25
  -1  -3 -14  617.50   24.05
   1  -3 -14  632.28   24.20
  -1  -3 -13  900.59   27.79
   1   3 -13  872.87   20.83
  -1   3 -13  815.37   17.05
   1  -3 -12  345.88   16.42
   1  -3 -12  326.73   16.64
  -1  -3 -12  356.53   17.15
   1   3 -12  344.49   13.28
  -1   3 -12  346.13   11.24
   1  -3 -11  276.79   14.30
   1  -3 -11  266.44   14.46
  -1   3 -11  265.32   10.19
   1   3 -11  241.25   11.04
  -1  -3 -11  252.82   13.86
  -1  -3 -10 1290.71   30.53
   1  -3 -10 1358.82   31.55
   1  -3 -10 1312.99   30.79
   1   3 -10 1343.98   26.01
  -1   3 -10 1375.81   23.27
   1  -3  -9  286.90   14.08
  -1   3  -9  320.59   11.37
   1  -3  -9  294.89   14.31
  -1  -3  -9  311.20   14.47
   1   3  -9  287.21   11.91
   1  -3  -8  213.31   11.76
  -1   3  -8  210.04    9.28
   1   3  -8  190.71    9.81
   1  -3  -8  206.03   11.70
   1   3  -7  600.02   17.03
  -1   3  -7  576.40   15.92
  -1  -3  -7  556.51   17.89
   1  -3  -7  623.17   19.42
   1  -3  -7  577.71   19.21
  -1   3  -6   67.31    5.52
   1  -3  -6   80.72    6.98
   1  -3  -6   73.55    6.54
   1   3  -6   82.36    6.34
  -1  -3  -6   76.67    6.40
  -1  -3  -5  330.43   13.67
   1  -3  -5  316.35   13.68
  -1  -3  -5  309.53   11.92
  -1   3  -5  306.65   11.78
   1  -3  -5  301.70   12.61
   1   3  -5  329.72   12.66
   1   3  -4  985.88   22.06
   1  -3  -4  991.77   23.46
  -1   3  -4  958.96   20.94
  -1  -3  -4  940.49   19.86
  -1  -3  -4  973.77   23.17
   1  -3  -3  232.84   11.24
  -1  -3  -3  224.02    9.09
   1  -3  -3  213.53    9.68
  -1  -3  -3  230.79   10.97
  -1   3  -3  240.99   10.62
   1   3  -3  240.21   10.91
   1   3  -2  222.99   10.54
   1  -3  -2  250.70   11.51
  -1  -3  -2  231.56    8.60
  -1   3  -2  246.78   10.82
  -1  -3  -2  224.81   10.54
   1  -3  -2  237.17    9.78
   1  -3  -1  867.96   18.04
  -1  -3  -1  905.85   15.46
   1   3  -1  967.22   22.11
  -1  -3  -1  936.25   21.01
   1  -3  -1  935.03   21.67
  -1   3  -1  910.77   21.02
   1   3   0 1963.45   31.96
  -1  -3   0 1991.99   29.70
   1  -3   0 1949.17   30.88
  -1  -3   0 2027.92   20.28
   1  -3   0 1951.03   25.69
  -1   3   0 1953.97   31.36
  -1   3   1  899.35   21.40
   1   3   1  934.40   21.98
   1  -3   1  908.71   16.66
   1  -3   1  949.69   21.11
  -1  -3   1  983.21   20.44
  -1  -3   2  247.01    9.82
   1  -3   2  240.03   10.42
  -1   3   2  252.09   11.36
   1   3   2  220.79   10.89
   1  -3   2  248.01    8.47
   1  -3   3  209.72    9.59
  -1   3   3  227.12   11.04
   1  -3   3  234.14    8.11
  -1  -3   3  233.81    9.27
   1   3   3  207.00   10.62
  -1   3   4  982.35   22.90
  -1  -3   4 1007.16   18.46
   1  -3   4  940.29   19.77
   1   3   4  967.93   23.05
  -1   3   5  274.71   12.35
  -1  -3   5  308.11    9.87
   1   3   5  301.29   12.95
  -1   3   6   80.19    6.73
  -1  -3   6   79.10    4.93
   1   3   6   72.69    6.48
   1  -3   6   73.44    5.39
  -1  -3   7  600.45   12.67
  -1   3   7  605.36   18.92
   1  -3   7  604.48   15.33
  -1  -3   8  192.81    6.95
   1  -3   8  207.50    9.18
   1   3   8  207.90   11.11
  -1   3   9  359.99   15.00
   1   3   9  318.29   15.11
   1   3   9  309.97   13.96
   1  -3   9  315.74   11.21
   1   3  10 1277.86   29.02
  -1   3  10 1376.48   29.62
   1   3  10 1343.25   31.59
  -1  -3  10 1306.77   15.44
   1  -3  10 1337.42   22.50
   1  -3  11  262.78    9.99
  -1   3  11  267.33   13.35
   1   3  11  263.02   14.28
   1   3  11  254.89   13.23
   1   3  12  364.97   17.08
   1   3  12  340.04   15.30
  -1   3  12  357.88   15.81
   1  -3  12  366.58   11.70
  -1   3  13  855.47   24.79
   1   3  13  851.56   24.49
   1   3  13  855.47   27.30
   1  -3  13  870.87   18.25
   1  -3  14  579.36   15.11
   1   3  14  603.15   22.97
  -1   3  14  617.23   21.50
   1  -3  15   76.21    5.45
  -1   3  15   91.56    9.17
  -1   3  15   89.83    8.38
   1   3  15   91.27    9.06
   1   3  15   79.00    7.70
  -1   3  16  740.47   24.65
   1   3  16  746.77   24.19
   1   3  16  735.82   26.32
  -1   3  16  746.00   26.18
  -1   3  17  189.82   13.56
   1   3  17  223.46   14.57
   1   3  17  198.01   12.73
  -1   3  17  216.20   13.49
   1   3  18   51.17    6.61
  -1   3  18   51.48    6.84
   1   3  18   72.74    8.64
  -1   3  18   54.94    7.40
   1   3  19  136.23   11.96
  -1   3  19  164.93   13.10
  -1   3  19  143.76   11.71
   1   3  19  155.80   11.65
  -1   3  20  144.73   12.52
  -1   3  20  169.29   12.98
   1   3  20  169.11   13.52
   1   3  21   23.73    5.15
  -1   3  21   26.92    5.02
   1   3  22  161.03   13.80
  -1   3  22  156.09   13.56
  -1   3  23   57.71    8.17
   1   3  23   73.42    9.96
   1   3  24   14.99    4.31
   1  -4 -29    6.91    3.66
  -1  -4 -29    2.66    1.77
  -1  -4 -28   -1.20    2.09
   1  -4 -28    2.32    1.75
  -1  -4 -27   -4.40    3.86
   1  -4 -27   -2.41    3.22
  -1  -4 -26    8.39    3.09
   1  -4 -26    7.87    4.21
   1  -4 -25    0.69    1.78
  -1  -4 -25   -3.66    3.27
   1  -4 -24   17.63    4.73
  -1  -4 -24   13.71    4.16
  -1  -4 -23   23.05    6.44
   1  -4 -23   27.11    6.33
  -1  -4 -22   45.51    7.75
   1  -4 -22   33.71    6.13
  -1  -4 -21   37.19    7.55
   1  -4 -21   31.74    6.78
   1  -4 -20    7.84    2.59
  -1  -4 -20    2.38    1.93
  -1  -4 -19   12.09    4.25
   1  -4 -19   11.97    4.10
  -1  -4 -18   27.55    5.82
   1  -4 -18   24.67    5.57
  -1  -4 -17   24.30    5.21
   1  -4 -17   32.26    6.63
   1  -4 -16   12.60    3.97
  -1  -4 -16   22.59    5.25
   1  -4 -15   32.55    5.83
  -1  -4 -15   41.27    6.49
  -1  -4 -14    7.02    2.63
   1  -4 -14    7.13    3.53
   1   4 -14    6.34    1.86
   1   4 -13   10.57    2.56
  -1   4 -13    7.83    2.19
   1  -4 -13    5.09    2.11
  -1  -4 -13    9.06    2.86
   1   4 -12  170.32   10.68
   1  -4 -12  146.17   11.57
  -1   4 -12  151.34    9.49
  -1  -4 -12  165.20   11.79
   1  -4 -12  165.25   12.33
   1  -4 -11   43.89    6.47
  -1   4 -11   67.54    6.29
   1   4 -11   61.20    6.39
   1  -4 -11   51.63    6.63
  -1  -4 -11   65.90    7.34
  -1   4 -10  260.55   12.30
   1  -4 -10  236.37   14.19
   1   4 -10  203.68   11.63
   1  -4 -10  216.79   13.27
  -1  -4 -10  221.14   13.37
  -1  -4  -9  471.92   18.71
   1  -4  -9  426.55   17.95
   1   4  -9  422.78   16.65
   1  -4  -9  456.84   19.31
  -1   4  -9  422.95   15.79
   1  -4  -8  178.79   12.04
  -1   4  -8  188.07   10.61
   1   4  -8  194.71   11.19
  -1  -4  -8  191.92   11.54
   1  -4  -8  181.54   11.65
  -1   4  -7   12.96    2.88
   1   4  -7   13.47    3.16
  -1  -4  -7   15.66    3.27
   1  -4  -7   15.10    3.32
   1  -4  -7   20.68    4.02
  -1  -4  -6  119.27    9.22
   1  -4  -6   85.01    8.07
   1   4  -6  107.07    8.35
  -1   4  -6  105.27    8.04
   1  -4  -6  112.47    8.59
  -1  -4  -6  116.30    8.38
  -1   4  -5  118.56    8.54
  -1  -4  -5  132.25    8.56
   1  -4  -5  127.69    8.71
   1   4  -5  131.03    9.08
  -1  -4  -5  124.12    9.54
   1  -4  -5  130.69    9.90
   1  -4  -4   83.72    6.82
   1  -4  -4   91.76    8.17
  -1   4  -4   74.80    6.97
  -1  -4  -4   78.29    7.40
  -1  -4  -4   91.68    6.73
   1   4  -4   83.38    7.30
  -1   4  -3   82.86    7.31
  -1  -4  -3   78.18    7.12
   1  -4  -3   90.33    7.92
  -1  -4  -3   87.59    6.14
   1  -4  -3   87.62    6.67
   1   4  -3   72.76    7.03
  -1  -4  -2  280.23   13.48
   1   4  -2  261.47   13.07
   1  -4  -2  297.10   14.06
   1  -4  -2  299.25   12.01
  -1   4  -2  292.17   13.63
  -1  -4  -2  285.86   10.54
  -1  -4  -1  562.78   13.72
  -1   4  -1  570.89   19.26
   1  -4  -1  642.33   17.00
  -1  -4  -1  583.38   19.10
   1   4  -1  601.52   20.19
   1  -4  -1  593.29   19.56
   1   4   0 1470.23   31.62
  -1  -4   0 1497.67   29.85
  -1  -4   0 1495.38   20.33
  -1   4   0 1484.23   31.26
   1  -4   0 1460.40   24.97
  -1  -4   1  581.14   18.04
  -1   4   1  547.78   19.13
  -1  -4   1  564.47   11.20
   1   4   1  568.46   19.46
   1  -4   1  602.52   15.28
   1  -4   1  594.56   19.12
   1   4   2  304.96   14.34
  -1  -4   2  276.71   12.21
  -1   4   2  305.49   14.37
   1  -4   2  295.27   13.22
   1  -4   2  280.27   10.13
  -1  -4   2  290.65    6.94
   1  -4   3   86.75    7.22
  -1  -4   3   80.99    3.03
   1  -4   3   89.30    5.53
  -1  -4   3   77.77    6.32
  -1   4   3   83.42    7.30
   1   4   4   93.61    7.96
  -1  -4   4   91.99    6.71
  -1   4   4   94.70    8.20
   1  -4   4   79.92    5.30
   1  -4   4   89.92    7.16
   1  -4   5  121.83    8.23
  -1  -4   5  134.46    8.00
  -1   4   5  123.91    9.41
   1   4   5  131.31    9.53
   1  -4   5  136.39    6.90
   1  -4   6  113.58    6.33
   1   4   6  109.87    9.07
   1  -4   6  100.97    7.37
  -1   4   6  119.24    9.12
  -1  -4   6   99.47    6.77
  -1  -4   7   17.65    2.78
   1   4   7   12.74    3.48
  -1  -4   7   11.20    1.27
  -1   4   7   19.09    3.98
   1  -4   7   14.70    2.84
  -1   4   8  197.38   12.21
  -1  -4   8  188.03    8.74
   1   4   8  175.76   11.57
   1  -4   8  189.68   10.11
  -1   4   9  403.91   18.12
   1   4   9  404.45   17.76
   1  -4   9  394.62   14.46
  -1  -4   9  421.55   12.71
   1   4  10  233.17   13.62
   1  -4  10  221.93   10.76
  -1   4  10  234.52   13.86
  -1  -4  10  248.56    9.23
  -1   4  11   45.95    6.21
   1   4  11   42.75    6.46
   1   4  11   56.89    6.97
   1  -4  11   53.18    4.98
   1   4  12  168.18   12.39
   1   4  12  180.33   12.27
   1  -4  12  163.30    9.09
  -1   4  12  161.99   11.83
  -1  -4  12  157.79    6.63
   1   4  13    5.79    2.23
   1   4  13   11.00    3.73
   1  -4  13    5.13    1.63
  -1   4  13    9.52    3.41
   1   4  14    5.06    2.18
   1   4  14    8.74    2.96
   1  -4  14   10.15    2.31
  -1   4  14   10.54    3.32
   1   4  15   39.70    6.04
   1   4  15   36.87    5.97
  -1   4  15   35.91    5.59
  -1   4  16   18.78    4.39
  -1   4  16   14.68    3.96
   1   4  16   14.65    3.79
   1   4  16   21.80    4.83
   1   4  17   36.19    5.78
  -1   4  17   22.18    4.46
  -1   4  17   31.31    5.82
   1   4  17   26.49    5.50
  -1   4  18   24.46    5.70
  -1   4  18   28.13    5.90
   1   4  18   21.80    4.52
   1   4  18   24.99    5.29
  -1   4  19   10.88    3.38
   1   4  19   11.08    4.09
   1   4  19    5.19    2.91
  -1   4  19   14.37    4.21
   1   4  20    9.83    3.74
  -1   4  20    9.81    3.73
  -1   4  20    4.35    3.42
   1   4  21   46.32    7.90
  -1   4  21   47.72    7.71
  -1   4  22   25.24    5.42
   1   4  22   27.49    6.36
   1   4  23   27.09    5.85
  -1   4  23   26.63    6.17
   1   4  24    3.65    2.68
  -1   4  24    9.76    3.19
   1   4  25   11.55    4.55
   1  -5 -28    6.60    3.88
  -1  -5 -28    2.05    2.18
  -1  -5 -27    4.40    3.72
   1  -5 -27   -4.09    2.75
   1  -5 -26   21.61    5.99
  -1  -5 -26   12.03    4.99
   1  -5 -25   18.56    5.01
  -1  -5 -25   28.12    6.06
   1  -5 -24    1.14    2.55
  -1  -5 -24    1.53    2.57
  -1  -5 -23   35.70    7.68
   1  -5 -23   55.00    9.11
  -1  -5 -22   83.27   11.06
   1  -5 -22   95.78   11.42
   1  -5 -21   19.33    5.37
  -1  -5 -21   22.21    5.46
  -1  -5 -20   32.50    6.26
   1  -5 -20   31.07    6.13
  -1  -5 -19   75.90    9.85
   1  -5 -19   81.18   10.39
  -1  -5 -18   32.34    6.34
   1  -5 -18   27.11    6.28
  -1  -5 -17   27.80    5.89
   1  -5 -17   27.35    6.24
   1  -5 -16  292.49   18.08
  -1  -5 -16  270.03   17.40
   1  -5 -15   54.59    8.19
  -1  -5 -15   62.53    8.00
   1   5 -14   70.54    7.79
   1  -5 -14   98.35   10.32
  -1  -5 -14   83.16    9.39
   1  -5 -13  218.03   14.89
  -1   5 -13  230.41   13.19
   1  -5 -13  223.86   15.21
  -1  -5 -13  229.62   14.91
   1   5 -13  231.39   13.70
  -1  -5 -12  153.89   11.90
   1   5 -12  164.70   11.66
   1  -5 -12  179.03   13.51
  -1   5 -12  185.26   11.99
   1  -5 -12  174.64   13.28
   1  -5 -11   31.31    5.70
   1   5 -11   24.37    4.77
  -1  -5 -11   24.89    5.13
  -1   5 -11   26.79    4.90
   1  -5 -11   30.68    5.84
   1  -5 -10  492.12   20.91
  -1  -5 -10  433.70   19.69
  -1   5 -10  454.94   18.89
   1  -5 -10  470.14   21.40
   1   5 -10  454.21   19.23
   1  -5  -9  267.48   15.00
  -1   5  -9  247.60   13.64
   1   5  -9  265.50   14.78
  -1  -5  -9  303.83   15.89
   1  -5  -9  274.73   16.08
  -1  -5  -8   43.01    6.06
   1   5  -8   58.89    6.81
  -1   5  -8   46.21    6.05
   1  -5  -8   56.18    6.76
   1  -5  -8   45.50    6.71
   1  -5  -7  276.95   15.81
  -1  -5  -7  259.88   13.76
  -1   5  -7  226.42   13.38
   1   5  -7  266.63   14.52
   1  -5  -7  238.84   13.60
  -1  -5  -6  241.46   12.71
  -1   5  -6  228.47   13.46
   1  -5  -6  226.41   13.13
   1  -5  -6  232.27   14.38
  -1  -5  -6  206.92   13.51
   1   5  -6  219.09   13.30
   1   5  -5   72.30    7.84
   1  -5  -5   73.44    7.27
   1  -5  -5   81.49    8.36
  -1   5  -5   64.80    7.37
  -1  -5  -5   69.16    7.60
  -1  -5  -5   71.79    6.87
  -1  -5  -4  363.64   17.05
  -1   5  -4  339.51   16.39
   1  -5  -4  347.07   15.38
  -1  -5  -4  359.21   14.40
   1   5  -4  340.59   16.80
   1  -5  -4  324.03   16.54
  -1  -5  -3  473.60   15.66
  -1  -5  -3  474.80   19.49
  -1   5  -3  459.40   19.14
   1  -5  -3  451.85   16.72
   1   5  -3  441.15   18.95
   1  -5  -3  424.01   18.94
  -1   5  -2   74.66    7.62
  -1  -5  -2   73.15    7.68
   1  -5  -2   63.88    7.16
   1  -5  -2   77.10    6.62
   1   5  -2   65.73    7.69
  -1  -5  -2   61.76    5.42
  -1   5  -1   33.39    5.49
   1  -5  -1   38.79    4.53
   1  -5  -1   36.35    5.39
  -1  -5  -1   30.29    3.67
  -1  -5  -1   38.39    5.38
   1   5  -1   43.91    6.27
  -1  -5   0  305.86   14.88
  -1   5   0  306.67   15.72
   1  -5   0  247.02   11.13
   1  -5   0  281.02   14.89
  -1  -5   0  284.76   10.12
   1   5   0  281.51   15.18
   1   5   1   38.20    5.38
  -1  -5   1   31.21    3.21
  -1   5   1   38.19    5.55
   1  -5   1   33.16    4.03
   1   5   2   76.27    7.90
  -1  -5   2   76.15    7.18
  -1  -5   2   62.45    4.02
  -1   5   2   68.46    7.35
   1  -5   2   77.19    5.88
   1  -5   2   80.86    7.72
   1   5   3  442.56   19.35
  -1  -5   3  446.03   17.36
  -1   5   3  429.00   18.85
   1  -5   3  467.62   18.35
   1  -5   3  459.12   13.98
  -1  -5   3  435.27    8.93
  -1  -5   4  370.08   15.54
   1  -5   4  356.21   16.02
   1   5   4  345.88   17.21
  -1   5   4  343.89   17.46
   1  -5   4  361.71   12.00
   1   5   5   67.78    7.84
  -1   5   5   87.78    8.48
   1  -5   5   78.30    5.61
   1  -5   5   80.48    7.62
  -1  -5   5   75.96    6.99
   1   5   6  239.98   14.68
  -1  -5   6  247.11   12.29
  -1   5   6  232.73   14.30
   1  -5   6  252.00   13.31
   1  -5   6  231.37    9.71
   1   5   7  270.63   15.51
  -1  -5   7  265.27   12.57
   1  -5   7  237.19   12.90
   1  -5   7  237.56   10.20
  -1   5   7  269.35   15.37
   1   5   8   41.14    5.99
  -1   5   8   51.55    7.10
   1  -5   8   55.57    6.04
   1  -5   8   50.70    4.64
  -1  -5   8   41.57    5.03
   1  -5   9  265.85   13.61
  -1  -5   9  268.04   12.68
  -1   5   9  257.47   15.40
   1  -5   9  270.21   11.13
   1   5   9  264.65   15.84
   1   5  10  435.51   20.24
  -1   5  10  411.65   19.72
   1  -5  10  443.66   16.92
  -1  -5  10  440.24   15.48
   1   5  11   31.35    5.46
  -1  -5  11   24.96    3.67
   1  -5  11   34.58    4.74
  -1   5  11   27.95    5.19
  -1   5  12  200.07   14.11
   1  -5  12  179.77   10.71
   1   5  12  169.94   13.22
   1   5  12  167.66   13.60
  -1  -5  12  164.50    8.84
   1   5  13  234.92   15.66
   1   5  13  232.69   15.24
  -1   5  13  222.29   15.19
   1  -5  13  213.38   11.68
   1   5  14   72.31    9.16
   1   5  14   72.36    8.79
  -1   5  14   65.19    8.35
   1   5  15   84.51    9.64
  -1   5  15   64.63    8.40
   1   5  15   68.19    8.59
  -1   5  16  224.53   16.31
   1   5  16  259.95   17.60
   1   5  16  240.52   16.02
  -1   5  17   30.22    6.58
  -1   5  17   30.46    5.58
   1   5  17   26.81    5.08
   1   5  17   29.26    6.28
   1   5  18   38.67    6.88
   1   5  18   33.40    5.88
  -1   5  18   24.11    6.22
  -1   5  18   23.80    5.31
   1   5  19   80.59   10.11
  -1   5  19   80.89   10.18
   1   5  19   64.35    9.58
  -1   5  19   82.26   10.55
   1   5  20   29.87    5.53
  -1   5  20   27.92    6.13
   1   5  20   24.32    5.95
  -1   5  20   41.60    7.83
  -1   5  21    8.50    2.22
  -1   5  21   13.11    4.57
  -1   5  22   83.92   10.99
   1   5  22   98.98   12.12
   1   5  23   34.92    6.97
  -1   5  23   37.64    7.52
   1   5  24    0.30    2.07
  -1   5  24   -5.44    3.67
   1   5  25    6.19    2.79
  -1   5  25   13.56    4.77
   1  -6 -26   -1.06    2.18
  -1  -6 -26    1.44    1.46
  -1  -6 -25   -2.05    1.77
   1  -6 -25    9.05    4.90
  -1  -6 -24   -1.79    2.74
   1  -6 -24   -0.51    2.47
   1  -6 -23    8.32    3.89
  -1  -6 -23    2.13    1.55
   1  -6 -22   20.02    6.05
  -1  -6 -22   11.04    3.89
   1  -6 -21    4.71    2.16
  -1  -6 -21    5.59    3.18
  -1  -6 -20    1.90    1.29
   1  -6 -20    4.41    3.24
   1  -6 -19    1.87    2.60
  -1  -6 -19    3.39    3.47
  -1  -6 -18    2.11    3.21
   1  -6 -18    4.79    3.78
   1  -6 -17   -0.57    1.74
  -1  -6 -17    4.86    1.98
   1  -6 -16    6.55    3.92
  -1  -6 -16    6.04    3.49
   1  -6 -15    2.35    1.18
  -1  -6 -15    5.76    3.30
  -1  -6 -14    7.58    3.40
   1  -6 -14    9.84    2.94
  -1  -6 -13   18.38    4.37
   1  -6 -13   18.36    4.91
   1   6 -13   12.64    3.52
  -1   6 -12   22.53    5.05
   1  -6 -12   30.69    6.12
   1  -6 -12   26.45    5.61
  -1  -6 -12   31.46    6.09
   1   6 -12   23.88    5.49
  -1   6 -11   13.59    4.13
   1  -6 -11    9.24    3.55
  -1  -6 -11   16.05    4.39
   1  -6 -11   12.72    4.45
   1   6 -11   13.39    3.81
   1  -6 -10    9.30    3.09
  -1  -6 -10   12.78    3.79
   1   6 -10   21.07    4.86
  -1   6 -10   18.62    4.37
   1  -6 -10   13.47    3.74
   1  -6  -9   16.08    4.60
  -1   6  -9   10.72    3.13
   1   6  -9    7.82    3.13
   1  -6  -9    9.05    3.87
  -1  -6  -9    8.63    3.37
  -1   6  -8    1.66    1.34
  -1  -6  -8    1.43    1.92
   1   6  -8    5.42    3.42
   1  -6  -8    1.22    2.05
   1  -6  -8    1.56    2.13
   1   6  -7   65.64    8.25
  -1   6  -7   65.98    8.05
   1  -6  -7   62.25    7.55
   1  -6  -7   56.57    7.65
  -1  -6  -7   61.52    7.33
   1   6  -6   84.60    9.27
  -1  -6  -6   79.95    7.85
  -1   6  -6   76.36    8.63
   1  -6  -6  100.94   10.14
   1  -6  -6   94.71    9.03
  -1  -6  -6  102.20   10.06
  -1  -6  -5  139.77   11.45
   1  -6  -5  139.90   10.43
   1  -6  -5  132.97   11.52
  -1   6  -5  135.26   11.51
   1   6  -5  123.23   11.01
  -1  -6  -5  121.84    9.32
  -1  -6  -4  108.90    8.65
   1  -6  -4  119.32    9.68
  -1   6  -4  118.01   10.71
   1   6  -4  129.54   11.17
  -1  -6  -4  123.11   10.98
   1  -6  -4  120.75   10.79
  -1  -6  -3   90.51    7.58
  -1   6  -3  100.31    9.74
   1  -6  -3   83.71    8.88
   1   6  -3   84.66    9.15
   1  -6  -3   93.20    8.40
  -1  -6  -3   83.35    8.99
   1  -6  -2   96.67    8.19
   1  -6  -2   91.21    9.49
  -1   6  -2   99.64    9.84
  -1  -6  -2  113.45    9.97
   1   6  -2  101.87   10.03
  -1  -6  -2   95.91    7.53
   1  -6  -1   31.28    5.35
   1  -6  -1   24.60    3.96
   1   6  -1   30.06    5.76
  -1  -6  -1   30.66    5.37
  -1  -6  -1   31.33    4.09
  -1   6  -1   27.60    5.46
   1  -6   0   41.96    4.89
   1  -6   0   44.35    6.29
  -1   6   0   47.00    7.05
   1   6   0   43.63    6.52
  -1  -6   0   47.79    6.48
  -1  -6   0   42.93    4.34
  -1   6   1   34.78    5.64
   1  -6   1   30.96    5.68
   1   6   1   37.96    6.13
  -1  -6   1   30.32    3.61
  -1  -6   1   23.82    4.69
   1  -6   1   26.49    3.81
  -1  -6   2   89.63    5.39
   1  -6   2  110.46    7.55
  -1   6   2  111.41   10.51
  -1  -6   2   91.43    8.81
   1  -6   2  100.25    9.46
   1   6   2   88.50    9.47
  -1  -6   3   79.94    4.41
   1  -6   3  112.78    9.88
   1   6   3  102.69   10.09
   1  -6   3   73.87    6.14
  -1   6   3   90.10    9.26
  -1  -6   3   84.93    8.23
  -1  -6   4  112.34    9.51
  -1   6   4  107.00   10.52
   1  -6   4  129.06   10.66
   1   6   4  112.75   10.09
   1  -6   4  110.18    7.13
   1  -6   5  113.09    7.15
   1   6   5  130.94   11.65
  -1   6   5  134.99   11.62
  -1  -6   5  152.86   10.88
   1  -6   5  130.81   10.65
   1   6   6  105.86   10.53
   1  -6   6  104.27    9.43
  -1  -6   6   98.19    8.64
   1  -6   6   98.32    6.62
  -1   6   6   92.87    9.72
   1  -6   7   66.48    7.62
   1  -6   7   71.38    5.42
  -1  -6   7   65.83    7.01
   1   6   7   67.68    8.12
  -1   6   7   63.99    8.05
  -1  -6   8    0.25    1.48
  -1   6   8    1.65    1.38
   1   6   8    2.28    1.58
   1  -6   8    2.16    1.95
   1   6   9   12.23    3.94
   1  -6   9   12.19    2.86
  -1   6   9    8.22    2.50
  -1  -6   9    6.53    1.67
   1  -6  10   10.16    2.83
  -1   6  10   14.21    4.52
  -1  -6  10   13.44    3.22
   1   6  10   17.67    4.36
   1   6  11   15.58    4.13
   1  -6  11   13.22    3.66
  -1   6  11   16.18    4.26
  -1  -6  11   13.77    3.60
   1  -6  12   36.18    5.47
   1   6  12   26.91    5.77
  -1   6  12   33.63    6.02
   1   6  12   37.96    6.72
   1   6  13   17.27    4.31
   1   6  13   15.05    3.70
  -1   6  13   26.66    6.21
   1   6  14    4.33    2.03
   1   6  14   10.57    3.52
  -1   6  14   13.04    3.59
  -1   6  15    6.67    3.09
   1   6  15    7.70    3.36
   1   6  15    6.55    3.38
  -1   6  16    0.62    2.53
   1   6  16    6.32    2.58
   1   6  16    7.18    3.15
   1   6  17    5.86    3.20
  -1   6  17   11.70    3.47
   1   6  17    5.79    4.05
  -1   6  17    6.17    3.36
  -1   6  18    0.96    1.49
  -1   6  18    6.24    3.15
   1   6  18   -1.91    2.99
   1   6  18    4.15    3.16
   1   6  19    3.23    2.70
  -1   6  19    4.00    2.21
  -1   6  19    2.94    3.80
   1   6  19    9.28    3.65
  -1   6  20    2.29    2.48
  -1   6  20    4.14    1.68
   1   6  20    6.63    3.78
   1   6  20    5.66    3.26
  -1   6  21    2.39    3.68
  -1   6  21    5.30    3.86
   1   6  21    4.92    2.13
   1   6  22    8.93    5.29
  -1   6  22    8.24    3.40
   1   6  23    5.34    4.40
  -1   6  23    3.21    1.96
   1   6  24    4.58    3.03
  -1   6  24   -3.55    4.02
   1   6  25    5.55    3.65
  -1   6  25    1.78    2.77
   1   6  26    2.59    4.28
   1  -7 -25    0.65    1.55
  -1  -7 -25    2.34    1.85
  -1  -7 -24    4.18    3.10
   1  -7 -24    8.49    4.26
  -1  -7 -23   33.90    8.64
   1  -7 -23   57.51    9.88
   1  -7 -22   41.48    7.78
  -1  -7 -22   36.21    7.85
  -1  -7 -21   11.16    4.55
   1  -7 -21    3.21    2.78
   1  -7 -20   19.44    5.20
  -1  -7 -20   28.55    6.16
  -1  -7 -19   19.12    5.21
   1  -7 -19   19.99    5.49
  -1  -7 -18    0.74    2.38
   1  -7 -18    0.24    2.94
   1  -7 -17   34.85    7.65
  -1  -7 -17   21.36    5.21
  -1  -7 -16   62.65    8.84
   1  -7 -16   59.75    9.67
   1  -7 -15    8.49    3.75
  -1  -7 -15    4.83    3.41
  -1  -7 -14   20.18    5.42
   1  -7 -14   26.29    5.49
   1   7 -13   37.70    6.98
  -1  -7 -13   47.26    6.88
   1  -7 -13   39.60    6.96
   1   7 -12   22.32    5.02
   1  -7 -12   34.00    6.15
  -1   7 -12   21.72    5.26
   1  -7 -12   33.74    5.94
  -1  -7 -12   29.77    5.66
  -1   7 -11    7.17    3.27
  -1  -7 -11   12.48    3.99
   1   7 -11    3.35    2.05
   1  -7 -11    3.75    1.50
   1  -7 -11    9.78    4.36
  -1  -7 -10  128.33   11.91
   1   7 -10  133.90   12.66
   1  -7 -10  137.64   12.38
   1  -7 -10  135.95   12.91
  -1   7 -10  110.15   11.25
   1  -7  -9   61.19    8.73
   1  -7  -9   77.86    9.11
  -1   7  -9   98.28   10.52
  -1  -7  -9   88.62    9.35
   1   7  -9   74.71    9.18
   1  -7  -8    2.93    3.21
   1   7  -8    4.14    1.79
   1  -7  -8    2.24    2.22
  -1  -7  -8    5.58    3.44
  -1   7  -8    6.44    3.18
  -1  -7  -7   87.20    9.10
   1  -7  -7   94.16    9.63
  -1   7  -7   89.87   10.32
   1  -7  -7   84.88   10.46
   1   7  -7   95.09   10.57
  -1  -7  -6  241.00   14.60
   1   7  -6  233.26   16.55
   1  -7  -6  221.41   14.23
  -1   7  -6  178.23   14.18
   1  -7  -6  203.53   15.46
   1  -7  -5   39.53    7.28
  -1   7  -5   49.70    7.81
  -1  -7  -5   59.69    8.11
   1  -7  -5   56.72    7.07
  -1  -7  -5   55.50    6.72
   1   7  -5   50.85    8.07
  -1   7  -4  121.27   11.71
  -1  -7  -4  130.06   11.75
  -1  -7  -4  122.27    9.98
   1  -7  -4  116.78   11.55
   1  -7  -4  104.46    9.59
   1   7  -4  128.16   12.11
   1  -7  -3  254.50   14.47
   1  -7  -3  282.96   17.64
   1   7  -3  271.40   17.51
  -1  -7  -3  297.46   17.97
  -1   7  -3  256.81   17.31
  -1  -7  -3  298.90   14.60
  -1  -7  -2  119.38    8.66
  -1  -7  -2  129.17   11.51
  -1   7  -2  119.85   11.63
   1   7  -2  105.96   10.85
   1  -7  -2  110.36    9.49
   1  -7  -2  105.70   10.62
   1   7  -1    4.29    2.63
  -1  -7  -1    0.43    0.74
   1  -7  -1    1.83    0.74
   1  -7  -1    3.90    3.48
  -1  -7  -1    1.92    2.88
  -1   7  -1    3.59    3.11
  -1   7   0   62.17    8.48
   1   7   0   59.54    8.32
   1  -7   0   64.34    7.99
   1  -7   0   52.82    6.05
  -1  -7   0   56.22    7.72
   1  -7   1    5.18    2.65
  -1   7   1    3.98    2.54
  -1  -7   1   10.00    3.25
   1   7   1    2.99    2.56
   1  -7   1    3.79    1.89
   1  -7   2   98.90    8.01
  -1   7   2  119.14   11.89
   1  -7   2  140.10   12.31
   1   7   2  117.76   11.34
  -1  -7   2  138.66   11.78
  -1   7   3  269.76   17.57
   1  -7   3  282.77   17.10
  -1  -7   3  304.30   17.37
   1   7   3  320.30   19.07
  -1  -7   4  120.42   10.79
   1  -7   4   92.57    9.60
   1   7   4  135.24   12.70
  -1   7   4  123.66   12.03
  -1  -7   5   51.37    7.06
  -1   7   5   64.52    8.77
   1  -7   5   55.10    7.40
   1   7   5   61.77    8.37
  -1  -7   6  234.78   14.96
   1   7   6  214.47   15.87
  -1   7   6  191.33   15.10
   1  -7   6  199.59   14.32
  -1   7   7  118.18   11.93
   1  -7   7   88.11    9.49
   1   7   7  105.18   11.02
  -1  -7   7   84.77    8.84
  -1  -7   8    3.51    2.61
   1  -7   8    6.33    2.39
   1   7   8    6.22    3.82
  -1   7   8    8.19    3.82
  -1  -7   9   90.94    9.03
   1   7   9   84.46   10.09
  -1   7   9   75.53    9.60
   1  -7   9   81.24    8.92
  -1   7  10  139.06   13.10
   1   7  10   94.22   10.63
   1  -7  10  128.70   11.44
  -1  -7  10  125.23   10.58
   1  -7  11    3.54    1.99
  -1   7  11    7.57    3.32
   1   7  11   10.55    4.42
  -1   7  12   25.34    5.83
   1   7  12   25.60    6.42
   1   7  12   28.42    6.31
   1   7  13   39.73    7.33
   1   7  13   41.57    7.42
  -1   7  13   31.76    6.43
   1   7  14   23.69    5.75
  -1   7  14   16.07    4.82
   1   7  14   12.90    4.69
  -1   7  15   19.35    5.38
   1   7  15   14.45    4.97
   1   7  15    5.41    3.23
  -1   7  16   48.43    8.14
   1   7  16   63.91    9.42
   1   7  16   54.28    8.70
   1   7  17   32.19    7.18
  -1   7  17   21.20    5.92
  -1   7  17   23.07    5.87
   1   7  17   17.58    4.96
   1   7  18   -3.11    2.28
  -1   7  18   -1.00    4.03
   1   7  18    1.40    1.61
  -1   7  18   -0.04    1.92
  -1   7  19   12.50    4.38
   1   7  19   18.35    4.87
  -1   7  19   18.73    4.97
   1   7  19   18.30    5.02
  -1   7  20   32.82    7.05
  -1   7  20   31.53    7.21
   1   7  20   16.74    4.45
   1   7  20   24.89    6.78
  -1   7  21    5.21    4.00
   1   7  21    3.93    2.58
   1   7  21    6.04    3.68
  -1   7  21    3.04    2.63
  -1   7  22   24.00    6.61
  -1   7  22   28.56    7.45
   1   7  22   22.97    5.88
  -1   7  23   34.15    8.29
   1   7  23   24.69    6.90
  -1   7  24   18.83    6.50
   1   7  24   15.24    5.71
  -1   7  25    5.92    3.23
   1   7  25   14.99    5.80
  -1  -8 -22    1.82    1.82
   1  -8 -22    1.12    1.84
   1  -8 -21   -4.12    3.68
  -1  -8 -21   -4.43    2.95
  -1  -8 -20    0.74    2.98
   1  -8 -20    0.19    3.12
  -1  -8 -19    3.64    3.79
   1  -8 -19   -1.86    2.52
  -1  -8 -18    6.38    3.56
   1  -8 -18    0.97    1.94
  -1  -8 -17    4.76    3.27
   1  -8 -17    2.94    2.71
   1  -8 -16    5.51    3.39
  -1  -8 -16    1.73    1.81
   1  -8 -15    0.40    2.05
  -1  -8 -15   -1.23    1.52
  -1  -8 -14    7.08    3.37
   1  -8 -14    1.11    2.01
   1  -8 -13   11.20    4.28
  -1  -8 -13    3.64    1.70
   1   8 -12    2.22    3.67
   1  -8 -12    1.30    2.31
  -1  -8 -12    3.09    3.31
   1   8 -11   10.77    3.38
  -1   8 -11    5.04    2.50
   1  -8 -11    7.64    3.19
  -1  -8 -11   17.26    4.53
   1  -8 -11   10.12    3.29
   1  -8 -10    2.92    2.90
  -1  -8 -10    2.47    1.97
  -1   8 -10   -2.39    1.59
   1  -8 -10    4.43    3.80
   1   8 -10    3.20    3.23
   1  -8  -9    4.81    3.10
   1  -8  -9    2.55    1.70
  -1   8  -9    1.82    3.51
   1   8  -9    3.21    2.27
  -1  -8  -9    1.91    3.13
   1  -8  -8    3.52    2.37
  -1  -8  -8    4.89    3.17
   1  -8  -8    8.56    3.55
  -1   8  -8    7.29    3.76
   1   8  -8    1.89    1.99
   1  -8  -7   -0.99    1.45
   1   8  -7    0.49    2.19
  -1   8  -7    3.10    3.14
  -1  -8  -7    4.49    3.12
   1  -8  -7    4.39    2.05
  -1   8  -6   86.94   10.55
   1  -8  -6   80.69   10.10
   1  -8  -6   77.20    9.27
   1   8  -6   75.31   10.17
  -1  -8  -6   73.59    8.69
   1  -8  -5   12.46    2.69
  -1   8  -5   21.46    4.81
   1   8  -5   22.13    5.60
   1  -8  -5   24.23    4.84
  -1  -8  -5   20.40    4.40
   1  -8  -4   18.76    5.42
   1   8  -4   11.85    4.21
   1  -8  -4   14.75    3.43
  -1   8  -4   15.71    4.37
   1  -8  -3   27.41    4.95
   1  -8  -3   28.23    5.86
  -1   8  -3   24.35    5.49
   1   8  -3   28.66    6.28
  -1   8  -2   62.50    8.63
   1   8  -2   67.08    9.39
  -1  -8  -2   74.63    9.46
   1  -8  -2   58.83    8.39
   1  -8  -1    5.00    2.35
  -1  -8  -1    2.39    1.92
   1   8  -1   11.50    4.73
  -1   8  -1    4.20    3.34
  -1   8   0   27.50    6.00
   1  -8   0   32.59    6.51
  -1  -8   0   30.54    5.70
   1   8   0   28.29    6.61
  -1   8   1    3.54    3.38
   1   8   1    6.77    3.41
   1  -8   1    4.79    2.63
  -1  -8   1   10.24    3.83
  -1  -8   2   75.16    9.51
  -1   8   2   62.42    9.07
   1   8   2   75.41    9.92
   1  -8   2   78.93    9.37
  -1  -8   3   17.28    4.39
   1  -8   3   21.36    5.55
  -1   8   3   14.11    3.65
   1   8   3   15.08    4.79
  -1   8   4    1.90    1.64
   1  -8   4   12.38    3.31
   1   8   4   15.88    4.69
  -1  -8   4   13.68    4.19
   1   8   5   25.15    5.51
   1  -8   5   25.03    6.06
  -1   8   5   35.47    6.82
  -1  -8   5   28.53    5.56
   1   8   6   90.07   10.49
  -1   8   6   87.97   10.82
  -1  -8   6   77.70    9.39
   1  -8   6   77.45    9.25
  -1   8   7    1.51    1.67
  -1  -8   7    3.86    2.74
   1  -8   7    5.74    3.75
   1   8   7    0.08    2.46
  -1   8   8    9.37    4.78
   1   8   8   16.01    5.88
   1  -8   8    6.64    3.52
  -1  -8   8    3.32    1.85
   1  -8   9    4.96    3.66
  -1   8   9   -1.38    2.22
   1   8   9    3.35    2.71
   1  -8  10    3.73    2.81
   1   8  10   -1.24    3.65
  -1   8  10    1.70    2.13
  -1   8  11   17.16    5.37
   1   8  11    7.73    2.92
   1   8  11   12.71    4.40
  -1   8  12    5.51    3.29
   1   8  12   -2.02    3.10
   1   8  12    1.78    2.69
   1   8  13    6.79    4.41
  -1   8  13   19.59    6.33
   1   8  13    7.80    4.15
   1   8  14    2.12    2.41
  -1   8  14   -0.83    2.83
   1   8  14   -0.80    2.29
   1   8  15   -1.55    3.64
   1   8  15   -0.64    2.21
  -1   8  15    2.44    2.29
   1   8  16   -2.19    3.48
  -1   8  16   -2.57    3.84
   1   8  16   -0.43    3.03
  -1   8  16    5.97    3.90
  -1   8  17    4.33    4.14
  -1   8  17    4.81    3.63
   1   8  17    2.54    4.44
   1   8  17    4.45    3.28
   1   8  18    0.10    2.68
  -1   8  18   -1.55    3.50
   1   8  18   -0.77    2.22
  -1   8  18   -3.32    3.87
  -1   8  19   -2.02    2.92
   1   8  19    2.13    2.76
  -1   8  19    0.11    1.60
   1   8  19   -3.09    3.10
  -1   8  20    5.94    4.39
   1   8  20    6.76    3.90
  -1   8  20   -0.38    2.57
   1   8  20    2.21    2.26
  -1   8  21    6.16    4.91
  -1   8  21   -1.63    3.87
   1   8  21    0.09    2.40
   1   8  21    1.98    2.73
  -1   8  22    0.55    3.88
   1   8  22   -1.29    2.36
  -1   8  22   -1.15    3.32
  -1  -9 -19   12.32    5.08
   1  -9 -19   21.19    5.39
   1  -9 -18    8.36    4.83
  -1  -9 -18    5.28    4.27
  -1  -9 -17   16.86    6.65
   1  -9 -17   13.42    4.81
  -1  -9 -16   38.47    7.79
   1  -9 -16   30.00    7.08
   1  -9 -15   15.82    4.84
  -1  -9 -15    9.20    3.58
   1  -9 -14   20.05    5.22
  -1  -9 -14   10.86    5.05
   1  -9 -13   36.80    7.15
  -1  -9 -13   29.68    6.37
  -1  -9 -12   18.05    4.95
   1  -9 -12   15.40    4.78
   1   9 -11   13.53    6.06
   1  -9 -11   15.67    4.81
  -1   9 -10   50.14    8.51
   1  -9 -10   68.25    9.60
   1   9 -10   49.24    8.59
   1   9  -9   26.61    6.45
  -1   9  -9   16.73    5.62
   1  -9  -9   16.41    5.31
   1  -9  -9   19.63    5.13
   1   9  -8    5.56    4.22
  -1   9  -8    5.27    2.56
   1  -9  -8    2.61    2.24
   1   9  -7   41.81    7.50
  -1   9  -7   44.12    7.73
   1  -9  -7   50.61    8.00
  -1   9  -6   79.23   10.89
   1   9  -6   80.90   10.73
   1  -9  -6   78.22   10.55
   1  -9  -5    2.45    2.54
  -1   9  -5    3.37    3.64
   1   9  -5    4.38    3.54
   1   9  -4   50.20    8.46
  -1   9  -4   52.90    9.01
   1  -9  -4   59.84    8.84
   1   9  -3   82.50   10.79
   1  -9  -3   87.04   10.99
  -1   9  -3   72.89   10.20
   1  -9  -2   42.75    7.77
  -1   9  -2   50.14    8.82
   1   9  -2   33.93    7.16
  -1   9  -1   11.47    4.75
   1  -9  -1   15.81    4.42
   1   9  -1   12.31    5.36
   1  -9   0   46.12    7.46
   1   9   0   66.15    9.71
  -1   9   0   65.69    9.61
   1   9   1   18.76    5.46
   1  -9   1    4.53    3.76
  -1   9   1   19.53    5.10
   1  -9   2   30.16    5.86
  -1   9   2   51.53    9.02
   1   9   2   54.88    8.83
   1   9   3   66.63   10.25
  -1   9   3   97.04   11.76
   1  -9   3   77.93    9.82
  -1   9   4   42.37    7.62
   1   9   4   62.43    9.81
   1  -9   4   40.93    8.21
   1  -9   5    7.02    3.42
  -1   9   5    4.00    4.01
   1   9   5    1.42    2.07
   1   9   6  107.48   12.28
  -1   9   6  109.79   12.62
   1  -9   6   88.91   11.21
  -1   9   7   43.03    8.26
   1   9   7   65.81    9.74
   1  -9   7   48.95    8.11
   1   9   8    2.75    1.50
  -1   9   8    9.16    4.90
   1  -9   8    4.43    2.88
   1   9   9   29.57    6.98
  -1   9   9   27.03    6.69
   1   9   9   29.35    6.84
   1   9  10   48.58    8.75
  -1   9  10   72.62   10.49
   1   9  10   54.10    9.13
   1   9  11   12.32    4.05
  -1   9  11   13.89    5.07
   1   9  11   17.58    5.80
   1   9  12   18.74    6.13
   1   9  12   16.69    5.34
  -1   9  12   10.21    4.90
   1   9  13   35.36    7.44
   1   9  13   38.23    7.59
  -1   9  13   36.65    7.58
  -1   9  14   22.30    7.31
   1   9  14   16.34    5.61
   1   9  14   20.28    5.87
   1   9  15    8.62    4.30
  -1   9  15    3.90    3.47
   1   9  15   12.05    5.70
  -1   9  15   13.73    4.74
   1   9  16   32.89    7.73
   1   9  16   29.50    7.65
  -1   9  16   35.07    7.62
  -1   9  16   36.70    8.42
   1   9  17   11.28    4.77
  -1   9  17    5.35    3.76
   1   9  17   14.78    4.80
  -1   9  18    1.78    1.33
  -1   9  18   -1.62    3.81
   1   9  18    0.14    2.17
  -1   9  19   22.27    6.78
   1   9  19   15.27    5.90
  -1   9  19   17.57    5.57
   1   9  19   21.68    6.40
   1  10 -11    0.41    3.69
   1  10 -10   14.64    4.94
  -1  10 -10   28.67    8.33
  -1  10  -9   11.09    3.85
   1  10  -9    9.38    3.64
   1  10  -8   -3.41    3.05
  -1  10  -8    0.03    1.45
  -1  10  -7   14.47    4.59
   1  10  -7   11.13    4.43
   1 -10  -6   36.98    7.13
   1  10  -6   24.48    6.68
  -1  10  -6   27.75    6.68
  -1  10  -5   14.28    5.43
   1 -10  -5    6.22    4.72
   1  10  -5    7.17    4.36
   1 -10  -4   17.97    5.83
  -1  10  -4   23.39    5.96
   1  10  -4   22.72    6.58
   1 -10  -3    6.87    4.48
   1  10  -3   11.30    4.21
  -1  10  -3    7.62    4.66
  -1  10  -2    7.01    3.92
   1 -10  -2   14.79    4.40
   1  10  -2   12.06    4.91
  -1  10  -1   11.08    4.57
   1  10  -1    4.48    3.09
   1 -10  -1   11.54    4.50
  -1  10   0    1.60    2.69
   1  10   0    9.17    3.60
   1 -10   0   12.87    5.35
   1  10   1    7.14    3.55
  -1  10   1   10.31    4.15
   1 -10   1    6.20    2.32
   1  10   2    8.63    3.45
  -1  10   2    9.06    4.21
   1 -10   2   10.77    5.05
  -1  10   3   11.51    5.09
   1  10   3   16.00    4.85
   1 -10   3   10.88    4.73
   1  10   4   26.19    6.71
  -1  10   4   27.03    5.97
   1 -10   4   24.43    6.17
  -1  10   5    1.55    1.37
   1 -10   5    2.27    1.95
   1  10   5    3.92    3.03
  -1  10   6   36.61    8.33
   1 -10   6   39.70    7.49
   1  10   6   32.42    7.20
   1  10   7   18.99    5.60
   1  10   7   16.98    5.58
   1 -10   7   14.28    4.99
  -1  10   7   12.42    5.67
   1  10   8    4.07    2.62
   1  10   8   -3.51    3.94
  -1  10   8   -4.24    4.18
   1  10   9   22.16    5.23
   1  10   9   11.47    4.56
  -1  10   9   10.07    4.56
   1  10  10   16.55    6.17
   1  10  10   11.56    3.98
  -1  10  10   10.65    3.93
   1  10  11    3.12    3.81
   1  10  11   10.31    4.37
   1  10  12   14.40    4.76
   1  10  12   22.93    5.89
  -1  10  12   18.58    6.33
   1  10  13   12.40    4.97
   1  10  13   14.57    4.99
  -1  10  13   21.60    6.58
   1  10  14    5.35    3.66
  -1  10  14    8.13    4.50
  -1  10  14    3.38    5.00
   1  10  14    5.67    3.39
  -1  10  15    7.66    4.60
   1  10  15   10.95    5.25
  -1  10  15   12.70    5.38
   1  10  15   -0.90    2.34
   1  10  16    1.25    4.01
  -1  10  16    6.08    3.38
  -1  10  16   -4.13    5.32
   1  10  16    3.47    4.37
   1  11 -10    2.16    4.85
   1  11  -9   11.34    4.99
   1  11  -8    6.44    3.77
  -1  11  -8    4.56    5.53
  -1  11  -7    9.14    5.11
   1  11  -7    9.23    4.85
  -1  11  -6   24.00    6.90
   1  11  -6   22.41    6.39
  -1  11  -5    1.44    1.76
   1  11  -5    4.63    3.24
   1  11  -4    3.98    2.14
  -1  11  -4    9.69    3.86
   1  11  -3    9.47    3.95
  -1  11  -3   20.77    5.96
   1  11  -2    6.85    4.95
  -1  11  -2   15.60    5.15
   1  11  -1    3.92    2.12
  -1  11  -1    5.04    3.75
   1  11  -1    7.94    4.44
   1 -11  -1   11.41    4.96
   1  11   0   13.95    5.32
   1  11   0   29.83    7.02
   1 -11   0   11.61    4.53
  -1  11   0   24.37    6.78
  -1  11   1   10.53    3.36
   1  11   1   17.01    6.30
   1  11   1   13.74    6.12
   1 -11   1    3.60    2.22
   1 -11   2   12.80    4.54
   1  11   2    5.26    3.42
  -1  11   2   11.53    4.81
   1  11   2    7.59    3.72
   1  11   3   19.40    5.45
   1  11   3    8.62    4.41
   1 -11   3   11.13    4.52
  -1  11   3   20.86    7.03
   1  11   4   16.09    5.60
  -1  11   4   23.89    6.18
   1 -11   4   13.58    5.48
   1  11   4   20.58    6.22
  -1  11   5    1.90    1.34
   1  11   5    7.35    1.73
   1 -11   5    4.47    2.66
   1  11   5    9.47    4.37
  -1  11   6   17.09    5.75
   1  11   6   28.01    7.26
   1  11   6   27.20    6.94
   1  11   7   20.06    6.62
  -1  11   7   27.42    6.20
   1  11   7   23.27    4.97
   1  11   8    1.21    2.32
   1  11   8    5.52    3.31
  -1  11   8    3.55    2.84
   1  11   9    7.30    1.92
  -1  11   9    7.36    3.81
   1  11   9    4.32    1.29
  -1  11  10   30.59    7.66
   1  11  10   15.83    5.95
   1  11  10   21.23    5.70
   2   0 -31    2.46    3.29
   2   0 -30   40.67    8.55
   2   0 -29   43.68    8.34
   2   0 -28   42.39    8.37
   2   0 -27    8.02    3.63
   2   0 -26    8.27    4.02
   2   0 -25   86.25   11.04
   2   0 -24   76.18   10.00
   2   0 -23  187.52   15.56
  -2   0 -22   45.50    7.38
   2   0 -22   46.86    7.27
   2   0 -21  145.46   12.85
  -2   0 -21  158.94   13.78
  -2   0 -20   56.86    7.87
   2   0 -20   46.84    7.03
   2   0 -19  681.58   26.39
  -2   0 -19  692.28   26.91
   2   0 -18   18.18    4.63
  -2   0 -18   17.92    4.47
   2   0 -17  274.57   15.91
  -2   0 -17  303.17   17.03
  -2   0 -16   46.97    6.50
   2   0 -16   23.35    4.51
   2   0 -15  635.23   22.87
  -2   0 -15  636.22   23.45
  -2   0 -14   33.91    5.33
   2   0 -14   43.81    5.75
  -2   0 -13 5158.46   62.29
   2   0 -13 5252.38   60.82
  -2   0 -12   74.42    7.27
   2   0 -12   69.42    6.74
  -2   0 -11  350.41   15.19
   2   0 -11  358.22   14.77
   2   0 -10 2833.95   39.31
  -2   0 -10 2866.60   41.15
   2   0  -9 2096.82   32.46
  -2   0  -9 1999.79   32.92
   2   0  -8  546.27   15.92
   2   0  -8  566.28   11.12
  -2   0  -8  559.93   16.50
  -2   0  -7 8623.33   61.43
   2   0  -7 8801.55   60.82
   2   0  -6  718.79   16.07
   2   0  -6  684.58   11.27
   2   0  -5 2580.07   20.80
   2   0  -5 2506.99   26.71
   2   0  -5 2588.67   28.69
   2   0  -4 9999.00   53.47
   2   0  -3 7546.41   43.13
   2   0  -1  529.69    9.25
   2   0  -1  508.70    9.92
   2   0  -1  501.71    9.96
   2   0   0    7.54    1.18
   2   0   0    6.11    1.16
   2   0   1  473.53    9.71
   2   0   1  486.58    8.89
   2   0   5 2600.41   16.33
   2   0   5 2557.09   27.08
   2   0   6  672.40   14.77
   2   0   7 8989.46   55.43
   2   0   8  588.61   14.84
   2   0   9 2096.26   29.38
   2   0  10 2880.41   35.61
  -2   0  11  369.28   10.22
   2   0  11  349.73   12.74
   2   0  12   77.12    6.29
  -2   0  12   73.73    4.75
   2   0  13 4899.15   52.41
  -2   0  13 5209.01   42.25
  -2   0  14   35.91    3.56
   2   0  14   37.20    4.54
   2   0  15  655.54   19.90
  -2   0  15  638.58   15.91
   2   0  16   26.07    4.38
  -2   0  16   33.93    3.89
   2   0  17  287.95   14.44
  -2   0  17  302.07   11.75
  -2   0  18   19.81    3.17
   2   0  18   15.38    3.52
   2   0  19  731.50   23.83
   2   0  20   39.21    5.87
   2  -1 -31    2.33    2.58
   2  -1 -30    9.67    5.15
   2  -1 -29   -1.90    1.33
   2   1 -29    2.88    4.43
   2  -1 -28    2.56    2.81
   2   1 -28    1.82    2.81
   2  -1 -27    3.11    3.16
   2   1 -27    2.66    4.67
   2   1 -26   -0.92    2.20
   2  -1 -26    4.79    3.29
  -2  -1 -26    0.46    1.98
   2   1 -25    4.80    2.83
   2  -1 -25    3.21    2.27
  -2  -1 -25    3.92    2.93
   2  -1 -24    1.43    2.78
   2   1 -24    1.53    1.94
  -2  -1 -24    0.46    2.50
   2   1 -23    5.51    2.62
  -2  -1 -23    7.20    3.72
   2  -1 -23    6.15    2.74
  -2  -1 -22    8.78    3.60
   2   1 -22   16.91    4.69
   2  -1 -22   22.96    5.62
   2   1 -21   16.46    4.48
  -2  -1 -21   13.07    4.12
   2  -1 -21   10.85    3.71
  -2  -1 -20   49.20    7.67
   2  -1 -20   44.22    7.17
   2   1 -20   52.13    7.33
  -2  -1 -19    3.25    2.12
   2  -1 -19    1.54    1.21
   2   1 -19    6.48    3.04
  -2  -1 -18   46.02    7.29
   2  -1 -18   35.65    6.35
   2   1 -18   42.16    6.24
   2   1 -17    9.80    2.47
  -2  -1 -17    5.73    3.12
  -2  -1 -16   48.97    6.98
   2   1 -16   40.34    5.55
   2  -1 -16   36.59    5.94
   2  -1 -15   51.00    6.74
  -2  -1 -15   32.64    5.18
   2   1 -15   51.56    6.34
   2   1 -14  154.23   10.42
  -2  -1 -14  155.67   11.36
   2  -1 -14  150.65   10.93
   2  -1 -13   46.33    5.84
   2   1 -13   49.28    5.56
  -2  -1 -13   47.50    5.94
   2  -1 -12  657.44   21.65
  -2  -1 -12  644.35   21.87
   2   1 -12  661.96   20.05
   2  -1 -11   31.02    4.58
   2   1 -11   29.58    4.00
  -2  -1 -11   36.22    5.06
   2  -1 -11   32.19    3.87
   2   1 -11   31.87    3.60
  -2  -1 -10   40.36    5.20
   2  -1 -10   36.57    4.84
   2   1 -10   38.26    4.27
   2  -1 -10   34.70    4.00
   2   1 -10   30.23    3.58
  -2  -1  -9   99.75    7.61
   2  -1  -9  103.07    6.46
   2   1  -9  104.31    6.23
   2  -1  -9  115.42    8.07
   2   1  -9  107.68    6.81
   2  -1  -8  184.57    8.46
   2   1  -8  171.65    8.06
   2   1  -8  188.29    8.12
  -2  -1  -8  177.69    9.72
   2  -1  -8  189.48   10.03
   2   1  -7  106.05    5.85
  -2  -1  -7  115.64    7.39
   2   1  -7  104.11    5.97
   2  -1  -7  103.97    6.12
   2  -1  -7  101.91    7.07
   2  -1  -6  932.21   17.77
   2   1  -6 1007.50   16.89
   2  -1  -6  911.56   20.39
  -2  -1  -6 1002.16   20.63
   2   1  -6  938.89   17.27
  -2  -1  -5   28.22    3.09
   2  -1  -5   26.83    2.91
   2  -1  -5   24.33    3.12
   2   1  -5   24.63    2.46
   2   1  -5   25.94    2.83
   2  -1  -4  140.56    6.46
   2  -1  -4  127.77    6.89
  -2  -1  -4  127.75    6.38
   2   1  -4  134.94    6.26
   2   1  -3 1253.52   13.96
   2  -1  -3 1193.03   20.14
   2   1  -3 1197.00   18.28
   2  -1  -3 1204.57   18.72
  -2  -1  -3 1243.32   18.48
   2   1  -3 1256.77   12.25
   2   1  -2  160.17    4.91
   2   1  -2  162.03    4.65
   2   1  -2  153.17    6.30
   2  -1  -2  166.62    6.74
   2  -1  -2  143.61    6.62
   2  -1  -1   35.00    3.05
   2   1  -1   34.02    2.44
   2  -1  -1   36.29    3.17
   2   1  -1   37.08    3.05
   2  -1   0    2.21    0.71
   2  -1   0    0.54    0.61
   2   1   0    0.53    0.67
   2   1   0    1.09    0.69
   2   1   1   32.54    2.80
   2   1   1   30.82    2.71
   2  -1   1   36.65    3.11
   2   1   2  162.51    6.64
   2  -1   2  157.51    6.34
   2   1   2  161.46    6.21
   2  -1   3 1257.60   18.06
   2   1   3 1253.79   17.45
   2   1   3 1246.03   19.35
   2   1   4  136.67    5.76
   2  -1   4  138.24    6.12
   2   1   4  134.18    6.69
   2   1   5   21.49    2.25
   2  -1   5   19.57    2.33
   2   1   5   24.81    2.91
   2   1   6  969.61   15.58
   2   1   6  925.84   19.15
   2  -1   6  942.60   16.76
   2   1   7  100.75    6.46
   2  -1   7  103.71    5.69
   2   1   7  112.55    5.36
   2  -1   8  190.08    8.05
   2   1   8  183.11    6.97
   2   1   8  188.13    9.21
   2  -1   9  109.41    6.24
   2   1   9  112.00    7.39
   2   1   9  110.90    5.57
   2   1  10   41.32    3.56
   2   1  10   36.18    4.34
   2  -1  10   36.87    3.75
   2   1  11   33.09    4.19
   2  -1  11   34.03    3.74
   2   1  11   28.77    3.03
   2   1  12  669.69   19.94
   2   1  12  679.81   14.72
   2  -1  12  672.35   17.32
  -2  -1  13   35.57    2.10
   2  -1  13   45.19    4.67
   2   1  13   51.84    5.73
  -2  -1  14  135.35    4.45
  -2   1  14  176.66    9.79
   2   1  14  157.28    7.31
   2   1  14  153.60   10.20
   2  -1  14  163.24    9.09
   2   1  15   48.02    4.02
  -2   1  15   49.13    5.40
   2  -1  15   52.10    5.38
   2   1  15   49.68    6.03
  -2  -1  15   36.75    2.43
   2  -1  16   37.01    4.79
   2   1  16   40.38    3.76
  -2   1  16   41.30    4.96
  -2  -1  16   30.89    2.48
   2   1  16   32.65    4.97
  -2   1  17    9.57    2.55
   2  -1  17    7.69    2.45
   2   1  17    6.16    2.56
   2   1  18   55.81    6.75
  -2   1  18   44.21    5.50
   2  -1  18   56.53    6.14
  -2   1  19    8.27    2.36
   2   1  19    2.77    2.30
   2  -1  19    8.19    2.54
   2   1  20   34.64    5.84
   2   1  21   14.97    4.54
   2   1  22   27.44    5.57
   2  -2 -30    0.93    2.41
   2  -2 -29   95.73   12.46
  -2  -2 -29   75.18   11.28
  -2  -2 -28   29.77    6.67
   2  -2 -28   25.42    6.26
   2  -2 -27   18.63    5.38
  -2  -2 -27    8.77    4.41
  -2  -2 -26    6.62    3.79
   2  -2 -26   17.70    5.94
   2  -2 -25  121.02   13.01
  -2  -2 -25  121.77   13.37
   2   2 -24    8.74    2.92
  -2  -2 -24   10.06    3.36
  -2  -2 -23  242.60   17.75
   2  -2 -23  235.50   17.51
   2   2 -23  236.98   16.97
  -2  -2 -22    1.90    1.85
   2   2 -22    1.33    1.16
   2  -2 -22    6.45    4.02
  -2  -2 -21    3.29    1.92
   2  -2 -21    2.61    2.60
   2   2 -21    6.42    2.62
   2   2 -20   22.79    4.74
  -2  -2 -20   18.89    5.13
   2  -2 -20   22.43    5.95
   2   2 -19  251.08   15.68
   2  -2 -19  280.51   17.73
  -2  -2 -19  279.92   17.60
   2  -2 -18   67.44    8.54
  -2  -2 -18   55.81    7.65
   2   2 -18   53.42    7.17
  -2  -2 -17  327.37   18.28
   2  -2 -17  312.97   17.75
   2   2 -17  334.80   16.97
   2  -2 -16    3.31    1.96
  -2  -2 -16    1.74    1.19
   2   2 -16    6.16    2.37
  -2  -2 -15   58.40    7.63
   2  -2 -15   44.84    6.69
   2   2 -15   52.56    5.19
   2   2 -15   53.84    6.43
   2   2 -14    7.27    1.82
   2  -2 -14   10.67    3.08
   2   2 -14    6.80    1.90
  -2  -2 -14    5.39    2.28
   2  -2 -13  996.76   25.74
   2   2 -13 1017.92   24.53
   2   2 -13  993.38   22.01
  -2  -2 -13 1060.13   29.86
   2  -2 -13  987.45   28.47
   2   2 -12  243.90   11.37
   2  -2 -12  232.24   13.44
  -2  -2 -12  240.91   13.69
   2  -2 -12  231.16   12.23
   2   2 -12  251.58   10.74
  -2   2 -11    5.06    0.91
   2  -2 -11    6.02    2.39
  -2  -2 -11    3.84    2.38
   2  -2 -11    6.06    2.05
   2   2 -11    4.42    1.11
   2   2 -11    5.22    1.66
   2   2 -10  146.26    7.74
   2  -2 -10  142.06    9.26
   2  -2 -10  132.36    9.58
  -2   2 -10  135.46    4.77
   2   2 -10  153.03    8.24
  -2  -2 -10  144.65    9.86
  -2   2  -9  748.57   12.19
  -2  -2  -9  791.11   22.33
   2  -2  -9  741.83   22.33
   2   2  -9  750.83   16.58
   2  -2  -9  761.13   20.70
   2   2  -9  759.61   18.15
  -2  -2  -8   44.80    5.18
   2  -2  -8   44.36    5.38
   2   2  -8   48.61    4.58
   2  -2  -8   51.10    5.22
   2   2  -8   48.14    3.77
  -2   2  -8   46.68    3.28
   2  -2  -7  721.05   19.18
  -2   2  -7  730.15   13.19
   2   2  -7  718.33   13.24
  -2  -2  -7  707.42   19.25
   2   2  -7  698.81   17.00
   2  -2  -7  715.38   19.93
   2   2  -6   42.43    2.84
  -2   2  -6   42.64    3.33
  -2  -2  -6   49.59    4.83
   2   2  -6   44.39    4.33
   2  -2  -6   38.15    4.28
   2   2  -6   39.08    2.25
  -2  -2  -5   90.91    6.24
   2   2  -5   91.09    3.89
   2   2  -5   93.68    6.12
   2  -2  -5   90.82    6.57
   2   2  -5   96.45    3.63
  -2   2  -5   96.58    5.13
   2  -2  -5   89.90    6.58
   2   2  -4  232.12    6.74
   2  -2  -4  239.87   10.41
  -2  -2  -4  239.73    9.41
   2  -2  -4  224.71   10.12
  -2   2  -4  224.99    7.99
   2   2  -4  226.78    9.44
  -2  -2  -3 3347.63   32.64
   2   2  -3 3363.31   27.70
   2  -2  -3 3327.13   37.48
   2   2  -3 3264.48   35.69
   2  -2  -3 3334.02   37.54
   2  -2  -2  460.49   13.29
   2  -2  -2  417.05   13.04
   2   2  -2  442.93   10.75
   2   2  -2  442.23   13.01
  -2  -2  -2  462.86   10.91
   2  -2  -1 1184.54   20.59
   2   2  -1 1135.96   18.41
   2   2  -1 1182.25   21.40
   2  -2  -1 1188.09   21.67
   2  -2   0  209.07    8.41
   2   2   0  215.03    9.00
   2   2   0  227.74    8.58
   2  -2   1 1177.21   21.06
   2   2   1 1196.64   20.49
   2   2   1 1117.15   20.92
   2  -2   1 1160.46   19.40
   2   2   2  432.02   12.90
   2  -2   2  437.96   12.76
   2   2   2  438.95   13.07
   2   2   3 3323.67   36.80
   2  -2   3 3315.47   34.50
   2  -2   4  210.85    8.70
   2   2   4  224.78    9.49
   2   2   4  236.05   10.23
   2  -2   5   91.87    5.75
   2   2   5   82.78    6.21
   2   2   5   92.52    6.15
   2   2   6   44.95    4.37
   2   2   6   47.72    4.87
   2  -2   6   37.87    3.66
   2   2   7  697.93   17.50
   2   2   7  686.25   19.21
   2  -2   7  738.41   16.47
   2  -2   8   56.47    4.66
   2   2   8   50.12    4.78
   2   2   8   50.70    5.37
   2   2   9  758.36   18.46
   2   2   9  758.57   21.23
   2  -2   9  779.89   17.36
   2  -2  10  138.00    7.50
   2   2  10  152.95    8.46
   2   2  10  160.89    9.92
   2   2  11    4.03    1.85
   2  -2  11    2.72    1.43
   2   2  11    2.45    0.77
   2   2  12  239.82   10.89
   2   2  12  240.90   12.91
   2  -2  12  246.37   10.36
   2  -2  13 1048.22   21.87
   2   2  13 1015.22   27.19
   2   2  14    7.19    1.77
   2   2  14    7.19    2.52
   2  -2  14    4.46    1.36
   2   2  15   41.78    5.82
   2   2  15   50.26    5.36
   2  -2  15   46.18    4.72
   2   2  16    5.20    2.31
  -2   2  16    3.18    1.77
   2   2  16    8.63    2.13
   2  -2  16    6.82    1.67
   2   2  17  291.27   13.27
   2   2  17  274.07   15.59
   2  -2  17  279.84   12.57
  -2   2  17  320.38   16.16
   2   2  18   64.07    7.84
  -2   2  18   56.96    6.96
  -2   2  19  269.28   15.62
   2   2  19  235.90   15.77
  -2   2  20   26.29    5.06
   2   2  20   20.25    5.01
  -2   2  21    1.51    1.35
   2   2  21    1.14    1.63
   2   2  22    6.44    2.87
   2   2  23  230.75   16.58
  -2  -3 -30    5.56    3.45
   2  -3 -30    1.09    1.61
   2  -3 -29   12.91    4.78
  -2  -3 -29   10.09    4.65
  -2  -3 -28    2.27    2.93
   2  -3 -28   -0.08    1.91
  -2  -3 -27    0.16    1.73
   2  -3 -27   -1.57    2.99
  -2  -3 -26    1.92    2.57
   2  -3 -26    0.75    1.83
   2  -3 -25   17.87    5.13
  -2  -3 -25   10.27    3.75
  -2  -3 -24   -2.32    2.79
   2  -3 -24    0.42    2.19
  -2  -3 -23    0.75    2.39
   2  -3 -23    3.20    3.75
   2  -3 -22    3.31    3.07
  -2  -3 -22   -0.81    1.86
  -2  -3 -21   20.16    5.28
   2  -3 -21   24.53    5.90
   2  -3 -20    3.58    2.50
  -2  -3 -20    9.09    3.48
   2  -3 -19   -1.43    1.91
  -2  -3 -19    1.14    2.00
   2   3 -18    9.89    2.75
   2  -3 -18    8.56    3.69
  -2  -3 -18    5.47    2.36
   2  -3 -17    0.75    2.14
   2   3 -17    4.73    2.30
  -2  -3 -17   -0.40    2.55
   2   3 -16    9.14    2.39
   2  -3 -16    4.93    2.80
  -2  -3 -16    8.29    3.69
  -2  -3 -15   10.96    3.37
   2  -3 -15   12.61    4.08
   2   3 -15    8.62    2.29
   2   3 -15    8.40    2.53
   2  -3 -14    8.36    2.47
   2   3 -14   19.60    3.59
   2   3 -14   15.75    3.16
  -2  -3 -14   17.34    4.22
   2  -3 -14   19.54    3.84
  -2   3 -13    8.37    1.96
   2  -3 -13    0.19    1.98
   2   3 -13    4.26    1.66
  -2  -3 -13    6.60    2.40
   2   3 -13    6.97    1.74
   2  -3 -13    4.13    1.63
   2  -3 -12   52.65    6.64
  -2  -3 -12   63.19    7.29
   2   3 -12   55.26    5.64
  -2   3 -12   53.61    4.28
   2  -3 -12   51.67    6.45
   2   3 -12   55.25    4.98
  -2  -3 -11   68.89    7.17
   2   3 -11   58.20    5.05
   2  -3 -11   70.04    7.22
  -2   3 -11   62.71    4.72
   2  -3 -11   72.63    7.70
   2   3 -11   61.70    5.89
   2   3 -10   61.15    5.93
  -2   3 -10   58.94    4.69
  -2  -3 -10   60.97    6.62
   2   3 -10   53.20    4.31
   2  -3 -10   53.97    6.36
   2  -3 -10   68.92    7.21
   2  -3  -9   74.54    7.38
   2   3  -9   65.82    3.30
  -2  -3  -9   65.60    6.54
   2  -3  -9   68.72    6.95
  -2   3  -9   71.60    5.31
   2   3  -9   77.74    6.52
   2   3  -9   62.82    4.37
   2   3  -8    5.44    2.39
   2  -3  -8    5.44    1.97
   2   3  -8    6.13    1.23
  -2   3  -8    8.63    1.91
   2  -3  -8    9.49    3.06
  -2  -3  -8    5.91    1.68
  -2   3  -7   35.75    3.88
  -2  -3  -7   48.05    5.31
   2   3  -7   35.04    4.49
   2  -3  -7   40.90    5.03
   2  -3  -7   40.47    5.19
   2   3  -7   53.77    3.58
   2  -3  -6    2.95    1.39
  -2  -3  -6    2.23    1.32
  -2   3  -6    2.25    0.82
   2  -3  -6    2.50    0.62
   2   3  -6    4.88    1.87
   2  -3  -5  225.90   11.71
  -2  -3  -5  250.70   10.82
  -2   3  -5  242.85   10.48
   2   3  -5  246.80   11.51
   2  -3  -5  252.47   12.01
  -2  -3  -4   26.35    3.34
   2   3  -4   21.05    3.25
  -2   3  -4   31.22    3.82
   2  -3  -4   20.56    3.22
   2  -3  -4   20.33    3.59
  -2   3  -3   22.55    3.26
   2  -3  -3   16.75    3.22
   2  -3  -3   22.47    3.50
  -2  -3  -3   22.70    2.89
   2   3  -3   28.47    3.80
  -2  -3  -2   92.29    5.38
   2   3  -2   93.07    7.00
   2  -3  -2   87.99    6.86
   2  -3  -2   99.71    6.95
  -2   3  -2  101.77    6.94
  -2   3  -1 1613.64   27.81
   2  -3  -1 1693.62   30.22
  -2  -3  -1 1701.37   20.95
   2   3  -1 1643.80   29.44
   2  -3  -1 1636.92   26.92
   2   3   0  187.42    9.88
   2  -3   0  181.37    8.68
   2  -3   0  164.84    9.33
  -2  -3   0  182.10    6.02
   2  -3   1 1702.77   29.17
   2   3   1 1721.37   30.20
   2  -3   1 1687.84   25.98
   2  -3   2   84.03    6.45
   2  -3   2   92.11    6.00
   2   3   2   91.60    6.97
   2   3   3   20.23    3.34
   2  -3   3   26.90    3.64
   2  -3   3   18.83    2.72
   2   3   4   28.01    3.87
   2  -3   4   20.88    2.82
   2   3   4   21.86    3.52
   2  -3   4   25.02    3.50
   2   3   5  259.62   12.14
   2  -3   5  239.35   10.80
   2   3   5  254.45   12.37
   2   3   6    2.22    1.73
   2   3   6    1.31    0.74
   2  -3   6    1.45    0.59
   2   3   7   43.07    5.04
   2   3   7   44.59    5.34
   2  -3   7   59.41    5.31
   2  -3   8    8.45    2.09
   2   3   8    4.33    1.48
   2   3   8    5.96    1.72
   2   3   9   68.90    7.05
   2   3   9   73.76    6.61
   2  -3   9   67.11    5.53
   2   3  10   59.79    6.75
   2   3  10   57.41    6.18
   2  -3  10   53.89    4.97
   2  -3  11   61.94    5.39
   2   3  11   60.41    6.06
   2   3  11   74.06    7.66
   2  -3  12   55.61    5.45
   2   3  12   50.47    6.43
   2   3  12   47.25    5.65
   2   3  13    0.89    1.64
   2  -3  13    2.68    1.32
   2   3  13    3.85    1.02
   2  -3  14   12.67    2.46
   2   3  14   14.97    3.43
   2   3  14   20.48    4.27
   2   3  15   10.13    3.67
   2   3  15    8.82    3.10
   2  -3  15    8.33    2.09
   2   3  16    7.66    2.85
   2   3  16    6.96    2.53
   2  -3  16    4.41    1.60
   2   3  17    2.36    1.68
   2   3  17    5.57    2.88
  -2   3  18    8.90    3.40
   2   3  18    7.66    2.98
   2   3  18   10.66    3.60
  -2   3  18    7.75    3.03
  -2   3  19    2.77    2.35
  -2   3  19    1.18    1.51
   2   3  19    1.89    3.10
  -2   3  20    9.78    3.04
  -2   3  20    9.05    3.99
   2   3  20    6.43    2.92
   2   3  21   15.61    4.85
  -2   3  21   21.87    4.86
   2   3  22   -0.13    1.16
  -2   3  22    2.62    2.63
   2   3  23    4.25    2.99
   2   3  24    4.36    3.23
  -2  -4 -29   47.43    8.17
   2  -4 -29   49.65    8.63
   2  -4 -28    6.37    3.44
  -2  -4 -28    3.63    2.67
  -2  -4 -27    8.26    3.66
   2  -4 -27    4.61    2.29
   2  -4 -26    9.01    4.33
  -2  -4 -26    2.59    2.77
  -2  -4 -25   87.58   11.00
   2  -4 -25  126.91   13.35
  -2  -4 -24    0.52    1.90
   2  -4 -24    7.10    3.51
  -2  -4 -23   67.65    9.77
   2  -4 -23   77.36   10.38
  -2  -4 -22    8.89    3.98
   2  -4 -22    0.52    2.63
   2  -4 -21    3.57    2.32
  -2  -4 -21    0.25    1.96
  -2  -4 -20   10.84    3.64
   2  -4 -20   19.23    5.65
   2  -4 -19  230.18   16.93
  -2  -4 -19  266.64   18.24
   2  -4 -18   73.21    9.05
  -2  -4 -18   63.51    8.92
  -2  -4 -17  243.28   16.41
   2  -4 -17  239.23   16.57
  -2  -4 -16    5.35    2.66
   2  -4 -16    0.92    1.68
  -2  -4 -15   69.94    8.41
   2   4 -15   68.49    7.24
   2  -4 -15   63.55    7.92
   2  -4 -15   65.65    8.14
  -2  -4 -14  100.61   10.04
   2  -4 -14  101.49    9.99
   2  -4 -14  101.28    9.76
   2  -4 -13  597.22   23.75
   2   4 -13  633.93   21.48
   2  -4 -13  615.37   23.99
  -2   4 -12  185.06   10.05
   2   4 -12  197.48   11.88
  -2  -4 -12  193.96   13.16
   2  -4 -12  192.24   13.34
   2  -4 -12  203.28   13.70
   2   4 -11   94.00    8.09
  -2   4 -11   84.25    6.89
   2  -4 -11   83.55    8.66
   2  -4 -11   86.55    8.68
  -2  -4 -11   83.98    8.29
   2   4 -10    4.72    1.79
  -2  -4 -10    4.49    2.42
   2   4 -10    6.84    1.32
   2  -4 -10    1.87    1.16
  -2   4 -10    8.03    2.38
   2  -4 -10    6.07    2.91
  -2   4  -9  661.97   19.60
  -2  -4  -9  690.85   22.40
   2  -4  -9  632.55   22.85
   2  -4  -9  693.75   23.89
   2   4  -9  661.63   21.46
  -2   4  -8   84.83    6.99
  -2  -4  -8   86.52    7.61
   2  -4  -8   88.88    8.49
   2   4  -8   79.94    7.31
   2  -4  -8   79.07    7.73
   2  -4  -7  175.35   11.85
  -2  -4  -7  192.49   11.04
   2  -4  -7  201.63   12.17
   2   4  -7  182.73   11.17
  -2   4  -7  176.92   10.38
  -2   4  -6   96.65    7.62
  -2  -4  -6   93.82    7.47
   2  -4  -6   99.48    8.42
   2   4  -6   94.61    7.93
   2  -4  -6   96.00    8.61
  -2   4  -5   55.06    6.02
   2  -4  -5   64.43    6.48
  -2  -4  -5   49.66    5.29
   2   4  -5   45.34    5.73
   2   4  -4  207.77   11.87
  -2   4  -4  215.79   11.64
   2  -4  -4  199.73   12.24
   2  -4  -4  198.17   11.09
  -2  -4  -4  207.74    9.96
  -2   4  -3  542.33   18.74
   2  -4  -3  522.07   19.30
   2  -4  -3  554.76   18.02
  -2  -4  -3  528.44   15.09
   2   4  -3  542.42   19.22
   2  -4  -2   53.69    6.01
  -2   4  -2   60.45    6.19
  -2  -4  -2   56.04    4.65
   2   4  -2   59.40    6.31
   2  -4  -2   47.93    5.20
  -2   4  -1 2521.50   40.56
   2   4  -1 2403.09   40.80
   2  -4  -1 2536.94   36.74
   2  -4  -1 2546.80   41.66
  -2  -4  -1 2512.90   28.62
   2   4   0  268.23   13.70
  -2  -4   0  253.61    8.45
   2  -4   0  263.16   11.38
   2  -4   0  265.03   13.34
  -2   4   0  272.28   13.33
   2  -4   1 2581.24   34.77
   2   4   1 2505.25   41.68
  -2  -4   1 2591.75   22.40
   2  -4   1 2470.39   40.22
  -2   4   1 2557.92   41.41
   2  -4   2   60.00    6.27
   2   4   2   64.41    6.55
  -2   4   2   49.87    5.85
   2  -4   2   54.61    5.00
   2  -4   3  573.96   16.27
   2  -4   3  534.68   18.21
  -2  -4   3  549.25   16.81
   2   4   3  563.01   19.97
  -2   4   3  581.49   20.15
   2  -4   4  209.50    9.64
  -2   4   4  204.39   12.04
   2  -4   4  210.81   11.22
  -2  -4   4  208.57   10.16
   2   4   4  184.62   11.62
   2   4   5   63.67    6.85
   2  -4   5   56.27    5.70
  -2   4   5   59.60    6.49
   2  -4   5   61.22    5.29
   2  -4   6   84.71    7.10
  -2   4   6   84.56    7.86
   2   4   6   85.39    8.00
   2  -4   7  171.72   10.07
   2   4   7  186.95   12.16
   2   4   7  171.43   11.21
  -2   4   7  182.46   11.67
   2   4   8   82.54    8.27
  -2   4   8   95.88    8.61
   2   4   8   91.93    8.39
   2  -4   8   95.96    7.55
   2   4   9  696.57   24.64
  -2   4   9  745.14   24.30
   2  -4   9  714.98   20.53
   2   4   9  700.41   23.19
   2   4  10    9.59    2.82
   2  -4  10   -0.28    1.26
   2   4  10    5.21    2.33
  -2   4  10    5.50    2.16
  -2   4  11   90.90    8.74
   2   4  11   84.74    9.00
   2  -4  11   73.81    6.70
   2   4  11   91.44    8.66
   2   4  12  215.72   13.38
  -2   4  12  202.28   13.20
   2  -4  12  195.65   10.78
   2  -4  13  642.10   19.65
   2   4  13  660.71   25.27
  -2   4  13  614.24   23.39
   2   4  13  612.21   22.79
   2   4  14  102.76    9.65
  -2   4  14   85.11    8.80
   2   4  14   90.45    9.75
   2  -4  14  112.11    8.02
   2   4  15   53.15    6.99
   2  -4  15   64.25    6.23
  -2   4  15   56.36    7.11
   2   4  15   43.85    7.19
   2   4  16    7.30    2.67
  -2   4  16    7.65    3.49
   2   4  16    2.66    2.08
   2   4  17  256.97   16.72
  -2   4  17  238.01   15.87
   2   4  17  221.14   14.86
  -2   4  18   86.18    9.74
  -2   4  18   75.12    9.41
   2   4  18   61.06    7.84
   2   4  18   67.53    8.94
  -2   4  19  245.80   17.20
  -2   4  19  248.23   16.56
   2   4  19  232.94   16.72
   2   4  19  248.79   16.19
  -2   4  20    5.78    2.03
   2   4  20   11.11    4.46
  -2   4  20    7.45    3.90
   2   4  21    3.25    1.94
  -2   4  21    2.90    1.82
  -2   4  21    1.72    1.24
   2   4  22    1.83    1.57
  -2   4  22    3.89    1.69
  -2   4  23   60.54    9.73
   2   4  23   80.92   10.16
   2   4  24    9.42    3.51
   2   4  25   75.67   10.94
  -2  -5 -28   -3.35    2.90
   2  -5 -28    0.91    1.58
   2  -5 -27   10.75    4.17
  -2  -5 -27   10.27    5.22
   2  -5 -26   -1.76    1.60
  -2  -5 -26    2.42    3.39
  -2  -5 -25   22.66    6.86
   2  -5 -25    9.72    3.70
   2  -5 -24   -0.71    2.66
  -2  -5 -24    4.13    2.08
  -2  -5 -23    8.31    4.32
   2  -5 -23    3.86    2.76
  -2  -5 -22   30.60    6.21
   2  -5 -22   14.53    4.84
  -2  -5 -21    2.94    3.75
   2  -5 -21    1.47    2.62
  -2  -5 -20    0.58    1.53
   2  -5 -20    4.97    2.81
  -2  -5 -19   14.32    4.31
   2  -5 -19   26.47    6.11
   2  -5 -18    1.70    2.93
  -2  -5 -18    2.37    2.26
   2  -5 -17    7.56    2.81
  -2  -5 -17    7.58    3.88
  -2  -5 -16   12.84    4.23
   2  -5 -16   14.12    3.98
  -2  -5 -15    5.19    2.51
   2  -5 -15    9.54    3.57
   2  -5 -15    2.58    1.97
   2   5 -14   11.84    3.02
  -2  -5 -14   11.21    3.20
   2  -5 -14    7.84    2.90
   2  -5 -14    5.13    2.77
  -2  -5 -13  101.77   10.01
   2  -5 -13  126.67   11.37
   2   5 -13  110.01    9.66
   2  -5 -12   53.13    6.92
  -2  -5 -12   53.26    7.28
  -2   5 -12   49.92    6.14
   2  -5 -12   50.46    7.37
   2   5 -12   55.37    6.91
   2  -5 -11    4.31    2.47
   2   5 -11    6.75    2.98
  -2   5 -11    5.45    2.07
  -2  -5 -11    4.31    3.13
   2  -5 -11    4.43    2.78
   2   5 -10   28.48    4.98
  -2   5 -10   41.88    6.12
   2  -5 -10   25.80    5.35
   2  -5 -10   22.85    4.89
  -2  -5 -10   28.19    4.78
   2  -5  -9   18.18    3.99
  -2   5  -9   29.85    5.18
  -2  -5  -9   22.65    4.60
   2   5  -9   24.47    4.62
   2  -5  -9   34.43    5.95
   2   5  -8    7.76    2.15
   2  -5  -8    6.06    2.24
  -2  -5  -8    8.09    2.46
   2  -5  -8    9.56    3.65
  -2   5  -8    6.33    2.46
   2  -5  -7    0.79    1.91
  -2  -5  -7    0.50    0.74
   2  -5  -7   -0.47    1.28
  -2   5  -7   -0.84    1.37
   2   5  -7    0.07    1.16
   2  -5  -6   12.33    3.02
   2  -5  -6   12.12    2.96
  -2   5  -6    9.93    2.86
  -2  -5  -6    7.19    2.09
   2   5  -6   10.92    2.72
   2   5  -5   39.71    5.83
   2  -5  -5   29.51    4.78
  -2   5  -5   37.34    5.41
   2  -5  -5   32.83    5.70
  -2  -5  -5   30.16    4.38
  -2  -5  -4  134.98    8.78
   2   5  -4  143.37   10.87
   2  -5  -4  122.87   10.22
  -2   5  -4  121.57    9.78
   2  -5  -4  131.32    9.55
  -2  -5  -3  126.62    7.83
  -2   5  -3  124.64    9.86
   2  -5  -3  120.58   10.22
   2  -5  -3  122.00    9.07
   2   5  -3  124.16   10.24
  -2   5  -2   12.90    3.49
   2  -5  -2   11.60    2.71
  -2  -5  -2   11.48    2.38
   2  -5  -2   11.68    3.07
   2   5  -2   14.19    3.54
  -2  -5  -1  525.39   14.40
   2  -5  -1  504.15   20.43
   2  -5  -1  475.69   17.17
  -2   5  -1  519.14   20.68
   2   5  -1  506.99   20.50
  -2  -5   0   54.43    4.28
   2   5   0   56.89    7.20
   2  -5   0   53.73    5.64
   2  -5   0   56.87    6.70
  -2   5   0   61.04    7.00
  -2  -5   1  537.63   19.72
  -2   5   1  510.70   20.47
   2   5   1  524.32   21.22
   2  -5   1  508.39   20.06
   2  -5   1  511.23   17.14
  -2  -5   1  524.31   12.09
  -2  -5   2   12.43    1.57
   2  -5   2   13.63    2.84
  -2   5   2   14.25    3.51
  -2  -5   2   13.23    3.30
   2  -5   2    9.40    2.88
   2   5   2   15.40    4.00
  -2   5   3  131.13   10.56
   2  -5   3  128.39    8.21
   2   5   3  111.61    9.75
  -2  -5   3  127.33    9.24
  -2   5   4  135.91   11.06
   2   5   4  122.51   10.24
   2  -5   4  112.53    9.18
   2  -5   4  131.58    8.33
  -2  -5   4  117.51    8.60
  -2  -5   5   39.85    5.06
   2  -5   5   23.79    4.29
   2  -5   5   25.19    3.78
   2   5   5   46.46    6.46
  -2   5   5   35.54    5.64
  -2  -5   6    9.93    2.29
   2  -5   6   12.07    3.00
  -2   5   6    9.14    3.51
   2  -5   6   14.42    2.74
   2   5   6    8.67    3.24
   2   5   7    2.44    2.17
   2  -5   7   -0.20    0.64
   2  -5   7   -0.36    1.77
  -2   5   7   -1.60    0.96
   2   5   8    3.67    2.00
   2  -5   8    8.47    2.50
   2   5   8    4.24    2.25
  -2   5   8    2.65    1.95
   2  -5   8    5.08    1.73
   2  -5   9   25.46    4.42
  -2   5   9   16.75    4.50
   2   5   9   24.52    4.71
   2  -5   9   29.41    4.21
   2   5   9   19.88    4.93
   2  -5  10   25.64    4.47
   2   5  10   34.54    5.69
  -2   5  10   34.80    5.84
   2   5  10   29.08    5.26
   2   5  11    1.50    1.63
  -2   5  11    5.98    2.66
   2   5  11    1.09    2.15
   2  -5  11    4.52    1.99
  -2   5  12   61.66    8.15
   2   5  12   56.74    7.50
   2   5  12   49.83    7.16
   2  -5  12   45.86    5.83
   2   5  13  109.28   10.61
  -2   5  13  114.71   11.10
   2  -5  13  104.36    8.73
   2   5  13  105.14   10.93
   2  -5  14   10.35    2.87
   2   5  14   19.05    4.31
   2   5  14   10.96    3.75
  -2   5  15    7.18    3.42
   2   5  15    9.09    3.05
   2   5  15    1.88    1.71
   2   5  16   22.07    5.14
  -2   5  16   16.67    4.82
   2   5  16   18.35    3.97
   2   5  17   10.11    4.12
   2   5  17    7.86    3.55
  -2   5  17    2.39    1.84
   2   5  18    1.71    1.36
  -2   5  18    0.12    1.42
   2   5  18   -0.10    2.29
   2   5  19   13.37    3.64
  -2   5  19   18.65    4.54
   2   5  19   21.28    5.35
  -2   5  19   19.46    4.75
   2   5  20    3.14    2.83
  -2   5  20    1.19    1.81
   2   5  20   -0.38    1.94
  -2   5  20    3.09    3.43
   2   5  21    0.25    2.76
  -2   5  21    2.48    1.85
  -2   5  21    6.60    3.69
   2   5  22   23.97    5.46
  -2   5  22   21.60    5.93
  -2   5  23   12.94    4.69
   2   5  23    4.81    3.68
   2   5  24    8.22    4.14
  -2   5  24    0.30    1.69
   2   5  25   13.43    5.93
   2   5  26   -1.77    1.83
  -2  -6 -26    2.43    1.64
   2  -6 -26   -0.96    2.46
  -2  -6 -25   30.57    7.31
   2  -6 -25   38.84    8.27
  -2  -6 -24   23.18    6.10
   2  -6 -24   24.75    7.03
  -2  -6 -23   13.38    4.82
   2  -6 -23   18.80    6.15
   2  -6 -22   30.01    6.41
  -2  -6 -22   39.60    7.43
   2  -6 -21    9.56    3.68
  -2  -6 -21   23.26    5.48
   2  -6 -20   17.98    5.69
  -2  -6 -20   18.79    5.24
   2  -6 -19  175.46   16.36
  -2  -6 -19  175.70   15.65
   2  -6 -18    6.05    3.77
  -2  -6 -18    6.85    3.18
   2  -6 -17  105.43   11.58
  -2  -6 -17   94.97   10.86
  -2  -6 -16   16.31    4.70
   2  -6 -16   10.91    3.72
  -2  -6 -15  160.64   13.89
   2  -6 -15  149.88   13.53
   2  -6 -15  149.53   13.78
   2  -6 -14   64.94    9.03
  -2  -6 -14   66.94    9.20
   2   6 -14   48.98    6.97
   2  -6 -14   64.83    8.98
   2   6 -13  619.26   25.43
  -2  -6 -13  716.20   27.99
   2  -6 -13  664.50   27.30
   2  -6 -13  737.97   29.56
   2   6 -12   16.43    4.84
   2  -6 -12   16.43    4.74
   2  -6 -12   14.93    4.62
  -2   6 -12   12.70    3.66
  -2  -6 -12   11.77    4.10
   2  -6 -11  107.24   10.66
   2   6 -11   80.09    9.25
  -2   6 -11  106.80   10.17
  -2  -6 -11  102.09   10.03
   2  -6 -11  119.69   12.01
   2   6 -10   44.10    6.63
   2  -6 -10   41.66    6.63
  -2  -6 -10   44.71    6.49
   2  -6 -10   41.62    6.66
  -2   6 -10   45.78    6.17
  -2  -6  -9  541.74   22.25
   2  -6  -9  510.59   22.70
  -2   6  -9  512.94   22.15
   2  -6  -9  555.51   24.26
   2   6  -9  498.30   22.40
   2  -6  -8  278.15   17.23
   2  -6  -8  257.94   15.69
  -2  -6  -8  278.21   15.58
   2   6  -8  282.50   16.97
  -2   6  -8  283.35   16.41
   2   6  -7  490.94   22.05
  -2   6  -7  493.75   21.71
   2  -6  -7  469.53   21.14
   2  -6  -7  482.49   22.33
  -2  -6  -7  496.84   20.19
   2   6  -6   10.97    2.98
   2  -6  -6   10.38    3.32
  -2  -6  -6   14.65    3.25
  -2   6  -6   11.55    4.52
   2  -6  -6   13.46    3.53
   2   6  -5   56.44    7.36
  -2  -6  -5   67.32    6.88
  -2   6  -5   57.30    7.70
   2  -6  -5   67.40    8.61
   2  -6  -5   68.84    7.60
   2  -6  -4  541.75   23.25
   2   6  -4  545.47   23.37
  -2   6  -4  567.72   23.42
   2  -6  -4  572.06   21.28
  -2  -6  -4  556.47   19.16
   2  -6  -3  412.26   18.05
  -2   6  -3  367.41   18.94
   2  -6  -3  420.91   20.61
  -2  -6  -3  434.21   15.98
   2   6  -3  403.21   20.03
   2   6  -2  228.36   15.20
   2  -6  -2  232.99   15.03
  -2   6  -2  219.58   14.43
  -2  -6  -2  227.78   11.22
   2  -6  -2  237.43   13.35
  -2   6  -1  439.31   20.56
   2   6  -1  458.42   21.31
  -2  -6  -1  476.15   14.90
   2  -6  -1  460.63   18.15
   2  -6  -1  416.59   19.95
   2   6   0   40.63    6.49
  -2  -6   0   41.40    4.07
   2  -6   0   40.13    6.18
   2  -6   0   38.89    5.27
  -2   6   0   49.28    6.98
   2   6   1  508.56   22.35
  -2   6   1  510.12   22.30
  -2  -6   1  467.03   12.48
   2  -6   1  464.98   17.63
   2  -6   1  496.67   21.43
   2  -6   2  234.93   12.34
   2  -6   2  238.49   14.68
  -2   6   2  225.98   14.88
   2   6   2  222.45   14.90
  -2  -6   2  238.86   14.00
  -2  -6   2  204.84    6.94
   2   6   3  400.57   20.01
  -2  -6   3  414.10   18.45
   2  -6   3  404.86   15.86
   2  -6   3  409.34   19.45
  -2   6   3  440.82   20.89
  -2  -6   4  561.03   21.20
  -2   6   4  570.57   24.03
   2  -6   4  615.61   19.19
   2  -6   4  543.18   22.53
   2   6   4  608.15   25.09
  -2   6   5   66.04    8.41
   2   6   5   71.41    8.59
   2  -6   5   63.12    5.99
  -2  -6   5   68.01    7.11
   2  -6   6    7.65    2.38
   2   6   6    6.54    3.02
  -2   6   6   12.17    4.53
   2  -6   6   13.83    2.99
   2  -6   7  496.92   21.06
   2  -6   7  467.78   16.67
  -2   6   7  516.86   23.36
   2   6   7  483.58   22.70
  -2   6   8  333.32   18.98
   2   6   8  287.07   17.52
   2  -6   8  299.67   13.55
   2  -6   8  316.65   16.53
   2   6   8  322.48   18.65
   2   6   9  549.14   24.61
  -2   6   9  502.13   23.57
   2  -6   9  521.16   21.77
   2   6   9  521.41   23.94
   2   6  10   47.27    7.34
   2   6  10   45.96    7.38
  -2   6  10   58.24    8.13
   2  -6  10   55.45    6.83
   2   6  11  105.88   11.11
   2   6  11  100.37   10.87
  -2   6  11  103.03   11.05
   2  -6  11  110.08    9.83
  -2   6  12   17.81    4.81
   2   6  12   16.84    5.28
   2  -6  12   16.04    3.29
   2   6  12   13.78    4.25
   2   6  13  668.31   27.97
   2   6  13  705.05   29.10
  -2   6  13  722.29   29.37
  -2   6  14   51.52    8.17
   2   6  14   58.44    8.49
   2   6  14   52.69    8.23
  -2   6  15  148.21   13.39
   2   6  15  140.16   12.93
   2   6  15  132.25   12.80
   2   6  16    5.59    2.66
   2   6  16    9.08    3.77
   2   6  17   87.01   10.64
   2   6  17   93.99   11.32
  -2   6  17   75.98    9.96
   2   6  18   12.32    4.76
  -2   6  18    8.68    3.32
   2   6  18    7.13    2.49
  -2   6  19  177.83   15.82
   2   6  19  189.50   16.13
  -2   6  19  184.33   16.00
   2   6  19  204.38   16.61
   2   6  20   21.75    6.18
   2   6  20   13.47    4.76
  -2   6  20   19.37    6.19
  -2   6  20   12.83    5.45
  -2   6  21   24.64    6.53
  -2   6  21   20.96    6.77
   2   6  21   18.13    5.93
  -2   6  22   30.10    6.54
  -2   6  22   44.00    8.01
   2   6  22   23.30    6.57
   2   6  23   26.88    6.76
  -2   6  23   20.71    5.19
   2   6  24   16.14    5.14
  -2   6  24   22.83    5.74
   2   6  25   39.18    7.68
  -2   6  25   46.26    9.58
   2   6  26    3.19    1.41
   2  -7 -24   -2.51    2.80
  -2  -7 -24    0.15    2.43
  -2  -7 -23   -0.21    4.08
   2  -7 -23   -0.19    2.25
  -2  -7 -22   -1.11    3.28
   2  -7 -22    2.98    4.32
   2  -7 -21    5.30    1.59
  -2  -7 -21   13.20    4.42
   2  -7 -20   56.46    9.03
  -2  -7 -20   50.35    8.33
   2  -7 -19   13.29    3.55
  -2  -7 -19    9.08    3.55
  -2  -7 -18   25.68    6.18
   2  -7 -18   25.72    6.92
  -2  -7 -17    2.64    2.22
   2  -7 -17    5.25    2.67
   2  -7 -16   12.42    4.13
  -2  -7 -16   18.30    5.73
   2  -7 -15    0.17    2.06
  -2  -7 -15   -0.33    2.11
   2  -7 -14   82.55   10.12
   2  -7 -14   82.11   10.65
  -2  -7 -14   80.32   10.08
   2   7 -13   18.70    5.01
   2  -7 -13   29.19    6.48
  -2  -7 -13   21.71    4.77
   2  -7 -13   10.75    4.19
  -2  -7 -12  104.31   10.83
   2  -7 -12   85.50   10.48
   2  -7 -12  112.15   12.53
   2   7 -12   82.80   10.02
  -2  -7 -11   77.37    9.29
   2  -7 -11   75.96   10.11
   2  -7 -11   58.19    8.69
   2   7 -11   76.94    9.64
   2   7 -10   64.54    8.61
   2  -7 -10   59.12    8.73
  -2  -7 -10   39.60    6.65
  -2   7 -10   54.21    8.05
   2  -7 -10   51.13    7.33
   2  -7  -9   80.03    9.24
  -2   7  -9   73.52    9.14
   2   7  -9   89.62   10.49
   2  -7  -9   76.52   10.03
  -2  -7  -9   53.18    8.07
   2   7  -8  179.36   14.16
  -2   7  -8  163.65   13.60
   2  -7  -8  163.44   13.90
  -2  -7  -8  159.55   12.57
   2  -7  -8  183.44   13.71
   2   7  -7   -1.03    1.97
  -2   7  -7    1.56    1.95
   2  -7  -7   -1.46    1.15
  -2  -7  -7    0.74    1.34
   2  -7  -7    3.14    2.21
   2  -7  -6  173.30   13.29
   2  -7  -6  206.20   15.69
   2   7  -6  176.47   14.19
  -2   7  -6  213.02   15.39
  -2  -7  -6  173.74   12.34
  -2   7  -5  168.60   13.79
   2  -7  -5  154.35   12.45
  -2  -7  -5  154.95   11.32
   2  -7  -5  172.12   14.03
   2   7  -5  167.06   13.88
   2   7  -4    4.41    2.48
  -2  -7  -4    7.79    2.93
   2  -7  -4   13.22    4.36
   2  -7  -4    8.47    2.73
  -2   7  -4   10.40    3.85
   2   7  -3  382.72   20.96
  -2  -7  -3  382.19   16.26
   2  -7  -3  343.09   19.85
  -2   7  -3  355.64   20.07
   2  -7  -3  373.17   18.06
  -2  -7  -2   33.00    4.63
   2   7  -2   47.91    7.68
   2  -7  -2   26.94    5.26
   2  -7  -2   30.28    5.61
  -2   7  -2   28.51    5.70
   2  -7  -1   28.51    5.34
   2  -7  -1   27.69    4.47
   2   7  -1   35.95    6.41
  -2   7  -1   36.11    7.04
  -2   7   0    5.71    2.11
   2   7   0    9.98    3.51
   2  -7   0    8.32    3.54
   2  -7   0    5.00    1.66
   2   7   1   31.37    6.34
   2  -7   1   34.37    6.26
   2  -7   1   32.26    4.78
  -2   7   1   32.16    6.23
   2   7   2   25.44    5.58
   2  -7   2   29.98    5.59
   2  -7   2   32.98    4.82
  -2   7   2   31.04    5.76
   2  -7   3  355.54   19.37
   2   7   3  370.45   20.56
  -2   7   3  344.34   19.85
   2  -7   3  312.34   14.72
   2   7   4    3.12    2.00
   2  -7   4   15.45    4.14
  -2   7   4   13.70    4.68
   2   7   5  164.92   13.73
  -2   7   5  156.55   13.21
   2  -7   5  158.69   13.16
   2  -7   6  183.64   14.19
   2   7   6  195.65   15.48
  -2   7   6  165.71   14.15
   2   7   7    2.52    2.04
  -2   7   7   -0.71    2.04
   2  -7   7    0.58    1.88
   2   7   8  171.19   14.42
   2   7   8  178.73   14.66
  -2   7   8  180.68   14.78
   2  -7   8  155.94   12.90
   2   7   9   78.49    9.71
   2   7   9   72.91    9.44
  -2   7   9   69.49    9.34
   2  -7   9   64.27    7.97
   2   7  10   59.41    8.89
   2   7  10   64.79    8.60
  -2   7  10   67.37    9.36
   2  -7  10   72.20    8.77
   2   7  11   76.23    9.39
  -2   7  11   67.44    9.51
   2  -7  11   78.88    9.23
   2   7  11   80.06   10.28
   2   7  12   90.96   10.72
  -2   7  12   84.37   10.61
   2   7  12   91.12   11.23
   2   7  13   16.26    5.48
   2   7  13   16.88    4.86
  -2   7  13   24.37    5.15
  -2   7  14   76.22   10.28
   2   7  14  103.87   11.69
   2   7  14   74.56    9.75
   2   7  15   -3.20    3.09
  -2   7  15    2.17    4.46
   2   7  15    4.64    3.15
  -2   7  16   15.03    4.81
   2   7  16    8.48    3.68
   2   7  17    2.56    3.24
  -2   7  17    5.31    2.36
   2   7  17    4.88    2.64
  -2   7  18   27.15    6.58
   2   7  18   28.75    6.68
   2   7  18   26.30    6.23
   2   7  19    5.00    2.29
  -2   7  19   -2.12    2.95
  -2   7  19    4.44    2.60
   2   7  19    3.87    2.66
   2   7  20   52.08    8.32
  -2   7  20   54.50    9.69
  -2   7  20   35.15    7.48
   2   7  20   63.18    9.98
  -2   7  21    8.18    3.96
   2   7  21   11.89    4.92
  -2   7  21    8.39    3.57
  -2   7  22    0.45    3.46
  -2   7  22   -1.22    3.37
   2   7  22    1.71    2.92
   2   7  23    0.11    3.02
  -2   7  23    2.01    2.16
   2   7  24    5.62    3.81
  -2   7  24    0.36    2.36
  -2  -8 -22   19.63    6.24
   2  -8 -22   23.42    6.76
   2  -8 -21    0.01    3.26
  -2  -8 -21    2.03    3.62
  -2  -8 -20   11.44    3.99
   2  -8 -20   11.00    5.17
  -2  -8 -19   28.07    6.22
   2  -8 -19   20.61    5.97
   2  -8 -18    2.56    2.86
  -2  -8 -18    0.97    1.83
  -2  -8 -17   19.48    6.03
   2  -8 -17   29.57    7.08
  -2  -8 -16   21.74    5.62
   2  -8 -16   25.72    6.82
  -2  -8 -15   -1.06    1.65
   2  -8 -15   -1.45    1.56
  -2  -8 -14    1.50    3.75
   2  -8 -14   17.03    5.18
  -2  -8 -13   14.35    4.20
   2  -8 -13   32.55    7.06
   2  -8 -13   29.15    6.47
  -2  -8 -12    0.12    2.58
   2   8 -12    3.84    3.08
   2  -8 -12    2.01    1.86
   2  -8 -12    3.64    2.28
   2   8 -11    1.14    2.35
  -2   8 -11    7.63    4.49
   2  -8 -11    4.36    2.73
  -2  -8 -11    2.07    1.45
   2  -8 -11    2.59    1.96
   2   8 -10   10.90    4.55
   2  -8 -10    7.92    4.01
  -2  -8 -10    9.05    3.31
  -2   8 -10   12.52    4.60
   2  -8 -10    6.96    3.38
  -2   8  -9   53.22    8.43
   2  -8  -9   60.60    9.08
   2  -8  -9   40.95    6.71
  -2  -8  -9   59.89    8.14
   2   8  -9   50.62    8.27
  -2  -8  -8    2.40    1.78
  -2   8  -8    8.88    3.39
   2  -8  -8    5.83    2.98
   2  -8  -8    4.71    2.97
   2   8  -8    1.37    1.40
  -2  -8  -7   63.86    8.61
   2  -8  -7   56.78    7.97
   2  -8  -7   50.69    8.31
   2   8  -7   62.97    9.07
  -2   8  -7   59.02    9.00
   2   8  -6    9.51    4.10
   2  -8  -6   16.61    4.39
   2  -8  -6   14.79    4.18
  -2   8  -6   12.68    4.44
  -2   8  -5   21.95    5.99
   2   8  -5   20.04    5.24
   2  -8  -5   26.56    5.56
   2  -8  -5   34.48    5.82
   2  -8  -4   71.66    8.28
   2   8  -4   69.26    9.50
  -2   8  -4   87.99   10.33
   2  -8  -4   83.01   10.09
   2   8  -3  255.98   17.99
  -2   8  -3  222.12   16.95
   2  -8  -3  232.09   16.93
   2  -8  -3  229.91   15.24
   2   8  -2    5.28    3.31
   2  -8  -2    8.40    2.84
   2  -8  -2    6.25    3.48
  -2   8  -2   -1.92    2.08
   2  -8  -1   15.10    4.48
   2   8  -1   19.52    5.28
  -2   8  -1   10.17    3.61
  -2   8   0   20.75    4.99
   2   8   0   18.23    4.62
   2  -8   0   14.15    3.91
  -2   8   1   20.76    5.57
   2  -8   1   11.45    4.07
   2   8   1   12.38    3.60
   2  -8   2    7.94    2.92
   2   8   2    9.78    3.42
  -2   8   2    5.23    3.37
   2   8   3  256.14   18.01
   2  -8   3  247.73   17.24
  -2   8   3  227.78   17.27
   2   8   4   72.10    9.65
   2  -8   4   71.13    9.19
  -2   8   4   68.44    9.36
   2   8   5   22.99    5.42
   2  -8   5   25.84    6.16
  -2   8   5   22.35    6.28
  -2   8   6   18.86    5.17
   2   8   6   12.69    4.02
   2  -8   6   12.84    3.83
  -2   8   7   68.30   10.42
   2  -8   7   51.08    8.04
   2   8   7   82.18   10.34
   2   8   7   59.54    9.16
   2   8   8    8.06    3.46
  -2   8   8    1.55    1.76
   2   8   8    3.08    2.58
   2   8   9   55.23    8.57
   2   8   9   56.71    8.56
  -2   8   9   64.63    9.63
   2  -8   9   48.51    7.89
   2  -8  10    7.73    4.40
   2   8  10    9.56    2.94
   2   8  10    0.73    1.82
  -2   8  10    0.47    3.10
   2   8  11    0.06    1.88
  -2   8  11    4.93    4.30
   2   8  11   -0.82    2.68
  -2   8  12    7.09    3.34
   2   8  12   -1.60    2.03
   2   8  12    2.13    3.04
   2   8  13   25.68    6.23
  -2   8  13   25.60    6.31
   2   8  13   33.94    7.34
   2   8  14    1.85    1.97
   2   8  14   -0.09    1.90
   2   8  15    4.16    1.85
   2   8  15    2.59    4.25
  -2   8  15    2.72    2.85
   2   8  16   23.23    5.39
  -2   8  16   33.89    7.81
   2   8  16   21.94    6.11
   2   8  17   19.78    6.84
   2   8  17   22.44    5.74
  -2   8  17   31.58    7.22
   2   8  18    0.85    1.73
  -2   8  18   -0.81    2.18
   2   8  18    1.78    3.17
  -2   8  18   -1.69    2.74
  -2   8  19   16.17    4.66
  -2   8  19   20.36    6.37
   2   8  19   21.91    6.92
   2   8  19   18.67    4.74
  -2   8  20    5.57    3.33
   2   8  20    3.31    3.41
  -2   8  20    0.58    4.12
   2   8  20    1.99    2.84
  -2   8  21    7.03    2.96
  -2   8  21    5.42    3.76
   2   8  21    8.46    2.54
  -2   8  22   11.70    5.37
   2   8  22    5.94    4.17
  -2   8  22   12.82    6.29
   2  -9 -19    6.79    4.31
  -2  -9 -19    1.32    2.41
  -2  -9 -18    3.63    2.54
   2  -9 -18   10.50    5.90
   2  -9 -17   -0.64    2.07
  -2  -9 -17    1.71    3.05
   2  -9 -16    8.67    5.37
  -2  -9 -16   10.97    5.53
   2  -9 -15    2.52    3.41
  -2  -9 -15    0.29    2.09
  -2  -9 -14    6.13    5.01
   2  -9 -14    9.00    4.71
   2  -9 -13    1.64    2.94
  -2  -9 -13    3.72    3.69
   2  -9 -12    2.73    1.70
   2  -9 -12    1.53    2.31
   2   9 -12    4.57    3.81
   2  -9 -11    7.00    3.68
   2  -9 -11    4.75    3.03
   2   9 -11    4.95    3.10
   2  -9 -10    8.82    3.28
  -2   9 -10   16.90    6.19
   2  -9 -10   18.53    5.22
   2   9 -10   15.20    4.86
  -2   9  -9    4.68    1.88
   2   9  -9    2.14    1.89
   2  -9  -9   -0.45    1.60
   2  -9  -9    0.57    1.42
   2  -9  -8    5.58    3.77
   2   9  -8    0.86    1.98
   2  -9  -8    3.21    3.44
  -2   9  -8    5.86    2.11
  -2   9  -7    3.90    2.42
   2  -9  -7    2.11    1.99
   2   9  -7    1.57    2.89
   2   9  -6   13.82    5.02
   2  -9  -6   13.14    5.11
  -2   9  -6   11.04    3.49
  -2   9  -5   16.62    4.63
   2   9  -5   12.48    4.36
   2  -9  -5   25.99    6.29
   2   9  -4   13.80    3.98
  -2   9  -4    9.17    4.11
   2  -9  -4    8.87    3.53
  -2   9  -3   13.58    3.93
   2  -9  -3   17.46    3.93
   2   9  -3   24.67    5.95
   2   9  -2    1.59    1.80
   2  -9  -2    7.21    2.34
  -2   9  -2   10.67    4.42
   2  -9  -1    2.10    2.17
   2   9  -1    8.79    3.13
  -2   9  -1    8.66    3.79
  -2   9   0   16.19    5.17
   2  -9   0    9.45    4.46
   2   9   0   12.99    4.59
   2   9   1    6.23    3.28
  -2   9   1    4.56    2.76
   2  -9   1    9.82    3.68
   2   9   2    5.49    1.46
   2  -9   2    6.26    3.03
  -2   9   3   33.80    7.40
   2   9   3   31.04    6.98
   2  -9   3   22.22    5.73
   2   9   4   19.54    5.59
  -2   9   4   11.94    4.81
   2  -9   4   25.30    6.76
   2   9   4   19.87    5.05
   2  -9   5   18.02    4.79
   2   9   5   18.28    5.54
   2   9   5   16.72    5.14
  -2   9   5   15.08    4.30
   2  -9   6   18.45    5.25
   2   9   6   17.64    5.28
  -2   9   6   17.30    5.36
   2   9   6   18.81    5.20
   2   9   7   -0.17    2.24
   2   9   7    7.41    3.37
   2  -9   7   -2.78    3.61
  -2   9   7   -4.15    3.52
   2   9   8    3.82    2.35
   2  -9   8    3.06    2.33
   2   9   8    2.51    1.90
  -2   9   8    1.76    2.55
  -2   9   9    0.44    2.44
   2   9   9   -4.93    4.43
   2  -9   9   -4.05    3.80
   2   9   9    0.79    1.63
   2   9  10   12.78    4.66
  -2   9  10   10.96    4.10
   2   9  10   10.53    2.88
   2   9  11    5.69    4.01
  -2   9  11    3.59    2.72
   2   9  11    0.69    1.68
  -2   9  12    4.20    3.56
   2   9  12    0.38    1.84
   2   9  12   -0.77    2.74
  -2   9  13    4.44    1.94
   2   9  13    5.14    2.93
   2   9  14    5.41    3.05
  -2   9  14    5.75    2.89
   2   9  14    3.63    2.60
   2   9  15   -0.31    3.30
   2   9  15   -0.20    2.06
  -2   9  15    3.45    3.30
  -2   9  16    1.21    1.57
   2   9  16   -2.10    3.27
   2   9  16    4.75    3.54
   2   9  17   -0.40    1.74
   2   9  17    0.64    2.34
  -2   9  17    0.04    3.42
   2   9  18    4.86    3.49
   2   9  18    9.34    4.15
  -2   9  18    1.31    3.50
  -2   9  18    5.83    3.70
  -2   9  19    0.05    2.25
  -2   9  19    6.08    3.79
   2   9  19   -0.69    3.77
   2   9  19    1.11    3.75
   2 -10 -16    1.48    3.18
   2  10 -11   12.16    4.77
   2  10 -10    8.77    4.41
   2 -10 -10    5.91    2.85
  -2  10  -9   17.54    5.47
   2  10  -9   12.98    4.21
   2 -10  -9   12.46    4.85
  -2  10  -8   10.72    3.54
   2  10  -8    9.70    3.78
   2 -10  -8    2.01    2.42
  -2  10  -7   70.81   10.65
   2 -10  -7   87.19   11.69
   2  10  -7   78.94   11.18
   2  10  -6   17.29    5.70
  -2  10  -6   13.75    4.09
   2 -10  -6   14.33    4.80
   2 -10  -5    1.95    1.95
  -2  10  -5    0.26    2.28
   2  10  -5    2.40    2.29
  -2  10  -4   27.47    7.37
   2  10  -4   25.16    6.93
   2 -10  -4   16.51    5.04
   2  10  -3   35.38    7.29
  -2  10  -3   46.14    8.72
   2 -10  -3   46.09    8.06
   2  10  -3   37.22    7.42
   2 -10  -2   23.50    6.58
  -2  10  -2   21.43    6.43
   2  10  -2   26.62    6.96
   2  10  -2    9.32    3.06
   2  10  -1   -0.20    1.43
  -2  10  -1    5.48    3.61
   2 -10  -1    2.83    2.58
   2  10  -1    1.02    2.43
  -2  10   0    0.83    2.68
   2  10   0    0.95    1.62
   2 -10   0    1.59    2.43
   2  10   1    4.65    3.58
   2  10   1    5.66    3.76
  -2  10   1    4.29    3.29
   2 -10   1    3.22    2.49
   2 -10   2   17.77    5.21
   2  10   2   12.31    4.87
   2  10   2   18.25    4.60
  -2  10   2   22.17    6.04
  -2  10   3   35.80    7.66
   2  10   3   33.71    7.42
   2  10   3   44.57    8.46
   2 -10   3   41.08    7.95
   2  10   4   19.93    5.46
  -2  10   4   19.66    5.64
   2  10   4   17.90    4.50
   2 -10   4   17.00    6.00
   2 -10   5    3.60    2.78
   2  10   5   10.44    3.10
   2  10   5    6.38    3.95
  -2  10   5    3.14    1.89
   2 -10   6   11.13    4.29
   2  10   6    6.42    2.67
   2  10   6    9.51    3.54
  -2  10   6    5.16    4.40
   2 -10   7   88.95   12.03
   2  10   7   89.35   11.68
  -2  10   7   90.14   12.26
   2  10   7   65.31   10.08
   2  10   8   11.43    4.50
   2  10   8    4.36    3.29
  -2  10   8   10.81    5.09
   2  10   9   26.12    6.41
  -2  10   9   14.33    6.04
   2  10   9   29.75    6.78
   2  10  10    8.98    4.25
   2  10  10    5.27    3.69
  -2  10  10   -0.22    3.18
  -2  10  11   19.66    6.45
   2  10  11   18.01    6.03
   2  10  11   23.10    6.21
   2  10  12    3.35    3.17
  -2  10  12    4.80    3.80
   2  10  12    1.63    1.40
  -2  10  13   46.25    9.23
   2  10  13   30.08    6.80
   2  10  13   24.34    5.67
   2  10  14   10.82    5.02
   2  10  14    6.29    3.32
  -2  10  14   14.53    5.95
   2  10  15    3.25    2.54
  -2  10  15   14.19    6.18
   2  10  15    9.89    4.49
  -2  10  16    4.93    4.32
   2  10  16    4.45    3.43
   2  10  16    4.11    4.21
  -2  10  16    8.11    4.67
   2  11 -10   -0.02    2.56
   2  11  -9    4.14    4.05
  -2  11  -8    5.88    4.66
   2  11  -8   -1.45    3.18
  -2  11  -7    3.97    4.71
   2  11  -7    0.14    1.84
   2  11  -6   -0.74    1.79
  -2  11  -6    9.79    4.94
   2 -11  -6    4.96    3.38
   2 -11  -5   -1.54    3.47
   2  11  -5    2.40    2.49
  -2  11  -5   -2.65    2.96
   2 -11  -4   -2.25    3.77
   2  11  -4    0.09    4.94
  -2  11  -4    3.53    3.27
   2 -11  -3    8.39    4.88
  -2  11  -3    7.53    3.15
   2  11  -3    4.64    4.93
   2  11  -2    8.38    5.90
   2  11  -2    2.20    3.00
   2 -11  -2    2.62    1.79
  -2  11  -2    6.08    4.32
  -2  11  -1    6.47    3.71
   2  11  -1    5.65    3.81
   2 -11  -1    5.68    2.42
   2  11  -1   12.52    4.32
   2  11   0   -7.32    3.38
  -2  11   0   -5.64    4.80
   2  11   0    1.45    2.81
   2 -11   0    2.35    2.73
  -2  11   1    5.02    2.99
   2  11   1   -0.01    1.86
   2  11   1    4.24    2.26
   2 -11   1    4.61    3.98
  -2  11   2    0.20    3.04
   2  11   2    1.20    2.80
   2 -11   2    2.76    2.02
   2  11   2    0.16    2.16
   2  11   3    0.64    2.05
   2 -11   3    2.70    3.19
   2  11   3    2.23    2.47
   2  11   4   -0.23    1.35
   2  11   4    0.33    3.25
   2 -11   4    1.95    3.19
  -2  11   4   -0.50    2.28
  -2  11   5   -3.12    2.34
   2 -11   5    4.16    4.28
   2  11   5    2.17    3.26
   2  11   5   -0.37    2.85
   2  11   6    3.55    2.27
  -2  11   6    3.60    2.77
   2  11   7   -5.21    4.35
   2  11   7    0.66    1.78
  -2  11   7   -2.67    3.43
   2  11   8    0.12    3.03
  -2  11   8    5.23    3.77
   2  11   8    5.72    3.92
   2  11   9    7.76    3.76
   2  11   9    3.35    2.60
  -2  11   9    2.98    2.70
   2  11  10    3.76    2.29
  -2  11  10    4.97    3.20
   2  11  10   -1.56    1.95
   3   0 -30    2.38    4.68
   3   0 -29    2.17    2.39
   3   0 -28   -3.95    1.59
   3   0 -27   -0.40    1.39
   3   0 -26    2.58    2.97
   3   0 -25    0.47    1.91
   3   0 -24   -0.37    2.29
   3   0 -23    0.40    1.63
   3   0 -22    0.66    1.34
   3   0 -21    0.46    0.97
   3   0 -20    2.53    2.34
   3   0 -19    0.20    1.95
   3   0 -18    0.45    1.05
   3   0 -17    1.64    1.65
   3   0 -16    0.80    1.22
   3   0 -15    1.76    1.01
   3   0 -14    2.07    1.91
   3   0 -13    0.02    0.93
   3   0 -12   -0.29    1.46
   3   0 -12   -0.10    0.50
   3   0 -11    0.84    1.37
   3   0 -11   -0.27    0.61
   3   0 -10   -0.94    0.92
   3   0 -10    0.69    0.64
   3   0  -9    0.13    0.54
   3   0  -9    0.88    1.30
   3   0  -8    0.21    0.57
   3   0  -8    0.34    0.94
   3   0  -7   -0.28    0.52
   3   0  -7    0.00    0.43
   3   0  -6    0.23    0.63
   3   0  -6    0.26    0.67
   3   0  -6    1.12    0.61
   3   0  -5    0.54    0.62
   3   0  -5   -0.46    0.58
   3   0  -5   -0.51    0.89
   3   0  -4   -0.50    0.70
   3   0  -4    0.01    0.31
   3   0  -4   -0.19    0.75
   3   0  -3   -0.16    0.53
   3   0  -3    0.31    0.32
   3   0  -3   -0.02    0.52
   3   0  -2    0.04    0.67
   3   0  -2   -0.16    0.55
   3   0  -2    0.20    0.73
   3   0  -1    0.00    0.45
   3   0  -1    0.55    0.62
   3   0  -1   -0.18    0.62
   3   0   0    0.12    0.33
   3   0   0    0.40    0.55
   3   0   1   -0.24    0.58
   3   0   1    0.05    0.73
   3   0   2    0.13    0.41
   3   0   2    0.89    0.80
   3   0   3    0.66    0.60
   3   0   3    0.36    0.28
   3   0   4   -0.13    0.24
   3   0   4    0.46    0.87
   3   0   5    0.09    0.35
   3   0   5    0.19    0.41
   3   0   6    0.05    0.41
   3   0   6   -0.15    0.41
   3   0   7   -0.22    0.25
   3   0   7    1.31    1.09
   3   0   8    0.07    0.22
   3   0   8   -0.16    0.86
   3   0   9    0.09    0.21
   3   0   9    0.53    0.96
   3   0  10   -0.25    0.58
   3   0  11    0.70    0.76
   3   0  12   -0.44    0.57
   3   0  13    0.45    1.28
   3   0  14    1.54    1.60
  -3   0  14   -0.31    0.76
   3   0  15    0.08    1.22
  -3   0  15   -0.04    0.43
   3   0  16    0.26    0.67
  -3   0  16   -0.88    1.34
  -3   0  17    1.36    1.12
   3   0  17   -0.30    0.92
   3   0  18    0.25    1.01
   3   0  19    0.83    1.92
   3   0  20   -0.05    1.35
   3   0  21   -1.00    1.88
   3  -1 -30    2.80    1.94
   3  -1 -29   35.88    8.70
   3   1 -28   31.16    7.57
   3  -1 -28   23.64    5.85
   3  -1 -27   25.28    6.31
   3   1 -27   25.52    6.38
   3   1 -26    8.46    4.16
   3  -1 -26   12.70    4.96
   3   1 -25   36.68    7.39
   3  -1 -25   37.19    7.22
   3  -1 -24   27.83    6.33
   3   1 -24   30.97    6.70
   3  -1 -23  142.58   13.70
   3   1 -23  140.95   12.99
  -3  -1 -22   29.85    6.10
   3   1 -22   44.90    7.31
   3  -1 -22   37.47    6.85
  -3  -1 -21    5.92    3.64
   3   1 -21    7.36    2.88
   3  -1 -21    7.80    3.40
   3  -1 -20   78.19    9.05
  -3  -1 -20   65.68    8.78
   3   1 -20   51.39    7.36
  -3  -1 -19  147.41   13.05
   3   1 -19  162.07   12.68
   3  -1 -19  152.47   13.11
   3   1 -18   15.93    3.97
   3  -1 -18   14.28    3.63
  -3  -1 -18   14.10    3.85
  -3  -1 -17  189.04   13.84
   3   1 -17  188.59   13.07
   3  -1 -17  191.30   13.65
   3  -1 -16   84.38    8.81
   3   1 -16   64.56    7.37
  -3  -1 -16   67.99    8.04
  -3  -1 -15   22.26    4.91
   3  -1 -15   35.97    5.39
   3   1 -15   30.92    5.07
  -3  -1 -14   90.21    8.72
   3  -1 -14   81.40    8.29
   3   1 -14   88.05    7.91
   3  -1 -14   90.89    6.97
   3   1 -13  547.88   19.07
   3  -1 -13  542.54   20.71
   3  -1 -13  517.98   16.67
  -3  -1 -13  518.24   20.43
  -3  -1 -12  402.73   17.53
   3  -1 -12  431.34   14.63
   3   1 -12  391.60   14.40
   3   1 -12  370.52   15.17
   3  -1 -12  408.84   17.88
   3  -1 -11   71.41    7.08
   3   1 -11   84.47    6.91
   3   1 -11   94.56    6.76
  -3  -1 -11   72.56    7.31
  -3  -1 -10  225.66   12.49
   3  -1 -10  215.66    9.99
   3   1 -10  223.39   10.75
   3  -1 -10  224.89   12.25
   3   1 -10  214.67   10.24
  -3  -1  -9  679.66   20.49
   3  -1  -9  687.88   17.53
   3  -1  -9  679.37   20.46
   3   1  -9  730.12   18.45
  -3  -1  -8  208.78   10.82
   3   1  -8  217.66    9.73
   3  -1  -8  204.77    9.29
   3   1  -8  217.65    9.68
   3  -1  -8  203.83   10.92
   3   1  -7  420.21    7.31
   3  -1  -7  426.18   13.14
   3  -1  -7  408.29   14.95
   3   1  -6 1270.99   13.29
   3   1  -6 1268.93   22.63
   3  -1  -6 1219.41   21.60
   3  -1  -6 1269.81   25.64
   3   1  -6 1223.16   20.14
   3  -1  -5   77.10    6.16
   3   1  -5   78.58    4.90
   3   1  -5   82.13    3.67
   3   1  -5   87.04    5.77
   3  -1  -5   83.74    5.51
   3   1  -4  817.32   12.23
   3  -1  -4  814.27   18.96
   3   1  -4  856.01   14.91
   3  -1  -4  844.98   17.29
   3   1  -4  804.82   17.27
   3   1  -3 3912.46   31.31
   3  -1  -3 4074.34   37.58
   3  -1  -3 4048.96   40.30
   3   1  -3 3964.88   37.35
   3   1  -3 4037.92   28.84
   3   1  -2 1548.78   19.03
   3  -1  -2 1545.78   22.95
   3   1  -2 1550.50   23.00
   3  -1  -2 1556.56   24.58
   3   1  -2 1596.83   19.04
   3  -1  -1  941.84   17.60
   3   1  -1  899.93   17.20
   3  -1  -1  897.64   18.29
   3   1   0  829.24   15.43
   3  -1   0  860.56   17.47
   3  -1   0  832.64   16.74
   3   1   1  878.16   16.72
   3  -1   1  901.16   17.40
   3   1   1  892.38   16.74
   3   1   2 1522.10   22.83
   3   1   2 1522.54   21.67
   3  -1   2 1591.15   23.26
   3   1   3 4075.39   35.08
   3   1   3 4128.75   38.44
   3  -1   3 4108.35   37.99
   3  -1   4  822.96   17.28
   3   1   4  860.70   18.23
   3  -1   5   80.50    5.46
   3   1   5   72.94    5.59
   3   1   5   82.67    4.94
   3  -1   6 1229.80   21.88
   3   1   6 1240.37   19.27
   3   1   7  427.45   11.31
   3  -1   7  428.35   13.37
   3   1   7  459.36   14.79
   3  -1   8  209.60    9.49
   3   1   8  217.11   10.64
   3   1   8  203.05    7.72
   3   1   9  710.88   19.66
   3  -1   9  724.02   18.18
   3   1   9  761.12   15.08
   3   1  10  223.36    8.29
   3  -1  10  222.02   10.29
   3   1  10  233.78   11.90
   3  -1  11   81.90    6.56
   3   1  11   81.46    4.99
   3   1  12  382.02   10.91
   3   1  12  387.10   15.85
   3  -1  12  400.28   14.68
   3   1  13  521.19   12.90
   3   1  13  531.36   19.15
   3  -1  13  498.35   17.00
   3   1  14   91.48    5.44
   3  -1  14   74.67    6.81
   3   1  14   86.99    7.81
   3   1  15   25.16    2.87
   3  -1  15   31.22    4.47
   3   1  15   33.38    5.03
  -3   1  16   64.77    6.30
   3   1  16   65.48    7.32
   3   1  16   57.92    4.31
   3  -1  16   65.07    6.70
  -3   1  17  169.90   10.85
   3  -1  17  178.06   11.40
   3   1  17  181.73   12.34
   3   1  18   16.07    3.69
   3  -1  18   17.67    3.80
  -3   1  18   16.71    3.48
  -3   1  19  152.81   10.32
   3   1  19  140.60   11.49
   3  -1  19  138.26   10.29
   3   1  20   81.30    9.00
   3   1  21    2.21    1.31
   3   1  22   53.74    7.95
   3  -2 -30    4.92    3.08
   3  -2 -29   15.60    5.76
   3  -2 -28    2.35    1.19
   3  -2 -27   19.50    5.16
   3  -2 -26    6.66    4.59
  -3  -2 -25    4.63    2.47
   3  -2 -25    0.16    1.34
   3   2 -24   -3.84    2.64
   3  -2 -24    3.46    2.38
  -3  -2 -24    3.84    2.90
   3  -2 -23    9.94    4.52
   3   2 -23   17.36    4.88
  -3  -2 -23   24.63    6.28
  -3  -2 -22    2.44    1.69
   3  -2 -22    3.36    3.25
   3   2 -22    4.05    2.83
   3  -2 -21   42.53    7.58
   3   2 -21   38.88    6.71
  -3  -2 -21   49.40    7.66
  -3  -2 -20   15.75    4.22
   3   2 -20   18.21    4.47
   3  -2 -20    7.09    3.28
   3   2 -19   26.02    5.31
   3  -2 -19   28.93    5.74
  -3  -2 -19   17.01    5.19
  -3  -2 -18    1.13    1.43
   3   2 -18    2.82    1.80
   3  -2 -18    2.52    2.14
   3  -2 -17    4.44    2.61
   3   2 -17    2.58    1.77
  -3  -2 -17    1.61    2.32
   3   2 -16   18.73    4.09
   3   2 -16   11.34    3.08
  -3  -2 -16   22.28    4.96
   3  -2 -16   22.07    4.65
   3   2 -15   32.82    4.85
   3   2 -15   44.10    5.42
  -3  -2 -15   43.60    6.67
   3  -2 -15   49.63    7.09
   3  -2 -15   48.34    5.83
  -3  -2 -14    5.63    2.94
   3  -2 -14    2.77    1.88
   3  -2 -14    1.79    1.63
   3   2 -14    3.85    1.88
   3   2 -14    1.75    0.67
   3   2 -13    1.03    1.35
  -3  -2 -13    1.50    1.91
   3  -2 -13   -0.07    1.23
   3  -2 -13   -0.94    1.30
   3   2 -13   -0.95    0.82
   3  -2 -12   43.91    5.59
   3   2 -12   49.52    5.16
  -3  -2 -12   42.50    5.89
   3  -2 -12   51.78    6.88
   3   2 -12   40.21    4.65
   3  -2 -11  247.58   12.68
  -3  -2 -11  266.51   14.10
   3   2 -11  249.30   11.02
   3   2 -11  247.46   11.64
   3  -2 -11  269.59   14.67
  -3  -2 -10   85.83    7.98
   3   2 -10   78.41    6.55
   3  -2 -10   80.59    7.18
   3   2 -10   84.78    6.15
   3  -2 -10   69.80    6.99
   3   2  -9   19.63    2.55
   3  -2  -9   25.14    3.94
   3  -2  -9   16.61    3.52
  -3   2  -9   20.01    2.00
  -3  -2  -9   19.60    3.50
   3   2  -9   29.75    4.09
   3  -2  -8   78.51    7.09
   3  -2  -8   82.46    6.83
  -3   2  -8   86.71    4.56
   3   2  -8   73.59    4.89
  -3  -2  -8   79.08    6.84
   3   2  -8   74.43    5.94
   3   2  -7   40.02    3.46
  -3   2  -7   43.56    3.38
  -3  -2  -7   53.82    5.50
   3   2  -7   41.31    4.63
   3  -2  -7   49.42    5.58
   3  -2  -7   43.40    4.80
   3   2  -7   43.70    2.36
   3   2  -6  238.09    6.35
   3   2  -6  250.56    7.61
   3   2  -6  234.85   10.64
   3  -2  -6  213.30   10.57
   3  -2  -6  235.65   11.76
  -3  -2  -6  230.85   10.78
   3   2  -5  280.99   11.29
  -3  -2  -5  312.72   11.78
   3  -2  -5  274.75   11.79
   3   2  -5  290.12    7.56
   3   2  -5  272.22    7.67
   3  -2  -5  296.53   12.90
   3  -2  -4   55.70    5.36
   3   2  -4   42.50    4.33
  -3  -2  -4   45.78    4.32
   3   2  -4   53.17    3.59
   3  -2  -4   41.34    4.48
   3   2  -4   48.99    2.90
   3   2  -3 1713.46   27.63
   3   2  -3 1722.69   16.81
   3   2  -3 1723.33   21.75
   3  -2  -3 1705.82   28.78
   3  -2  -2  841.05   19.80
   3  -2  -2  814.27   19.62
   3   2  -2  867.07   16.16
   3   2  -2  829.58   19.30
   3  -2  -1  378.56   13.19
   3   2  -1  373.22   12.88
   3   2  -1  363.03   11.06
   3  -2  -1  399.57   13.42
   3   2   0  343.39   12.26
   3   2   0  332.15   11.11
   3  -2   0  358.40   12.46
   3  -2   0  360.82   12.69
   3  -2   1  356.86   12.48
   3   2   1  389.01   12.45
   3  -2   1  383.02   12.59
   3   2   2  825.00   18.90
   3  -2   2  868.80   19.51
   3   2   2  846.85   18.99
   3  -2   2  824.57   18.45
   3   2   3 1617.99   27.35
   3   2   3 1657.11   27.18
   3  -2   4   52.34    4.79
   3   2   4   47.87    4.88
   3   2   4   51.78    4.80
   3   2   5  264.52   11.69
   3  -2   5  262.72   10.88
   3   2   5  278.20   11.17
   3   2   6  220.35    9.91
   3  -2   6  201.45    9.61
   3   2   7   49.64    5.41
   3   2   7   50.36    4.77
   3  -2   7   41.62    4.52
   3   2   8   82.63    6.16
   3  -2   8   73.45    5.88
   3   2   8   76.72    6.88
   3   2   9   21.35    3.85
   3   2   9   21.50    3.12
   3  -2   9   21.63    3.15
   3   2  10   80.32    6.20
   3   2  10   76.45    6.95
   3  -2  10   68.72    5.84
   3   2  11  260.26   11.20
   3  -2  11  241.24   11.34
   3   2  11  263.96   13.64
   3   2  12   53.41    5.10
   3   2  12   50.17    6.23
   3  -2  12   45.87    5.12
   3   2  13    1.52    0.89
   3  -2  13    0.55    1.25
   3   2  13    0.87    0.78
   3   2  14    4.42    1.62
   3   2  14    1.94    1.48
   3  -2  14    3.52    1.27
   3  -2  15   46.82    5.37
   3   2  15   44.03    6.12
   3   2  15   47.58    5.03
   3   2  16   19.59    3.11
   3   2  16   16.04    4.27
   3  -2  16   17.39    3.28
   3   2  17   -0.09    1.14
   3  -2  17   -0.16    1.20
   3   2  17    1.12    0.86
  -3   2  18    7.82    2.46
   3  -2  18    3.53    2.09
   3   2  18    3.45    1.91
   3   2  19   14.81    4.28
  -3   2  19   19.34    4.30
   3   2  20   14.66    3.17
  -3   2  20   10.42    3.36
   3   2  21   63.48    8.08
   3   2  22    2.45    2.53
   3   2  23   11.67    4.02
   3  -3 -29   64.54   10.21
   3  -3 -28   40.70    8.22
   3  -3 -27   67.79    9.84
  -3  -3 -27   39.84    7.97
   3  -3 -26   54.62    9.05
  -3  -3 -26   39.20    7.31
  -3  -3 -25   53.03    9.29
   3  -3 -25   44.68    7.89
  -3  -3 -24    5.48    2.55
   3  -3 -24    4.43    2.01
  -3  -3 -23   94.18   11.26
   3  -3 -23  100.57   11.80
   3  -3 -22   18.32    5.19
  -3  -3 -22   27.07    6.43
   3  -3 -21    1.67    4.29
  -3  -3 -21    2.53    2.62
   3  -3 -20    9.69    2.27
  -3  -3 -20   16.19    4.85
   3  -3 -19   94.97   10.56
  -3  -3 -19   76.18    9.33
   3   3 -18  109.61    9.95
   3  -3 -18   89.44   10.12
  -3  -3 -18  107.44   11.02
   3  -3 -17   87.32    9.93
   3   3 -17   86.32    8.42
  -3  -3 -17   77.41    9.51
   3  -3 -16   59.34    7.41
   3  -3 -16   64.08    8.67
  -3  -3 -16   57.19    7.62
   3   3 -16   58.18    6.65
   3   3 -16   40.10    5.22
   3  -3 -15  134.91   10.99
   3  -3 -15  124.15   11.07
  -3  -3 -15  129.06   11.45
   3   3 -15  116.09    8.92
   3   3 -15  117.22    9.05
   3  -3 -14   24.04    4.48
   3   3 -14   30.64    4.39
   3   3 -14   32.30    4.94
  -3  -3 -14   27.14    4.91
   3  -3 -14   27.07    5.30
   3   3 -13  506.89   16.52
   3  -3 -13  458.69   19.59
   3   3 -13  468.49   17.80
   3  -3 -13  437.73   20.09
  -3   3 -12  733.41   15.13
   3  -3 -12  774.22   26.28
   3  -3 -12  790.09   25.22
   3   3 -12  768.24   19.14
  -3  -3 -12  832.64   26.62
   3   3 -12  773.13   22.67
   3   3 -11   78.30    7.06
  -3   3 -11   73.71    4.96
   3  -3 -11   64.78    7.23
   3   3 -11   64.40    5.29
  -3  -3 -11   74.67    7.90
   3  -3 -11   74.47    8.44
  -3   3 -10  235.21    9.47
   3  -3 -10  267.67   14.72
   3   3 -10  252.79    9.28
   3  -3 -10  257.59   13.89
   3   3 -10  264.60   12.93
  -3  -3 -10  273.82   14.61
  -3   3  -9 1215.69   22.26
   3  -3  -9 1223.10   30.78
   3   3  -9 1115.95   13.44
  -3  -3  -9 1195.86   29.29
   3   3  -9 1236.37   18.44
   3   3  -9 1162.82   26.95
   3  -3  -9 1269.41   30.29
  -3   3  -8   46.83    4.55
   3  -3  -8   31.64    4.59
  -3  -3  -8   35.12    4.95
   3   3  -8   42.49    3.05
   3   3  -8   45.53    5.24
   3   3  -8   40.52    2.93
   3  -3  -8   43.10    5.88
   3   3  -7  825.42   22.07
  -3   3  -7  877.22   19.53
   3  -3  -7  891.37   24.72
   3   3  -7  857.62   11.86
   3   3  -7  841.86   15.02
   3  -3  -7  846.90   24.31
  -3  -3  -7  909.00   23.45
   3   3  -6 1045.28   24.76
  -3   3  -6 1042.40   21.54
   3  -3  -6 1013.35   25.93
   3   3  -6 1055.97   17.71
   3  -3  -6 1000.93   26.02
   3  -3  -5  105.22    8.18
   3   3  -5  120.20    8.47
   3   3  -5  111.56    6.05
   3  -3  -5  120.45    8.94
  -3   3  -5  132.37    7.75
  -3  -3  -5  140.49    8.43
   3   3  -4 1823.43   32.57
   3   3  -4 1830.59   26.07
   3  -3  -4 1792.75   33.72
   3  -3  -4 1711.80   32.36
  -3  -3  -4 1764.56   28.37
   3  -3  -3 3550.86   46.53
  -3  -3  -3 3664.01   38.09
   3   3  -3 3553.81   44.99
   3   3  -3 3446.25   37.76
   3  -3  -3 3570.03   45.52
   3  -3  -2  617.55   18.37
   3   3  -2  608.43   18.65
   3   3  -2  606.77   16.32
   3  -3  -2  654.29   19.64
   3   3  -1  922.26   20.57
   3  -3  -1  899.86   21.72
   3  -3  -1  980.20   23.81
   3   3  -1  981.85   23.85
   3   3   0  706.74   20.16
   3  -3   0  704.19   19.03
   3  -3   0  745.01   20.60
   3   3   0  752.29   19.08
   3  -3   1  918.69   22.94
   3   3   1  963.36   22.18
   3  -3   1  921.10   21.74
   3   3   1  952.24   23.50
   3   3   2  599.59   18.85
   3  -3   2  587.84   17.07
   3  -3   2  611.42   18.48
   3   3   2  576.98   17.78
   3   3   3 3550.97   45.72
   3  -3   3 3464.68   44.28
   3   3   3 3547.80   45.17
   3   3   4 1808.00   32.96
   3   3   4 1909.56   33.23
   3  -3   4 1885.90   30.08
   3  -3   5  122.39    8.15
   3   3   5  130.83    9.01
   3   3   5  127.19    8.58
   3   3   6 1040.56   25.02
   3  -3   6 1034.82   23.77
   3   3   6  999.38   26.10
   3   3   7  905.36   23.37
   3  -3   7  882.09   21.94
   3   3   8   40.63    5.52
   3  -3   8   35.87    4.37
   3   3   8   33.47    4.63
   3   3   9 1205.01   29.73
   3  -3   9 1208.60   26.64
   3   3   9 1258.36   28.15
   3   3  10  284.21   13.61
   3   3  10  269.57   14.39
   3  -3  10  258.12   12.11
   3  -3  11   74.55    6.61
   3   3  11   82.00    7.41
   3   3  11   70.15    7.52
   3   3  12  800.73   25.98
   3  -3  12  799.52   21.82
   3   3  12  786.77   23.31
   3   3  13  475.30   20.35
   3   3  13  461.08   18.03
   3  -3  13  476.04   17.13
   3   3  14   28.31    5.06
   3  -3  14   16.64    3.27
   3   3  14   31.76    4.76
   3   3  15  135.47   11.45
   3  -3  15  105.87    8.26
   3   3  15  126.05    9.66
   3  -3  16   58.36    6.15
   3   3  16   78.81    7.65
   3   3  16   71.94    8.08
   3   3  17   75.62    7.53
   3  -3  17   64.87    6.52
   3   3  17   72.05    8.89
   3   3  18  100.27    8.81
   3   3  18  111.56   10.70
   3   3  19   82.20    9.56
  -3   3  19   83.48    9.51
  -3   3  20    8.68    2.60
   3   3  20   14.13    3.93
  -3   3  21   -1.93    2.19
   3   3  21    6.18    3.21
  -3   3  22   19.64    5.06
   3   3  22   14.62    3.79
   3   3  23   95.42   11.15
   3   3  24    5.00    2.34
   3  -4 -29    4.41    1.91
  -3  -4 -28   11.53    5.25
   3  -4 -28   14.37    5.28
  -3  -4 -27   33.09    6.61
   3  -4 -27   21.03    5.37
   3  -4 -26    6.58    2.24
  -3  -4 -26    7.44    3.90
  -3  -4 -25   34.94    7.64
   3  -4 -25   37.72    7.20
   3  -4 -24    3.87    2.29
  -3  -4 -24    9.33    4.09
   3  -4 -23    4.18    3.19
  -3  -4 -23    8.45    4.32
   3  -4 -22    6.61    2.57
  -3  -4 -22    0.63    1.61
  -3  -4 -21   15.10    3.74
   3  -4 -21   20.11    5.47
  -3  -4 -20    3.28    1.30
   3  -4 -20    5.98    2.84
  -3  -4 -19   43.52    7.77
   3  -4 -19   33.29    6.53
   3  -4 -18    8.38    4.25
  -3  -4 -18   18.90    5.23
   3  -4 -17    1.40    1.51
  -3  -4 -17   -2.67    1.25
   3  -4 -17   -1.39    2.23
  -3  -4 -16   10.33    2.64
   3  -4 -16    9.68    3.27
   3  -4 -16    7.33    4.48
   3  -4 -15   38.77    6.60
  -3  -4 -15   39.72    6.34
   3   4 -15   36.03    5.65
   3  -4 -15   37.45    6.51
  -3  -4 -14    2.29    2.65
   3   4 -14    0.96    2.14
   3  -4 -14    0.91    2.77
   3  -4 -14    2.34    1.34
  -3  -4 -13   25.32    5.38
   3  -4 -13   28.08    5.60
   3   4 -13   26.96    4.79
   3  -4 -13   33.66    5.81
  -3   4 -12   15.56    2.74
  -3  -4 -12   17.34    4.60
   3   4 -12   16.24    3.28
   3  -4 -12   18.71    4.16
   3  -4 -12   13.19    3.36
  -3   4 -11   65.50    5.92
   3  -4 -11   66.43    7.92
   3  -4 -11   64.76    7.98
   3   4 -11   67.90    7.12
  -3  -4 -11   65.76    7.87
   3  -4 -10  125.14   10.96
   3  -4 -10  133.00   10.97
  -3  -4 -10  127.36   10.53
   3   4 -10  120.05    9.76
   3   4 -10  124.66    5.95
  -3   4 -10  128.66    8.70
   3  -4  -9   61.95    7.31
  -3   4  -9   63.73    6.13
   3   4  -9   69.15    7.30
  -3  -4  -9   54.14    6.73
   3   4  -9   53.58    4.37
   3   4  -8   70.30    7.17
   3  -4  -8   66.63    7.19
  -3   4  -8   77.39    6.86
  -3  -4  -8   74.84    7.57
   3   4  -8   71.73    5.36
   3  -4  -8   65.53    7.48
   3  -4  -7   53.92    6.50
   3   4  -7   64.49    5.23
   3   4  -7   68.18    6.99
   3  -4  -7   55.46    6.69
  -3  -4  -7   61.63    6.35
  -3   4  -7   77.58    6.83
  -3   4  -6   88.65    7.46
   3  -4  -6   87.94    8.41
  -3  -4  -6   75.24    7.10
   3   4  -6   88.94    8.07
   3   4  -6   84.32    6.13
   3  -4  -6   74.11    7.48
   3  -4  -5  342.11   15.71
  -3  -4  -5  363.08   14.49
  -3   4  -5  365.87   15.17
   3  -4  -5  362.98   16.59
   3   4  -5  365.98   13.33
   3   4  -5  377.02   16.48
  -3   4  -4  243.01   12.45
   3   4  -4  231.02   12.84
   3   4  -4  233.53   10.89
  -3  -4  -4  215.70   10.60
   3  -4  -4  231.72   12.58
   3  -4  -4  252.48   13.84
   3   4  -3  161.62   10.88
  -3  -4  -3  151.72    8.42
   3   4  -3  149.75    9.04
  -3   4  -3  150.57    9.85
   3  -4  -3  177.29   10.98
   3  -4  -3  151.74   10.72
   3   4  -2  404.80   15.16
  -3  -4  -2  396.29   12.51
   3   4  -2  415.28   17.30
   3  -4  -2  416.77   16.37
  -3   4  -2  405.07   16.28
  -3   4  -1  517.68   18.33
   3   4  -1  515.61   19.18
   3  -4  -1  534.56   19.46
  -3  -4  -1  500.51   13.18
   3   4  -1  479.23   17.11
   3  -4  -1  480.76   17.09
   3   4   0  170.58   10.40
   3   4   0  164.43   10.92
   3  -4   0  189.73   10.47
   3  -4   0  191.42   11.64
   3   4   1  494.15   17.91
   3   4   1  495.99   19.22
   3  -4   1  496.00   16.97
   3  -4   1  485.33   18.46
   3  -4   2  398.53   15.20
   3   4   2  381.00   16.11
   3  -4   2  420.52   16.86
   3   4   2  387.06   17.06
   3   4   3  153.55   10.52
   3  -4   3  163.49    9.60
   3   4   3  165.87   10.69
   3  -4   3  169.13   10.66
   3  -4   4  221.40   12.11
   3   4   4  219.89   12.65
   3  -4   4  232.62   11.53
   3   4   4  232.88   12.87
   3  -4   5  342.94   13.99
   3   4   5  368.37   16.53
   3  -4   5  355.61   15.32
   3   4   5  332.60   15.97
   3  -4   6   78.98    7.37
   3   4   6   81.21    7.90
   3   4   6   83.89    8.02
   3   4   7   62.29    6.93
   3   4   7   78.36    8.02
   3  -4   7   77.36    7.08
   3   4   8   71.12    7.81
   3  -4   8   75.83    7.16
   3   4   8   77.96    7.82
   3   4   9   69.16    7.63
   3   4   9   73.34    7.56
   3  -4   9   56.70    6.16
   3  -4  10  124.15    9.27
   3   4  10  124.53   10.05
   3   4  10  132.43   10.84
   3  -4  11   75.47    7.14
   3   4  11   80.23    8.20
   3   4  11   67.83    8.15
   3  -4  12    6.52    2.68
   3   4  12   20.94    4.43
   3   4  12   16.83    4.26
   3  -4  13   34.18    4.93
   3   4  13   33.75    5.35
   3   4  13   21.56    4.40
   3   4  14   -0.92    2.28
   3   4  14    0.40    0.89
   3  -4  14    0.92    1.38
   3   4  15   31.22    5.64
   3   4  15   34.33    5.62
   3  -4  15   34.32    5.28
   3   4  16   11.80    4.08
   3   4  16   13.33    3.78
   3   4  17   -1.14    1.09
   3   4  17    1.37    1.38
  -3   4  18    5.05    2.80
   3   4  18   10.64    3.85
   3   4  18   13.51    4.25
   3   4  19   49.86    7.43
  -3   4  19   40.48    6.70
  -3   4  20   -0.07    1.79
   3   4  20    2.92    2.18
  -3   4  20   -0.05    2.10
  -3   4  21   14.48    4.05
   3   4  21   24.87    6.10
  -3   4  21   23.30    5.70
   3   4  22   11.44    4.13
  -3   4  22    3.87    2.57
  -3   4  23    1.35    2.34
   3   4  23    5.83    3.86
   3   4  24    3.21    2.80
   3   4  25   17.18    5.83
   3  -5 -27    8.78    4.24
  -3  -5 -27    8.08    4.36
  -3  -5 -26   17.00    4.80
   3  -5 -26   24.28    6.18
   3  -5 -25   40.93    8.27
  -3  -5 -25   31.78    7.02
   3  -5 -24   13.34    4.88
  -3  -5 -24   13.18    4.57
   3  -5 -23   19.74    6.05
  -3  -5 -23   36.09    6.93
  -3  -5 -22   10.68    4.22
   3  -5 -22   13.20    4.61
   3  -5 -21    4.94    3.77
  -3  -5 -21    9.12    1.84
   3  -5 -20   36.50    6.85
  -3  -5 -20   39.83    7.45
   3  -5 -19   76.19   10.06
  -3  -5 -19   76.70    9.66
   3  -5 -18   36.49    6.84
  -3  -5 -18   42.62    7.02
   3  -5 -17   72.77    9.16
  -3  -5 -17   63.85    8.91
   3  -5 -17   54.97    8.18
   3  -5 -16   47.72    7.44
   3  -5 -16   60.78    8.31
  -3  -5 -16   42.08    6.87
  -3  -5 -15   73.65    9.19
   3  -5 -15   89.24    9.79
   3  -5 -15   66.24    8.61
   3   5 -15   74.26    8.42
   3  -5 -14   87.41    9.68
   3  -5 -14  107.42   11.00
  -3  -5 -14  104.53   10.57
   3   5 -14   85.05    9.23
   3  -5 -13  282.06   17.51
  -3  -5 -13  284.84   17.66
   3  -5 -13  314.00   18.36
   3   5 -13  280.31   16.16
  -3  -5 -12  150.12   12.50
   3  -5 -12  156.24   13.10
  -3   5 -12  146.91   10.60
   3  -5 -12  152.03   12.99
   3   5 -12  147.79   11.80
  -3   5 -11   56.74    6.75
   3   5 -11   43.84    6.30
   3  -5 -11   51.73    7.30
  -3  -5 -11   65.41    7.90
   3  -5 -11   53.71    7.69
  -3   5 -10   68.18    7.15
   3  -5 -10   71.72    8.69
   3   5 -10   76.67    8.47
   3  -5 -10   57.74    7.83
  -3  -5 -10   53.98    6.97
  -3  -5  -9  234.95   14.20
   3   5  -9  274.23   15.70
  -3   5  -9  246.34   13.92
   3  -5  -9  238.41   14.63
   3  -5  -9  276.91   16.68
   3   5  -9  254.14   11.42
   3   5  -8   22.65    4.14
  -3   5  -8   29.90    4.94
  -3  -5  -8   29.72    5.00
   3  -5  -8   33.72    5.78
   3  -5  -8   29.59    5.48
   3   5  -8   34.13    4.44
   3   5  -7  119.58    8.45
   3  -5  -7  129.44   10.56
   3  -5  -7  106.74   10.09
  -3  -5  -7  133.74    9.84
  -3   5  -7  132.79   10.10
   3   5  -7  135.50   10.93
  -3   5  -6   80.91    8.01
   3   5  -6  106.23    8.12
   3  -5  -6   88.93    8.57
  -3  -5  -6   96.73    8.14
   3   5  -6  107.49    9.64
   3  -5  -5   10.77    3.53
   3   5  -5    7.98    2.62
  -3   5  -5   10.46    2.95
  -3  -5  -5    6.13    2.19
   3   5  -5    9.56    2.64
   3  -5  -5    8.59    2.28
   3  -5  -4   92.44    9.14
   3   5  -4   88.62    7.60
   3  -5  -4   95.44    8.59
  -3  -5  -4   80.85    6.80
  -3   5  -4   84.79    8.33
   3   5  -4   78.62    8.26
   3   5  -3  261.37   13.43
   3   5  -3  249.60   14.75
   3  -5  -3  291.87   14.68
  -3  -5  -3  292.61   12.35
  -3   5  -3  262.06   14.63
   3  -5  -3  262.41   15.36
   3  -5  -2   16.00    3.61
   3   5  -2   15.05    3.52
  -3   5  -2   14.32    3.71
   3  -5  -2   10.70    2.79
   3   5  -2   18.12    3.73
  -3  -5  -2    9.18    2.18
   3  -5  -1  321.78   16.45
   3  -5  -1  326.76   15.40
   3   5  -1  347.19   17.49
   3   5  -1  310.51   15.22
  -3   5  -1  335.14   16.75
  -3  -5  -1  309.99   11.23
   3   5   0  139.63   10.19
   3   5   0  163.47   11.95
   3  -5   0  149.83   10.26
  -3   5   0  176.65   12.23
   3  -5   0  144.04   11.03
   3   5   1  321.60   15.78
   3   5   1  310.21   16.30
  -3   5   1  314.21   16.14
   3  -5   1  331.70   16.65
   3  -5   1  295.47   14.10
   3   5   2   18.59    4.08
   3   5   2   10.56    2.60
   3  -5   2   14.58    4.03
   3  -5   2   12.49    2.69
   3   5   3  238.08   14.15
   3   5   3  259.58   14.81
  -3   5   3  261.05   15.03
   3  -5   3  268.48   14.61
   3  -5   3  255.82   12.88
   3   5   4   96.20    9.00
   3   5   4   88.11    8.64
   3  -5   4   87.63    7.33
  -3   5   4   82.81    8.52
   3  -5   4   79.45    8.12
   3  -5   5    9.10    2.67
   3   5   5    4.88    1.88
  -3   5   5   13.93    3.71
   3   5   5    6.98    2.65
   3  -5   5    7.32    2.56
   3  -5   6   80.92    7.98
   3  -5   6   91.31    7.80
   3   5   6   97.84    9.40
   3   5   6  100.43    9.70
  -3   5   6  107.76    9.83
   3   5   7  116.10   10.13
   3   5   7  122.32   10.81
  -3   5   7  126.41   10.60
   3  -5   7  139.65   10.38
   3  -5   7  120.47    9.15
  -3   5   8   34.16    6.11
   3   5   8   23.98    4.91
   3  -5   8   21.49    3.67
   3   5   8   31.89    5.76
   3  -5   8   30.67    4.85
  -3   5   9  259.11   15.87
   3  -5   9  255.37   13.35
   3   5   9  271.15   16.05
   3   5   9  252.76   15.80
   3  -5   9  242.08   13.88
  -3   5  10   63.35    7.68
   3   5  10   63.88    7.53
   3  -5  10   60.32    7.09
   3   5  10   65.41    8.08
  -3   5  11   72.83    8.81
   3   5  11   47.28    6.65
   3  -5  11   57.24    6.70
   3   5  11   66.23    8.02
   3   5  12  144.73   12.24
  -3   5  12  138.36   12.12
   3  -5  12  134.35   10.40
   3   5  12  161.08   12.97
  -3   5  13  272.31   17.09
   3   5  13  294.56   18.09
   3   5  13  284.03   16.97
   3  -5  13  277.82   15.19
   3   5  14   80.43    9.14
   3  -5  14   78.74    7.98
  -3   5  14   73.69    9.15
   3   5  14  102.39   10.61
  -3   5  15   69.02    9.01
   3   5  15   82.36    9.46
   3   5  15   66.07    8.85
   3   5  16   41.62    6.68
   3   5  16   54.94    8.15
  -3   5  16   53.92    8.14
  -3   5  17   69.91    9.28
   3   5  17   63.22    8.80
   3   5  18   33.34    6.58
  -3   5  18   40.52    7.12
   3   5  18   31.23    6.03
  -3   5  19   83.92   10.54
   3   5  19   68.28    8.96
   3   5  19   84.81   10.26
   3   5  20   39.08    7.28
  -3   5  20   26.00    6.14
  -3   5  21   17.12    5.35
  -3   5  21   15.71    4.01
   3   5  21    9.23    3.95
  -3   5  22   10.49    3.94
   3   5  22   11.95    3.84
  -3   5  22   13.43    4.64
  -3   5  23   25.07    6.14
   3   5  23   26.48    5.61
   3   5  24   11.81    4.39
  -3   5  24   11.58    4.65
   3   5  25   35.76    8.54
   3   5  26   16.62    5.79
  -3  -6 -26    4.90    3.66
   3  -6 -26   -1.17    1.60
  -3  -6 -25    6.73    3.79
   3  -6 -25    3.73    2.40
  -3  -6 -24    5.20    3.36
   3  -6 -24    4.75    3.54
  -3  -6 -23    4.34    2.66
   3  -6 -23    8.76    4.82
   3  -6 -22    2.20    1.98
  -3  -6 -22    2.85    2.41
   3  -6 -21    5.78    3.69
  -3  -6 -21    9.61    4.71
   3  -6 -20    8.43    3.46
  -3  -6 -20    1.93    1.65
  -3  -6 -19   57.38    8.92
   3  -6 -19   47.00    7.79
  -3  -6 -18   24.18    5.65
   3  -6 -18   33.68    6.93
  -3  -6 -17    5.37    2.69
   3  -6 -17   13.52    4.68
   3  -6 -17    7.55    2.86
   3  -6 -16   26.31    5.47
  -3  -6 -16   17.15    4.38
   3  -6 -16   34.18    6.75
   3  -6 -15   65.35    8.92
  -3  -6 -15   69.53    9.06
   3  -6 -15   85.96   10.13
  -3  -6 -14   11.92    3.61
   3   6 -14    8.41    2.93
   3  -6 -14   14.03    4.30
   3  -6 -14   18.27    5.15
   3  -6 -13  167.47   14.47
   3   6 -13  163.12   13.79
   3  -6 -13  182.45   14.41
  -3  -6 -13  193.30   14.99
   3   6 -12   14.12    4.27
   3  -6 -12    6.21    2.57
   3  -6 -12   13.01    3.53
  -3  -6 -12    8.92    3.58
  -3  -6 -11   84.79    9.84
   3   6 -11   83.04    9.32
   3  -6 -11   79.53    9.50
   3  -6 -11   84.82   10.10
  -3   6 -11   92.40    9.22
   3  -6 -10   33.29    6.03
   3   6 -10   48.77    7.36
  -3  -6 -10   48.41    6.99
  -3   6 -10   37.52    6.19
   3  -6 -10   37.23    6.60
  -3   6  -9   36.12    6.49
   3  -6  -9   39.54    6.63
   3  -6  -9   31.44    5.82
  -3  -6  -9   32.69    5.52
   3   6  -9   31.81    5.79
   3   6  -8   46.27    5.78
  -3   6  -8   41.48    6.43
   3   6  -8   38.07    6.11
   3  -6  -8   41.05    7.12
  -3  -6  -8   26.52    4.93
   3  -6  -8   24.02    4.92
   3   6  -7  107.44   10.48
  -3   6  -7  103.02    9.92
  -3  -6  -7   96.61    9.24
   3  -6  -7  103.62    9.98
   3   6  -7  106.93    9.16
   3  -6  -7  109.45   11.14
   3   6  -6   23.13    4.55
   3   6  -6   19.56    4.86
  -3   6  -6   16.13    4.66
   3  -6  -6   27.79    5.14
  -3  -6  -6   19.36    3.82
   3  -6  -6   18.44    4.68
  -3  -6  -5   90.35    8.14
   3   6  -5   94.91    9.78
   3  -6  -5   93.69    9.65
  -3   6  -5   87.45    9.00
   3  -6  -5  105.99    9.77
   3   6  -5   85.40    8.13
   3   6  -4   12.95    3.47
   3  -6  -4   17.50    5.23
   3  -6  -4   16.32    4.54
  -3  -6  -4   12.43    3.18
  -3   6  -4   15.76    4.20
   3   6  -4   23.97    5.00
   3   6  -3  107.15   10.37
  -3   6  -3  104.16   10.25
   3  -6  -3   99.48    9.23
   3  -6  -3   96.43    9.90
  -3  -6  -3  116.03    8.41
   3   6  -3  113.67    9.82
  -3  -6  -2  127.53    8.29
  -3   6  -2  118.63   10.82
   3  -6  -2  123.35    9.86
   3  -6  -2  141.45   12.04
   3   6  -2  129.66   11.78
   3   6  -1  119.96   11.00
   3   6  -1  126.63   10.66
  -3  -6  -1  126.48    7.66
   3  -6  -1   99.21    9.84
   3  -6  -1  119.80    9.75
  -3   6  -1  106.38   10.29
   3  -6   0    1.50    1.82
  -3   6   0   -0.32    1.33
   3   6   0    4.30    2.38
   3   6   0    0.26    0.78
   3  -6   0   -1.28    1.83
   3  -6   1  100.23    9.53
   3   6   1  109.74   10.97
  -3   6   1  110.52   10.64
   3  -6   1  131.62   10.21
   3   6   1  108.70    9.96
   3  -6   2  130.85   11.12
   3   6   2  129.44   11.03
   3   6   2  137.31   11.53
   3  -6   2  142.27   10.35
  -3   6   2  123.76   11.38
  -3   6   3  105.03   10.61
   3   6   3  105.81    9.96
   3  -6   3  105.32    8.82
   3  -6   3  125.33   10.96
   3   6   3  117.29   10.87
   3  -6   4   12.08    3.59
   3   6   4   13.98    3.42
   3   6   4   22.30    4.74
  -3   6   4   17.70    4.20
   3  -6   4   17.43    3.52
   3   6   5  104.75   10.53
   3   6   5   92.27    9.89
   3  -6   5   74.13    8.23
  -3   6   5  103.26   10.65
   3  -6   5   94.52    8.02
   3   6   6   27.76    5.76
  -3   6   6   12.82    4.08
   3  -6   6   21.01    3.93
   3  -6   6   22.93    5.15
   3   6   6   18.95    3.94
  -3   6   7  118.57   11.41
   3   6   7  111.69   11.00
   3  -6   7  130.50    9.70
   3  -6   7  106.63    9.98
   3   6   7   98.06   10.23
   3  -6   8   40.57    5.51
   3   6   8   45.38    7.00
  -3   6   8   51.60    7.32
   3  -6   8   50.93    7.00
   3   6   8   40.16    6.70
   3  -6   9   23.40    4.99
   3  -6   9   34.13    5.22
   3   6   9   40.75    6.79
   3   6   9   38.29    6.57
  -3   6   9   35.49    6.83
   3  -6  10   46.99    5.99
   3   6  10   35.59    6.36
   3  -6  10   38.42    6.36
   3   6  10   40.93    7.02
  -3   6  10   24.42    5.74
  -3   6  11   84.71   10.10
   3   6  11   92.93   10.43
   3   6  11   88.37   10.68
   3  -6  11   82.26    8.68
   3  -6  12   10.02    3.10
   3   6  12    5.62    1.94
  -3   6  12   13.61    4.24
   3   6  12   11.57    4.17
   3  -6  13  167.90   12.64
   3   6  13  177.76   14.68
   3   6  13  177.32   14.51
  -3   6  13  185.36   14.81
   3   6  14   12.76    4.68
  -3   6  14    6.05    2.74
   3   6  14    7.65    2.54
   3   6  15   71.38    9.48
   3   6  15   60.72    8.69
  -3   6  15   63.24    8.84
   3   6  16   16.41    4.62
  -3   6  16   27.80    5.93
   3   6  17    9.10    3.44
   3   6  17   15.06    5.14
  -3   6  17   21.04    5.61
  -3   6  18   31.57    6.71
   3   6  18   34.21    7.37
   3   6  18   21.94    5.26
   3   6  19   37.13    7.02
   3   6  19   49.15    8.66
  -3   6  19   64.81    9.70
  -3   6  20   -2.81    2.83
   3   6  20    3.31    2.39
   3   6  21   18.62    5.83
  -3   6  21   11.80    4.08
  -3   6  21    7.47    4.22
  -3   6  22    3.88    2.65
   3   6  22    2.25    2.08
  -3   6  22    0.40    2.54
  -3   6  23    2.01    2.54
   3   6  23    0.66    2.54
   3   6  24    4.43    4.35
  -3   6  24    4.84    3.37
   3   6  25    7.48    4.21
   3   6  26   -2.08    2.61
  -3  -7 -24   14.63    5.34
   3  -7 -24   10.04    3.55
  -3  -7 -23   16.95    5.32
   3  -7 -23   30.68    7.33
  -3  -7 -22   12.22    4.50
   3  -7 -22   33.02    6.70
  -3  -7 -21    6.72    2.18
   3  -7 -21    2.15    2.66
  -3  -7 -20   12.12    4.40
   3  -7 -20   12.72    4.55
   3  -7 -19   52.98    8.66
  -3  -7 -19   41.56    7.80
  -3  -7 -18    6.77    4.64
   3  -7 -18    2.99    2.39
  -3  -7 -17   52.99    8.59
   3  -7 -17   39.29    7.22
  -3  -7 -16   73.67    9.99
   3  -7 -16   65.59    9.55
   3  -7 -16   42.09    8.25
   3  -7 -15   21.54    5.31
  -3  -7 -15   26.48    5.87
   3  -7 -15   15.94    4.96
   3  -7 -14   26.60    6.19
   3   7 -14   26.29    7.01
  -3  -7 -14   10.81    4.74
   3  -7 -14   26.14    5.90
   3   7 -13   83.35   10.11
  -3  -7 -13   77.39   10.19
   3  -7 -13   85.03   10.02
   3  -7 -13   73.59    9.92
   3   7 -12   18.92    5.20
  -3  -7 -12   30.10    5.87
   3  -7 -12   14.62    4.59
   3  -7 -12   24.81    5.53
  -3   7 -11    4.78    4.22
  -3  -7 -11    3.93    2.77
   3  -7 -11    1.01    2.01
   3   7 -11    3.13    2.95
   3  -7 -11    2.39    1.16
   3  -7 -10   49.94    7.71
  -3   7 -10   35.35    6.77
   3  -7 -10   44.20    7.75
   3   7 -10   31.97    6.69
  -3  -7 -10   49.15    7.56
   3   7  -9  149.03   13.07
  -3   7  -9  113.71   11.64
   3  -7  -9  125.50   12.57
  -3  -7  -9  155.38   13.28
   3  -7  -9  106.79   10.98
   3   7  -8   30.39    6.13
  -3  -7  -8   23.30    4.74
  -3   7  -8   18.52    5.13
   3  -7  -8   18.01    4.44
   3  -7  -8   20.82    5.04
  -3  -7  -7   47.27    6.94
  -3   7  -7   34.50    6.25
   3   7  -7   41.02    7.38
   3  -7  -7   32.12    6.13
   3  -7  -7   45.14    7.61
   3   7  -7   42.23    6.40
   3   7  -6   84.74    9.06
  -3  -7  -6   90.05    8.87
  -3   7  -6   79.27    9.54
   3  -7  -6   57.48    8.55
   3  -7  -6   60.87    8.00
   3   7  -6   78.80    9.53
   3  -7  -5   30.98    6.62
   3   7  -5   34.45    5.86
  -3   7  -5   29.48    5.77
   3   7  -5   38.99    6.53
   3  -7  -5   25.78    4.92
  -3  -7  -5   28.74    5.06
   3   7  -4  136.11   12.42
  -3   7  -4  151.39   13.00
  -3  -7  -4  152.24   10.76
   3  -7  -4  140.96   11.73
   3  -7  -4  155.46   13.05
   3   7  -4  127.92   11.10
   3  -7  -3  146.92   11.98
   3   7  -3  160.72   13.52
   3   7  -3  132.40   11.47
  -3   7  -3  159.59   13.28
   3  -7  -3  159.44   13.67
  -3  -7  -3  149.38   10.26
   3  -7  -2   90.40    9.21
   3   7  -2  102.00   10.70
   3   7  -2   90.49    9.92
   3  -7  -2   98.62   10.20
  -3   7  -2   86.11    9.96
   3   7  -1  320.82   19.33
   3  -7  -1  366.01   20.02
   3  -7  -1  336.12   17.31
  -3   7  -1  328.83   18.97
   3   7  -1  325.51   18.48
   3   7   0  212.82   15.48
   3  -7   0  221.51   13.84
  -3   7   0  237.81   16.28
   3   7   0  218.88   15.44
   3  -7   0  203.95   15.26
   3   7   1  295.89   17.71
  -3   7   1  336.38   19.55
   3   7   1  337.37   19.91
   3  -7   1  316.92   18.81
   3  -7   1  295.86   16.03
   3   7   2  113.07   11.14
   3   7   2   99.36   10.59
   3  -7   2   82.77    8.76
   3  -7   2  103.08   11.50
  -3   7   2   97.32   10.73
   3  -7   3  147.00   12.88
   3   7   3  153.72   13.03
   3  -7   3  147.00   11.04
  -3   7   3  156.68   13.35
   3   7   3  165.02   13.55
   3  -7   4  141.65   10.64
   3   7   4  147.55   13.44
  -3   7   4  133.24   12.34
   3   7   4  153.91   13.32
   3  -7   4  163.72   13.14
   3   7   5   32.87    6.25
   3   7   5   22.88    5.94
  -3   7   5   29.24    6.17
   3  -7   5   34.10    5.99
   3  -7   5   36.81    5.73
   3   7   6   80.03    9.69
   3   7   6   66.34    9.09
   3  -7   6   80.47    9.25
  -3   7   6   91.36   10.62
  -3   7   7   38.31    7.43
   3   7   7   45.97    7.67
   3  -7   7   37.91    6.78
   3   7   7   48.19    7.67
  -3   7   8   14.55    3.90
   3   7   8   14.02    4.47
   3   7   8   17.08    4.91
   3  -7   8   14.20    4.03
   3   7   9  135.53   12.72
   3  -7   9  104.29   10.72
  -3   7   9  151.45   13.44
   3   7   9  120.03   12.40
   3   7  10   35.69    6.98
  -3   7  10   44.73    7.60
   3   7  10   46.14    7.54
   3  -7  10   36.92    6.89
   3   7  11    3.49    2.65
   3   7  11   -1.40    1.86
  -3   7  11    3.94    3.19
   3  -7  11    6.06    3.18
   3  -7  12   16.81    4.78
  -3   7  12   13.65    4.49
   3   7  12   24.23    5.81
   3   7  12   12.41    4.40
   3   7  13   87.90   10.42
  -3   7  13   96.05   11.22
   3   7  13   83.29   10.78
   3   7  14   22.64    5.30
   3   7  14   16.54    5.78
  -3   7  14   26.26    6.02
   3   7  15   19.10    5.11
   3   7  15   26.23    6.37
  -3   7  15   28.53    6.24
   3   7  16   48.73    8.53
   3   7  16   70.29   10.18
  -3   7  16   76.79   10.24
   3   7  17   33.27    6.58
  -3   7  17   42.03    7.81
   3   7  17   37.77    7.20
  -3   7  18    2.17    2.36
   3   7  18    3.69    1.80
   3   7  18    2.54    2.87
   3   7  19   50.69    8.08
  -3   7  19   35.12    8.02
   3   7  19   37.77    8.27
  -3   7  20   12.04    4.17
   3   7  20    4.05    2.62
   3   7  20   14.80    4.48
   3   7  21    4.35    1.88
  -3   7  21    2.71    3.40
  -3   7  22   17.60    5.59
  -3   7  22   24.58    7.11
   3   7  22   20.22    5.53
   3   7  23   24.45    6.27
  -3   7  23    9.60    4.35
  -3   7  24   28.46    7.85
   3   7  24   22.29    6.14
  -3  -8 -22   11.76    4.54
   3  -8 -22   -0.66    2.59
  -3  -8 -21    9.42    5.81
   3  -8 -21    5.35    3.56
  -3  -8 -20    7.68    3.46
   3  -8 -20    3.31    2.96
  -3  -8 -19    8.30    3.02
   3  -8 -19    8.04    5.49
  -3  -8 -18    1.22    3.52
   3  -8 -18    1.53    3.32
   3  -8 -17    6.84    3.84
  -3  -8 -17    5.64    3.44
   3  -8 -16    9.83    3.59
  -3  -8 -16    7.72    4.88
   3  -8 -15   19.05    4.97
  -3  -8 -15   33.30    7.50
   3  -8 -15   25.76    6.66
  -3  -8 -14   14.68    5.21
   3  -8 -14   11.97    5.17
   3  -8 -14   13.41    4.81
   3  -8 -13   75.96   10.10
   3   8 -13   62.20    9.40
  -3  -8 -13   58.89    9.42
   3  -8 -13   84.29   10.91
   3  -8 -12   18.26    5.22
   3   8 -12   21.04    5.74
  -3  -8 -12   16.58    4.56
   3  -8 -12   26.12    5.39
   3   8 -11    5.82    2.84
  -3  -8 -11    2.88    2.51
   3  -8 -11    2.08    2.47
   3  -8 -11    1.10    2.64
   3   8 -10   16.90    5.11
  -3   8 -10   17.22    5.30
  -3  -8 -10    7.50    3.48
   3  -8 -10   12.69    4.14
   3  -8 -10   13.47    4.60
  -3  -8  -9   37.28    6.52
  -3   8  -9   36.40    6.98
   3  -8  -9   43.01    8.04
   3  -8  -9   43.39    7.25
   3   8  -9   45.14    7.87
   3  -8  -8   11.10    4.15
  -3   8  -8   18.24    5.33
   3   8  -8   15.75    4.64
   3  -8  -8   13.36    4.56
  -3  -8  -8   18.76    5.47
   3  -8  -7   23.06    4.88
  -3   8  -7   25.36    6.24
   3  -8  -7   19.58    5.10
   3   8  -7   24.41    5.96
  -3   8  -6    1.94    2.96
   3   8  -6    6.67    3.78
   3   8  -6    4.31    2.17
   3  -8  -6   -0.82    1.74
   3  -8  -6    3.20    2.10
   3   8  -5    6.71    2.74
  -3   8  -5   13.47    5.03
   3   8  -5   15.88    5.37
   3  -8  -5   15.96    4.95
   3  -8  -5   15.35    3.51
  -3   8  -4   42.33    7.29
   3   8  -4   41.95    7.43
   3   8  -4   36.38    7.02
   3  -8  -4   36.07    7.01
   3  -8  -4   38.58    7.26
   3   8  -3   30.75    5.90
   3   8  -3   11.24    4.27
   3  -8  -3   41.30    7.02
   3  -8  -3   23.37    5.31
  -3   8  -3   17.61    4.43
   3  -8  -2    1.69    1.52
   3   8  -2    0.47    2.04
   3   8  -2    5.46    3.56
   3  -8  -2    4.82    2.90
  -3   8  -2    3.52    3.56
   3   8  -1   33.08    6.26
  -3   8  -1   36.76    7.02
   3   8  -1   38.91    6.88
   3  -8  -1   25.06    5.89
   3  -8  -1   31.68    5.64
   3   8   0    7.88    4.24
  -3   8   0    4.00    3.20
   3  -8   0    5.93    2.80
   3   8   0    7.41    2.88
   3  -8   1   39.83    7.11
   3   8   1   31.90    6.31
  -3   8   1   40.44    7.88
   3   8   1   43.88    7.59
  -3   8   2    4.71    3.58
   3  -8   2    8.58    3.12
   3   8   2    7.29    3.24
   3   8   2    6.40    4.21
  -3   8   3   29.73    6.25
   3   8   3   21.54    4.96
   3   8   3   24.89    6.15
   3  -8   3   27.80    5.66
   3   8   4   54.43    8.65
  -3   8   4   43.06    8.34
   3  -8   4   48.69    7.58
   3   8   4   34.21    6.80
   3   8   5   15.08    4.57
  -3   8   5   23.33    5.03
   3   8   5   18.86    4.89
   3  -8   5   12.25    4.15
  -3   8   6    6.48    4.56
   3   8   6    2.87    2.40
   3   8   6    6.11    1.86
   3  -8   6   -0.22    1.56
   3  -8   7   17.86    5.08
   3   8   7   22.29    5.74
  -3   8   7   14.62    4.46
   3   8   7   19.36    5.78
   3   8   8   11.58    3.58
  -3   8   8   19.16    4.85
   3   8   8    9.99    3.09
   3  -8   8   16.73    4.84
   3   8   9   31.93    6.30
  -3   8   9   49.38    8.54
   3   8   9   32.97    7.37
   3  -8   9   37.87    6.85
   3   8  10    8.82    3.27
  -3   8  10   16.87    5.44
   3   8  10   16.36    4.71
   3  -8  10   10.08    3.75
   3   8  11    7.90    4.01
  -3   8  11    4.59    3.35
   3  -8  11   -1.05    1.67
   3   8  11    0.66    2.53
  -3   8  12   23.69    6.35
   3   8  12   20.86    5.52
   3   8  12   11.48    4.82
   3   8  13   69.75   10.02
  -3   8  13   58.96    9.48
   3   8  13   48.31    8.21
   3   8  14    5.52    3.27
   3   8  14   14.82    4.46
  -3   8  14   11.96    4.98
   3   8  15   16.45    5.76
  -3   8  15   19.17    5.57
   3   8  15   31.67    7.08
   3   8  16    8.79    4.00
  -3   8  16   10.84    5.02
   3   8  16    6.74    1.78
   3   8  17    6.93    4.47
  -3   8  17   15.26    4.87
   3   8  17    4.60    2.87
  -3   8  18    3.56    3.25
   3   8  18    4.58    2.83
   3   8  19   12.93    4.60
  -3   8  19   10.44    4.89
   3   8  19    7.03    4.72
  -3   8  20    0.84    2.47
   3   8  20    6.18    4.25
   3   8  20    2.15    3.09
  -3   8  20    3.91    3.69
  -3   8  21    2.25    2.56
  -3   8  21    5.65    2.93
   3   8  21    5.76    4.14
   3   8  22    3.16    3.88
  -3   8  22    1.64    2.48
   3  -9 -19   34.97    7.83
  -3  -9 -19   24.00    6.98
  -3  -9 -18    7.94    4.80
   3  -9 -18   -1.51    3.22
   3  -9 -17    5.73    3.87
  -3  -9 -17    4.10    1.99
  -3  -9 -16    6.79    4.06
   3  -9 -16   13.62    4.65
   3  -9 -15    9.62    4.43
  -3  -9 -15    2.55    4.03
  -3  -9 -14   10.56    4.69
   3  -9 -14   10.98    5.28
   3  -9 -14    4.94    2.74
   3  -9 -13   29.00    7.06
   3  -9 -13   20.92    5.03
   3   9 -12    5.00    3.56
   3  -9 -12    4.36    5.30
   3  -9 -12    0.84    2.08
   3   9 -11    9.19    3.35
   3  -9 -11   13.82    4.26
   3  -9 -11    9.06    4.07
   3   9 -10   26.13    6.71
   3  -9 -10   26.28    6.33
   3  -9 -10   29.80    7.02
   3  -9  -9   70.01   10.17
  -3   9  -9   95.99   11.85
   3  -9  -9   77.47   10.40
   3   9  -9   93.55   12.01
   3  -9  -8   34.00    7.17
  -3   9  -8   21.09    6.80
   3  -9  -8   37.84    7.77
   3   9  -8   44.67    7.99
   3   9  -7   80.66   11.28
   3  -9  -7   53.11    8.57
  -3   9  -7   53.81    8.71
   3  -9  -7   65.19    9.36
   3   9  -6   64.44    9.60
  -3   9  -6   53.83    8.96
   3  -9  -6   42.36    7.60
   3   9  -5   57.64    9.18
  -3   9  -5   45.23    8.52
   3  -9  -5   70.66   10.29
   3   9  -4   99.93   11.42
   3   9  -4   98.45   11.95
  -3   9  -4  102.50   12.24
   3  -9  -4   80.58   10.26
   3   9  -3  111.95   12.36
   3   9  -3  121.74   13.29
  -3   9  -3   98.30   11.88
   3  -9  -3  125.99   13.30
   3  -9  -2   18.91    5.65
   3   9  -2   40.01    7.25
  -3   9  -2   40.87    7.84
   3   9  -2   44.93    7.68
   3   9  -1   90.62   10.88
   3   9  -1   94.21   11.79
  -3   9  -1   91.09   10.91
   3  -9  -1   89.81   10.76
   3   9   0   45.65    7.65
   3   9   0   50.59    8.69
  -3   9   0   47.47    8.25
   3  -9   0   32.39    6.43
   3   9   1   70.10   10.18
  -3   9   1   87.59   11.39
   3   9   1   76.91   10.34
   3  -9   1   83.33   10.97
   3   9   2   19.43    6.17
   3   9   2   26.07    5.92
   3  -9   2   25.10    6.21
  -3   9   2   38.31    7.24
   3   9   3  131.10   13.91
  -3   9   3  124.72   13.29
   3   9   3  123.73   13.16
   3  -9   3  107.68   12.84
   3   9   4   78.60   10.37
  -3   9   4   93.19   11.68
   3  -9   4   76.65   10.42
   3   9   4  111.73   12.12
   3   9   5   65.41    9.75
  -3   9   5   78.77   10.28
   3  -9   5   68.00   10.41
   3   9   5   47.66    8.34
  -3   9   6   51.04    8.99
   3   9   6   64.69    9.19
   3  -9   6   53.07    8.78
   3   9   6   72.23   10.53
   3   9   7   68.02    9.98
  -3   9   7   72.26   10.43
   3   9   7   51.93    9.01
   3  -9   7   62.90    9.21
   3   9   8   46.01    8.33
  -3   9   8   54.04    8.95
   3   9   8   40.42    7.14
   3  -9   8   26.10    5.83
   3  -9   9   72.78   10.58
   3   9   9   78.67   11.21
  -3   9   9   80.67   11.17
   3   9   9   62.90    9.99
   3   9  10   30.15    7.31
   3   9  10   32.98    6.89
  -3   9  10   21.74    5.64
   3   9  11    9.55    4.14
   3   9  11   17.14    5.24
  -3   9  11   18.70    6.33
   3   9  12    0.25    1.68
  -3   9  12    1.90    2.56
   3   9  12    6.87    3.68
   3   9  13   21.15    6.45
  -3   9  13   19.90    6.64
   3   9  13   19.45    5.97
   3   9  14    4.98    2.47
  -3   9  14    5.12    2.21
   3   9  15   10.42    4.64
  -3   9  15   15.80    4.70
   3   9  15    9.65    4.22
   3   9  16    9.66    4.52
   3   9  16    6.89    3.44
  -3   9  16   10.49    4.53
   3   9  17   -0.52    2.78
   3   9  17    9.55    4.03
  -3   9  17    8.10    4.82
   3   9  18    6.50    4.16
  -3   9  18    7.79    2.94
   3   9  18    6.72    5.00
   3   9  19   29.45    6.87
  -3   9  19   29.70    6.28
   3   9  19   29.18    6.91
  -3   9  19   29.86    7.56
   3 -10 -15   -5.09    4.84
   3 -10 -14    9.72    5.71
   3  10 -12   -5.22    2.95
   3 -10 -12   12.33    5.47
   3  10 -11   27.29    7.23
   3 -10 -11   32.49    6.90
   3  10 -10   21.58    6.81
   3 -10 -10   12.54    4.56
   3  10  -9   14.77    5.88
  -3  10  -9   21.85    6.77
   3 -10  -9   18.30    5.35
   3  10  -8   32.26    7.24
   3 -10  -8   39.39    8.03
  -3  10  -8   18.75    5.19
  -3  10  -7    2.91    2.76
   3 -10  -7    1.26    3.33
   3  10  -7   -3.09    2.43
   3  10  -6    3.88    2.19
  -3  10  -6    3.09    1.95
   3 -10  -6    5.15    3.33
   3  10  -5   39.84    8.08
   3 -10  -5   35.92    7.12
  -3  10  -5   24.82    7.08
  -3  10  -4   37.15    7.61
   3  10  -4   42.55    8.27
   3 -10  -4   55.55    9.12
   3  10  -3  107.16   12.94
   3  10  -3  102.66   12.56
  -3  10  -3  118.49   13.61
   3 -10  -3   91.42   11.67
   3 -10  -2   26.50    5.99
   3  10  -2   22.59    5.69
  -3  10  -2   25.28    6.57
   3  10  -2   20.44    4.87
   3  10  -1   13.79    5.65
   3  10  -1    1.19    3.91
  -3  10  -1   14.89    4.06
   3 -10  -1    9.03    3.14
  -3  10   0    1.93    1.89
   3  10   0    0.49    2.95
   3  10   1    9.40    2.76
   3 -10   1   16.64    4.98
   3  10   1    7.73    4.01
  -3  10   1   10.55    2.71
   3  10   2   13.91    3.90
   3  10   2   17.14    4.81
   3 -10   2    9.85    4.20
   3 -10   3  116.34   13.27
   3  10   3  126.08   13.61
  -3  10   3  103.80   12.80
   3  10   3   92.33   11.99
   3  10   4   36.64    8.08
  -3  10   4   54.64    9.91
   3  10   4   50.88    8.77
   3 -10   4   46.25    8.37
   3  10   5   31.43    7.07
   3 -10   5   32.59    6.86
   3  10   5   21.73    6.64
  -3  10   5   19.14    4.98
   3  10   6    4.75    4.02
   3 -10   6    2.71    2.14
  -3  10   6    7.86    3.94
   3  10   6    4.23    3.79
  -3  10   7   -2.44    1.97
   3  10   7   -4.30    4.05
   3  10   7   -1.84    3.15
   3 -10   7   -0.54    2.06
  -3  10   8   28.50    6.99
   3  10   8   25.97    6.07
   3 -10   8   27.53    5.90
   3  10   8   31.48    6.84
   3  10   9   25.44    6.45
   3  10   9   11.54    4.68
  -3  10   9   17.39    5.51
  -3  10  10   18.19    5.82
   3  10  10   11.38    4.77
   3  10  10   13.31    4.76
   3  10  11   26.60    6.82
   3  10  11   24.44    6.28
  -3  10  11   21.34    5.54
   3  10  12    1.40    2.29
  -3  10  12   -3.87    4.50
   3  10  12    6.69    3.90
  -3  10  13   -0.51    1.92
   3  10  13   -1.51    1.74
   3  10  13   -3.26    3.84
   3  10  14    1.99    1.52
  -3  10  14    9.40    4.90
   3  10  14    5.55    3.41
   3  10  15   -0.34    3.42
   3  10  15   -2.93    2.51
  -3  10  15   -0.50    3.42
   3  11  -9   17.30    5.86
   3 -11  -9    3.49    3.40
   3  11  -8   19.26    6.76
   3 -11  -8   27.49    6.32
  -3  11  -7   25.16    6.95
   3 -11  -7   33.01    7.25
   3  11  -7   19.39    5.73
   3  11  -6    9.27    5.23
   3 -11  -6   13.64    4.78
  -3  11  -6    6.85    3.90
   3 -11  -5    7.57    4.05
  -3  11  -5    3.72    2.67
   3  11  -5    4.71    2.58
   3  11  -4   14.05    4.75
  -3  11  -4   19.12    5.82
   3 -11  -4    3.55    3.51
   3 -11  -3    5.28    3.28
   3  11  -3    2.27    2.05
  -3  11  -3    3.46    4.56
   3 -11  -2    2.04    3.35
   3  11  -2    5.40    3.99
  -3  11  -2    2.55    3.23
  -3  11  -1   -2.71    2.86
   3 -11  -1    1.34    2.22
   3  11  -1   -2.95    2.47
   3 -11   0    6.76    4.75
   3  11   0    0.70    2.66
   3  11   0   -0.51    2.52
  -3  11   0   -0.62    1.72
  -3  11   1    3.23    2.63
   3  11   1    2.77    2.39
   3 -11   1    1.76    2.44
   3  11   2    0.98    2.49
  -3  11   2    3.12    2.34
   3  11   2    6.61    3.71
   3 -11   2    3.99    3.40
   3  11   3    4.15    3.19
  -3  11   3    2.38    3.77
   3 -11   3    0.73    2.94
   3  11   3   -0.42    1.78
  -3  11   4   16.78    5.83
   3  11   4   16.25    5.42
   3 -11   4   15.20    4.56
   3  11   4   13.50    4.52
   3  11   5    3.06    2.90
   3  11   5   10.61    3.14
  -3  11   5    9.35    4.36
   3 -11   5    1.46    2.74
   3  11   6    6.76    2.97
  -3  11   6   11.83    4.22
   3  11   6    9.13    3.68
   3 -11   6    3.99    2.85
  -3  11   7   21.69    6.17
   3  11   7   26.38    6.93
   3  11   7   35.33    7.76
   3  11   8   24.44    7.00
   3  11   8   13.60    3.42
  -3  11   8   23.23    6.03
   3  11   9    7.31    3.31
   3  11   9    2.46    2.19
   4   0 -30    6.24    1.86
   4   0 -29   -4.25    3.48
   4   0 -28    5.34    2.87
   4   0 -27   33.90    7.22
   4   0 -26  122.35   13.19
   4   0 -25   27.90    6.20
   4   0 -24   21.32    5.60
   4   0 -23   56.07    8.12
   4   0 -22   84.36   10.25
   4   0 -21   87.84    9.95
   4   0 -20  107.59   10.93
   4   0 -19  126.26   11.49
   4   0 -18  199.81   14.09
   4   0 -17  701.94   25.93
   4   0 -16  159.64   12.07
   4   0 -15  315.51   16.25
   4   0 -14  220.21    9.30
   4   0 -14  247.89   14.07
   4   0 -13  129.00    6.95
   4   0 -13  143.42   10.59
   4   0 -12  118.44    6.65
   4   0 -12  109.47    8.81
   4   0 -11 1312.68   30.09
   4   0 -11 1290.14   21.77
   4   0 -10  105.26    5.96
   4   0 -10   88.33    7.47
   4   0  -9 1279.23   27.91
   4   0  -9 1301.53   20.69
   4   0  -8  337.76   13.67
   4   0  -8  322.82   10.29
   4   0  -7   73.11    6.02
   4   0  -7   57.59    5.56
   4   0  -7   57.63    4.34
   4   0  -6  168.56    8.91
   4   0  -6  156.19    7.06
   4   0  -6  139.44    8.36
   4   0  -5  394.64   11.16
   4   0  -5  376.67   13.07
   4   0  -5  419.16   13.81
   4   0  -4  152.29    8.25
   4   0  -4  158.60    7.07
   4   0  -4  151.47    8.05
   4   0  -3 1692.57   23.44
   4   0  -3 1671.19   25.85
   4   0  -2 1095.82   19.01
   4   0  -2 1109.28   20.71
   4   0  -2 1116.33   21.17
   4   0  -1  637.86   15.46
   4   0  -1  646.38   15.89
   4   0  -1  639.41   14.81
   4   0   0  782.80   16.86
   4   0   0  738.26   16.19
   4   0   1  624.18   15.31
   4   0   1  671.52   15.01
   4   0   2 1099.83   18.93
   4   0   2 1075.32   20.60
   4   0   3 1687.68   26.54
   4   0   3 1634.11   22.49
   4   0   4  156.76    8.34
   4   0   4  165.12    6.90
   4   0   5  401.71   10.61
   4   0   5  393.86   13.45
   4   0   6  164.21    8.92
   4   0   6  159.17    6.50
   4   0   7   52.76    5.33
   4   0   7   59.49    3.87
   4   0   8  328.36   13.19
   4   0   8  324.91    8.59
   4   0   9 1261.37   26.53
   4   0   9 1251.51   16.19
   4   0  10  101.45    7.72
   4   0  10   93.32    4.23
   4   0  11 1298.81   28.30
   4   0  11 1264.66   14.57
   4   0  12  125.16    8.98
   4   0  13  120.43    9.13
   4   0  14  243.81   13.21
   4   0  15  296.03   15.09
   4   0  16  174.43   11.74
  -4   0  16  156.55    8.23
   4   0  17  728.82   24.81
   4   0  18  194.21   13.06
   4   0  19  158.91   12.18
   4   0  20  100.91    9.95
   4   0  21  100.90   10.17
   4  -1 -30    5.05    2.08
   4  -1 -29    7.10    3.71
   4  -1 -28    2.45    2.15
   4   1 -27    2.01    1.56
   4  -1 -27    1.12    3.03
   4   1 -26    9.19    5.17
   4  -1 -26    5.55    3.84
   4  -1 -25   11.71    4.09
   4   1 -25    6.21    4.24
   4  -1 -24   33.31    6.93
   4   1 -24   50.48    7.99
   4  -1 -23    4.02    2.71
   4   1 -23    2.51    1.70
   4   1 -22   13.74    4.00
   4  -1 -22    8.84    2.00
   4   1 -21    5.30    2.84
   4  -1 -21    2.78    2.74
   4   1 -20    4.07    1.82
   4  -1 -20    7.29    3.42
   4  -1 -19   43.51    7.30
   4   1 -19   49.94    7.06
   4  -1 -18   57.58    7.68
   4   1 -18   58.65    7.81
   4   1 -17   23.29    4.75
   4  -1 -17   29.83    5.69
   4   1 -16  336.64   17.14
   4  -1 -16  305.07   17.14
   4  -1 -16  299.00   13.83
   4   1 -15    5.40    2.28
   4  -1 -15    6.78    2.01
   4  -1 -15   10.89    3.08
   4   1 -14   48.27    5.85
   4  -1 -14   45.04    5.16
   4  -1 -14   37.30    6.06
   4  -1 -13   52.74    5.24
   4  -1 -13   61.04    7.15
   4   1 -13   46.39    5.81
   4  -1 -12   63.08    5.86
   4   1 -12   56.01    3.00
   4  -1 -12   56.91    6.85
   4   1 -12   60.63    6.53
   4   1 -12   63.03    6.27
   4   1 -11  109.77    8.16
   4  -1 -11  107.94    9.07
   4  -1 -11  115.15    7.73
   4   1 -11  118.73    8.30
   4   1 -10  749.39   20.49
   4  -1 -10  710.20   22.56
   4  -1 -10  741.47   19.38
   4   1 -10  718.84   20.00
   4  -1  -9   11.40    2.53
   4  -1  -9   12.03    3.21
   4   1  -9    8.98    1.38
   4   1  -9    8.72    2.11
   4   1  -9    8.38    2.20
   4   1  -8  219.51   10.16
   4   1  -8  215.37   10.50
   4  -1  -8  215.40   11.73
   4   1  -8  219.27    6.70
   4  -1  -8  204.66    9.80
   4  -1  -7   56.67    5.91
   4   1  -7   47.22    3.28
   4  -1  -7   43.61    4.38
   4   1  -7   48.49    4.56
   4   1  -7   54.95    5.12
   4  -1  -6  137.83    8.99
   4   1  -6  155.94    8.00
   4   1  -6  139.89    5.80
   4   1  -6  146.20    8.50
   4  -1  -6  147.52    8.04
   4  -1  -5  120.89    8.12
   4   1  -5  100.01    5.07
   4  -1  -5  110.28    6.82
   4   1  -5  115.77    6.53
   4   1  -4  430.90   12.41
   4   1  -4  443.70   11.05
   4   1  -4  429.35   14.14
   4  -1  -4  422.70   14.72
   4  -1  -4  435.53   13.49
   4  -1  -3   47.57    4.42
   4   1  -3   55.30    4.06
   4  -1  -3   49.00    4.96
   4   1  -3   46.39    3.93
   4   1  -3   48.26    4.83
   4  -1  -2   84.34    5.98
   4  -1  -2   89.04    6.49
   4   1  -2   75.23    5.69
   4   1  -2   86.13    5.34
   4   1  -2   90.93    5.35
   4   1  -1   24.47    2.89
   4  -1  -1   24.88    3.23
   4  -1  -1   27.20    3.55
   4   1  -1   17.35    2.67
   4  -1   0  251.23   10.19
   4  -1   0  261.81   10.93
   4   1   0  255.83    9.54
   4   1   1   26.33    3.05
   4  -1   1   27.12    3.20
   4   1   1   23.61    3.11
   4   1   2   92.88    6.16
   4   1   2   84.34    5.55
   4  -1   2   85.72    5.96
   4   1   3   43.48    4.28
   4   1   3   44.83    4.37
   4  -1   3   49.91    4.58
   4  -1   4  417.74   13.62
   4   1   4  423.20   12.46
   4   1   4  395.32   13.57
   4   1   5   97.12    5.94
   4   1   5  115.29    7.62
   4  -1   5  110.45    7.08
   4   1   6  157.73    7.52
   4   1   6  149.24    8.96
   4  -1   6  148.26    8.42
   4  -1   7   42.80    4.70
   4   1   7   50.15    5.34
   4   1   7   48.84    3.99
   4   1   8  217.93   11.23
   4  -1   8  219.21   10.72
   4   1   8  221.45    8.81
   4   1   9   14.53    2.38
   4  -1   9    7.84    2.07
   4   1   9    7.48    2.35
   4   1  10  734.54   15.88
   4  -1  10  741.66   20.59
   4   1  10  708.10   21.41
   4   1  11  115.58    6.26
   4   1  11  120.15    8.95
   4  -1  11  109.66    8.06
   4   1  12   72.58    4.99
   4   1  12   65.69    6.92
   4  -1  12   59.58    6.25
   4   1  13   56.43    4.46
   4   1  13   52.86    6.37
  -4  -1  13   43.54    2.38
   4  -1  13   57.50    6.01
   4   1  14   49.38    3.93
   4  -1  14   53.53    6.09
   4   1  14   48.34    6.16
   4   1  15    7.64    2.25
   4   1  15    6.66    1.56
   4  -1  15    4.47    1.84
   4   1  16  302.92   16.01
   4  -1  16  295.24   15.10
   4   1  17   21.87    4.55
   4  -1  17   21.24    4.34
   4   1  18   71.03    8.34
   4  -1  18   60.79    7.29
  -4   1  18   59.90    6.47
   4   1  19   54.91    7.36
   4  -1  19   36.79    5.86
   4  -1  20    1.99    1.17
   4   1  20    3.92    2.94
   4   1  21   10.89    4.07
   4   1  22   14.07    4.83
   4   1  23    5.38    2.47
   4  -2 -30    1.28    2.65
   4  -2 -29    0.35    1.55
   4  -2 -28    6.33    2.58
   4  -2 -27   62.04    9.39
   4  -2 -26   61.61    9.57
   4  -2 -25   60.18    9.35
   4  -2 -24   12.89    3.79
   4   2 -23   -0.99    1.29
   4  -2 -23    3.98    2.13
   4   2 -22   50.94    8.19
   4  -2 -22   53.91    8.84
   4   2 -21   72.84    8.68
   4  -2 -21   69.58    9.30
   4   2 -20    4.89    1.85
   4  -2 -20    4.61    1.06
   4  -2 -19  165.04   13.73
  -4  -2 -19  157.66   13.47
   4   2 -18   17.22    4.28
  -4  -2 -18   18.79    4.80
   4  -2 -18   17.16    5.12
   4  -2 -17   14.23    4.03
  -4  -2 -17   14.99    3.99
   4   2 -17   17.35    4.03
   4  -2 -17   12.42    3.34
  -4  -2 -16  260.33   16.22
   4   2 -16  240.96   13.76
   4  -2 -16  244.18   13.81
   4   2 -16  248.32   13.79
   4  -2 -16  230.89   15.30
   4   2 -15  142.51   10.22
  -4  -2 -15  144.83   11.90
   4  -2 -15  162.05   11.39
   4  -2 -15  148.10   12.00
   4   2 -15  128.66    9.49
   4  -2 -14   54.31    6.34
  -4  -2 -14   60.85    7.42
   4   2 -14   53.09    6.13
   4  -2 -14   55.01    7.15
   4   2 -14   52.99    6.12
   4   2 -13  135.19    9.25
   4   2 -13  123.60    9.17
   4  -2 -13  112.00    9.43
   4  -2 -13  124.98   10.76
   4  -2 -12  233.36   14.34
  -4  -2 -12  250.11   14.62
   4   2 -12  227.05   11.36
   4  -2 -12  252.47   13.23
   4   2 -12  248.55   12.88
   4   2 -11   67.60    5.87
  -4   2 -11   50.73    2.91
  -4  -2 -11   61.53    6.93
   4  -2 -11   52.40    6.12
   4  -2 -11   59.59    7.09
   4   2 -11   56.83    6.00
   4   2 -10  292.95   11.77
  -4   2 -10  263.79    7.63
  -4  -2 -10  294.19   14.58
   4  -2 -10  307.66   15.58
   4  -2 -10  269.68   13.31
   4   2 -10  275.65   13.06
   4   2  -9   80.53    3.14
   4  -2  -9  108.51    9.04
   4   2  -9   97.55    6.42
   4  -2  -9   91.11    7.66
   4   2  -9   99.26    7.52
   4   2  -8   19.73    1.84
   4   2  -8   19.74    2.73
   4  -2  -8   18.99    4.28
   4  -2  -8   17.84    3.30
   4   2  -8   21.57    3.72
   4  -2  -7    6.76    1.96
   4   2  -7    5.94    2.41
   4   2  -7    6.34    1.13
   4   2  -7    6.18    1.56
   4  -2  -7    7.09    2.18
   4   2  -6    7.88    1.73
   4   2  -6    6.21    1.16
   4   2  -6    7.43    1.64
   4  -2  -6    4.50    1.88
   4  -2  -6    4.74    1.85
   4   2  -5   42.16    3.50
   4   2  -5   35.01    3.09
   4   2  -5   37.23    4.50
   4  -2  -5   42.59    5.08
   4  -2  -5   40.24    4.68
   4   2  -4  913.04   21.93
   4   2  -4  896.61   16.86
   4   2  -4  893.57   15.71
   4  -2  -4  920.96   23.18
   4  -2  -4  912.61   22.33
   4  -2  -3  296.04   12.63
   4   2  -3  292.74   12.13
   4   2  -3  288.10    9.92
   4  -2  -3  274.24   12.55
   4   2  -3  278.97    8.60
   4  -2  -2  120.92    8.05
   4   2  -2  123.52    7.89
   4   2  -2  117.07    6.63
   4  -2  -2  141.84    8.88
   4   2  -1   76.96    6.06
   4   2  -1   85.82    5.78
   4  -2  -1   87.41    6.60
   4  -2  -1   94.74    7.15
   4   2   0   83.81    6.48
   4   2   0  107.49    6.80
   4  -2   0   93.47    7.00
   4  -2   0  106.75    7.40
   4   2   1   81.06    6.29
   4   2   1   84.33    6.16
   4  -2   1   89.05    6.73
   4   2   2  125.93    7.82
   4  -2   2  113.64    7.59
   4   2   2  130.43    8.06
   4  -2   2  127.17    7.98
   4   2   3  272.47   11.54
   4  -2   3  260.53   11.63
   4   2   3  282.21   11.93
   4   2   4  941.55   21.35
   4  -2   4  935.75   21.99
   4   2   4  905.45   22.16
   4   2   5   32.42    4.22
   4  -2   5   29.08    4.05
   4   2   5   33.94    4.15
   4   2   6    4.62    1.14
   4  -2   6    4.72    1.54
   4   2   6    5.33    2.21
   4   2   7    2.85    1.24
   4  -2   7    5.72    1.86
   4   2   7    4.75    1.80
   4   2   8   22.69    3.44
   4  -2   8   18.64    3.05
   4   2   8   23.07    3.88
   4   2   9   99.06    7.08
   4  -2   9   98.42    7.60
   4   2   9  109.21    8.85
   4   2  10  302.46   12.56
   4  -2  10  289.05   13.13
   4   2  10  273.78   14.35
   4   2  11   51.87    6.36
   4   2  11   52.85    5.14
   4  -2  11   59.11    6.06
   4  -2  12  233.86   12.23
   4   2  12  249.40   11.46
   4   2  12  231.13   13.62
   4   2  13  122.97   10.12
   4  -2  13  111.70    8.61
   4   2  13  134.21    8.54
   4  -2  14   49.60    5.87
   4   2  14   50.01    5.23
   4   2  15  144.02   11.24
   4  -2  15  140.53    9.85
   4   2  15  141.77    8.84
   4  -2  16  243.59   13.44
   4   2  16  235.68   15.06
   4   2  16  240.99   11.75
   4   2  17   10.79    3.41
   4  -2  17   19.00    3.87
   4   2  18   27.25    5.65
   4  -2  18   12.55    3.39
   4  -2  19  133.97   10.62
   4   2  19  146.06   12.56
   4   2  20    5.04    2.74
  -4   2  20    2.66    2.00
   4   2  21   78.28    9.36
   4   2  22   51.57    8.22
   4   2  23   -1.28    2.24
   4   2  24   11.97    3.68
   4  -3 -29    8.34    4.97
   4  -3 -28   -2.75    3.86
   4  -3 -27    7.66    2.80
   4  -3 -26    1.29    1.79
   4  -3 -25    1.68    3.48
   4  -3 -24    0.87    1.62
  -4  -3 -23    5.64    3.94
   4  -3 -23   -0.12    2.23
   4  -3 -22    6.22    2.65
  -4  -3 -22    6.03    4.27
   4  -3 -21   -1.84    2.43
  -4  -3 -21    0.36    1.46
   4  -3 -20    3.09    3.43
  -4  -3 -20    1.07    1.71
  -4  -3 -19    6.30    2.45
   4  -3 -19    6.46    4.37
   4  -3 -18    9.84    3.30
  -4  -3 -18   14.73    4.00
   4  -3 -18   11.01    3.18
   4   3 -17    0.28    2.59
   4  -3 -17   33.82    5.65
   4  -3 -17   32.13    6.15
  -4  -3 -17   28.76    5.46
   4   3 -16   13.16    3.55
   4  -3 -16   16.29    3.94
  -4  -3 -16   11.81    3.37
   4  -3 -16   12.77    3.62
   4   3 -16   13.69    3.47
  -4  -3 -15   51.80    7.13
   4   3 -15   51.69    6.04
   4  -3 -15   58.44    7.28
   4   3 -15   50.72    6.11
   4  -3 -15   52.77    7.78
   4   3 -14    1.33    0.74
   4  -3 -14    1.74    1.47
   4   3 -14    2.18    1.75
   4  -3 -14    0.48    1.78
  -4  -3 -14    3.57    2.02
   4   3 -13   24.35    4.28
   4  -3 -13   32.48    5.99
   4  -3 -13   28.34    4.76
   4   3 -13   24.70    3.73
  -4  -3 -13   33.09    5.45
  -4   3 -12   43.55    3.99
  -4  -3 -12   39.39    5.85
   4   3 -12   38.22    4.42
   4  -3 -12   43.62    6.36
   4  -3 -12   45.24    6.11
   4   3 -12   48.61    6.07
   4  -3 -11   16.38    3.82
   4   3 -11    9.23    2.96
   4   3 -11   14.34    2.40
  -4  -3 -11    5.36    2.44
  -4   3 -11    8.06    1.67
   4  -3 -11    9.03    2.97
   4   3 -10   17.31    3.89
   4   3 -10   20.14    2.85
   4  -3 -10   14.71    3.82
   4  -3 -10   25.74    4.39
  -4   3 -10   21.03    2.97
  -4  -3 -10   24.29    4.60
   4   3  -9   40.99    5.34
   4  -3  -9   47.20    6.09
  -4  -3  -9   49.03    6.06
   4   3  -9   41.72    2.96
   4  -3  -9   51.27    6.49
  -4   3  -9   45.66    4.42
   4   3  -9   46.69    3.84
   4   3  -8    6.47    2.01
   4   3  -8    4.28    1.01
   4   3  -8    5.14    1.04
   4  -3  -8    4.77    2.01
  -4  -3  -8    3.99    1.55
   4  -3  -8    5.62    2.30
  -4   3  -8    4.57    1.63
   4   3  -7   52.81    3.47
   4   3  -7   59.31    4.31
  -4   3  -7   55.36    4.89
   4  -3  -7   48.72    6.22
   4  -3  -7   66.06    6.76
   4   3  -7   50.23    5.90
   4   3  -6  430.93   16.82
   4  -3  -6  456.59   18.34
   4  -3  -6  436.76   17.57
   4   3  -6  425.15   12.04
   4   3  -6  428.52    8.95
   4   3  -5   56.73    6.07
   4  -3  -5   68.15    7.19
   4  -3  -5   52.93    6.09
   4   3  -5   56.60    3.13
   4   3  -5   64.67    4.91
   4   3  -4   16.13    3.04
   4   3  -4   16.10    2.59
   4  -3  -4   16.82    3.53
   4  -3  -4   21.53    3.76
   4   3  -3   75.07    3.90
   4   3  -3   72.34    5.67
   4   3  -3   62.63    6.37
   4  -3  -3   75.41    7.01
   4  -3  -3   77.73    7.14
   4   3  -2   65.78    5.50
   4  -3  -2   58.84    6.03
   4  -3  -2   60.26    6.35
   4   3  -2   55.55    5.85
   4   3  -1  133.41    8.09
   4  -3  -1  138.01    9.21
   4   3  -1  134.06    9.27
   4  -3  -1  130.51    9.22
   4   3   0  427.72   14.89
   4   3   0  411.46   15.93
   4  -3   0  425.11   15.98
   4  -3   0  434.68   16.49
   4  -3   1  129.22    8.88
   4   3   1  141.16    8.89
   4   3   1  138.25    9.20
   4  -3   1  143.58    9.35
   4  -3   2   67.46    6.53
   4   3   2   70.66    6.68
   4  -3   2   66.03    6.12
   4   3   2   70.17    6.34
   4  -3   3   77.46    6.71
   4   3   3   71.34    6.56
   4   3   3   79.04    7.17
   4  -3   3   72.51    6.47
   4   3   4   15.46    3.34
   4   3   4   18.62    3.48
   4  -3   4   21.75    3.82
   4  -3   4   16.70    3.50
   4  -3   5   57.44    6.06
   4   3   5   67.99    6.68
   4   3   5   61.83    6.38
   4   3   6  414.74   16.26
   4   3   6  438.11   17.68
   4  -3   6  418.42   16.06
   4   3   7   57.13    5.91
   4   3   7   46.46    5.84
   4  -3   7   60.29    6.01
   4   3   8    6.01    2.22
   4   3   8    4.89    1.88
   4  -3   8    5.55    1.83
   4   3   9   44.50    5.88
   4  -3   9   46.07    5.55
   4   3   9   42.22    5.35
   4  -3  10   21.07    3.83
   4   3  10   16.25    3.30
   4   3  10   21.16    4.10
   4  -3  11   11.49    2.75
   4   3  11    8.70    3.12
   4   3  11   14.01    2.97
   4   3  12   40.48    5.34
   4  -3  12   54.24    6.18
   4   3  12   48.77    6.57
   4   3  13   27.47    5.00
   4   3  13   38.65    5.08
   4  -3  13   30.01    4.52
   4  -3  14    1.55    0.95
   4   3  14   -0.64    1.06
   4   3  15   56.59    6.51
   4  -3  15   57.80    6.63
   4   3  15   58.82    8.24
   4   3  16   15.81    3.40
   4  -3  16   16.16    3.32
   4   3  16   14.25    4.23
   4   3  17   42.12    6.74
   4  -3  17   28.51    4.84
   4   3  17   36.19    5.41
   4   3  18   16.02    3.92
   4   3  19    0.29    1.57
   4   3  20    0.82    1.11
   4   3  21    0.66    2.02
  -4   3  21    2.15    2.89
   4   3  22    3.47    2.59
   4   3  23    0.64    1.94
   4   3  24    1.91    2.38
   4   3  25    3.18    2.25
   4  -4 -28   -7.77    3.72
   4  -4 -27   30.23    6.86
   4  -4 -26   50.64    8.77
  -4  -4 -25   24.93    6.13
   4  -4 -25   30.89    7.10
  -4  -4 -24   12.83    3.80
   4  -4 -24   13.48    5.52
   4  -4 -23   21.13    5.27
  -4  -4 -23   25.68    5.66
   4  -4 -22   20.86    4.95
  -4  -4 -22   13.12    3.56
  -4  -4 -21   93.06   11.06
   4  -4 -21  106.66   12.04
  -4  -4 -20   51.12    8.91
   4  -4 -20   51.50    7.85
   4  -4 -19   10.50    4.90
  -4  -4 -19    3.11    1.31
  -4  -4 -18   20.82    5.06
   4  -4 -18   14.54    3.67
   4  -4 -18   16.59    5.50
   4  -4 -17    4.21    1.28
   4  -4 -17    2.17    2.20
  -4  -4 -16  115.82   11.36
   4  -4 -16  125.17   11.74
   4  -4 -16  108.67   10.92
   4   4 -16  122.93   11.17
   4  -4 -15  621.86   25.44
  -4  -4 -15  681.22   26.88
   4  -4 -15  647.78   26.98
   4   4 -15  645.52   24.11
   4  -4 -14  112.99   10.69
   4   4 -14  100.78    9.62
   4  -4 -14  123.66   11.71
  -4  -4 -14   98.11   10.22
   4  -4 -13   43.28    6.79
   4   4 -13   50.30    7.03
  -4  -4 -13   58.85    7.54
   4  -4 -13   55.78    7.69
   4   4 -12  187.89   12.50
   4  -4 -12  195.06   14.15
  -4  -4 -12  170.42   12.65
   4  -4 -12  174.29   13.01
   4   4 -11  174.15   12.07
   4  -4 -11  185.53   13.13
  -4   4 -11  173.26   10.02
  -4  -4 -11  203.30   13.49
   4  -4 -11  175.61   13.09
  -4   4 -10  163.51    9.87
  -4  -4 -10  181.94   12.42
   4  -4 -10  167.56   12.51
   4   4 -10  192.14   12.46
   4  -4 -10  187.59   13.01
   4   4  -9  127.33   10.07
  -4  -4  -9  116.35    9.76
   4  -4  -9  134.61   10.90
   4   4  -9  118.01    6.48
   4  -4  -9  112.79   10.15
  -4   4  -9  124.74    8.70
   4  -4  -8    9.80    3.20
   4  -4  -8   12.31    3.54
  -4   4  -8   22.91    3.73
   4   4  -8   23.96    4.44
  -4  -4  -8   25.93    4.54
   4   4  -8   22.26    2.91
   4  -4  -7  194.93   13.01
   4   4  -7  192.38   12.24
  -4  -4  -7  192.67   11.56
  -4   4  -7  184.46   10.82
   4  -4  -7  205.05   13.21
   4   4  -7  186.92    9.54
   4   4  -6   18.16    2.98
   4   4  -6   25.43    4.55
  -4  -4  -6   19.32    3.41
   4  -4  -6   22.49    4.04
  -4   4  -6   23.61    4.13
   4  -4  -6   22.48    4.33
   4   4  -5  108.11    9.15
   4   4  -5  105.18    7.34
  -4  -4  -5  105.73    8.06
  -4   4  -5  114.79    8.47
   4  -4  -5  100.98    9.04
   4  -4  -5  121.26    9.92
   4   4  -4  382.35   14.28
   4  -4  -4  390.02   17.44
   4   4  -4  366.39   16.85
   4  -4  -4  400.87   18.15
  -4   4  -4  389.91   15.76
   4   4  -3  150.10   10.46
   4  -4  -3  147.20   10.40
   4   4  -3  155.63    9.33
   4  -4  -3  148.38   10.67
   4  -4  -2    9.50    2.69
   4   4  -2    7.57    2.14
   4   4  -2   13.54    2.98
   4  -4  -2    9.86    2.83
   4   4  -1   11.11    2.72
   4   4  -1    8.29    2.45
   4  -4  -1    2.55    1.72
   4  -4  -1    8.27    2.30
   4   4   0   12.88    3.32
   4   4   0   22.03    4.07
   4  -4   0   13.29    3.13
   4  -4   0   19.59    3.90
   4   4   1    3.44    1.96
   4  -4   1    3.39    1.99
   4   4   1    3.07    1.94
   4  -4   1    2.82    1.80
   4   4   2   13.05    3.10
   4  -4   2   13.89    3.19
   4   4   2   13.76    2.94
   4  -4   2   10.79    2.78
   4   4   3  156.81   10.97
   4   4   3  147.77   10.34
   4  -4   3  131.97    9.51
   4  -4   3  141.76   10.17
   4  -4   4  394.64   17.21
   4   4   4  364.44   16.74
   4   4   4  370.22   16.82
   4  -4   4  362.50   15.38
   4  -4   5   98.42    8.57
   4   4   5  102.99    8.96
   4   4   5  114.85    9.61
   4  -4   5  100.54    8.41
   4   4   6   18.07    3.80
   4   4   6   26.89    4.47
   4  -4   6   20.63    3.83
   4  -4   6   17.41    3.65
   4  -4   7  198.63   12.22
   4   4   7  205.88   12.58
   4   4   7  199.13   12.63
   4  -4   8   24.29    4.41
   4   4   8   18.96    4.06
   4   4   8   22.20    4.56
   4   4   9  108.67    9.34
   4   4   9  125.80   10.67
   4  -4   9  116.76    9.21
   4  -4  10  191.39   11.96
   4   4  10  163.53   12.53
   4   4  10  190.63   12.33
   4  -4  11  179.74   11.89
   4   4  11  167.08   12.80
   4   4  11  181.20   12.31
   4  -4  12  170.08   11.43
   4   4  12  171.93   13.14
   4   4  12  188.80   12.69
   4   4  13   49.57    7.21
   4   4  13   62.80    7.34
   4  -4  13   55.32    6.44
   4   4  14   95.59    9.42
   4   4  14   94.72   10.31
   4  -4  14  118.99    9.73
   4  -4  15  623.58   22.83
   4   4  15  628.58   24.07
   4   4  15  606.13   25.82
   4  -4  16  115.05    9.79
   4   4  16  146.60   12.81
   4   4  16  126.03   11.04
   4   4  17    3.21    3.70
   4   4  17    8.74    2.52
   4   4  18   13.25    4.06
   4   4  18    6.79    2.89
   4   4  19    4.56    1.46
   4   4  20   64.14    8.74
  -4   4  21  112.80   11.85
   4   4  21   81.93   10.49
   4   4  22   24.39    5.90
  -4   4  22   29.73    5.88
  -4   4  22   23.66    5.43
   4   4  23   20.56    5.60
   4   4  24    8.52    3.52
   4   4  25   18.51    5.54
   4   4  26   30.71    7.24
   4  -5 -27    5.02    1.90
  -4  -5 -26    4.09    3.46
   4  -5 -26   -0.46    3.14
  -4  -5 -25    7.00    4.45
   4  -5 -25    6.11    4.15
   4  -5 -24   19.99    5.72
  -4  -5 -24   35.63    7.13
   4  -5 -23    3.17    2.13
  -4  -5 -23    0.23    2.28
   4  -5 -22    7.49    2.37
  -4  -5 -22    5.50    2.10
  -4  -5 -21   -1.94    2.67
   4  -5 -21    4.65    4.11
   4  -5 -20    4.32    2.32
  -4  -5 -20   17.94    4.96
   4  -5 -19   16.37    4.75
  -4  -5 -19   10.37    3.68
   4  -5 -18   11.44    2.26
   4  -5 -18   18.45    5.06
   4  -5 -17   86.19   10.21
   4  -5 -17   70.79    9.51
  -4  -5 -17   87.13    9.87
   4  -5 -16   81.01    9.93
   4  -5 -16   84.45    9.98
  -4  -5 -16  100.53   11.07
   4  -5 -15  146.98   12.87
  -4  -5 -15  147.51   13.19
   4  -5 -15  173.49   14.21
   4   5 -15  141.48   12.24
  -4  -5 -14    7.62    3.62
   4  -5 -14   11.74    4.08
   4  -5 -14   12.85    4.26
   4   5 -14   11.44    3.13
   4  -5 -13   89.18   10.00
  -4  -5 -13  114.00   11.06
   4   5 -13   93.22    9.62
   4  -5 -13  116.46   11.41
   4   5 -12  141.57   11.84
  -4  -5 -12  104.52   10.57
   4  -5 -12  109.07   11.36
   4  -5 -12  111.96   11.33
   4   5 -11   10.00    3.21
   4  -5 -11    4.87    2.97
  -4   5 -11    5.72    2.72
   4  -5 -11    3.57    2.71
  -4  -5 -11    3.19    1.88
   4  -5 -10   67.58    8.16
   4   5 -10   55.74    7.31
  -4   5 -10   63.58    7.21
  -4  -5 -10   68.53    8.05
   4  -5 -10   66.61    8.07
   4   5  -9   29.46    5.43
   4   5  -9   47.06    5.29
  -4   5  -9   36.67    5.69
  -4  -5  -9   27.20    4.77
   4  -5  -9   34.16    6.24
   4  -5  -9   37.83    6.38
  -4   5  -8   15.78    3.27
   4  -5  -8   13.25    3.34
   4   5  -8   22.40    4.68
  -4  -5  -8   14.47    3.52
   4   5  -8   19.72    3.21
   4  -5  -8   15.88    4.04
   4  -5  -7   38.27    6.23
   4   5  -7   34.32    5.81
   4   5  -7   34.98    4.65
  -4  -5  -7   37.81    5.41
  -4   5  -7   28.34    4.63
   4  -5  -7   40.98    6.54
  -4   5  -6   12.23    3.34
   4   5  -6   10.98    2.88
  -4  -5  -6   15.24    3.39
   4  -5  -6   10.89    3.25
   4   5  -6   16.25    3.31
   4  -5  -6   15.79    3.92
   4  -5  -5   19.85    4.48
  -4  -5  -5   19.00    3.48
   4   5  -5   15.66    3.64
   4   5  -5   24.56    4.61
  -4   5  -5   22.25    4.45
   4  -5  -5   16.41    4.30
   4  -5  -4   91.92    8.96
   4   5  -4   96.80    8.07
   4  -5  -4  103.47    9.91
  -4   5  -4   89.57    8.60
   4   5  -4   93.46    9.28
  -4  -5  -4   89.97    7.40
   4   5  -3   18.83    4.36
  -4   5  -3   28.44    4.69
   4  -5  -3   28.15    5.07
   4  -5  -3   23.41    5.22
   4   5  -3   26.00    4.32
   4  -5  -2    3.47    2.20
   4   5  -2   -0.16    1.08
   4   5  -2   -0.06    1.83
  -4   5  -2    2.29    1.67
   4  -5  -2    1.12    0.89
  -4   5  -1   73.82    7.67
   4   5  -1   65.75    6.98
   4  -5  -1   60.68    7.12
   4  -5  -1   68.19    7.85
   4   5  -1   70.99    7.80
   4   5   0   31.58    5.19
   4   5   0   25.01    4.70
  -4   5   0   33.95    4.84
   4  -5   0   31.14    4.78
   4  -5   0   28.04    4.94
  -4   5   1   64.24    7.09
   4   5   1   69.62    7.65
   4   5   1   63.77    7.78
   4  -5   1   60.04    7.43
   4  -5   1   77.66    7.62
   4   5   2    0.78    1.69
   4  -5   2    1.37    1.03
   4   5   2    4.38    1.61
   4  -5   2   -0.19    1.50
   4   5   3   26.88    5.20
   4  -5   3   18.97    4.11
   4   5   3   26.72    5.01
   4  -5   3   33.73    5.57
   4   5   4   98.33    9.48
   4   5   4  103.21    9.48
   4  -5   4   84.95    7.91
   4  -5   4  100.38    9.35
   4  -5   5   20.68    4.19
   4   5   5   25.81    4.49
   4   5   5   24.77    4.94
   4  -5   5   23.07    4.51
   4  -5   6   14.19    3.73
   4   5   6    8.40    2.66
   4  -5   6    9.50    2.54
   4   5   7   29.79    4.94
   4   5   7   27.80    5.27
   4  -5   7   28.27    4.57
   4  -5   7   31.15    5.03
   4  -5   8   24.45    4.64
   4   5   8   22.19    4.66
   4   5   8   26.72    4.46
   4  -5   8   23.92    4.48
   4   5   9   37.27    5.94
   4   5   9   36.75    5.91
   4  -5   9   39.14    5.64
   4  -5   9   48.22    6.42
   4   5  10   62.28    7.94
   4  -5  10   60.48    7.40
   4  -5  11    2.10    2.09
   4   5  11    3.56    2.75
   4   5  11    3.60    2.30
   4   5  12  112.68   11.19
   4   5  12  111.27   10.74
   4  -5  12  141.38   11.11
   4   5  13   92.29   10.46
   4   5  13  115.22   11.04
   4  -5  13   96.02    9.43
   4  -5  14    7.73    2.34
   4   5  14    6.27    2.86
   4   5  14   12.73    3.99
   4   5  15  160.83   13.15
   4   5  15  153.12   13.43
   4  -5  15  162.00   12.01
   4   5  16   95.90   10.05
  -4   5  16  107.49   10.75
   4   5  16   84.03   10.18
   4   5  17   69.80    9.30
  -4   5  17  101.05   11.15
   4   5  17   91.47   10.36
   4   5  18   18.15    5.33
   4   5  18   23.67    6.38
  -4   5  18   27.61    6.07
   4   5  19    3.44    1.85
   4   5  19    6.14    3.45
  -4   5  19    7.57    2.71
  -4   5  20    3.52    2.79
   4   5  20   12.26    3.96
  -4   5  21   -0.81    2.77
   4   5  21    6.00    3.03
  -4   5  22    9.45    4.29
  -4   5  22    8.82    3.67
   4   5  22   10.72    3.95
   4   5  23    2.07    2.58
  -4   5  23   -0.69    2.42
   4   5  24   15.27    5.39
   4   5  25   12.15    5.20
   4   5  26    2.65    3.51
   4   5  27    4.57    3.36
  -4  -6 -26   26.26    6.97
   4  -6 -26   19.58    5.53
   4  -6 -25   11.39    4.19
  -4  -6 -25    5.78    3.55
   4  -6 -24   15.67    5.74
  -4  -6 -24   11.55    4.79
  -4  -6 -23   14.80    4.86
   4  -6 -23   31.21    8.11
  -4  -6 -22   24.28    6.38
   4  -6 -22   13.81    3.48
  -4  -6 -21   65.72    9.67
   4  -6 -21   51.99    9.05
  -4  -6 -20  134.09   13.44
   4  -6 -20  135.03   13.87
  -4  -6 -19   18.94    5.74
   4  -6 -19    5.86    3.28
   4  -6 -18   12.92    3.37
  -4  -6 -18   15.71    4.90
   4  -6 -18    5.89    3.67
   4  -6 -17   82.85   10.16
   4  -6 -17   80.30   10.31
  -4  -6 -17   74.97    9.88
   4  -6 -16   20.87    4.87
  -4  -6 -16   28.39    5.86
   4  -6 -16   15.94    4.92
   4   6 -15  453.03   22.96
  -4  -6 -15  434.76   22.99
   4  -6 -15  430.79   23.13
   4  -6 -15  422.90   23.25
   4  -6 -14   97.50   10.94
  -4  -6 -14  105.92   11.15
   4  -6 -14  109.88   11.57
   4   6 -14  111.79   11.57
   4   6 -13   24.52    5.32
  -4  -6 -13   13.36    3.30
   4  -6 -13   17.67    4.99
   4  -6 -13   22.91    5.21
   4  -6 -12   39.91    7.20
   4  -6 -12   30.91    6.42
  -4  -6 -12   17.45    5.01
   4   6 -12   31.49    6.25
   4   6 -11  439.13   21.95
  -4  -6 -11  401.94   20.47
   4  -6 -11  392.42   21.39
   4  -6 -11  407.31   22.02
  -4  -6 -10  101.66   10.15
  -4   6 -10   72.30    8.41
   4   6 -10   86.80    9.93
   4  -6 -10   81.94    9.66
   4  -6 -10   79.47    9.71
   4   6  -9  172.47   13.48
   4  -6  -9  170.67   13.47
  -4   6  -9  164.09   12.84
  -4  -6  -9  174.48   13.02
   4  -6  -9  161.61   13.77
   4  -6  -8   37.10    6.56
   4   6  -8   47.62    6.79
   4   6  -8   47.22    6.18
  -4   6  -8   36.63    5.96
  -4  -6  -8   45.98    6.47
   4  -6  -8   51.61    7.30
   4  -6  -7   20.97    4.92
   4   6  -7   21.74    4.70
  -4  -6  -7   13.30    3.22
   4  -6  -7   19.46    4.38
   4   6  -7   16.85    3.93
  -4   6  -7   21.71    5.11
   4  -6  -6  176.02   14.06
  -4  -6  -6  162.62   11.44
  -4   6  -6  172.17   13.04
   4  -6  -6  155.96   12.71
   4   6  -6  196.98   14.39
   4   6  -6  177.39   12.00
   4   6  -5  271.12   14.98
  -4  -6  -5  271.51   14.12
   4   6  -5  274.22   16.76
   4  -6  -5  283.39   16.46
  -4   6  -5  261.19   16.03
   4  -6  -5  262.11   16.82
  -4   6  -4    3.17    2.14
  -4  -6  -4    4.16    1.74
   4  -6  -4    6.44    3.68
   4   6  -4    9.09    3.43
   4   6  -4    4.72    2.30
   4  -6  -4    7.92    4.15
   4   6  -3  108.22   10.80
  -4   6  -3  117.73   10.84
   4   6  -3  122.80   10.66
   4  -6  -3  120.69   10.79
   4  -6  -3  144.47   12.10
   4  -6  -2   16.22    4.60
   4   6  -2   19.42    4.68
   4  -6  -2   20.43    4.45
   4   6  -2   15.80    3.89
  -4   6  -2   24.84    5.33
  -4   6  -1  138.56   11.68
   4   6  -1  149.96   12.58
   4  -6  -1  154.90   11.83
   4  -6  -1  133.28   11.97
   4   6  -1  143.49   11.46
   4   6   0  191.21   14.09
   4  -6   0  215.87   14.74
   4   6   0  206.62   13.86
  -4   6   0  205.78   14.61
   4  -6   0  222.48   13.89
   4  -6   1  154.31   12.61
   4   6   1  138.56   12.07
   4  -6   1  142.20   11.06
  -4   6   1  172.72   13.33
   4   6   1  132.34   11.01
   4  -6   2   19.64    4.56
   4   6   2   25.57    5.08
   4  -6   2   28.62    4.82
  -4   6   2   21.50    5.40
   4   6   2   23.94    5.17
   4   6   3  123.85   11.86
  -4   6   3  106.67   10.50
   4  -6   3  138.41   10.65
   4   6   3  105.41   10.21
   4  -6   3  123.83   11.23
   4  -6   4    7.06    3.44
   4   6   4    4.82    2.49
  -4   6   4    8.70    2.98
   4  -6   4    8.75    2.84
   4   6   4    7.93    2.51
  -4   6   5  252.86   16.45
   4   6   5  269.35   16.99
   4  -6   5  262.34   14.93
   4   6   5  254.43   16.14
   4  -6   5  258.43   15.65
  -4   6   6  176.23   13.92
   4   6   6  209.91   14.81
   4   6   6  191.24   13.93
   4  -6   6  176.54   12.14
   4  -6   6  186.89   13.44
   4  -6   7   15.25    4.49
   4   6   7    9.27    3.18
   4   6   7   11.29    3.28
  -4   6   7   16.60    5.03
   4  -6   7   16.13    3.47
   4  -6   8   48.60    7.21
   4   6   8   44.63    6.75
   4  -6   8   44.63    6.23
  -4   6   8   33.79    6.22
   4   6   8   46.39    7.30
   4   6   9  189.98   14.31
   4   6   9  172.63   13.62
  -4   6   9  176.00   14.16
   4  -6   9  162.43   12.03
   4  -6   9  171.01   13.07
   4   6  10   83.17    9.88
   4   6  10   92.04   10.36
  -4   6  10   83.67    9.93
   4  -6  10   84.64    8.89
   4  -6  10   97.25    9.66
   4  -6  11  378.26   19.16
   4   6  11  394.21   21.30
   4   6  11  429.50   22.49
  -4   6  11  379.20   20.85
   4  -6  11  382.50   19.92
   4   6  12   38.02    6.64
  -4   6  12   30.62    5.78
   4  -6  12   43.04    6.72
   4  -6  12   41.50    6.42
   4   6  12   22.68    5.29
  -4   6  13   22.12    4.91
   4  -6  13   17.25    4.12
   4   6  13   20.54    5.59
   4   6  13   24.89    5.28
   4   6  14  100.72   11.08
   4   6  14   96.60   10.79
  -4   6  14  101.73   11.56
   4  -6  14  100.80   10.38
   4   6  15  400.29   22.44
  -4   6  15  416.64   23.34
   4   6  15  464.37   23.87
   4   6  16   25.95    6.34
   4   6  16   33.71    6.48
  -4   6  16   23.01    5.73
   4   6  17   80.03   10.25
   4   6  17   71.46    9.73
  -4   6  17   76.75   10.12
   4   6  18    6.28    4.13
   4   6  18   10.78    4.54
  -4   6  18    4.67    3.73
   4   6  19    4.55    2.82
   4   6  19    8.23    3.98
  -4   6  19    8.64    4.13
   4   6  20  142.50   14.17
  -4   6  20  144.86   14.55
  -4   6  21   42.35    6.97
   4   6  21   61.55    9.81
  -4   6  22   13.20    4.81
  -4   6  22   26.25    6.65
   4   6  22   14.55    3.86
  -4   6  23   34.55    7.27
  -4   6  23   33.85    7.83
   4   6  23   29.58    6.32
  -4   6  24   20.04    6.50
   4   6  24   13.31    5.13
   4   6  25   13.36    5.30
   4   6  26   19.12    6.11
  -4  -7 -24    1.20    1.62
   4  -7 -24    2.90    3.46
  -4  -7 -23    5.29    1.72
   4  -7 -23    9.58    2.68
  -4  -7 -22    5.38    2.21
   4  -7 -22    4.02    2.32
   4  -7 -21    1.81    2.12
  -4  -7 -21    4.49    3.20
  -4  -7 -20   14.31    4.44
   4  -7 -20   11.93    4.50
   4  -7 -19   31.33    7.07
  -4  -7 -19   29.25    6.84
   4  -7 -18   37.09    7.33
  -4  -7 -18   42.02    7.49
   4  -7 -18   44.03    7.57
  -4  -7 -17   18.66    5.65
   4  -7 -17   17.20    4.64
   4  -7 -17   12.60    5.03
  -4  -7 -16   20.55    6.04
   4  -7 -16   26.07    6.09
   4  -7 -16   18.88    4.60
   4  -7 -15   16.93    4.81
   4  -7 -15    5.99    2.19
  -4  -7 -15   10.95    3.99
  -4  -7 -14    3.97    2.25
   4   7 -14    8.85    2.34
   4  -7 -14    9.50    4.10
   4  -7 -14   10.46    3.02
   4  -7 -13   59.04    8.45
   4   7 -13   59.45    8.89
  -4  -7 -13   43.04    7.46
   4  -7 -13   55.36    8.33
   4   7 -12    5.66    2.63
  -4  -7 -12    4.56    1.67
   4  -7 -12   10.23    4.28
   4  -7 -12    8.09    3.69
   4   7 -11   26.82    5.83
  -4  -7 -11   33.41    6.22
   4  -7 -11   43.32    7.43
   4  -7 -11   41.06    7.36
   4   7 -10   76.97    9.51
  -4   7 -10   81.43    9.75
  -4  -7 -10   76.90    9.27
   4  -7 -10   86.72   10.16
   4  -7 -10   97.02   11.02
   4  -7  -9    4.49    2.75
   4   7  -9    4.10    2.91
  -4  -7  -9    2.54    2.31
   4  -7  -9    0.24    1.44
  -4   7  -9    8.04    3.12
   4  -7  -8   79.91    9.60
  -4   7  -8   87.31   10.07
  -4  -7  -8   73.06    8.43
   4   7  -8  102.23   11.02
   4  -7  -8   85.67   10.11
   4   7  -7    0.84    2.21
   4   7  -7    8.46    4.32
   4  -7  -7    3.37    2.22
  -4  -7  -7    2.02    1.52
  -4   7  -7    0.64    1.37
   4  -7  -7    6.34    4.03
  -4  -7  -6   25.14    5.36
   4   7  -6   27.73    5.28
  -4   7  -6   28.63    5.68
   4   7  -6   25.21    5.33
   4  -7  -6   25.96    4.83
   4  -7  -6   18.76    4.78
   4  -7  -5   26.94    5.64
  -4  -7  -5   25.41    4.34
   4   7  -5   30.84    6.01
  -4   7  -5   18.09    4.17
   4   7  -5   19.23    4.18
   4  -7  -5   30.30    6.30
  -4   7  -4    4.55    2.41
   4   7  -4    8.69    3.66
   4  -7  -4   11.95    4.06
   4  -7  -4    6.60    2.73
   4   7  -4   12.33    4.77
   4   7  -3   15.03    4.13
   4  -7  -3   10.91    2.25
   4   7  -3   11.45    4.43
  -4   7  -3   16.87    4.26
   4  -7  -3   12.49    4.35
   4   7  -2   10.26    3.47
   4  -7  -2    9.55    3.23
   4   7  -2    7.86    3.26
  -4   7  -2   11.09    4.03
   4  -7  -2   10.72    3.19
  -4   7  -1   11.39    3.87
   4   7  -1   11.61    4.23
   4  -7  -1    4.54    3.28
   4  -7  -1    8.72    3.17
   4   7  -1    5.40    2.39
   4   7   0   34.00    6.84
   4  -7   0   26.63    5.00
  -4   7   0   34.88    6.86
   4  -7   0   42.50    7.28
   4   7   0   26.84    5.27
   4  -7   1   10.69    3.61
   4   7   1    4.81    3.84
   4   7   1   10.42    3.43
   4  -7   1    8.73    1.94
  -4   7   1   11.22    4.24
   4   7   2    7.14    3.57
  -4   7   2    8.61    3.76
   4  -7   2    7.06    3.56
   4  -7   2    9.39    3.31
   4   7   2   12.40    3.19
   4   7   3   10.95    3.54
  -4   7   3   15.45    4.38
   4  -7   3   21.44    4.68
   4   7   3   13.48    4.22
   4  -7   3   14.59    4.83
   4  -7   4    7.72    2.63
   4   7   4   11.06    4.50
   4   7   4    7.05    2.67
  -4   7   4   10.79    3.43
   4  -7   4   12.79    4.26
   4  -7   5   21.23    4.39
   4   7   5   19.48    4.81
   4  -7   5   18.29    4.46
   4   7   5   29.51    5.52
  -4   7   5   27.78    6.20
   4   7   6   25.87    5.69
   4  -7   6   20.77    4.64
   4   7   6   19.10    5.05
  -4   7   6   21.70    5.35
   4  -7   6   18.40    4.80
   4   7   7    0.01    2.16
  -4   7   7    7.47    3.06
   4   7   7    5.58    2.02
   4  -7   7    8.26    4.12
   4   7   8   88.44   10.37
   4   7   8   67.56    8.75
  -4   7   8   91.20   10.59
   4  -7   8   91.31   10.37
   4   7   9    9.70    4.11
   4   7   9    7.02    3.03
  -4   7   9    5.77    2.31
   4  -7   9   10.93    3.84
   4   7  10   84.38   10.49
   4   7  10   74.19    9.82
   4  -7  10   89.42    9.92
  -4   7  10   88.08   10.71
   4   7  11   54.57    8.21
   4   7  11   46.25    8.21
   4  -7  11   41.47    6.69
  -4   7  11   42.59    7.51
   4   7  12   20.44    5.69
   4   7  12   10.73    3.49
   4  -7  12   11.87    3.68
  -4   7  12   11.87    4.25
   4   7  13   49.73    8.13
   4   7  13   51.60    8.78
  -4   7  13   58.33    9.11
   4   7  14   13.64    3.89
  -4   7  14   11.19    4.49
   4   7  14   13.34    4.07
   4   7  15    9.03    4.03
   4   7  15   14.42    4.91
  -4   7  15   19.60    4.68
  -4   7  16   25.97    6.17
   4   7  16   19.47    5.63
   4   7  16   19.14    5.16
  -4   7  17    5.03    1.99
   4   7  17   13.26    5.20
   4   7  17   15.83    4.69
   4   7  18   38.11    7.85
   4   7  18   46.24    8.40
  -4   7  18   25.39    6.13
  -4   7  19   21.53    5.98
   4   7  19   20.66    6.69
   4   7  19   38.33    7.65
  -4   7  20    4.33    1.88
   4   7  20   20.66    6.37
  -4   7  21   -0.66    2.92
   4   7  21   -0.11    1.85
  -4   7  22   10.09    5.62
   4   7  22    9.32    3.04
  -4   7  22    6.14    3.58
  -4   7  23    6.43    2.95
  -4   7  23   12.66    5.78
   4   7  23    7.85    4.15
  -4   7  24    2.81    3.64
   4   7  24   -2.07    1.97
   4  -8 -22   14.74    5.40
  -4  -8 -22    3.30    3.39
   4  -8 -21   12.79    3.93
  -4  -8 -21   20.34    6.47
  -4  -8 -20   17.61    5.67
   4  -8 -20   23.08    5.80
  -4  -8 -19   41.81    8.51
   4  -8 -19   24.96    7.16
  -4  -8 -18   44.58    8.58
   4  -8 -18   27.54    6.55
   4  -8 -17    3.33    3.50
   4  -8 -17   -3.51    3.49
  -4  -8 -17    2.18    3.33
  -4  -8 -16   20.32    5.84
   4  -8 -16   22.91    5.73
   4  -8 -16   20.51    6.21
  -4  -8 -15   -3.53    2.90
   4  -8 -15    0.55    2.07
   4  -8 -14   -0.68    2.10
  -4  -8 -14   -0.78    1.68
   4  -8 -14    1.51    1.56
   4  -8 -13   16.03    5.20
   4   8 -13   17.60    5.44
  -4  -8 -13   21.64    5.82
   4  -8 -13   26.39    6.16
   4  -8 -12    6.98    3.45
   4   8 -12    7.09    3.55
  -4  -8 -12    0.41    2.25
   4  -8 -12    4.70    1.76
   4  -8 -11    8.77    4.29
   4  -8 -11   11.95    3.76
   4   8 -11   10.02    3.96
  -4  -8 -11    7.79    4.19
   4   8 -10  126.05   12.89
   4  -8 -10  110.85   12.22
  -4   8 -10  135.03   14.02
  -4  -8 -10  122.24   12.16
   4  -8 -10  112.05   11.78
   4   8  -9   19.10    5.30
  -4   8  -9   14.55    3.67
   4  -8  -9   18.65    4.98
   4  -8  -9   17.20    5.46
  -4  -8  -9   26.56    5.80
  -4   8  -8   11.13    4.32
   4   8  -8   11.11    4.24
   4  -8  -8   14.42    4.90
   4  -8  -8   11.92    4.70
   4  -8  -7   68.86    9.49
   4   8  -7   97.42   11.29
  -4   8  -7   63.02    9.00
   4  -8  -7   70.79    9.33
   4  -8  -6  115.73   13.04
   4   8  -6  115.71   12.45
  -4   8  -6  131.28   13.37
   4  -8  -6  118.50   12.04
   4   8  -5   41.30    7.35
  -4   8  -5   47.80    7.81
   4   8  -5   44.09    6.99
   4  -8  -5   28.79    6.25
   4  -8  -5   28.79    5.23
   4   8  -4   13.59    4.25
   4  -8  -4   14.11    4.19
   4   8  -4   13.69    4.86
  -4   8  -4   15.65    4.76
   4  -8  -4   17.01    4.31
   4  -8  -3   10.77    3.88
  -4   8  -3    5.52    3.24
   4   8  -3   11.98    3.98
   4   8  -3    9.04    3.66
   4  -8  -3    7.66    3.14
   4   8  -2   15.27    4.92
   4  -8  -2    5.04    3.11
  -4   8  -2    4.08    2.51
   4   8  -2    9.20    4.17
   4  -8  -2    8.72    3.71
   4   8  -1  147.55   14.04
   4  -8  -1  119.79   12.34
   4   8  -1  133.47   12.71
  -4   8  -1  136.88   13.87
   4  -8  -1  117.20   11.04
   4   8   0  175.49   15.17
  -4   8   0  173.47   15.13
   4   8   0  136.82   13.05
   4  -8   0  171.90   13.28
   4  -8   0  158.95   14.33
   4   8   1  116.15   12.30
  -4   8   1  123.71   12.57
   4  -8   1   83.26   10.18
   4   8   1  105.15   11.26
   4   8   2   12.40    5.49
  -4   8   2    7.35    3.97
   4  -8   2    5.02    2.80
   4   8   2    7.72    3.30
   4   8   3    9.71    3.08
  -4   8   3   15.08    5.01
   4   8   3   13.00    4.85
   4  -8   3    6.02    3.72
   4   8   4   14.01    4.71
   4   8   4   14.69    4.22
   4  -8   4   14.06    3.74
  -4   8   4   18.67    5.24
   4   8   5   43.38    7.55
   4   8   5   35.99    7.45
   4  -8   5   47.26    7.75
  -4   8   5   33.67    7.03
   4   8   6  118.20   12.81
  -4   8   6  116.57   12.39
   4   8   6  102.92   11.48
   4  -8   6   95.51   11.08
   4   8   7   78.43   10.14
   4   8   7   91.86   11.04
  -4   8   7   77.67   10.15
   4  -8   7   70.41    9.11
  -4   8   8    8.07    3.27
   4  -8   8    0.54    2.85
   4   8   8    6.94    3.09
   4   8   9   26.80    6.18
   4   8   9   18.98    5.26
  -4   8   9   12.84    5.03
   4  -8   9   26.18    6.33
   4   8  10  135.88   14.37
   4   8  10  136.09   13.23
  -4   8  10  122.30   12.92
   4  -8  10  101.76   11.89
  -4   8  11   15.20    5.26
   4  -8  11    3.33    3.03
   4   8  11    8.90    4.03
   4   8  11    4.87    3.78
   4   8  12    4.50    2.84
   4   8  12   10.09    5.46
  -4   8  12   11.52    3.15
   4   8  13   12.21    3.62
  -4   8  13   18.66    4.73
   4   8  13    7.70    4.08
   4   8  14    0.37    2.28
  -4   8  14    1.68    2.06
   4   8  14    2.30    2.62
   4   8  15    5.44    2.52
   4   8  15    1.33    1.88
   4   8  16   26.68    6.34
  -4   8  16   22.56    6.01
   4   8  16   25.16    5.90
   4   8  17   -1.27    1.80
   4   8  17    0.56    2.88
  -4   8  17   -2.99    3.31
   4   8  18   35.72    7.95
   4   8  18   28.36    7.18
  -4   8  18   33.34    8.02
   4   8  19   29.44    7.18
  -4   8  19   31.27    7.94
   4   8  19   25.73    7.26
   4   8  20   25.77    6.89
  -4   8  20   18.26    5.99
  -4   8  21   29.10    7.60
   4   8  21   23.09    6.17
   4   8  22   10.03    5.98
  -4   8  22   15.05    6.58
  -4   8  22   14.68    6.26
  -4  -9 -19   -4.86    3.81
   4  -9 -19    3.38    2.75
  -4  -9 -18   -6.95    4.87
   4  -9 -18   -1.03    2.08
  -4  -9 -17    0.82    2.01
   4  -9 -17    4.72    5.69
   4  -9 -16    3.26    1.50
   4  -9 -16    1.25    2.12
   4  -9 -15    0.30    2.35
   4  -9 -15    0.72    1.92
   4  -9 -14    6.01    3.63
   4  -9 -14    6.68    3.79
   4  -9 -13   12.07    4.45
   4   9 -13   21.77    7.03
   4  -9 -13    7.87    3.83
   4   9 -12   23.19    6.21
   4  -9 -12   25.84    6.39
   4  -9 -11    3.34    2.45
   4   9 -11    6.66    3.84
   4  -9 -11    0.52    1.68
   4  -9 -10    2.40    2.31
   4  -9 -10   -3.90    2.61
   4   9 -10   -0.11    2.58
   4   9  -9   11.34    4.34
  -4   9  -9   10.40    3.87
   4  -9  -9   15.38    5.02
   4  -9  -9   11.75    3.30
   4   9  -8   28.77    6.78
   4  -9  -8   25.08    6.12
  -4   9  -8   20.93    6.30
   4  -9  -8   18.99    5.43
  -4   9  -7    6.91    2.30
   4   9  -7   17.74    5.32
   4  -9  -7   14.20    4.02
   4  -9  -7   19.50    5.23
   4  -9  -6    0.58    1.48
  -4   9  -6    3.36    1.41
   4   9  -6    0.85    2.13
   4  -9  -6    6.05    3.74
   4   9  -5    3.96    4.28
   4  -9  -5   -3.83    1.88
   4  -9  -5   -0.80    2.67
  -4   9  -5   -5.62    3.92
   4   9  -4    9.59    3.25
  -4   9  -4    8.54    3.36
   4   9  -4   19.28    5.11
   4  -9  -4   19.89    5.69
   4   9  -3   15.26    4.86
  -4   9  -3    8.12    3.99
   4   9  -3   12.57    4.66
   4  -9  -3   15.00    4.21
   4   9  -2    1.63    2.45
   4   9  -2    1.73    1.37
  -4   9  -2    1.28    2.63
   4  -9  -2    2.57    1.99
   4  -9  -1   17.71    5.33
   4   9  -1   24.56    5.59
   4   9  -1   19.53    5.42
  -4   9  -1   14.27    3.85
   4   9   0   57.59    8.74
  -4   9   0   44.58    8.22
   4   9   0   46.22    7.24
   4  -9   0   42.57    7.80
   4   9   1   18.78    5.09
  -4   9   1   15.76    6.27
   4   9   1   15.86    4.69
   4  -9   1   12.16    4.78
  -4   9   2    5.17    3.75
   4   9   2    2.14    2.36
   4   9   2    7.13    2.30
   4  -9   2    6.07    3.89
   4   9   3    9.59    5.19
   4   9   3   20.11    5.48
  -4   9   3   16.31    5.10
   4  -9   3    7.66    3.46
  -4   9   4    8.48    2.82
   4   9   4   20.22    5.17
   4  -9   4   12.22    4.83
   4   9   4   18.55    6.12
  -4   9   5    5.92    3.01
   4   9   5    0.63    2.40
   4   9   5   -0.02    1.62
   4  -9   5    0.39    1.68
   4   9   6    2.19    2.09
   4   9   6    2.15    1.93
  -4   9   6    6.25    4.21
   4  -9   6    6.35    2.58
   4   9   7   22.32    5.94
   4   9   7   18.88    5.99
  -4   9   7    6.47    1.71
   4  -9   7   10.36    4.90
   4   9   8   22.51    5.47
   4   9   8   19.10    5.26
  -4   9   8   17.54    5.49
   4  -9   8   21.10    5.34
   4   9   9   11.71    5.72
   4   9   9   11.75    5.04
  -4   9   9   10.71    5.20
   4  -9   9   16.09    4.55
   4   9  10   -0.42    1.62
  -4   9  10   -0.66    1.85
   4   9  10   -1.74    2.43
   4  -9  10   -4.21    2.83
   4   9  11    3.86    4.34
  -4   9  11    7.80    4.05
   4   9  11    0.91    1.61
   4   9  12   19.10    5.55
   4   9  12   28.70    7.02
  -4   9  12   31.95    7.56
   4   9  13   13.81    4.86
  -4   9  13   12.71    5.06
   4   9  13    9.71    4.22
  -4   9  14    5.91    3.14
   4   9  14   11.41    5.56
   4   9  14    6.69    3.53
  -4   9  15    9.22    3.99
   4   9  15    4.45    3.57
   4   9  15    6.62    4.13
   4   9  16    1.40    2.98
  -4   9  16   -0.85    2.38
   4   9  16    4.36    3.12
  -4   9  17    1.45    1.90
   4   9  17    2.99    3.14
   4   9  17    6.61    4.15
   4   9  18    0.17    2.19
  -4   9  18   -3.70    2.95
   4   9  18   -0.06    1.57
   4   9  19    0.21    2.40
   4   9  19    1.58    2.54
  -4   9  19    6.39    3.91
   4 -10 -15    6.70    3.04
   4 -10 -14    7.44    4.02
   4 -10 -14    2.56    2.55
   4 -10 -13    5.94    3.50
   4 -10 -13   13.01    4.90
   4  10 -12    7.96    4.72
   4 -10 -12    1.00    1.94
   4  10 -11   18.02    5.74
   4 -10 -11   18.40    5.58
   4  10 -10   26.06    6.89
   4 -10 -10   34.51    7.47
   4  10  -9   56.75   10.38
   4 -10  -9   51.17    8.66
   4  10  -8   11.43    4.58
  -4  10  -8    3.91    2.04
   4 -10  -8   16.35    5.10
   4  10  -7   10.08    4.52
  -4  10  -7    7.24    4.36
   4 -10  -7   19.61    5.28
   4  10  -6   16.16    5.27
  -4  10  -6   19.42    7.51
   4 -10  -6   22.00    5.89
   4  10  -5   37.46    7.58
  -4  10  -5   23.97    6.59
   4 -10  -5   34.42    7.57
   4  10  -4   21.65    6.07
  -4  10  -4   19.46    6.05
   4 -10  -4   18.97    4.99
   4  10  -3   13.59    3.63
  -4  10  -3    8.90    3.49
   4 -10  -3   10.71    4.19
   4  10  -2    4.18    2.11
   4  10  -2    0.19    2.26
  -4  10  -2    1.00    2.05
   4  10  -1   11.98    3.66
  -4  10  -1   14.77    5.39
   4 -10  -1   10.16    3.83
   4  10  -1   14.62    5.81
  -4  10   0   38.91    8.12
   4  10   0   34.88    7.14
   4 -10   0   56.36    9.44
   4  10   0   51.15    9.08
   4  10   1   10.88    3.73
   4  10   1   12.78    4.41
  -4  10   1    5.26    2.56
   4 -10   1   14.68    4.90
  -4  10   2    1.46    1.72
   4  10   2    4.89    2.76
   4  10   2    3.46    3.24
   4 -10   2    6.62    3.47
   4 -10   3    5.38    4.26
   4  10   3   11.68    4.83
   4  10   3    4.28    3.28
  -4  10   3   13.95    5.10
   4  10   4   23.44    6.61
   4  10   4   15.68    5.69
  -4  10   4   14.94    5.39
   4 -10   4   10.53    3.93
   4  10   5   50.86    9.42
   4  10   5   47.54    8.71
  -4  10   5   33.25    7.07
   4 -10   5   40.80    8.10
   4  10   6   18.30    5.04
   4  10   6   18.05    5.03
  -4  10   6   24.81    7.09
   4 -10   6   14.34    5.91
   4  10   7    8.37    3.50
   4  10   7   21.23    5.65
  -4  10   7   11.65    4.67
   4 -10   7   16.01    5.30
   4 -10   8   11.92    5.33
   4  10   8   15.05    4.83
   4  10   8    8.28    2.80
  -4  10   8   11.16    4.04
   4  10   9   41.38    8.15
   4  10   9   31.88    7.04
  -4  10   9   47.12    8.58
   4  10  10   18.31    5.06
  -4  10  10   28.70    7.98
   4  10  10   22.76    6.29
   4  10  11    9.89    3.78
   4  10  11   24.39    6.40
  -4  10  11   15.13    4.93
  -4  10  12    5.50    4.48
   4  10  12   11.84    4.70
   4  10  12    1.92    2.85
   4  10  13    6.93    4.89
  -4  10  13    2.47    3.03
   4  10  13    7.51    2.65
   4  10  14    7.28    5.34
   4  10  14    4.96    3.92
  -4  10  14    4.68    1.89
   4  10  15   15.62    6.63
  -4  10  15   15.37    6.37
   4  10  15    6.42    4.25
   4 -11  -8   10.58    4.49
   4  11  -8    7.30    3.97
   4  11  -7   24.52    7.41
  -4  11  -7   13.71    4.65
   4 -11  -7   15.93    5.42
   4  11  -6    6.84    4.91
  -4  11  -6    5.95    3.23
   4 -11  -6    6.72    2.76
   4  11  -5    3.64    2.44
  -4  11  -5    2.04    4.19
   4 -11  -5    8.28    4.21
   4  11  -4   -4.08    2.15
  -4  11  -4   -1.77    3.96
   4 -11  -4    2.97    4.48
   4  11  -3    0.44    1.81
  -4  11  -3    2.04    3.12
   4 -11  -3    6.69    4.22
   4  11  -2    5.65    4.20
  -4  11  -2    2.32    2.02
   4 -11  -2    3.28    1.94
   4  11  -1   14.19    5.95
  -4  11  -1   15.87    5.68
   4 -11  -1   12.10    3.87
   4 -11   0    3.31    2.60
   4  11   0    1.97    1.71
  -4  11   0   14.79    6.02
   4  11   0   11.27    4.73
   4  11   1   17.99    5.81
  -4  11   1   18.97    6.07
   4  11   1   17.88    5.14
   4 -11   1   17.63    5.55
   4  11   2   -0.67    1.50
   4  11   2    4.18    2.90
  -4  11   2    0.62    2.83
   4 -11   2    1.07    2.44
   4  11   3   -1.26    1.73
   4  11   3    3.09    3.81
  -4  11   3   -1.96    3.14
   4 -11   3    2.91    2.21
   4  11   4   -0.07    1.43
   4  11   4    0.35    2.30
  -4  11   4    3.96    3.38
   4 -11   4   -3.45    2.80
   4  11   5    1.27    3.78
   4  11   5   -4.03    2.73
  -4  11   5   -2.97    2.11
   4 -11   5    4.76    4.25
   4  11   6    8.25    4.01
   4  11   6    9.74    4.34
   4 -11   6    2.68    3.53
  -4  11   6    4.30    2.33
   4  11   7   24.52    6.44
   4  11   7   18.88    5.95
  -4  11   7   13.41    4.16
   4  11   8    3.08    3.56
   4  11   8    9.30    5.12
  -4  11   8    7.98    2.83
   5   0 -30   -0.38    3.17
   5   0 -29    0.07    2.76
   5   0 -28   -0.41    2.84
   5   0 -27   -0.83    2.05
   5   0 -26   -0.67    1.93
   5   0 -25   -1.29    1.78
   5   0 -24   -1.16    2.32
   5   0 -23    4.23    3.04
   5   0 -22   -1.62    2.56
   5   0 -21   -1.69    1.45
   5   0 -20   -0.85    1.88
   5   0 -19   -1.11    2.31
   5   0 -18    0.29    1.95
   5   0 -17    0.22    1.38
   5   0 -16    0.94    2.06
   5   0 -15   -0.03    1.42
   5   0 -14   -0.21    0.64
   5   0 -14    0.08    1.27
   5   0 -13   -0.17    0.71
   5   0 -13   -0.78    1.54
   5   0 -12    0.75    1.34
   5   0 -12    0.78    1.03
   5   0 -11   -0.06    0.75
   5   0 -11    0.08    1.48
   5   0 -10   -0.48    1.23
   5   0 -10    0.39    0.98
   5   0  -9    0.11    0.67
   5   0  -9    0.09    0.64
   5   0  -8    0.41    0.84
   5   0  -8    0.05    0.68
   5   0  -7   -0.24    1.03
   5   0  -7    0.55    0.71
   5   0  -7   -0.12    1.42
   5   0  -6    0.80    1.23
   5   0  -6   -0.32    1.18
   5   0  -6   -0.59    1.42
   5   0  -5   -0.46    0.79
   5   0  -5   -0.06    1.23
   5   0  -5   -0.29    0.70
   5   0  -4    0.02    1.26
   5   0  -4   -0.03    0.71
   5   0  -4    0.22    1.01
   5   0  -3   -0.16    0.40
   5   0  -3   -0.58    0.94
   5   0  -3   -0.38    0.55
   5   0  -2    0.05    0.37
   5   0  -2   -0.63    0.46
   5   0  -2    0.13    1.08
   5   0  -1    0.50    1.00
   5   0  -1    0.14    0.70
   5   0  -1   -0.15    0.40
   5   0   0    0.42    0.81
   5   0   0   -0.77    0.50
   5   0   1   -0.03    0.39
   5   0   1    0.20    0.89
   5   0   2    0.65    0.99
   5   0   2   -0.39    0.57
   5   0   3    0.35    0.79
   5   0   3    0.85    1.39
   5   0   4    0.03    1.00
   5   0   4    0.56    1.17
   5   0   5   -0.43    1.18
   5   0   5   -0.25    0.87
   5   0   6   -0.25    0.50
   5   0   6   -0.11    0.78
   5   0   7    0.53    0.92
   5   0   7    0.08    0.77
   5   0   8    0.15    0.57
   5   0   8   -0.42    0.49
   5   0   9   -0.28    0.62
   5   0   9   -0.29    0.53
   5   0  10    0.26    1.24
   5   0  10   -0.13    0.83
   5   0  11   -0.53    0.82
   5   0  11    0.33    0.51
   5   0  12    0.65    1.21
   5   0  12   -0.19    0.30
   5   0  13    0.18    0.29
   5   0  13   -0.36    0.94
   5   0  14   -0.10    1.19
   5   0  15    1.17    2.21
   5   0  16    1.01    2.29
   5   0  17   -1.25    1.96
   5   0  18    0.48    0.84
   5   0  19   -0.56    2.08
   5   0  20    2.20    2.99
   5   0  21   -1.27    1.91
   5   0  22    1.27    1.42
   5  -1 -30    4.24    1.73
   5  -1 -29   26.38    6.30
   5  -1 -28   10.08    4.18
   5  -1 -27   51.66    9.03
   5   1 -26   67.83    9.81
   5  -1 -26   66.36   10.58
   5   1 -25   78.07   10.51
   5  -1 -25   75.26   10.63
   5   1 -24   19.17    5.51
   5  -1 -24    0.92    2.74
   5   1 -23    6.18    3.04
   5  -1 -23   11.89    5.18
   5   1 -22   19.50    5.12
   5  -1 -22   32.06    6.35
   5   1 -21   47.90    7.78
   5  -1 -21   45.29    7.26
   5  -1 -20    0.21    1.14
   5   1 -20    2.13    1.06
   5   1 -19   53.40    7.52
   5  -1 -19   40.46    7.04
   5  -1 -18   45.36    6.69
   5   1 -18   54.24    7.65
   5   1 -17   49.39    6.88
   5  -1 -17   48.42    6.83
   5  -1 -16  516.76   22.93
   5   1 -16  466.82   20.25
   5  -1 -16  503.09   18.20
   5   1 -15  326.17   16.59
   5  -1 -15  310.28   17.28
   5  -1 -15  336.71   14.75
   5  -1 -14  214.73   14.16
   5  -1 -14  210.45   11.94
   5   1 -14  221.58   13.13
   5   1 -13  104.32    8.78
   5   1 -13   78.34    7.80
   5  -1 -13  100.32    7.90
   5  -1 -13  100.88    9.35
   5   1 -12  155.43   10.33
   5  -1 -12  144.86   11.06
   5   1 -12  161.48   10.57
   5  -1 -12  142.87    9.27
   5  -1 -11  226.43   13.53
   5   1 -11  242.43   12.74
   5   1 -11  262.78   13.37
   5   1 -11  223.58    7.73
   5  -1 -11  235.62   11.64
   5   1 -10  520.25   18.16
   5   1 -10  522.20   18.41
   5  -1 -10  579.13   17.91
   5   1 -10  536.78   12.39
   5   1  -9   33.19    3.22
   5   1  -9   38.62    5.02
   5  -1  -9   27.61    3.90
   5  -1  -9   33.90    4.95
   5  -1  -8   30.02    4.64
   5   1  -8   24.94    2.90
   5   1  -8   30.08    3.92
   5   1  -8   33.62    4.72
   5  -1  -8   21.61    3.44
   5   1  -7   19.66    3.33
   5   1  -7   19.09    2.47
   5  -1  -7   17.17    3.50
   5  -1  -7   21.47    3.40
   5   1  -7   20.70    3.72
   5  -1  -6 1162.94   24.49
   5   1  -6 1209.72   20.11
   5  -1  -6 1167.47   27.56
   5   1  -6 1237.51   26.79
   5   1  -6 1215.40   24.50
   5   1  -5  388.34   11.60
   5  -1  -5  387.26   13.88
   5  -1  -5  394.08   15.44
   5   1  -5  407.34   13.70
   5   1  -5  395.33   14.89
   5   1  -4 2023.34   30.34
   5   1  -4 2045.24   27.49
   5  -1  -4 2001.66   31.77
   5   1  -4 1970.28   32.61
   5  -1  -4 1941.99   34.27
   5   1  -3  292.32   11.27
   5  -1  -3  278.57   11.70
   5  -1  -3  278.23   12.83
   5   1  -3  267.51   11.86
   5   1  -3  293.25   10.66
   5   1  -2   35.58    4.12
   5  -1  -2   37.79    4.51
   5  -1  -2   40.33    4.79
   5   1  -2   35.63    3.88
   5   1  -2   40.21    3.98
   5  -1  -1   49.20    4.91
   5  -1  -1   43.72    4.87
   5   1  -1   51.25    5.00
   5   1  -1   45.46    4.39
   5   1   0   42.29    4.38
   5  -1   0   52.51    5.28
   5  -1   0   40.09    4.68
   5   1   0   44.81    4.76
   5   1   1   45.32    4.71
   5  -1   1   47.53    4.82
   5   1   1   54.91    5.01
   5   1   2   34.18    3.99
   5  -1   2   40.13    4.56
   5   1   2   37.32    4.23
   5   1   3  295.41   11.41
   5   1   3  290.24   12.28
   5  -1   3  265.02   11.86
   5  -1   4 1996.18   32.71
   5   1   4 1998.10   32.67
   5  -1   5  412.05   15.07
   5   1   5  407.68   13.32
   5   1   5  431.33   15.65
   5   1   6 1213.75   26.46
   5   1   6 1220.24   22.89
   5  -1   6 1252.24   26.64
   5   1   7   15.55    2.66
   5   1   7   15.67    3.34
   5  -1   7   12.86    2.87
   5   1   8   33.09    4.88
   5  -1   8   25.73    4.13
   5   1   8   26.43    3.28
   5   1   9   31.98    3.56
   5   1   9   24.50    4.25
   5  -1   9   24.78    4.00
   5   1  10  567.19   15.19
   5   1  10  544.48   19.78
   5  -1  10  559.90   19.06
   5   1  11  243.12    9.87
   5  -1  11  220.91   12.42
   5   1  11  227.74   12.88
   5   1  12  132.73   10.24
   5  -1  12  149.71   10.41
   5   1  12  159.05    7.88
   5   1  13  104.37    6.25
   5  -1  13  103.83    8.89
   5   1  14  216.05    9.05
   5   1  14  190.90   12.82
   5  -1  14  205.37   12.64
   5   1  15  346.49   17.36
   5  -1  15  340.72   16.69
   5   1  16  495.70   21.34
   5  -1  16  510.85   20.92
   5  -1  17   48.86    6.61
   5   1  17   51.08    6.96
   5  -1  18   40.55    6.05
   5   1  18   44.37    6.88
   5   1  19   37.73    6.61
   5  -1  19   46.62    6.74
   5  -1  20    2.81    2.30
   5   1  20    2.26    2.57
   5   1  21   54.54    7.79
   5  -1  21   36.69    6.55
   5   1  22   23.38    5.54
   5   1  23    5.73    2.00
   5  -2 -29    3.57    3.77
   5  -2 -28    9.50    3.79
   5  -2 -27    0.50    1.68
   5  -2 -26   28.31    6.00
   5  -2 -25   20.24    6.49
   5  -2 -24    3.78    2.07
   5  -2 -23   48.19    8.41
   5  -2 -22   12.74    3.53
   5  -2 -21    2.17    1.76
   5   2 -21    6.42    3.36
   5  -2 -20   18.96    5.44
   5   2 -20   10.11    3.88
   5   2 -19  160.27   12.99
   5  -2 -19  169.14   13.88
   5   2 -18   27.60    5.11
   5  -2 -18   34.48    6.33
   5   2 -17   39.24    6.10
   5   2 -17   35.60    5.79
   5  -2 -17   46.50    7.20
   5  -2 -17   41.61    6.12
   5   2 -16   90.96    8.57
   5  -2 -16   95.20    9.15
   5   2 -16   84.35    8.59
   5  -2 -16   80.32    8.97
   5   2 -15  743.84   24.12
   5  -2 -15  705.75   24.14
   5  -2 -15  715.65   27.21
   5   2 -15  687.20   23.60
   5   2 -14  125.27    9.82
   5  -2 -14  126.26    9.98
   5   2 -14  120.31    9.36
   5  -2 -14  130.48   11.35
   5   2 -13  319.11   14.62
   5   2 -13  346.20   16.44
   5  -2 -13  331.18   17.58
   5  -2 -13  348.15   16.25
   5  -2 -12   14.68    4.01
   5  -2 -12   11.48    2.79
   5   2 -12   16.08    3.41
   5   2 -12   20.45    3.83
  -5   2 -11   82.47    4.52
   5   2 -11   83.31    6.90
   5   2 -11   88.31    7.92
   5  -2 -11   65.31    7.67
   5  -2 -11   82.70    7.66
   5  -2 -10    2.41    1.63
   5   2 -10    1.71    1.58
   5   2 -10    1.62    0.60
   5   2 -10    3.21    1.26
   5  -2 -10   -0.37    1.46
   5   2  -9    6.87    2.59
   5  -2  -9    9.26    2.75
   5  -2  -9    9.26    2.93
   5   2  -9    9.19    1.59
   5   2  -9    9.80    2.36
   5   2  -8   90.67    5.01
   5   2  -8   94.09    6.73
   5  -2  -8  102.07    8.94
   5  -2  -8   94.32    8.01
   5   2  -8   86.82    7.59
   5   2  -7  624.88   16.37
   5  -2  -7  598.78   21.24
   5   2  -7  585.27   13.44
   5  -2  -7  618.22   19.98
   5  -2  -6  376.73   15.64
   5  -2  -6  404.84   17.45
   5   2  -6  365.75   12.24
   5   2  -6  370.43   11.15
   5   2  -6  348.33   15.05
   5  -2  -5   96.23    7.70
   5   2  -5   99.78    6.02
   5  -2  -5   82.75    7.47
   5   2  -5  108.66    6.42
   5   2  -5  102.35    7.89
   5   2  -4   66.93    6.38
   5  -2  -4   63.23    6.21
   5   2  -4   66.59    5.12
   5  -2  -4   69.08    6.74
   5   2  -4   75.83    5.25
   5   2  -3  308.79   11.30
   5   2  -3  297.20   13.28
   5  -2  -3  319.75   14.59
   5  -2  -3  314.89   13.70
   5   2  -3  303.22   10.71
   5   2  -2  142.51    8.98
   5   2  -2  144.83    7.58
   5   2  -2  146.78    8.10
   5  -2  -2  149.29    9.34
   5  -2  -2  146.21    9.46
   5   2  -1   67.50    6.24
   5  -2  -1   76.75    6.72
   5   2  -1   70.58    5.67
   5  -2  -1   67.76    6.44
   5   2   0  388.10   14.69
   5  -2   0  418.22   15.61
   5   2   0  436.78   14.91
   5  -2   0  421.75   16.02
   5   2   1   63.39    5.97
   5  -2   1   81.45    6.93
   5   2   1   64.72    5.82
   5  -2   1   59.95    6.03
   5  -2   2  138.79    9.04
   5   2   2  145.80    8.96
   5  -2   2  144.23    9.43
   5   2   2  155.10    9.28
   5  -2   3  327.25   13.98
   5   2   3  290.81   12.99
   5   2   4   69.32    6.01
   5   2   4   67.59    6.30
   5  -2   4   72.38    6.62
   5   2   5   91.87    7.65
   5  -2   5  108.48    8.16
   5   2   5  106.06    7.61
   5   2   6  363.11   14.17
   5  -2   6  351.51   14.91
   5   2   6  377.91   15.64
   5   2   7  604.33   18.02
   5  -2   7  604.64   19.70
   5   2   7  593.65   20.29
   5   2   8   86.14    6.88
   5  -2   8   97.46    8.04
   5   2   8   92.09    8.09
   5   2   9    7.07    2.22
   5   2   9   11.78    2.68
   5  -2   9   10.11    2.70
   5   2  10    0.89    1.02
   5   2  10    1.24    1.21
   5  -2  10    1.52    0.97
   5   2  11   88.78    7.04
   5   2  11   83.38    8.07
   5  -2  11   83.41    7.62
   5   2  12   14.01    3.47
   5   2  12   19.92    3.54
   5  -2  12   15.39    3.14
   5  -2  13  335.30   15.91
   5   2  13  304.39   16.55
   5   2  13  321.55   13.63
   5  -2  14  110.13    9.52
   5   2  14  133.14    8.75
   5   2  14  127.37   10.80
   5   2  15  713.36   20.39
   5   2  15  660.15   25.20
   5  -2  15  679.07   23.63
   5   2  16   86.32    9.15
   5  -2  16   76.74    8.02
   5   2  16   84.68    6.92
   5   2  17   49.02    7.45
   5  -2  17   34.26    5.78
   5   2  18   38.16    6.76
   5  -2  18   38.60    5.82
   5   2  19  152.65   12.89
   5  -2  19  153.72   12.33
   5   2  20   14.76    3.86
   5   2  21    1.64    2.26
   5   2  22    9.91    3.69
   5   2  23   37.14    7.17
   5   2  24   13.55    4.86
   5  -3 -29    5.94    4.14
   5  -3 -28   22.01    6.15
   5  -3 -27   56.88    9.08
   5  -3 -26   23.47    5.97
   5  -3 -25  139.12   14.03
   5  -3 -24    5.22    1.97
   5  -3 -23    1.08    1.55
   5  -3 -22  117.39   12.35
   5  -3 -21  145.73   13.93
   5  -3 -20   75.10    9.65
   5  -3 -19  137.73   12.17
   5  -3 -19  134.65   12.79
   5  -3 -18   23.67    5.81
   5  -3 -18   24.26    5.11
   5  -3 -17   19.41    4.54
   5  -3 -17   25.92    5.34
   5   3 -17   25.41    4.55
   5  -3 -16  143.29   11.74
   5   3 -16  170.86   12.19
   5   3 -15  555.59   19.83
   5  -3 -15  530.61   24.48
   5   3 -15  567.48   22.68
   5  -3 -15  541.39   22.90
   5   3 -14  107.15    8.22
   5  -3 -14  118.03   11.17
   5  -3 -14  105.00    9.95
   5   3 -13   23.64    4.90
   5   3 -13   19.98    3.40
   5  -3 -13   22.98    4.85
   5  -3 -13   22.36    4.49
   5   3 -12   65.43    5.98
   5  -3 -12   63.53    7.53
   5  -3 -12   64.85    8.23
   5   3 -12   59.85    7.10
   5  -3 -11  129.98   10.72
   5  -3 -11  116.70   10.93
  -5   3 -11  121.85    7.07
   5   3 -11  114.25    7.28
   5   3 -11  115.80    9.66
  -5   3 -10  204.43    9.51
   5   3 -10  220.14    9.58
   5   3 -10  208.26    6.84
   5  -3 -10  231.91   13.92
   5  -3 -10  236.82   14.53
   5   3  -9   59.77    4.14
   5   3  -9   60.59    4.94
   5  -3  -9   73.21    8.40
   5  -3  -9   50.71    6.71
   5   3  -9   70.97    7.13
   5   3  -8   14.91    2.28
   5   3  -8   14.31    3.36
   5   3  -8   17.47    2.55
   5  -3  -8   21.11    4.19
   5  -3  -8   17.12    4.27
   5   3  -7  125.49    9.58
   5  -3  -7  133.16   10.67
   5   3  -7  131.14    7.06
   5  -3  -7  136.09   10.25
   5   3  -7  141.17    6.56
   5  -3  -6  601.13   22.02
   5   3  -6  573.51   20.28
   5   3  -6  588.64   13.25
   5   3  -6  565.95   15.22
   5  -3  -6  533.83   20.26
   5  -3  -5  519.90   20.37
   5   3  -5  524.94   19.39
   5   3  -5  524.23   15.27
   5   3  -5  533.76   12.33
   5  -3  -5  529.59   19.94
   5   3  -4  259.99   13.64
   5  -3  -4  240.96   13.26
   5  -3  -4  240.42   13.31
   5   3  -4  269.64    8.80
   5   3  -4  268.56   11.18
   5   3  -3  167.50   10.70
   5  -3  -3  195.49   11.94
   5   3  -3  178.36    9.55
   5   3  -3  186.69    7.68
   5  -3  -3  173.05   11.21
   5  -3  -2  441.97   17.96
   5  -3  -2  436.50   17.67
   5   3  -2  414.65   14.84
   5  -3  -1 1445.10   31.83
   5   3  -1 1460.32   31.52
   5   3  -1 1439.59   28.15
   5  -3  -1 1544.38   32.85
   5   3   0 1056.54   26.57
   5  -3   0 1026.01   27.15
   5  -3   0 1033.82   26.88
   5   3   0 1007.91   24.51
   5  -3   1 1408.81   31.15
   5  -3   1 1458.91   31.65
   5   3   1 1406.72   29.48
   5   3   1 1485.37   31.88
   5  -3   2  442.25   17.29
   5  -3   2  439.74   17.36
   5   3   2  433.08   17.06
   5   3   2  402.27   16.05
   5   3   3  180.90   11.17
   5  -3   3  176.83   11.01
   5   3   3  182.88   11.22
   5  -3   3  199.45   11.57
   5  -3   4  237.79   12.81
   5   3   4  286.11   13.95
   5  -3   4  265.55   13.60
   5   3   4  248.84   13.24
   5  -3   5  510.29   18.88
   5   3   5  533.85   19.37
   5   3   5  540.38   19.12
   5   3   6  601.56   21.26
   5   3   6  588.62   19.96
   5  -3   6  572.97   19.94
   5   3   7  153.82   10.10
   5  -3   7  140.62    9.93
   5   3   7  133.65   10.33
   5   3   8   13.57    2.98
   5  -3   8   18.16    3.67
   5   3   8   11.89    3.31
   5   3   9   40.23    5.43
   5  -3   9   58.50    6.40
   5   3   9   47.60    6.33
   5  -3  10  250.12   13.67
   5   3  10  228.36   14.00
   5   3  10  231.59   12.70
   5   3  11  116.01    9.02
   5  -3  11  124.47    9.66
   5   3  11  129.28   10.80
   5   3  12   69.92    7.15
   5  -3  12   66.94    7.31
   5   3  12   63.29    7.55
   5   3  13   19.79    3.83
   5   3  13   21.02    4.89
   5  -3  13   14.82    3.99
   5   3  14  104.04    8.89
   5  -3  14  108.80    9.50
   5   3  14  114.22   10.74
   5   3  15  564.04   20.86
   5  -3  15  519.15   21.12
   5   3  15  544.02   23.95
   5   3  16  160.36   12.96
   5  -3  16  165.46   12.25
   5   3  16  146.68   10.86
   5   3  17   23.79    4.67
   5  -3  17   25.81    5.24
   5   3  17   21.92    4.97
   5   3  18   27.99    5.60
   5  -3  18   22.97    4.10
   5   3  19  153.27   13.39
   5   3  20   67.40    9.25
   5   3  21  132.15   13.14
   5   3  22  114.52   12.74
   5   3  23    0.37    1.34
   5   3  24    9.22    4.02
   5   3  25  120.59   14.00
   5  -4 -28    4.64    2.20
   5  -4 -27   -4.72    4.27
   5  -4 -26    0.66    1.97
   5  -4 -25   13.36    5.03
   5  -4 -24   57.76    9.42
   5  -4 -23   17.50    4.39
   5  -4 -22    1.35    1.47
   5  -4 -21   29.85    6.70
   5  -4 -20   70.68    9.78
   5  -4 -20   67.30    9.43
   5  -4 -19    9.28    3.61
   5  -4 -19    4.10    3.13
  -5  -4 -18    8.27    3.77
   5  -4 -18   10.59    3.30
   5  -4 -18   10.98    4.34
  -5  -4 -17  288.71   18.51
   5  -4 -17  234.26   16.78
   5  -4 -17  258.27   17.70
   5  -4 -16  116.62   11.62
   5   4 -16  100.09    9.84
   5  -4 -16   98.75   10.39
  -5  -4 -16   95.45   10.38
  -5  -4 -15   51.63    7.89
   5  -4 -15   45.24    7.01
   5   4 -15   38.77    6.11
   5  -4 -15   33.18    6.30
   5   4 -14   17.84    4.49
   5  -4 -14   18.77    5.65
   5  -4 -14   23.24    5.20
  -5  -4 -14   17.01    4.37
   5   4 -13  101.98    9.77
   5  -4 -13  102.23   10.65
   5  -4 -13  118.05   11.11
  -5  -4 -13  106.49   10.30
  -5  -4 -12  152.71   12.23
   5   4 -12  140.58   11.25
   5  -4 -12  160.26   12.88
   5  -4 -12  172.68   13.04
   5  -4 -11   38.39    6.02
   5  -4 -11   47.35    7.11
   5   4 -11   34.59    5.31
  -5   4 -11   35.21    4.57
   5  -4 -10   14.71    4.33
   5   4 -10   15.67    4.51
  -5   4 -10   14.13    3.09
   5  -4 -10   12.28    3.12
  -5   4  -9  133.11    8.92
   5  -4  -9  148.43   11.81
   5   4  -9  129.46   10.47
   5   4  -9  114.93    6.77
   5  -4  -9  129.28   11.16
   5   4  -8   26.57    5.04
   5   4  -8   33.82    3.95
  -5   4  -8   32.34    4.64
   5  -4  -8   27.33    4.91
   5  -4  -8   25.48    4.64
   5   4  -7   57.03    7.11
   5   4  -7   65.60    5.67
  -5   4  -7   75.73    7.05
   5  -4  -7   78.79    8.26
   5  -4  -7   68.83    7.92
   5   4  -6  230.61   13.80
   5  -4  -6  227.68   14.28
   5   4  -6  225.04   10.82
   5  -4  -6  226.59   14.20
   5  -4  -5   76.47    8.26
   5   4  -5   70.78    7.97
   5   4  -5   80.86    6.59
   5  -4  -5   76.73    8.12
   5   4  -4  108.70    9.25
   5  -4  -4   99.63    9.43
   5   4  -4  100.34    4.40
   5   4  -4  104.35    7.82
   5  -4  -4  124.67   10.29
   5  -4  -3    9.27    3.09
   5   4  -3    4.06    2.33
   5   4  -3    8.50    2.58
   5  -4  -3    3.37    1.47
   5   4  -3    7.26    1.38
   5   4  -2   28.90    5.07
   5   4  -2   33.94    4.67
   5  -4  -2   28.55    5.01
   5  -4  -2   26.74    4.49
   5  -4  -1    6.27    2.80
   5   4  -1    3.85    1.06
   5   4  -1    6.67    2.43
   5  -4  -1    4.73    1.90
   5   4   0  112.85    8.97
   5   4   0   98.88    9.08
   5  -4   0  109.34    9.00
   5  -4   0  131.80   10.47
   5  -4   1    7.55    2.69
   5   4   1    7.39    2.94
   5   4   1    2.99    1.99
   5  -4   1    7.19    2.44
   5  -4   2   33.40    5.59
   5   4   2   30.56    4.64
   5   4   2   39.88    5.99
   5  -4   2   32.74    4.90
   5  -4   3    8.77    2.94
   5   4   3    5.85    2.89
   5   4   3    4.08    1.77
   5  -4   3    9.64    3.12
   5  -4   4   98.11    8.78
   5   4   4   92.25    8.59
   5  -4   4  120.66    9.39
   5   4   4  126.74   10.13
   5  -4   5   78.46    7.99
   5   4   5   76.07    7.80
   5   4   5   78.54    8.05
   5  -4   5   73.72    7.40
   5   4   6  218.70   13.76
   5   4   6  237.02   13.75
   5  -4   6  223.30   13.46
   5   4   7   72.28    7.98
   5  -4   7   58.15    7.03
   5   4   7   73.57    7.77
   5   4   8   24.19    4.84
   5   4   8   26.28    4.71
   5  -4   8   27.80    4.91
   5   4   9  133.88   11.00
   5   4   9  128.93   10.46
   5  -4   9  115.46    9.85
   5   4  10   13.84    3.56
   5   4  10   17.13    3.98
   5  -4  10   18.67    3.86
   5   4  11   50.28    6.57
   5  -4  11   50.86    6.45
   5   4  11   45.82    6.56
   5  -4  12  174.18   12.28
   5   4  12  155.09   11.83
   5  -4  13  101.19    9.64
   5   4  13  102.15    9.67
   5   4  13   92.88    9.82
   5   4  14   11.42    3.13
   5  -4  14   19.94    4.37
   5   4  14   28.27    5.82
   5   4  15   35.06    5.97
   5  -4  15   30.12    5.30
   5   4  15   43.43    6.76
   5   4  16   87.89    9.47
   5  -4  16   88.78    9.31
   5   4  16   89.29   10.35
   5   4  17  269.88   17.91
   5  -4  17  255.24   15.81
   5   4  17  285.26   16.93
   5   4  18    5.30    3.66
   5   4  19    7.38    3.34
   5   4  20   70.30    9.48
   5   4  21   24.20    5.92
   5   4  22    5.17    3.66
   5   4  23   13.68    3.18
   5   4  24   42.32    7.99
   5   4  25   17.28    5.66
   5   4  26    2.38    3.17
   5  -5 -27    5.58    3.09
   5  -5 -26   19.81    5.21
   5  -5 -25   17.97    5.88
   5  -5 -24   54.24    8.92
   5  -5 -23    5.80    3.72
   5  -5 -22    4.35    2.68
   5  -5 -21   64.77    9.44
   5  -5 -20   87.79   10.85
  -5  -5 -20   93.19   11.53
   5  -5 -20  112.05   12.63
  -5  -5 -19    6.71    2.87
   5  -5 -19   13.64    5.09
   5  -5 -19    8.76    3.48
   5  -5 -18    4.05    3.50
   5  -5 -18    7.11    3.47
  -5  -5 -18    5.88    2.22
  -5  -5 -17   54.82    8.81
   5  -5 -17   58.22    8.84
   5  -5 -17   42.13    7.17
   5   5 -16    1.45    1.16
  -5  -5 -16   -2.21    1.32
   5  -5 -16   -1.66    2.38
   5  -5 -16   -0.24    2.17
   5  -5 -15  157.20   14.07
  -5  -5 -15  144.42   12.83
   5  -5 -15  153.23   13.71
   5   5 -14   51.68    7.65
  -5  -5 -14   56.89    7.64
   5  -5 -14   68.24    8.56
   5  -5 -14   54.52    8.20
   5   5 -13   -2.00    1.87
   5  -5 -13    0.89    2.64
  -5  -5 -13    3.26    3.34
   5  -5 -13    2.38    1.79
   5   5 -12   17.21    4.11
  -5  -5 -12   23.07    5.01
   5  -5 -12   22.51    5.39
   5  -5 -12   26.38    5.05
  -5   5 -11  157.93   11.46
  -5  -5 -11  173.32   13.05
   5  -5 -11  190.15   14.24
   5   5 -11  186.09   13.91
   5  -5 -11  179.24   14.11
   5   5 -10   53.34    7.46
   5  -5 -10   57.97    8.19
  -5   5 -10   53.75    6.66
   5  -5 -10   46.09    7.13
  -5  -5 -10   61.48    7.57
   5   5  -9  101.67   10.05
  -5   5  -9   99.21    9.15
   5  -5  -9   87.35    9.95
   5  -5  -9  110.96   10.94
  -5   5  -8   28.52    5.16
   5   5  -8   22.12    4.68
   5   5  -8   20.83    3.55
   5  -5  -8   32.49    5.75
   5  -5  -8   22.43    4.75
   5  -5  -7   25.85    5.66
   5   5  -7   18.51    3.91
   5   5  -7   26.04    4.32
  -5   5  -7   24.80    4.40
   5  -5  -7   28.53    5.57
   5   5  -6  297.41   16.79
  -5   5  -6  342.02   17.04
   5  -5  -6  274.44   16.39
   5  -5  -6  313.13   17.90
   5   5  -6  305.86   14.38
   5  -5  -5  163.46   12.40
   5   5  -5  172.65   13.00
  -5   5  -5  175.60   12.05
   5   5  -5  186.28   11.23
   5  -5  -5  189.06   13.73
   5   5  -4   17.28    4.11
  -5   5  -4    6.56    2.30
   5   5  -4   16.64    3.69
   5  -5  -4   11.60    3.79
   5  -5  -4    8.55    2.82
   5   5  -3   42.76    6.32
   5   5  -3   38.32    5.45
  -5   5  -3   40.94    5.70
   5  -5  -3   48.89    6.62
   5  -5  -3   39.91    6.39
   5   5  -2   35.87    5.88
   5   5  -2   35.84    5.20
   5  -5  -2   43.03    6.47
   5  -5  -2   34.82    5.97
   5   5  -1   69.18    8.30
   5   5  -1   54.89    6.76
   5  -5  -1   56.24    7.04
   5  -5  -1   52.49    7.16
   5   5   0  187.78   13.31
   5   5   0  206.50   13.00
   5  -5   0  196.27   13.05
   5  -5   0  204.49   13.72
   5   5   1   73.45    8.56
   5   5   1   63.21    7.11
   5  -5   1   70.79    7.61
   5  -5   1   63.06    7.73
   5   5   2   30.69    5.26
   5   5   2   35.46    5.49
   5  -5   2   34.19    5.88
   5  -5   2   25.25    4.63
   5   5   3   50.97    6.71
   5  -5   3   39.94    6.11
   5   5   3   36.98    5.55
   5  -5   3   52.10    6.41
   5  -5   4   12.39    3.31
   5   5   4   10.91    3.31
   5   5   4   12.67    3.70
   5  -5   4   23.10    4.72
   5  -5   5  176.93   12.21
   5   5   5  151.10   11.91
   5   5   5  184.49   13.04
   5  -5   5  157.29   12.07
   5   5   6  318.72   17.65
   5  -5   6  342.05   17.91
   5   5   6  358.56   18.24
   5  -5   6  306.82   16.13
   5  -5   7   24.30    4.59
   5   5   7   33.19    5.71
   5   5   7   24.35    5.43
   5  -5   7   25.34    5.10
   5   5   8   30.76    5.50
   5  -5   8   23.04    5.03
   5   5   8   26.51    5.46
   5  -5   8   23.75    4.55
   5  -5   9  116.30   10.51
   5   5   9   97.38   10.27
   5   5   9  106.60   10.29
   5  -5   9  108.54    9.75
   5  -5  10   44.64    6.31
   5   5  10   51.09    7.40
   5   5  10   55.52    7.76
   5  -5  11  200.30   14.01
   5   5  11  175.03   13.71
   5   5  11  207.98   14.54
   5  -5  12   26.40    5.17
   5   5  12   20.56    4.53
   5   5  12   22.66    5.66
   5  -5  13    7.24    3.32
   5   5  13    3.05    2.14
   5   5  13    2.17    2.16
   5   5  14   48.02    7.27
   5  -5  14   65.83    8.31
   5   5  14   60.64    8.06
   5  -5  15  138.21   12.05
   5   5  15  156.85   13.18
   5   5  15  152.93   13.53
   5   5  16   -1.25    2.16
   5   5  16    2.95    2.49
   5   5  17   64.50    8.76
   5   5  17   41.62    7.09
   5   5  18   11.34    4.00
   5   5  18   10.51    3.59
   5   5  19   10.84    3.81
   5   5  20  112.55   13.04
  -5   5  20   99.17   11.59
   5   5  21   31.79    6.80
  -5   5  21   48.11    8.54
  -5   5  22    0.15    2.61
   5   5  22    1.64    1.94
  -5   5  23    7.20    3.22
   5   5  23   10.17    3.44
  -5   5  23   14.09    5.76
   5   5  24   44.92    8.20
   5   5  25   20.84    5.46
   5   5  26    8.95    4.43
   5   5  27   19.67    6.45
   5  -6 -25   -0.45    2.26
   5  -6 -24    7.79    4.14
   5  -6 -23    2.55    1.79
   5  -6 -22    5.49    2.20
   5  -6 -21   -2.96    3.04
  -5  -6 -20    7.02    3.75
   5  -6 -20    0.66    1.72
   5  -6 -20    3.59    3.15
   5  -6 -19   -0.83    2.36
  -5  -6 -19   -0.29    3.10
   5  -6 -19   -1.71    3.21
   5  -6 -18    9.17    3.46
  -5  -6 -18    4.05    2.09
   5  -6 -18    3.35    2.13
   5  -6 -17    7.77    4.15
  -5  -6 -17   12.80    5.30
   5  -6 -17   10.88    3.25
   5  -6 -16   23.67    5.03
  -5  -6 -16   34.88    6.62
   5  -6 -16   25.58    5.79
   5   6 -15   31.97    6.42
  -5  -6 -15   34.42    6.34
   5  -6 -15   41.57    7.59
   5  -6 -15   38.86    7.82
   5   6 -14    5.87    1.28
  -5  -6 -14   12.46    3.83
   5  -6 -14   16.14    4.64
   5  -6 -14    6.17    3.00
   5   6 -13   15.94    4.72
  -5  -6 -13   17.73    4.69
   5  -6 -13   16.74    4.78
   5  -6 -13   11.83    4.43
   5   6 -12   71.95    9.38
  -5  -6 -12   61.58    8.60
   5  -6 -12   78.52    9.36
   5  -6 -12   63.62    8.75
   5  -6 -11   14.93    4.94
   5   6 -11   16.12    4.29
  -5  -6 -11    7.87    2.86
   5  -6 -11   17.99    5.12
   5  -6 -10    7.15    2.76
   5   6 -10    3.19    1.42
  -5  -6 -10    7.22    3.26
  -5   6 -10    8.33    3.94
   5  -6 -10   15.99    4.82
   5   6  -9   42.12    6.87
  -5   6  -9   32.96    5.76
   5  -6  -9   33.19    6.29
   5  -6  -9   44.95    7.32
   5   6  -8   37.48    6.22
  -5   6  -8   37.18    6.57
   5  -6  -8   24.35    4.69
   5  -6  -8   31.32    5.81
   5   6  -7   96.38    8.71
  -5   6  -7   91.90    9.40
   5  -6  -7   84.93    9.63
   5   6  -7   84.14    9.33
   5  -6  -7   99.65   11.02
   5   6  -6    6.93    2.81
   5   6  -6    8.35    2.63
   5  -6  -6    8.39    4.21
   5  -6  -6    7.38    3.46
  -5   6  -6    1.71    1.64
   5   6  -5   14.02    3.45
  -5   6  -5   11.88    3.27
   5   6  -5   12.22    4.28
   5  -6  -5   14.77    4.30
   5  -6  -5   14.39    4.20
   5   6  -4  102.89    9.40
  -5   6  -4  112.10   10.47
   5  -6  -4  115.35   10.75
   5   6  -4  105.61   10.82
   5  -6  -4  107.81   10.99
   5   6  -3   23.56    4.51
  -5   6  -3   24.78    5.08
   5   6  -3   31.08    5.72
   5  -6  -3   28.66    5.37
   5  -6  -3   21.89    4.52
   5  -6  -2   49.75    7.29
   5   6  -2   76.09    8.44
  -5   6  -2   56.18    7.61
   5  -6  -2   66.85    8.60
   5   6  -2   64.04    8.24
   5   6  -1   79.65    9.20
   5   6  -1   72.57    8.19
  -5   6  -1   58.66    7.84
   5  -6  -1   64.74    8.55
   5  -6  -1   74.62    8.43
   5   6   0   63.34    8.37
   5   6   0   54.40    7.30
  -5   6   0   63.26    8.14
   5  -6   0   61.89    7.49
   5  -6   0   61.20    8.27
   5   6   1   68.67    8.79
   5   6   1   71.33    8.02
  -5   6   1   71.58    8.64
   5  -6   1   66.24    7.89
   5  -6   1   88.78    9.66
   5   6   2   71.88    8.49
   5   6   2   57.61    7.24
  -5   6   2   54.62    7.54
   5  -6   2   53.99    7.34
   5  -6   2   65.32    8.31
   5  -6   3   33.50    6.09
   5   6   3   23.58    5.39
   5   6   3   19.39    4.25
  -5   6   3   22.49    5.30
   5  -6   3   27.08    5.14
   5   6   4  134.28   12.21
   5   6   4  112.92   10.83
  -5   6   4  121.88   11.40
   5  -6   4  120.74   11.25
   5  -6   4   99.09    9.78
   5  -6   5    3.39    1.06
   5   6   5   20.35    4.67
   5  -6   5   16.82    4.38
   5   6   5   18.46    4.40
   5  -6   6    6.27    2.09
   5   6   6    5.49    1.96
   5  -6   6    5.05    2.44
   5   6   6    7.97    2.06
   5   6   7   95.15   10.45
   5   6   7   94.08   10.11
   5  -6   7   79.37    9.00
   5  -6   7  101.38   10.07
   5   6   8   22.84    4.86
   5   6   8   34.03    6.16
   5  -6   8   29.09    4.96
   5  -6   8   41.32    6.71
   5   6   9   42.44    7.20
   5   6   9   31.81    6.17
   5  -6   9   38.05    6.32
   5  -6   9   47.07    7.16
   5  -6  10   11.06    3.42
   5   6  10   11.47    3.94
   5  -6  10   10.62    3.29
   5   6  10    8.13    3.24
   5  -6  11   13.20    3.31
   5   6  11   10.42    3.48
   5   6  11   15.73    4.25
   5  -6  11   17.84    4.80
   5   6  12   67.89    8.87
  -5   6  12   68.63    9.49
   5  -6  12   86.21    9.89
   5  -6  12   68.92    8.46
   5   6  12   82.40    9.70
   5  -6  13   17.68    4.49
   5   6  13   20.44    4.87
   5   6  13   12.52    4.25
  -5   6  13   12.26    3.85
   5  -6  13    8.61    4.31
   5  -6  14    9.24    3.52
   5   6  14    8.76    3.49
   5   6  14    6.65    3.70
  -5   6  14    6.91    3.45
   5   6  15   40.86    6.79
   5   6  15   37.12    6.62
  -5   6  15   45.59    7.20
  -5   6  16   25.75    5.73
   5   6  16   26.19    5.85
   5   6  16   25.58    6.27
   5   6  17   19.55    4.71
   5   6  17   14.88    4.74
  -5   6  17   10.34    3.36
   5   6  18    8.44    3.98
   5   6  18    0.96    1.78
  -5   6  18    9.71    5.04
   5   6  19    2.85    2.61
  -5   6  19    1.27    3.35
  -5   6  20    6.80    4.55
   5   6  20    3.00    2.05
   5   6  21    1.30    1.90
  -5   6  21   -1.09    1.99
  -5   6  22   14.53    5.63
   5   6  22    7.85    3.41
   5   6  23   -0.63    1.42
  -5   6  23    2.79    4.59
   5   6  24    6.69    1.94
   5   6  25    0.15    3.12
   5  -7 -23    0.65    2.48
   5  -7 -22   20.13    6.60
   5  -7 -21   46.92    8.95
   5  -7 -20   15.10    5.25
  -5  -7 -19   25.31    7.06
   5  -7 -19   36.41    7.04
   5  -7 -19   25.30    6.54
  -5  -7 -18   33.52    6.64
   5  -7 -18   32.46    6.58
   5  -7 -18   41.03    7.12
   5  -7 -17   37.74    7.44
   5  -7 -17   53.41    9.11
  -5  -7 -17   47.05    8.37
   5  -7 -16   44.46    8.00
  -5  -7 -16   44.80    8.08
   5  -7 -16   53.86    9.11
  -5  -7 -15    9.42    3.69
   5   7 -15   22.14    7.28
   5  -7 -15   10.82    3.87
   5  -7 -15    9.61    3.90
   5   7 -14   24.98    5.75
  -5  -7 -14   12.08    3.52
   5  -7 -14   25.38    6.38
   5  -7 -14   27.77    6.12
  -5  -7 -13   38.56    6.73
   5  -7 -13   19.93    5.46
   5   7 -13   31.51    6.70
   5  -7 -13   23.74    6.26
   5   7 -12   30.82    6.48
  -5  -7 -12   32.02    6.78
   5  -7 -12   24.89    5.68
   5  -7 -12   23.72    5.12
   5   7 -11   90.54   10.93
  -5  -7 -11   90.39   10.15
   5  -7 -11  102.45   11.63
   5  -7 -11  107.98   12.11
   5   7 -10  148.83   13.71
  -5   7 -10  125.21   11.91
   5  -7 -10  155.02   14.00
   5  -7 -10  127.64   13.12
   5  -7  -9   87.53   10.06
   5   7  -9   90.62   10.53
  -5   7  -9   89.34   10.31
   5  -7  -9   89.36   10.96
   5   7  -8   86.21   10.50
  -5   7  -8   81.19    9.71
   5  -7  -8   94.44   10.59
   5  -7  -8   86.10   10.59
   5  -7  -7  112.89   11.12
   5   7  -7  102.09   11.27
  -5   7  -7  111.53   11.27
   5  -7  -7  104.32   11.44
   5   7  -6   43.35    7.75
   5   7  -6   49.78    7.70
   5  -7  -6   32.90    5.98
  -5   7  -6   57.04    8.20
   5  -7  -6   44.30    7.06
   5   7  -5  112.83   11.80
   5  -7  -5  111.49   11.62
   5   7  -5  106.34   10.19
  -5   7  -5  143.08   12.66
   5  -7  -5   94.33   10.27
   5   7  -4   41.22    7.47
   5   7  -4   40.14    6.73
  -5   7  -4   44.72    7.32
   5  -7  -4   42.12    7.44
   5  -7  -4   43.69    7.29
   5  -7  -3    6.21    2.44
   5   7  -3    9.04    2.97
  -5   7  -3    5.08    3.30
   5  -7  -3    8.60    3.63
   5   7  -3    3.64    2.52
   5   7  -2   41.12    6.96
   5   7  -2   31.75    5.86
  -5   7  -2   44.76    7.10
   5  -7  -2   29.36    5.95
   5  -7  -2   36.84    6.87
   5  -7  -1   98.58   10.30
   5   7  -1  103.64   10.85
   5   7  -1   80.96    9.46
  -5   7  -1  107.91   11.13
   5  -7  -1   85.52   10.16
  -5   7   0   18.62    4.63
   5   7   0   14.52    4.50
   5   7   0   13.58    4.01
   5  -7   0   19.22    5.01
   5  -7   0   18.26    5.26
   5   7   1   97.36   10.12
  -5   7   1   86.63    9.86
   5   7   1  101.80   11.18
   5  -7   1  109.38   11.16
   5  -7   1  107.54   10.59
  -5   7   2   26.67    5.27
   5   7   2   41.50    6.94
   5   7   2   41.78    7.00
   5  -7   2   36.57    6.66
   5  -7   2   33.83    6.47
   5  -7   3    4.08    3.22
  -5   7   3    7.08    3.28
   5   7   3    8.58    3.41
   5   7   3    5.93    2.91
   5  -7   3    7.35    2.89
   5   7   4   37.71    6.67
   5  -7   4   30.40    6.36
   5   7   4   52.62    8.27
  -5   7   4   35.95    6.99
   5  -7   4   35.51    6.51
   5   7   5  124.46   12.76
   5   7   5   92.17   10.39
  -5   7   5   98.84   10.87
   5  -7   5  110.08   11.04
   5  -7   5  105.61   11.28
   5   7   6   32.39    6.31
   5   7   6   49.90    7.87
   5  -7   6   40.82    6.24
   5  -7   6   43.09    7.35
   5   7   7  107.38   11.92
   5   7   7   82.37    9.77
  -5   7   7  114.75   11.69
   5  -7   7  108.27   10.74
   5  -7   7  105.99   11.46
   5  -7   8  107.87   11.40
   5   7   8  116.69   12.28
   5   7   8   85.76   10.21
  -5   7   8   99.70   11.16
   5   7   9   85.22   10.84
   5   7   9   77.64   10.20
  -5   7   9   86.68   10.75
   5  -7   9   97.30   11.15
   5   7  10  140.43   13.58
   5   7  10  165.77   14.24
  -5   7  10  153.46   14.13
   5  -7  10  144.10   13.31
   5   7  11  102.11   11.70
   5   7  11  116.15   12.01
  -5   7  11  130.81   12.87
   5  -7  11  100.91   11.23
   5  -7  12   34.52    6.44
  -5   7  12   13.65    4.69
   5   7  12   28.11    6.51
   5   7  12   24.73    6.10
   5  -7  13   28.15    5.99
  -5   7  13   17.56    4.49
   5   7  13   27.68    6.52
   5   7  13   14.52    4.44
   5   7  14   18.32    5.34
   5   7  14   29.81    6.73
  -5   7  14   15.16    4.09
   5   7  15    4.13    2.78
   5   7  15   10.40    4.18
  -5   7  15   11.57    4.31
   5   7  16   60.85    9.23
   5   7  16   48.04    8.93
  -5   7  16   41.42    8.48
  -5   7  17   55.95    8.53
   5   7  17   59.90    9.57
   5   7  17   38.04    7.32
   5   7  18   43.76    8.79
  -5   7  18   40.73    7.79
   5   7  18   45.60    8.29
   5   7  19   25.00    6.57
  -5   7  19   36.40    7.81
   5   7  19   30.16    6.60
   5   7  20   15.67    5.42
  -5   7  20   25.87    6.47
   5   7  21   25.75    6.37
  -5   7  21   34.18    8.30
  -5   7  22   17.18    6.63
   5   7  22   17.56    5.71
  -5   7  23   -1.67    3.50
   5   7  23   -0.03    3.10
  -5   7  23    1.70    2.96
   5  -8 -21    1.91    3.35
   5  -8 -20    3.08    2.75
   5  -8 -19    0.14    2.74
   5  -8 -19   -1.33    2.33
   5  -8 -18    1.10    2.18
   5  -8 -18    0.37    2.65
   5  -8 -17    9.26    5.26
   5  -8 -17   13.73    5.46
   5  -8 -16    2.43    1.43
   5  -8 -16    6.01    3.69
   5  -8 -15   28.11    6.34
   5  -8 -15   28.18    6.33
   5   8 -14    2.29    2.33
   5  -8 -14    1.65    1.90
   5  -8 -14    4.66    3.23
   5   8 -13    4.47    2.94
   5  -8 -13   -0.14    1.59
   5  -8 -13   -3.96    3.42
   5   8 -12   14.14    5.40
   5  -8 -12   18.02    4.68
   5  -8 -12    9.18    3.60
   5   8 -11    1.31    1.78
   5  -8 -11    4.62    2.25
   5  -8 -11    3.25    2.49
   5   8 -10    4.64    4.41
   5  -8 -10   -3.10    2.12
   5  -8 -10    9.20    4.78
   5  -8  -9    2.52    3.26
   5   8  -9   -1.48    1.26
  -5   8  -9   -0.07    1.85
   5  -8  -9    1.49    2.71
  -5   8  -8   17.05    4.98
   5  -8  -8   16.72    4.73
   5  -8  -8   14.41    4.17
   5   8  -8   16.75    5.43
  -5   8  -7   25.11    6.53
   5   8  -7   24.27    5.69
   5  -8  -7   29.13    6.60
   5  -8  -7   23.00    6.04
   5   8  -6   29.87    6.03
   5  -8  -6   26.25    5.99
  -5   8  -6   40.46    7.27
   5  -8  -6   20.36    5.70
   5   8  -5    2.80    3.49
  -5   8  -5   -1.53    1.29
   5  -8  -5    2.83    2.95
   5   8  -5    3.11    1.07
   5  -8  -5    2.80    2.66
   5  -8  -4   15.34    4.74
   5   8  -4   26.03    6.24
  -5   8  -4   14.86    5.01
   5  -8  -4   12.49    4.49
   5   8  -4   11.94    3.82
   5   8  -3    7.67    3.54
   5   8  -3    7.11    3.49
   5  -8  -3    7.97    2.74
  -5   8  -3    6.38    3.01
   5  -8  -3    8.05    4.26
  -5   8  -2   16.57    5.49
   5   8  -2   15.61    4.54
   5   8  -2   17.66    4.82
   5  -8  -2   14.18    4.62
   5  -8  -2   19.14    6.13
   5   8  -1    0.74    2.26
   5   8  -1    2.19    2.51
  -5   8  -1    0.91    1.59
   5  -8  -1   -1.33    2.48
   5  -8  -1    3.29    2.18
   5  -8   0   93.91   10.94
   5   8   0  126.75   12.85
  -5   8   0   86.08   10.60
   5   8   0  113.62   12.15
   5  -8   0   85.98   10.35
   5   8   1    4.82    3.09
   5   8   1    8.07    4.37
  -5   8   1    0.30    2.90
   5  -8   1    3.07    3.10
   5  -8   1   -0.10    3.17
   5  -8   2    4.63    1.52
   5   8   2   13.55    4.36
  -5   8   2    6.11    3.08
   5  -8   2    6.46    3.02
   5   8   3    5.94    2.65
   5   8   3    1.94    2.16
   5  -8   3    7.95    4.49
  -5   8   3    7.51    4.71
   5   8   4   18.19    5.38
   5   8   4   22.58    5.68
  -5   8   4   10.77    4.55
   5  -8   4   14.38    4.70
   5   8   5    6.22    3.35
   5   8   5    1.94    2.01
  -5   8   5   -0.58    1.77
   5  -8   5    0.26    2.45
   5   8   6   27.80    6.08
   5   8   6   36.19    7.17
  -5   8   6   37.31    6.60
   5  -8   6   33.49    6.45
   5   8   7   23.93    6.05
   5   8   7   22.82    4.29
  -5   8   7   20.36    5.12
   5  -8   7   23.45    6.44
   5   8   8   23.93    6.24
   5  -8   8   27.33    6.26
   5   8   8   21.57    5.37
  -5   8   8   17.88    5.13
   5   8   9    0.19    1.54
   5   8   9    0.51    2.93
  -5   8   9    0.15    2.54
   5   8  10    6.92    3.70
  -5   8  10   11.47    4.03
   5   8  10    4.91    3.25
   5  -8  10    9.00    3.99
   5   8  11    2.91    2.90
  -5   8  11    1.13    2.61
   5   8  11    5.69    2.94
   5  -8  11    1.82    2.51
   5   8  12   11.12    2.39
  -5   8  12   12.39    5.73
   5   8  12   22.02    6.03
   5  -8  12   15.77    5.70
   5   8  13   -1.14    2.49
  -5   8  13   -3.77    3.20
   5   8  13   -2.06    1.71
   5   8  14    0.25    2.45
  -5   8  14    8.24    4.40
   5   8  14    4.34    2.62
   5   8  15   27.51    6.95
   5   8  15   24.85    6.44
  -5   8  15   37.28    7.82
  -5   8  16    7.80    4.96
   5   8  16    3.95    4.59
   5   8  16    5.05    2.42
   5   8  17    4.71    3.44
   5   8  17    6.11    2.76
  -5   8  17    3.09    2.49
   5   8  18    2.25    1.73
   5   8  18    0.47    3.54
  -5   8  18    5.62    4.28
   5   8  19   -0.86    2.56
   5   8  19    1.26    3.56
  -5   8  19   -0.30    2.81
  -5   8  20   -4.40    3.67
   5   8  20    2.20    1.88
   5   8  21   -2.17    2.33
  -5   8  21   -0.99    3.84
   5  -9 -18    8.68    4.31
   5  -9 -17   14.46    4.81
   5  -9 -17   15.64    4.82
   5  -9 -16   37.15    7.47
   5  -9 -16   34.12    7.43
   5  -9 -15   22.75    6.54
   5  -9 -15   10.79    4.42
   5  -9 -14    2.90    2.40
   5  -9 -14    8.53    3.41
   5  -9 -13    6.63    3.17
   5   9 -13   11.93    4.88
   5  -9 -13   12.12    5.42
   5   9 -12   30.17    7.08
   5  -9 -12   27.47    6.45
   5  -9 -12   33.70    6.84
   5   9 -11   37.00    7.90
   5  -9 -11   53.48    9.37
   5  -9 -11   38.73    7.51
   5   9 -10   43.31    7.97
   5  -9 -10   53.19    9.22
   5  -9 -10   48.97    8.45
   5   9  -9   43.47    7.69
   5  -9  -9   46.39    8.53
   5  -9  -9   26.80    6.58
   5  -9  -8   33.07    7.01
   5   9  -8   36.01    7.12
  -5   9  -8   24.91    6.89
   5  -9  -8   29.97    6.56
   5  -9  -7   63.09    9.98
   5   9  -7   74.61   10.58
  -5   9  -7   62.35    9.99
   5  -9  -7   54.20    9.26
   5   9  -6   22.63    4.89
  -5   9  -6   11.18    4.01
   5  -9  -6   14.25    5.30
   5  -9  -6   16.30    4.95
   5   9  -5  107.70   12.32
  -5   9  -5   94.56   12.15
   5  -9  -5  114.85   12.72
   5  -9  -5   97.06   12.05
   5  -9  -4   33.64    7.60
   5   9  -4   38.46    7.36
  -5   9  -4   32.95    7.35
   5  -9  -4   47.74    8.56
   5   9  -3    3.22    3.39
  -5   9  -3    0.76    2.80
   5  -9  -3   -1.72    2.20
   5   9  -3   -2.00    3.30
   5   9  -2   23.73    6.15
  -5   9  -2   23.85    6.17
   5   9  -2   12.95    3.83
   5  -9  -2   23.00    6.61
  -5   9  -1  113.31   13.14
   5   9  -1  112.76   12.48
   5   9  -1  129.78   13.80
   5  -9  -1  119.52   13.06
   5   9   0   30.47    6.68
   5   9   0   24.51    4.57
  -5   9   0   25.22    6.28
   5  -9   0   20.43    6.04
   5   9   1  114.55   12.62
  -5   9   1  125.48   13.43
   5   9   1   99.98   11.78
   5  -9   1  126.87   13.59
   5   9   2   27.75    6.04
   5   9   2   21.46    5.89
  -5   9   2   28.22    6.31
   5  -9   2   21.91    5.71
   5   9   3    2.93    3.23
   5   9   3    6.70    4.35
   5  -9   3    2.43    2.46
  -5   9   3   -0.75    3.23
   5   9   4   39.40    8.64
   5   9   4   43.19    7.82
   5  -9   4   37.73    7.48
  -5   9   4   40.60    7.74
   5   9   5   70.26   10.13
   5   9   5  100.08   11.62
  -5   9   5  117.16   12.64
   5  -9   5   95.19   11.85
   5   9   6   21.13    5.54
   5   9   6   22.88    6.18
  -5   9   6   31.13    6.27
   5  -9   6   19.20    6.56
   5   9   7   89.65   11.14
   5   9   7   65.81    9.64
  -5   9   7   78.08   10.76
   5  -9   7   65.81    9.75
   5   9   8   29.39    6.61
   5   9   8   21.85    5.58
  -5   9   8   20.19    5.08
   5  -9   8   27.97    6.62
   5   9   9   32.18    7.28
  -5   9   9   50.20    8.73
   5   9   9   34.86    6.82
   5  -9   9   35.02    6.55
   5   9  10   46.57    8.19
  -5   9  10   37.83    7.59
   5   9  10   36.49    7.66
   5  -9  10   46.16    8.22
   5   9  11   43.80    8.45
   5   9  11   39.41    7.65
  -5   9  11   36.29    7.04
   5   9  12   26.12    6.88
  -5   9  12   37.13    7.84
   5   9  12   27.94    6.65
   5   9  13    8.24    4.90
  -5   9  13    6.10    2.03
   5   9  14    7.75    4.67
  -5   9  14    6.15    4.48
   5   9  14    7.05    2.25
  -5   9  15   21.79    6.73
   5   9  15   16.09    5.26
   5   9  15   11.40    3.35
   5   9  16   53.87    9.55
   5   9  16   34.47    7.44
  -5   9  16   39.17    7.86
   5   9  17   19.56    6.21
   5   9  17   27.12    6.52
  -5   9  17   25.40    7.12
   5   9  18   10.18    2.98
   5   9  18   13.67    4.70
  -5   9  18    9.91    3.92
   5 -10 -14   -3.37    3.34
   5 -10 -14    4.89    3.35
   5 -10 -13   -0.79    2.04
   5 -10 -13   -3.56    1.94
   5  10 -12    9.49    6.25
   5 -10 -12   -1.42    4.22
   5 -10 -12    2.02    1.95
   5  10 -11   -1.52    1.89
   5 -10 -11    1.07    2.09
   5 -10 -10   13.75    5.24
   5  10 -10   19.83    5.92
   5  10  -9    5.22    2.84
   5 -10  -9   -4.41    3.85
   5  10  -8    4.03    2.99
   5 -10  -8   10.66    3.45
   5  10  -7    7.20    2.80
  -5  10  -7    4.58    2.06
   5 -10  -7    1.76    2.26
   5 -10  -6   -0.18    2.73
   5  10  -6    3.92    3.98
  -5  10  -6    3.11    2.51
   5  10  -5    2.08    1.82
  -5  10  -5    7.02    3.90
   5 -10  -5    9.30    4.92
  -5  10  -4    4.21    4.08
   5  10  -4    3.18    4.39
   5 -10  -4    1.19    3.85
   5  10  -3   10.28    4.93
  -5  10  -3    3.23    2.98
   5 -10  -3    7.72    3.19
   5  10  -2   11.30    3.32
  -5  10  -2    8.03    3.79
   5 -10  -2   12.21    5.28
   5  10  -2    7.68    3.43
   5  10  -1   18.57    6.21
  -5  10  -1   26.23    6.25
   5 -10  -1   14.09    5.09
   5  10  -1    8.14    3.51
   5 -10   0    2.42    2.51
   5  10   0    2.74    3.66
  -5  10   0    2.32    1.58
   5  10   0    0.71    1.40
   5  10   1   21.07    6.25
  -5  10   1   33.47    6.83
   5 -10   1   28.34    6.40
   5  10   2   12.53    4.28
  -5  10   2    8.60    3.00
   5 -10   2   13.37    4.78
   5  10   2   16.22    4.85
   5  10   3   10.80    4.21
  -5  10   3    4.97    3.90
   5 -10   3   12.31    5.59
   5  10   3   -2.05    3.32
  -5  10   4    4.31    3.41
   5 -10   4    1.19    2.28
   5  10   4    1.17    1.24
   5  10   4   -1.53    2.79
   5  10   5   11.15    4.37
  -5  10   5    7.60    4.48
   5 -10   5   15.27    5.78
   5  10   5    7.22    2.96
   5  10   6    4.77    1.69
   5  10   6    5.60    2.05
  -5  10   6    1.27    1.56
   5 -10   6    3.00    2.47
   5 -10   7    8.87    4.81
   5  10   7    6.85    4.67
  -5  10   7   10.75    4.20
   5  10   7    1.58    1.45
   5  10   8    1.69    3.46
   5  10   8    5.40    3.34
  -5  10   8    1.37    2.43
   5 -10   8    5.99    4.77
   5  10   9    3.33    2.77
  -5  10   9   -4.18    3.03
   5  10   9    2.72    3.69
  -5  10  10   10.39    4.58
   5  10  10   21.72    5.70
   5  10  10   12.50    5.08
   5  10  11   -0.45    3.52
   5  10  11    2.69    2.80
  -5  10  11   -1.18    3.47
  -5  10  12    2.95    2.77
   5  10  12    6.12    3.38
   5  10  12    7.16    3.76
   5  10  13    0.17    1.25
   5  10  13    3.03    2.96
  -5  10  13   -4.53    3.29
   5  10  14   -0.74    1.40
   5  10  14   -3.82    5.29
  -5  10  14   -1.44    3.55
   5  11  -7   -2.04    2.36
  -5  11  -7   -3.13    2.87
   5 -11  -7   -3.12    4.12
   5  11  -6   12.84    5.68
  -5  11  -6    7.19    4.41
   5 -11  -6    9.49    4.22
   5  11  -5   19.89    6.29
  -5  11  -5   20.86    6.64
   5 -11  -5   20.86    6.31
   5  11  -4    3.08    1.80
  -5  11  -4    2.48    3.06
   5 -11  -4    5.31    3.56
   5  11  -3    3.14    2.21
  -5  11  -3    6.10    3.51
   5 -11  -3   -1.30    2.36
   5  11  -2    9.43    4.79
  -5  11  -2    7.20    5.01
   5 -11  -2    6.12    3.04
   5  11  -1    0.41    2.50
  -5  11  -1    1.02    3.35
   5 -11  -1    2.55    3.59
   5  11   0   27.98    7.43
  -5  11   0   18.41    5.58
   5  11   0   15.14    5.25
   5 -11   0   14.47    5.38
   5  11   1    7.07    4.24
  -5  11   1    5.32    3.27
   5 -11   1   -2.01    3.23
   5  11   1   -0.64    2.33
  -5  11   2    3.89    2.56
   5  11   2    2.37    1.26
   5 -11   2    5.68    5.09
   5  11   2    2.70    1.78
   5  11   3    6.55    3.88
  -5  11   3    2.80    3.56
   5 -11   3   -0.39    1.76
   5  11   3   -0.25    3.81
   5  11   4    1.51    2.64
  -5  11   4    1.28    1.93
   5 -11   4    1.26    4.31
   5  11   4   -0.86    2.94
   5  11   5   28.05    7.15
  -5  11   5   18.82    5.76
   5  11   5   13.80    5.21
   5 -11   5   14.74    6.15
   5  11   6   -0.85    2.79
  -5  11   6    1.68    3.24
   5 -11   6   -3.26    3.22
   5  11   6    6.31    4.13
   5  11   7    8.28    4.00
  -5  11   7    7.84    5.38
   5  11   7    2.66    2.14
   5 -11   7   -2.40    2.55
   6   0 -29    0.51    2.94
   6   0 -28  173.70   16.77
   6   0 -27   42.40    8.13
   6   0 -26   14.09    5.76
   6   0 -25   45.72    8.44
   6   0 -24  147.47   14.71
   6   0 -23    6.98    3.93
   6   0 -22  172.95   14.89
   6   0 -21   34.48    6.69
   6   0 -20    3.72    2.45
   6   0 -19   27.63    5.82
   6   0 -18   22.95    4.85
   6   0 -17  164.97   12.77
   6   0 -16 1611.08   40.58
   6   0 -15  354.85   18.41
   6   0 -14  942.52   29.37
   6   0 -14 1000.25   22.56
   6   0 -13  178.02   12.31
   6   0 -13  178.26    9.72
   6   0 -12  140.18   10.73
   6   0 -12  123.06    7.95
   6   0 -11  142.68   10.78
   6   0 -11  146.54    8.43
   6   0 -10  702.18   23.20
   6   0 -10  657.35   18.30
   6   0  -9  504.98   15.78
   6   0  -9  473.40   18.77
   6   0  -8  178.01    9.34
   6   0  -8  176.29   11.01
   6   0  -8  183.34   11.38
   6   0  -7  155.50    8.64
   6   0  -7  169.59   10.73
   6   0  -7  149.35    9.99
   6   0  -6  664.87   18.11
   6   0  -6  672.59   20.74
   6   0  -6  682.62   20.92
   6   0  -5 1879.11   34.98
   6   0  -5 1953.01   31.03
   6   0  -5 1833.10   33.95
   6   0  -4 1086.78   23.31
   6   0  -4 1125.13   26.58
   6   0  -4 1066.04   25.41
   6   0  -3 1025.08   22.62
   6   0  -3 1064.37   24.86
   6   0  -3 1085.00   25.75
   6   0  -2 5053.05   51.18
   6   0  -2 5152.22   55.04
   6   0  -1 1883.47   31.41
   6   0  -1 1835.69   32.95
   6   0  -1 1882.20   31.93
   6   0   0  671.02   18.86
   6   0   0  640.12   18.50
   6   0   1 1804.64   31.38
   6   0   1 1757.24   30.07
   6   0   2 5025.01   50.39
   6   0   2 5117.16   54.49
   6   0   3 1072.97   25.07
   6   0   3 1003.17   22.06
   6   0   4 1096.14   25.90
   6   0   4 1115.08   22.97
   6   0   5 1947.84   35.01
   6   0   5 1903.58   29.81
   6   0   6  669.99   20.74
   6   0   6  649.58   16.92
   6   0   7  148.69    9.94
   6   0   7  138.01    7.75
   6   0   8  177.46   11.19
   6   0   8  157.06    8.12
   6   0   9  469.92   13.70
   6   0   9  479.74   18.66
   6   0  10  733.20   23.53
   6   0  11  146.10    7.23
   6   0  11  167.32   11.43
   6   0  12  120.51    6.34
   6   0  12  124.48    9.99
   6   0  13  168.45    6.99
   6   0  13  186.04   12.36
   6   0  14  929.66   28.68
   6   0  15  409.86   19.43
   6   0  16 1640.96   40.05
   6   0  17  165.30   12.68
   6   0  18   21.08    4.94
   6   0  19   21.04    4.74
   6   0  20    0.99    2.08
   6   0  21   42.02    7.36
   6   0  22  127.97   12.77
   6  -1 -29   -0.95    2.20
   6  -1 -28    2.27    3.29
   6  -1 -27    4.03    2.21
   6  -1 -26   29.88    6.59
   6   1 -25    8.11    4.22
   6  -1 -25   23.30    5.67
   6  -1 -24    4.65    2.49
   6   1 -24   10.39    4.50
   6   1 -23   23.43    5.66
   6  -1 -23   33.84    6.85
   6   1 -22   10.71    3.98
   6  -1 -22    6.17    2.27
   6   1 -21   42.86    7.16
   6  -1 -21   39.23    6.82
   6   1 -20  120.71   11.75
   6  -1 -20  103.73   11.08
   6   1 -19   34.74    6.66
   6  -1 -19   43.76    7.11
   6  -1 -18   20.09    5.37
   6   1 -18   14.24    3.85
   6   1 -17   18.16    4.77
   6  -1 -17   26.73    5.26
   6   1 -16   33.06    5.43
   6  -1 -16   26.07    5.72
   6   1 -15  124.25   10.40
   6  -1 -15  109.50   10.76
   6  -1 -15  105.43    8.54
   6   1 -14  336.29   16.92
   6  -1 -14  302.58   16.96
   6  -1 -14  330.12   15.09
   6   1 -13   37.75    5.61
   6  -1 -13   44.28    6.27
   6  -1 -13   38.39    5.06
   6   1 -13   35.02    5.58
   6  -1 -12   88.25    9.07
   6   1 -12   84.85    7.86
   6  -1 -12   75.62    7.20
   6   1 -12   75.37    7.52
   6   1 -11   81.63    7.72
   6  -1 -11   87.06    8.29
   6   1 -11   87.48    8.23
   6  -1 -11   86.49    7.52
   6   1 -11   93.28    5.91
   6  -1 -10    6.47    1.83
   6  -1 -10    5.52    3.66
   6   1 -10    6.42    1.65
   6   1 -10    5.41    2.34
   6   1 -10    4.70    2.14
   6   1  -9   49.83    4.36
   6  -1  -9   50.75    5.65
   6   1  -9   44.63    5.45
   6  -1  -9   56.84    6.71
   6   1  -9   54.44    6.05
   6  -1  -8   52.94    5.67
   6   1  -8   41.28    4.11
   6  -1  -8   32.66    5.02
   6   1  -8   47.91    5.62
   6   1  -8   44.29    5.69
   6  -1  -7  348.89   14.49
   6  -1  -7  323.57   15.69
   6   1  -7  336.74   11.94
   6   1  -7  326.51   13.86
   6   1  -7  348.07   15.52
   6  -1  -6  506.95   17.33
   6   1  -6  522.97   15.01
   6   1  -6  474.78   16.70
   6  -1  -6  492.23   18.70
   6   1  -6  517.15   18.33
   6  -1  -5  707.40   20.26
   6  -1  -5  697.35   22.23
   6   1  -5  712.91   21.39
   6   1  -5  688.12   17.67
   6   1  -5  687.27   19.66
   6  -1  -4  133.03    8.67
   6  -1  -4  129.73    9.59
   6   1  -4  131.63    8.61
   6   1  -4  127.28    7.61
   6   1  -4  143.05    9.57
   6   1  -3  101.03    6.91
   6  -1  -3   98.48    7.39
   6  -1  -3  112.25    8.74
   6   1  -3  101.07    7.54
   6   1  -3  111.77    8.42
   6   1  -2    3.13    1.60
   6   1  -2    3.16    1.35
   6  -1  -2    2.19    0.69
   6  -1  -2    1.96    1.50
   6   1  -2    1.62    1.40
   6   1  -1   10.70    2.70
   6   1  -1   17.10    2.91
   6  -1  -1   12.05    2.70
   6   1   0    6.41    2.51
   6   1   0    3.98    1.37
   6  -1   0    2.62    1.46
   6  -1   0    4.97    1.94
   6   1   1   16.57    3.15
   6   1   1   16.83    3.23
   6  -1   1   15.98    3.20
   6   1   2    4.34    1.72
   6   1   2   -0.35    0.68
   6  -1   2    3.06    0.98
   6   1   3  103.13    7.92
   6  -1   3   94.20    7.76
   6   1   3   82.79    6.95
   6  -1   4  133.06    9.23
   6   1   4  115.10    8.48
   6   1   4  142.99    8.69
   6   1   5  696.78   21.35
   6  -1   5  704.83   21.26
   6   1   5  714.82   19.24
   6  -1   6  530.50   18.66
   6   1   6  526.75   16.31
   6   1   7  329.42   14.99
   6  -1   7  328.41   14.88
   6   1   7  346.06   13.13
   6  -1   8   37.21    5.17
   6   1   8   40.78    5.49
   6   1   8   40.95    4.51
   6   1   9   61.75    6.78
   6   1   9   60.09    5.43
   6  -1   9   54.65    6.41
   6  -1  10    5.16    1.84
   6   1  10    5.07    2.58
   6   1  10    4.94    1.48
   6   1  11   91.41    8.55
   6  -1  11   87.75    8.32
   6   1  11   78.34    6.05
   6   1  12   78.25    8.22
   6  -1  12   94.28    8.52
   6   1  12   92.23    6.59
   6   1  13   32.32    5.58
   6  -1  13   41.98    6.08
   6   1  13   30.26    3.64
   6   1  14  301.67   16.48
   6  -1  14  302.87   16.05
   6   1  14  331.16   12.19
   6   1  15   92.72    9.38
   6  -1  15  119.44   10.40
   6   1  15  105.16    6.82
   6   1  16   22.21    4.92
   6  -1  16   35.42    5.71
   6  -1  17   18.08    4.43
   6   1  17   16.79    4.64
   6  -1  18   18.01    4.47
   6   1  18   15.91    3.45
   6   1  19   46.22    7.28
   6  -1  19   39.08    6.39
   6   1  20   89.24   10.36
   6  -1  20  106.77   11.18
   6  -1  21   34.99    5.94
   6   1  21   27.26    5.77
   6   1  22   11.69    4.14
   6   1  23   38.45    7.19
   6   1  24    6.59    3.59
   6  -2 -29    7.15    3.27
   6  -2 -28   43.66    8.26
   6  -2 -27    0.70    1.16
   6  -2 -26   13.47    5.31
   6  -2 -25    9.25    3.48
   6  -2 -24   56.56    9.04
   6  -2 -23    1.28    1.90
   6  -2 -22    6.82    2.89
   6  -2 -21    4.58    2.73
   6  -2 -20   25.21    5.87
   6   2 -20   26.15    5.77
   6   2 -19    4.95    3.12
   6  -2 -19    1.17    1.82
   6   2 -18   27.77    5.25
   6  -2 -18   25.38    5.92
   6   2 -17    0.21    1.03
   6  -2 -17    1.27    2.57
   6   2 -17    0.58    1.35
   6   2 -16  226.78   14.03
   6  -2 -16  231.78   16.17
   6  -2 -16  211.91   13.99
   6   2 -16  218.92   14.45
   6   2 -15  133.27   10.53
   6  -2 -15  152.56   12.70
   6   2 -15  138.41   11.15
   6  -2 -15  156.23   11.67
   6  -2 -14  605.14   24.71
   6  -2 -14  530.00   21.41
   6   2 -14  542.27   20.41
   6   2 -14  591.37   22.44
   6   2 -13   37.95    5.35
   6  -2 -13   36.60    6.08
   6  -2 -13   35.45    5.62
   6   2 -13   43.93    6.25
   6  -2 -12   97.63    9.50
   6  -2 -12   89.49    8.45
   6   2 -12   83.32    8.19
   6  -2 -11   77.15    8.48
   6  -2 -11   86.01    8.15
   6   2 -11   70.87    6.74
   6   2 -11   87.38    8.34
   6   2 -10   53.72    5.87
   6   2 -10   53.90    4.05
   6  -2 -10   69.88    7.82
   6  -2 -10   45.14    5.98
   6   2 -10   73.33    7.57
   6  -2  -9    4.70    1.85
   6   2  -9    4.25    1.76
   6   2  -9    3.41    1.18
   6   2  -9    4.47    1.75
   6  -2  -9    2.87    1.80
   6   2  -8   16.82    3.89
   6  -2  -8    9.42    2.45
   6   2  -8   18.99    2.66
   6   2  -8   18.86    3.35
   6  -2  -8   16.02    3.90
   6   2  -7   13.57    2.27
   6   2  -7   18.06    3.71
   6  -2  -7   15.12    3.28
   6  -2  -7   14.89    3.78
   6   2  -7   11.59    2.48
   6  -2  -6  227.13   12.59
   6  -2  -6  247.18   14.09
   6   2  -6  229.73   10.55
   6   2  -6  233.49    9.98
   6  -2  -5   77.39    7.40
   6   2  -5   58.94    5.38
   6   2  -5   80.12    6.00
   6  -2  -5   71.56    7.63
   6   2  -5   80.63    7.62
   6   2  -4    6.66    2.32
   6  -2  -4    2.46    1.71
   6   2  -4    2.90    0.95
   6  -2  -4    6.71    2.46
   6   2  -4    6.36    1.76
   6   2  -3   49.92    4.96
   6  -2  -3   45.70    5.68
   6   2  -3   53.39    6.11
   6  -2  -3   50.97    6.06
   6   2  -3   46.02    4.69
   6   2  -2  444.16   15.10
   6  -2  -2  413.52   16.64
   6   2  -2  453.08   14.81
   6  -2  -2  415.09   17.41
   6   2  -2  425.84   16.72
   6   2  -1   89.13    6.88
   6  -2  -1   78.96    7.22
   6   2  -1   77.03    6.99
   6  -2  -1   78.34    7.46
   6   2   0    2.99    1.30
   6  -2   0    1.09    1.61
   6  -2   0    3.11    1.25
   6   2   0    2.97    1.08
   6   2   1   73.89    6.89
   6   2   1   81.06    6.90
   6  -2   1   80.79    7.48
   6  -2   1   75.74    7.12
   6   2   2  424.98   16.28
   6  -2   2  418.53   16.85
   6   2   2  431.02   16.37
   6  -2   2  438.09   17.62
   6   2   3   50.16    5.65
   6  -2   3   51.96    5.87
   6   2   3   48.68    5.59
   6   2   4    5.63    2.21
   6   2   4    3.65    1.80
   6  -2   4    5.29    2.28
   6   2   5   71.57    6.67
   6  -2   5   68.53    6.99
   6   2   5   64.23    6.67
   6   2   6  219.84   11.70
   6   2   6  219.59   12.66
   6   2   7   16.40    3.93
   6   2   7   17.57    3.29
   6  -2   7   18.19    3.44
   6   2   8   14.13    3.78
   6   2   8   16.46    3.49
   6  -2   8   17.99    3.83
   6   2   9    1.00    1.62
   6   2   9    2.09    1.01
   6  -2   9    2.77    1.42
   6   2  10   70.90    6.47
   6   2  10   49.50    6.58
   6  -2  10   60.65    6.88
   6   2  11   78.88    6.94
   6   2  11   75.56    8.18
   6  -2  11   79.32    7.89
   6   2  12   88.05    7.49
   6   2  12   96.72    9.46
   6  -2  12  110.57    9.32
   6   2  13   44.75    5.38
   6   2  13   42.86    6.18
   6  -2  13   43.43    6.05
   6   2  14  521.34   18.25
   6   2  14  549.33   23.23
   6  -2  14  571.22   22.50
   6   2  15  150.28    9.77
   6   2  15  146.87   12.29
   6  -2  15  156.80   11.94
   6  -2  16  215.31   14.23
   6   2  16  234.12   15.89
   6  -2  17    3.37    2.24
   6   2  17    1.51    2.28
   6  -2  18   25.47    5.22
   6   2  18   25.47    4.95
   6   2  19    5.71    2.62
   6  -2  19    3.85    1.55
   6  -2  20   27.10    4.98
   6   2  20   37.54    6.45
   6   2  21   10.03    3.85
   6   2  22   11.65    4.35
   6   2  23    2.91    3.16
   6   2  24   66.79    9.71
   6   2  25    1.95    2.12
   6  -3 -28   -0.85    3.53
   6  -3 -27    7.12    3.44
   6  -3 -26   22.57    6.36
   6  -3 -25   33.61    7.02
   6  -3 -24    2.28    1.97
   6  -3 -23    3.72    3.20
   6  -3 -22    2.08    1.78
   6  -3 -21    8.07    3.28
   6  -3 -20   33.73    6.92
   6  -3 -19  126.18   12.62
   6  -3 -19   -0.28    0.74
   6  -3 -18   48.70    8.17
   6  -3 -18   45.00    7.15
   6  -3 -17  143.21   13.38
   6  -3 -17  137.53   12.26
   6   3 -17  143.14   12.12
   6  -3 -16   57.56    8.25
   6  -3 -16   38.23    6.63
   6   3 -16   57.94    7.50
   6  -3 -15   29.41    5.57
   6  -3 -15   30.15    5.60
   6   3 -15   33.66    5.54
   6   3 -14  166.67   10.78
   6  -3 -14  161.19   13.35
   6  -3 -14  188.35   13.64
   6   3 -14  205.87   13.88
   6  -3 -13   58.59    7.34
   6   3 -13   69.56    7.76
   6  -3 -13   60.30    8.04
   6   3 -13   57.27    5.88
   6   3 -12   74.92    8.10
   6   3 -12   80.90    6.88
   6  -3 -12   77.57    9.08
   6  -3 -12   79.64    8.58
   6   3 -11  164.08    9.50
  -6   3 -11  163.81    8.72
   6  -3 -11  138.63   11.91
   6  -3 -11  161.71   12.04
   6   3 -11  165.85   12.20
   6   3 -10   17.18    4.37
   6   3 -10   20.75    3.25
   6  -3 -10   31.89    5.45
   6  -3 -10   28.51    5.13
   6   3 -10   25.38    3.09
   6  -3  -9   65.18    8.21
   6   3  -9   55.95    4.61
   6  -3  -9   66.48    7.87
   6   3  -9   58.35    6.91
   6   3  -8   63.60    5.19
   6  -3  -8   61.47    7.49
   6  -3  -8   59.51    7.03
   6   3  -8   59.14    5.33
   6   3  -8   74.61    7.99
   6   3  -7  353.72   16.81
   6   3  -7  360.57   12.86
   6   3  -7  371.48   12.58
   6  -3  -7  332.05   16.78
   6   3  -6  321.59   16.00
   6   3  -6  318.76   11.47
   6   3  -6  354.76   12.88
   6  -3  -6  332.82   17.17
   6  -3  -6  343.78   16.74
   6   3  -5  464.71   18.88
   6   3  -5  452.50   15.07
   6  -3  -5  421.87   19.09
   6   3  -5  447.83   13.49
   6  -3  -5  438.13   18.91
   6   3  -4  308.95   15.47
   6  -3  -4  300.90   15.78
   6   3  -4  288.91   12.57
   6   3  -4  301.50   11.17
   6  -3  -4  293.77   15.47
   6  -3  -3  708.58   23.64
   6   3  -3  660.19   22.42
   6   3  -3  708.51   19.92
   6   3  -3  693.17   17.08
   6  -3  -3  729.26   24.48
   6  -3  -2  101.77    9.09
   6   3  -2   81.67    8.00
   6  -3  -2  106.90    9.26
   6   3  -2   93.62    7.45
   6   3  -1   91.90    8.09
   6  -3  -1   79.43    7.71
   6   3  -1   82.78    7.32
   6  -3  -1   73.98    7.73
   6   3   0   41.77    5.67
   6  -3   0   38.97    5.62
   6   3   0   50.99    5.64
   6  -3   0   47.73    6.16
   6   3   1   80.95    7.66
   6  -3   1   83.02    8.02
   6   3   1   80.14    7.44
   6  -3   1   71.26    7.24
   6   3   2  100.16    8.38
   6  -3   2   86.63    8.10
   6  -3   2   84.11    7.97
   6   3   2   81.82    7.49
   6   3   3  685.67   22.40
   6  -3   3  697.42   23.31
   6  -3   3  669.23   22.74
   6   3   3  694.94   22.36
   6   3   4  281.77   14.28
   6  -3   4  296.81   15.13
   6  -3   4  299.72   15.09
   6   3   5  430.42   17.68
   6   3   5  436.81   18.21
   6  -3   5  419.30   18.11
   6   3   6  336.43   15.73
   6  -3   6  346.33   16.51
   6   3   6  342.80   16.58
   6   3   7  330.00   15.53
   6   3   7  331.53   16.70
   6  -3   7  342.31   16.59
   6   3   8   62.33    7.08
   6   3   8   68.32    7.24
   6  -3   8   58.39    7.00
   6   3   9   69.21    7.19
   6  -3   9   64.64    7.19
   6   3  10   25.68    4.32
   6  -3  10   27.89    4.81
   6   3  10   18.34    3.24
   6   3  11  172.22   11.59
   6  -3  11  154.10   11.44
   6   3  11  155.34   11.78
   6   3  12   63.29    7.01
   6  -3  12   69.70    7.87
   6   3  12   81.82    8.85
   6   3  13   61.85    6.99
   6  -3  13   62.22    7.29
   6   3  13   74.97    8.54
   6   3  14  186.88   12.20
   6  -3  14  185.52   13.26
   6   3  14  178.34   13.55
   6   3  15   24.58    5.52
   6   3  15   31.12    4.91
   6  -3  15   26.85    4.89
   6   3  16   46.60    6.20
   6  -3  16   39.45    6.25
   6   3  16   48.66    7.63
   6  -3  17  126.91   11.46
   6   3  17  115.18   11.78
   6  -3  18   53.03    7.82
   6   3  18   47.72    7.68
   6  -3  19  121.46   11.40
   6   3  19  110.30   12.20
   6   3  20   33.41    7.09
   6   3  21   10.28    3.47
   6   3  22    4.22    3.26
   6   3  23    6.03    3.44
   6   3  24    9.73    3.80
   6   3  25   36.43    7.46
   6   3  26   13.34    5.30
   6  -4 -27    3.99    4.40
   6  -4 -26   10.70    4.01
   6  -4 -25    5.71    2.54
   6  -4 -24   53.84    9.94
   6  -4 -23   23.25    6.23
   6  -4 -22   33.83    6.99
   6  -4 -21   29.44    6.23
   6  -4 -20   10.53    4.17
   6  -4 -20   27.49    7.18
   6  -4 -19   -2.98    2.82
   6  -4 -19    3.61    4.01
   6  -4 -18  213.01   16.34
   6  -4 -18  233.15   17.03
   6  -4 -17   61.18    8.59
   6  -4 -17   71.05    9.38
   6   4 -17   42.58    7.02
   6  -4 -16   38.91    7.13
   6  -4 -16   41.30    7.27
   6   4 -16   45.81    6.85
   6  -4 -15   42.07    7.49
   6  -4 -15   30.74    6.10
   6   4 -15   44.51    6.81
   6   4 -14    8.36    3.23
   6  -4 -14    8.06    3.20
   6  -4 -14   12.00    4.24
   6  -4 -13   69.59    8.66
   6  -4 -13   87.13   10.06
   6   4 -13   80.80    8.97
   6   4 -12  376.20   19.27
   6  -4 -12  410.49   21.15
   6  -4 -12  364.49   19.86
  -6   4 -11  147.93    9.95
   6  -4 -11  152.10   12.73
   6  -4 -11  146.09   12.14
   6   4 -11  125.15   11.01
   6   4 -10   20.94    5.30
  -6   4 -10   31.97    4.57
   6  -4 -10   33.38    6.15
   6  -4 -10   31.67    5.84
   6   4  -9   94.38    9.22
   6   4  -9  112.77    7.35
  -6   4  -9  104.73    8.49
   6  -4  -9  104.14   10.32
   6  -4  -9  117.69   10.93
   6  -4  -8  436.42   20.96
   6   4  -8  466.29   20.85
   6  -4  -8  478.89   21.70
   6   4  -8  468.42   15.35
   6   4  -7   24.85    4.74
   6   4  -7   38.49    4.62
   6  -4  -7   31.23    5.08
   6  -4  -7   32.54    5.70
   6   4  -6   76.55    8.12
   6   4  -6   64.06    6.25
   6   4  -6   72.74    4.62
   6  -4  -6   80.83    9.19
   6  -4  -6   72.45    8.32
   6   4  -5  519.54   21.53
   6  -4  -5  531.85   22.48
   6   4  -5  497.31   17.79
   6   4  -5  506.63   12.23
   6  -4  -5  519.83   21.86
   6  -4  -4    1.88    1.15
   6   4  -4    2.93    1.37
   6   4  -4    3.63    1.25
   6  -4  -4   -1.35    0.83
   6   4  -4    1.04    2.02
   6   4  -3  184.32   12.66
   6   4  -3  201.62    8.67
   6  -4  -3  187.24   13.23
   6   4  -3  208.13   11.73
   6  -4  -3  196.69   13.22
   6   4  -2  108.40    9.50
   6  -4  -2  121.97   10.44
   6   4  -2   95.44    8.26
   6  -4  -2  105.77    9.96
   6   4  -1   73.21    7.59
   6  -4  -1   67.75    7.60
   6   4  -1   86.42    7.72
   6  -4  -1   79.37    8.42
   6  -4   0  133.75   11.08
   6   4   0  143.69   10.89
   6  -4   0  140.47   10.91
   6   4   0  156.08   10.82
   6   4   1   83.83    8.58
   6  -4   1   88.48    8.65
   6   4   1   89.11    8.21
   6  -4   1   74.82    8.06
   6   4   2  100.57    8.78
   6  -4   2  114.99    9.95
   6   4   2  112.37    9.97
   6  -4   2  106.19    9.67
   6  -4   3  188.21   12.96
   6   4   3  198.34   13.00
   6   4   3  201.44   12.64
   6  -4   3  219.89   13.63
   6  -4   4    2.11    0.76
   6   4   4    1.14    2.61
   6  -4   4    1.56    1.16
   6   4   4    1.86    1.53
   6  -4   5  490.36   20.75
   6   4   5  510.49   21.24
   6  -4   5  494.13   20.55
   6  -4   6   69.58    7.79
   6   4   6   66.55    7.71
   6  -4   6   78.62    8.29
   6   4   6   70.53    8.10
   6  -4   7   27.13    5.15
   6   4   7   33.39    5.48
   6   4   7   18.79    3.63
   6  -4   8  460.98   20.44
   6   4   8  469.87   20.40
   6   4   8  495.53   21.75
   6   4   9  116.67   10.44
   6   4   9  109.95    9.69
   6  -4   9  114.92   10.12
   6   4  10   36.70    6.00
   6  -4  10   28.62    4.98
   6   4  10   31.94    5.78
   6   4  11  139.30   11.20
   6   4  11  155.04   12.36
   6  -4  11  137.63   11.16
   6   4  12  365.26   18.64
   6  -4  12  332.00   18.14
   6   4  12  360.57   19.82
   6   4  13   78.43    8.66
   6  -4  13   68.23    8.18
   6   4  13   77.01    9.28
   6   4  14   11.47    3.27
   6  -4  14    6.97    2.34
   6   4  14   14.34    4.93
   6   4  15   37.30    6.06
   6  -4  15   40.28    6.87
   6   4  15   32.72    5.74
   6   4  16   30.09    5.43
   6  -4  16   28.84    5.35
   6   4  16   40.21    7.35
   6   4  17   57.36    8.00
   6  -4  17   60.52    8.10
   6   4  17   61.35    8.71
   6   4  18  201.10   16.22
   6   4  19    2.32    2.93
   6   4  20   20.72    5.51
   6   4  21   38.78    7.19
   6   4  22   27.55    6.68
   6   4  23   15.74    5.66
   6   4  24   59.14    9.88
   6   4  25   11.53    3.89
   6   4  26    2.18    3.23
   6   4  27    3.10    2.58
   6  -5 -26   12.79    4.81
   6  -5 -25   15.96    5.64
   6  -5 -24    0.39    2.48
   6  -5 -23   -0.55    1.86
   6  -5 -22   18.31    5.56
   6  -5 -21    9.83    3.39
   6  -5 -21   21.50    6.61
   6  -5 -20    4.45    3.49
   6  -5 -20   -1.33    1.99
   6  -5 -19   -0.09    3.53
   6  -5 -19    9.33    3.09
   6  -5 -18   13.92    4.90
   6  -5 -18    7.79    3.99
   6  -5 -17   23.46    6.09
   6  -5 -17   21.28    5.55
   6   5 -16    8.91    2.60
   6  -5 -16    7.20    3.04
   6  -5 -16   11.82    4.18
   6   5 -15   10.06    3.58
   6  -5 -15   15.39    5.02
   6  -5 -15   13.16    4.72
   6   5 -14   17.71    5.31
   6  -5 -14   19.66    5.36
   6  -5 -14   20.46    5.77
   6  -5 -13   72.50    9.42
   6  -5 -13   55.44    8.59
   6   5 -13   65.28    8.56
   6   5 -12    7.22    2.77
   6  -5 -12    5.39    2.72
   6  -5 -12    3.25    1.02
   6   5 -11    6.80    2.43
   6  -5 -11    2.34    3.37
   6  -5 -11    3.46    2.13
   6   5 -10   17.29    4.04
  -6   5 -10   13.08    3.18
   6  -5 -10    9.53    3.13
   6  -5 -10   10.43    4.23
   6   5  -9   33.83    6.24
  -6   5  -9   32.94    5.13
   6  -5  -9   30.97    5.79
   6  -5  -9   31.98    6.06
   6  -5  -8   21.52    5.04
   6   5  -8   27.54    4.93
  -6   5  -8   15.03    4.29
   6   5  -8   25.49    4.18
   6  -5  -8   33.30    6.20
   6  -5  -7   23.58    5.27
   6   5  -7   20.61    4.15
   6   5  -7   15.82    3.19
   6  -5  -7   12.74    3.90
  -6   5  -7   20.37    4.09
   6  -5  -6    5.25    1.70
   6   5  -6   16.64    4.04
   6   5  -6   12.45    2.90
  -6   5  -6   11.09    3.23
   6  -5  -6   10.29    3.54
   6   5  -5   26.23    5.95
   6  -5  -5   35.87    6.19
   6   5  -5   45.30    5.70
   6  -5  -5   44.13    7.03
   6  -5  -4   87.71    9.64
   6   5  -4   71.60    8.30
   6   5  -4   82.83    8.08
   6  -5  -4   74.40    8.86
   6   5  -3   87.80    9.11
   6  -5  -3   76.19    8.94
   6  -5  -3   77.12    8.74
   6   5  -3   89.15    8.37
   6   5  -2   74.47    8.39
   6  -5  -2   58.54    7.68
   6  -5  -2   64.82    7.52
   6   5  -2   63.97    7.18
   6   5  -1   18.40    3.66
   6   5  -1   25.47    5.42
   6  -5  -1   20.17    4.13
   6  -5  -1   23.94    5.38
   6  -5   0   17.86    4.05
   6   5   0   18.12    3.77
   6   5   0   19.69    4.56
   6  -5   0   20.61    4.02
   6  -5   1   20.81    4.86
   6   5   1   21.20    5.09
   6   5   1   22.61    4.45
   6  -5   1   23.75    4.89
   6   5   2   59.65    7.49
   6   5   2   56.77    7.71
   6  -5   2   64.59    7.80
   6  -5   2   60.92    7.98
   6   5   3   73.00    8.16
   6   5   3   86.30    9.22
   6  -5   3   80.43    8.77
   6  -5   3   69.97    8.10
   6   5   4   82.01    8.81
   6   5   4   75.62    8.56
   6  -5   4   86.81    9.19
   6  -5   4   75.11    8.57
   6  -5   5   38.56    5.94
   6  -5   5   35.79    6.13
   6   5   5   34.28    5.73
   6   5   5   33.44    5.54
   6  -5   6    6.10    2.32
   6   5   6    7.60    1.87
   6   5   6    8.80    2.91
   6  -5   6    9.23    3.62
   6  -5   7   12.71    3.84
   6   5   7    9.84    3.46
   6   5   7   23.98    5.07
   6  -5   7   13.28    3.76
   6  -5   8   20.50    4.46
   6   5   8   28.77    5.14
   6   5   8   30.77    5.66
   6  -5   8   18.75    4.69
   6   5   9   27.38    5.03
   6   5   9   26.65    5.20
   6  -5   9   22.40    5.42
   6  -5   9   32.44    5.19
   6   5  10    7.10    3.14
   6  -5  10    4.95    1.71
   6   5  10    9.61    3.09
   6   5  11    3.85    3.16
   6   5  11    3.04    2.23
   6  -5  11    1.63    1.15
   6   5  12    6.24    3.52
   6   5  12   12.22    3.79
   6  -5  12    7.22    3.11
   6  -5  13   66.17    8.56
   6   5  13   56.60    7.49
   6   5  13   78.22    9.61
   6   5  14   12.06    3.20
   6  -5  14   19.47    5.27
   6   5  14   16.11    4.70
   6   5  15   10.26    3.68
   6  -5  15   16.01    5.31
   6   5  15   13.28    5.12
   6   5  16    4.95    1.73
   6  -5  16   13.48    4.82
   6   5  16   11.41    4.25
   6   5  17   30.15    6.06
   6   5  17   22.80    5.71
   6   5  18   12.95    4.50
   6   5  18    8.46    3.39
   6   5  19    6.74    4.05
   6   5  20    2.13    2.22
   6   5  21   12.64    4.14
   6   5  22   13.47    3.85
   6   5  23   -0.61    2.33
  -6   5  23   -1.38    2.06
   6   5  24   -1.53    2.38
   6   5  25   16.68    6.24
   6   5  26    2.88    2.76
   6  -6 -25   14.07    4.83
   6  -6 -24   46.06    9.02
   6  -6 -23   -1.38    3.46
   6  -6 -22  102.47   12.34
   6  -6 -21   21.48    5.92
   6  -6 -21   24.49    5.55
   6  -6 -20   -2.39    1.98
   6  -6 -20   10.36    5.15
   6  -6 -19   26.34    6.16
   6  -6 -19   29.15    7.04
   6  -6 -18  187.20   16.13
   6  -6 -18  160.22   15.90
   6  -6 -17   16.54    4.73
   6  -6 -17   18.93    5.21
   6   6 -16   -0.08    1.89
   6  -6 -16    3.97    2.09
   6  -6 -16    0.05    1.75
   6   6 -15    7.60    2.99
   6  -6 -15   10.59    3.82
   6  -6 -15   11.97    4.43
   6   6 -14    2.87    1.28
   6  -6 -14    5.46    4.11
   6  -6 -14    6.37    3.74
   6   6 -13   14.99    5.22
   6  -6 -13   16.42    4.02
   6  -6 -13   12.78    4.77
   6  -6 -12  132.53   12.84
   6   6 -12  159.64   13.90
   6  -6 -12  136.56   13.30
   6  -6 -11   33.61    6.17
   6   6 -11   31.48    6.33
   6  -6 -11   17.72    4.82
   6   6 -10    0.64    2.48
  -6   6 -10    6.69    4.08
   6  -6 -10    0.77    2.09
   6  -6 -10    2.11    2.10
   6   6  -9   32.51    6.11
  -6   6  -9   35.37    6.43
   6  -6  -9   28.17    5.81
   6  -6  -9   36.46    6.77
   6   6  -8  359.10   20.13
  -6   6  -8  330.08   18.66
   6  -6  -8  393.05   21.48
   6  -6  -8  360.28   20.98
   6   6  -7   67.47    8.81
  -6   6  -7   78.38    9.13
   6  -6  -7   72.62    9.40
   6   6  -7   71.86    8.07
   6  -6  -7   67.16    9.34
   6   6  -6   -0.19    2.62
   6  -6  -6    3.69    2.49
   6   6  -6    0.85    0.80
  -6   6  -6    0.14    2.10
   6  -6  -6   -1.59    1.62
   6   6  -5   49.78    6.62
   6   6  -5   51.92    7.68
  -6   6  -5   51.62    7.48
   6  -6  -5   54.26    8.34
   6  -6  -5   55.66    8.08
   6   6  -4  160.65   13.42
   6   6  -4  165.73   12.25
  -6   6  -4  173.82   13.38
   6  -6  -4  177.26   13.93
   6  -6  -4  153.84   13.42
   6   6  -3   -1.71    2.59
   6   6  -3    4.36    2.68
   6  -6  -3    0.47    1.66
  -6   6  -3    2.97    2.61
   6  -6  -3    5.41    2.63
   6   6  -2  307.20   16.91
   6   6  -2  308.07   18.44
  -6   6  -2  304.11   17.72
   6  -6  -2  318.70   18.88
   6  -6  -2  322.89   18.55
   6   6  -1   76.64    8.65
   6   6  -1   60.28    8.41
   6  -6  -1   72.63    8.78
  -6   6  -1   53.41    7.67
   6  -6  -1   70.14    9.01
   6  -6   0    7.01    3.49
   6   6   0    8.16    3.23
   6   6   0    3.31    2.16
   6  -6   0    0.39    1.06
   6   6   1   70.05    8.38
   6   6   1   72.46    9.00
   6  -6   1   73.31    8.44
   6  -6   1   55.42    8.16
   6   6   2  296.03   18.13
   6   6   2  311.41   17.95
   6  -6   2  305.53   17.77
   6  -6   2  309.95   18.73
   6  -6   3    2.22    1.64
   6   6   3    5.63    2.74
   6   6   3    2.94    1.13
   6  -6   3    3.47    2.61
   6  -6   4  179.46   14.03
   6   6   4  145.20   12.51
   6   6   4  179.91   14.10
   6  -6   4  141.80   12.49
   6  -6   5   37.64    6.41
   6   6   5   50.17    7.33
   6   6   5   50.78    7.42
   6  -6   5   57.54    8.02
   6  -6   6   -0.31    1.50
   6   6   6    0.61    2.69
   6   6   6    0.36    1.01
   6  -6   6    0.09    1.22
   6   6   7   50.27    8.19
   6  -6   7   55.91    7.67
   6  -6   7   52.15    7.75
   6   6   8  379.58   20.89
   6  -6   8  355.58   19.60
   6   6   8  386.78   20.74
   6  -6   8  403.12   21.35
   6   6   9   32.30    6.42
   6  -6   9   32.15    6.27
   6   6   9   45.52    7.48
   6  -6   9   26.42    5.39
   6  -6  10    4.21    3.37
   6   6  10    7.43    3.34
   6   6  10    7.72    3.50
   6  -6  10    3.72    1.97
   6  -6  11   42.33    7.34
   6   6  11   44.85    6.97
   6   6  11   40.07    6.98
   6  -6  11   46.62    7.27
   6   6  12  148.92   13.78
   6  -6  12  116.95   12.08
   6  -6  12  120.59   12.38
   6   6  12  153.30   13.46
   6  -6  13   11.75    3.76
   6   6  13   17.22    4.71
   6   6  13   12.36    4.59
   6  -6  13   16.60    4.68
   6   6  14    3.04    2.70
   6  -6  14    2.04    1.75
   6   6  14    1.00    2.67
   6   6  15   10.83    4.37
   6  -6  15   17.60    4.49
   6   6  15   16.94    3.98
   6   6  16    1.78    3.01
   6   6  16    0.90    1.25
   6   6  17   26.35    5.41
   6   6  17   13.97    4.11
   6   6  18  198.12   16.50
  -6   6  18  145.51   14.24
   6   6  18  186.59   16.11
  -6   6  19   30.05    7.54
   6   6  19   11.48    4.55
  -6   6  20    3.34    4.39
   6   6  20   -3.32    3.52
   6   6  21   20.34    6.59
  -6   6  21   32.28    7.09
  -6   6  22   96.14   12.71
   6   6  22   85.87   11.77
  -6   6  23    9.71    3.90
   6   6  23    4.92    3.94
   6   6  24   39.80    8.44
   6   6  25   23.05    7.09
   6  -7 -23    6.85    3.29
   6  -7 -22    0.15    1.71
   6  -7 -21   43.98    8.45
   6  -7 -21   28.33    6.60
   6  -7 -20   10.89    4.64
   6  -7 -20    6.46    2.85
   6  -7 -19   18.71    5.66
   6  -7 -19   18.50    5.56
   6  -7 -18   37.90    7.77
   6  -7 -18   28.92    6.77
   6  -7 -17    6.86    3.69
   6  -7 -17   10.26    3.83
   6  -7 -16   11.95    4.28
   6  -7 -16   19.78    6.23
   6   7 -15   25.14    5.68
   6  -7 -15   21.17    5.50
   6  -7 -15   22.96    5.40
   6  -7 -14    3.26    1.96
   6   7 -14    8.77    4.78
   6  -7 -14   10.66    4.22
   6   7 -13   46.01    8.36
   6  -7 -13   27.89    6.49
   6  -7 -13   36.07    7.61
   6  -7 -12   14.48    5.31
   6  -7 -12   12.63    5.39
   6   7 -12   15.58    4.61
   6   7 -11    9.17    3.83
   6  -7 -11   14.10    5.10
   6  -7 -11    6.25    3.18
   6  -7 -10   57.35    8.81
   6   7 -10   49.35    8.28
   6  -7 -10   44.76    8.27
   6   7  -9    3.04    1.32
   6  -7  -9    6.85    3.36
   6  -7  -9    8.36    3.94
  -6   7  -9    6.13    2.96
   6   7  -8   68.40    9.48
  -6   7  -8   64.07    8.46
   6  -7  -8   70.92    9.26
   6  -7  -8   75.66    9.74
   6   7  -7   29.02    6.90
  -6   7  -7   15.01    4.68
   6  -7  -7   14.69    5.76
   6  -7  -7   22.72    6.03
   6   7  -6    5.31    1.95
  -6   7  -6    8.36    3.15
   6  -7  -6    9.68    4.23
   6  -7  -6    5.83    3.25
   6   7  -5   28.34    6.48
   6   7  -5   25.92    5.54
   6  -7  -5   17.66    5.31
  -6   7  -5   33.37    6.37
   6  -7  -5   23.84    5.97
   6   7  -4  100.75   10.39
   6   7  -4  110.15   11.48
  -6   7  -4   93.86   10.73
   6  -7  -4   85.52   10.25
   6  -7  -4   95.17   10.77
   6   7  -3   48.55    7.53
   6   7  -3   38.33    6.79
  -6   7  -3   39.32    6.69
   6  -7  -3   46.27    7.02
   6  -7  -3   42.60    7.35
   6   7  -2  107.51   10.92
   6   7  -2  119.45   12.28
  -6   7  -2  128.43   12.47
   6  -7  -2  129.11   12.54
   6  -7  -2  122.02   12.24
  -6   7  -1   18.41    5.52
   6   7  -1   15.31    4.03
   6   7  -1   16.29    4.67
   6  -7  -1   12.56    4.15
   6  -7  -1   16.32    5.23
   6  -7   0    3.01    2.22
   6   7   0    8.53    4.19
   6  -7   0    7.00    4.38
  -6   7   0    4.98    2.98
   6   7   0    4.00    2.36
   6  -7   1   11.91    4.14
   6   7   1    7.83    2.81
   6   7   1   19.57    4.38
  -6   7   1   16.14    4.41
   6  -7   1   14.52    4.92
   6   7   2  141.19   12.60
   6   7   2  118.65   11.55
  -6   7   2  102.87   11.29
   6  -7   2  145.67   12.98
   6  -7   2  137.54   12.82
   6  -7   3   32.88    6.11
   6   7   3   48.57    7.88
   6   7   3   25.59    5.65
   6  -7   3   26.49    5.18
  -6   7   3   34.56    6.51
   6   7   4   99.89   11.09
   6   7   4  110.96   11.28
  -6   7   4   90.45   10.53
   6  -7   4   74.44    9.54
   6  -7   4   73.41    9.02
   6  -7   5   16.81    4.61
   6  -7   5   28.84    6.51
  -6   7   5   22.07    6.10
   6   7   5   18.08    4.78
   6   7   5   17.68    4.81
   6  -7   6    3.40    2.10
   6   7   6    4.30    3.43
   6   7   6    7.69    1.81
  -6   7   6    8.45    3.66
   6  -7   6    4.03    1.13
   6   7   7   14.69    4.88
   6  -7   7   17.08    4.56
  -6   7   7   19.42    4.90
   6  -7   7   17.16    5.46
   6   7   7   11.31    4.29
   6   7   8   67.51    8.84
   6   7   8   69.91    9.55
   6  -7   8   78.50    9.76
   6  -7   8   72.73    9.53
  -6   7   8   57.54    8.46
   6  -7   9   13.92    5.07
  -6   7   9    9.34    2.84
   6   7   9    7.17    3.97
   6   7   9    3.48    2.15
   6  -7   9    0.62    2.97
   6   7  10   35.99    6.57
   6   7  10   40.78    6.95
  -6   7  10   46.73    7.65
   6  -7  10   50.87    8.16
   6   7  11   14.76    4.40
   6   7  11   16.29    4.37
   6  -7  11   19.22    5.49
  -6   7  11    6.92    2.68
   6  -7  12   12.01    4.92
   6   7  12   11.19    3.89
   6   7  12    4.59    2.56
  -6   7  12   13.63    4.47
   6   7  13   44.85    8.16
   6   7  13   48.27    8.10
  -6   7  13   36.55    6.96
   6  -7  13   40.24    7.94
  -6   7  14    8.11    3.74
   6   7  14   10.94    4.35
   6   7  14   12.84    5.29
  -6   7  15   19.84    5.58
   6   7  15   11.45    3.96
   6   7  15   11.17    4.64
   6   7  16   13.63    3.70
   6   7  16   13.62    5.43
  -6   7  16   22.10    5.94
   6   7  17    9.47    4.46
   6   7  17   14.61    5.16
  -6   7  17    6.25    3.22
   6   7  18   50.91    9.20
  -6   7  18   28.29    7.33
   6   7  18   42.91    7.87
   6   7  19    9.37    3.26
  -6   7  19   19.61    5.56
  -6   7  20   11.23    5.40
   6   7  20   15.40    5.56
   6   7  21   18.49    5.37
  -6   7  21   37.21    8.33
   6   7  22    1.65    2.58
  -6   7  22   -2.41    2.75
  -6   7  23    0.26    2.65
   6   7  23    2.91    4.23
   6  -8 -20   15.39    5.30
   6  -8 -20    3.45    3.46
   6  -8 -19   21.00    5.38
   6  -8 -19   15.45    5.56
   6  -8 -18   44.79    8.53
   6  -8 -18   44.18    8.93
   6  -8 -17   13.04    5.09
   6  -8 -17   13.39    4.10
   6  -8 -16   18.01    4.86
   6  -8 -16   14.40    4.53
   6  -8 -15   22.35    5.90
   6  -8 -15   19.48    5.46
   6   8 -14   36.62    8.08
   6  -8 -14   31.46    7.23
   6  -8 -14   35.26    6.78
   6  -8 -13   44.04    8.05
   6   8 -13   55.36    9.04
   6  -8 -13   47.33    8.78
   6   8 -12   39.76    7.34
   6  -8 -12   44.42    7.55
   6  -8 -12   37.87    8.00
   6   8 -11   20.42    5.23
   6  -8 -11   33.90    6.45
   6  -8 -11   27.70    7.25
   6   8 -10   25.96    6.12
   6  -8 -10   24.27    5.75
   6   8  -9   10.76    3.69
  -6   8  -9   23.84    6.78
   6  -8  -9   14.63    5.05
   6  -8  -9   17.10    5.27
   6   8  -8  103.99   11.82
  -6   8  -8  115.97   12.84
   6  -8  -8   91.54   11.27
   6  -8  -8   97.60   11.67
   6   8  -7   50.24    8.33
  -6   8  -7   49.33    8.39
   6  -8  -7   54.28    8.88
   6  -8  -7   34.74    6.77
   6  -8  -6   13.81    4.20
   6   8  -6   10.78    3.63
  -6   8  -6   16.87    4.86
   6  -8  -6   15.55    5.37
   6   8  -5   40.52    7.38
  -6   8  -5   34.19    7.37
   6  -8  -5   49.25    8.08
   6  -8  -5   36.20    7.44
   6   8  -4   58.65    8.97
  -6   8  -4   68.16    9.40
   6   8  -4   42.28    7.15
   6  -8  -4   51.15    8.15
   6  -8  -4   70.81    9.60
   6   8  -3    2.64    1.29
   6   8  -3   -0.28    1.88
  -6   8  -3    6.37    3.60
   6  -8  -3   -0.84    1.48
   6  -8  -3    3.32    3.50
   6   8  -2   60.80    9.11
   6   8  -2   77.32    9.57
  -6   8  -2   86.21   10.44
   6  -8  -2   65.19   10.14
   6  -8  -2   69.04    9.33
   6  -8  -1   11.33    3.66
   6   8  -1   12.38    4.22
  -6   8  -1   15.43    4.54
   6   8  -1   15.08    4.57
   6  -8  -1   22.07    5.53
   6  -8   0    1.80    3.06
   6   8   0    0.56    1.65
  -6   8   0    4.81    3.67
   6   8   0    4.40    2.38
   6  -8   0   -3.17    3.66
   6   8   1   31.98    6.75
  -6   8   1   21.54    5.25
   6  -8   1   17.29    4.63
   6   8   1   26.26    5.53
   6  -8   1   16.99    5.17
   6   8   2   82.52   10.67
   6   8   2   69.35    9.29
  -6   8   2   78.66   10.34
   6  -8   2   80.46   10.43
   6  -8   2   76.90   10.34
   6   8   3    3.35    3.46
  -6   8   3    3.45    3.22
   6  -8   3   -0.14    2.23
   6   8   3    3.25    3.06
   6  -8   3    3.76    3.68
   6   8   4   53.18    8.98
  -6   8   4   56.83    8.92
   6   8   4   40.93    7.00
   6  -8   4   59.17    8.64
   6   8   5   36.29    7.06
   6   8   5   34.98    6.90
  -6   8   5   51.74    8.47
   6  -8   5   24.70    5.97
  -6   8   6   18.69    5.69
   6   8   6    9.01    1.47
   6   8   6   14.11    4.35
   6  -8   6   11.84    4.25
   6  -8   7   35.46    7.03
   6   8   7   42.01    7.70
   6   8   7   30.78    6.66
   6   8   8   96.87   11.34
   6   8   8  113.16   12.33
  -6   8   8  104.17   12.15
   6  -8   8  110.21   12.51
   6  -8   9   16.71    5.60
   6   8   9   25.23    5.87
  -6   8   9   15.90    4.64
   6   8   9   19.20    4.92
   6  -8  10   28.84    7.17
   6   8  10   13.77    5.36
   6   8  10   19.80    5.28
  -6   8  10   26.17    6.97
   6   8  11   32.04    7.09
   6   8  11   27.99    6.06
  -6   8  11   34.01    6.78
   6  -8  11   21.11    5.50
   6  -8  12   39.86    7.95
   6   8  12   59.51    9.21
   6   8  12   54.60    9.04
  -6   8  12   65.15    9.31
   6   8  13   48.29    8.19
  -6   8  13   38.17    7.84
   6   8  13   58.01    9.58
   6   8  14   29.17    6.72
   6   8  14   39.70    7.68
  -6   8  14   42.78    7.77
   6   8  15   23.34    5.63
   6   8  15   36.07    8.07
   6   8  16   19.74    5.59
   6   8  16   18.47    5.92
  -6   8  16    9.74    4.18
   6   8  17   16.25    4.69
   6   8  17   11.74    4.02
  -6   8  17   20.85    5.63
   6   8  18   23.30    6.25
  -6   8  18   30.59    6.76
  -6   8  19   27.84    7.69
   6   8  19   17.68    5.68
   6   8  20    3.03    2.09
  -6   8  20   12.12    5.26
   6  -9 -17   -3.42    2.42
   6  -9 -17    3.99    3.27
   6  -9 -16    2.44    3.40
   6  -9 -16    1.24    1.17
   6  -9 -15   -0.62    2.55
   6  -9 -15    1.06    1.97
   6   9 -14   -3.21    2.72
   6  -9 -14    6.86    2.88
   6  -9 -14    9.18    4.56
   6   9 -13    0.72    2.18
   6  -9 -13    1.91    2.11
   6  -9 -13    1.30    2.20
   6   9 -12   18.48    5.78
   6  -9 -12   16.19    5.59
   6  -9 -12   25.66    6.15
   6   9 -11    3.14    3.71
   6  -9 -11    0.89    1.89
   6  -9 -11    1.57    2.02
   6  -9 -10    9.59    5.70
   6   9 -10    4.18    4.41
   6  -9 -10    3.09    2.36
   6   9  -9   10.21    5.30
   6  -9  -9    4.08    3.20
   6  -9  -9    4.14    2.72
   6  -9  -8    7.45    3.59
   6   9  -8    9.37    3.45
   6  -9  -8    2.00    4.09
   6   9  -7   13.75    4.86
  -6   9  -7    8.31    2.98
   6  -9  -7    2.47    2.56
   6  -9  -7   10.54    3.53
   6   9  -6   15.34    5.71
  -6   9  -6   12.58    4.35
   6  -9  -6   21.06    6.10
   6  -9  -6   21.15    6.32
   6   9  -5   13.11    4.25
   6  -9  -5   15.27    4.10
  -6   9  -5   12.55    3.73
   6  -9  -5   12.47    4.97
   6   9  -4    2.06    3.67
  -6   9  -4    8.20    4.39
   6  -9  -4   -1.33    3.23
   6  -9  -4    3.14    3.82
   6  -9  -3   15.24    4.19
   6   9  -3   11.02    4.63
  -6   9  -3    5.96    3.03
   6   9  -3   -0.13    2.46
   6  -9  -3    1.11    1.71
   6   9  -2    4.06    2.61
  -6   9  -2    3.59    4.12
   6   9  -2    0.93    1.88
   6  -9  -2    3.13    3.27
   6   9  -1   11.80    4.42
  -6   9  -1   14.44    5.32
   6   9  -1    9.77    4.03
   6  -9  -1   20.77    5.51
  -6   9   0    7.68    3.68
   6   9   0   12.00    4.36
   6   9   0   15.80    5.32
   6  -9   0   12.21    5.05
   6   9   1   20.17    5.36
   6   9   1    9.67    3.70
   6  -9   1   20.28    5.26
  -6   9   1    7.84    2.70
   6   9   2    0.58    1.70
   6   9   2    2.56    2.75
  -6   9   2    0.91    2.97
   6  -9   2   -0.83    2.93
   6   9   3    5.38    2.94
  -6   9   3    4.09    3.21
   6   9   3    5.99    2.94
   6  -9   3   12.03    4.71
   6   9   4    1.62    3.71
   6   9   4    3.01    3.47
  -6   9   4    2.12    2.78
   6  -9   4    3.62    2.97
   6   9   5   13.18    4.16
  -6   9   5   16.22    4.93
   6   9   5   14.13    3.85
   6  -9   5   16.32    5.39
   6   9   6   16.06    4.97
  -6   9   6   14.25    5.00
   6  -9   6   23.70    6.39
   6   9   6   17.20    5.12
   6   9   7    4.25    3.44
   6   9   7   11.65    4.54
  -6   9   7   11.00    4.41
   6  -9   7   14.40    5.07
   6   9   8   10.99    3.90
   6   9   8    8.38    2.56
  -6   9   8   17.31    5.41
   6  -9   8    7.62    3.96
   6   9   9    3.73    1.98
   6   9   9   10.54    4.71
  -6   9   9   12.07    3.89
   6   9  10    2.35    2.38
   6  -9  10    6.82    3.53
   6   9  10    4.24    3.27
  -6   9  10   12.34    5.05
   6   9  11    4.71    3.76
   6   9  11    0.10    2.69
  -6   9  11   -1.58    2.93
   6   9  12   21.79    6.94
   6   9  12   12.90    4.71
  -6   9  12   14.07    4.85
   6   9  13    0.73    2.63
   6   9  13    2.37    1.80
  -6   9  13    1.33    2.81
   6   9  14   12.52    4.52
   6   9  14    4.71    2.39
  -6   9  14   11.22    5.15
  -6   9  15   -2.93    3.07
   6   9  15   -1.48    1.53
   6   9  15   -1.39    1.51
   6   9  16    4.05    2.39
   6   9  16    0.25    2.48
  -6   9  16    0.38    2.86
   6   9  17    2.16    1.69
  -6   9  17    1.04    2.50
   6  10 -13    7.83    5.62
   6 -10 -13    5.57    3.69
   6 -10 -13    2.01    4.24
   6  10 -12    8.28    3.85
   6 -10 -12   22.21    6.08
   6 -10 -12   14.91    5.51
   6  10 -11    9.89    5.74
   6 -10 -11    6.52    3.46
   6 -10 -11    3.29    3.97
   6  10 -10    5.38    3.55
   6 -10 -10   -0.66    3.50
   6  10  -9   11.25    5.31
   6 -10  -9    3.31    3.42
   6  10  -8   26.07    6.49
   6 -10  -8   41.31    8.77
   6  10  -7    6.60    3.04
  -6  10  -7    1.45    1.75
   6 -10  -7    1.58    2.65
   6  10  -6    8.98    2.96
  -6  10  -6    6.23    4.36
   6 -10  -6    6.34    3.99
   6  10  -5   20.29    5.77
  -6  10  -5   11.44    4.44
   6 -10  -5   12.02    4.73
   6  10  -4   28.77    6.76
  -6  10  -4   20.45    5.61
   6 -10  -4   22.64    6.11
   6 -10  -3   -4.87    3.04
   6  10  -3    3.43    2.25
  -6  10  -3    1.39    3.51
   6  10  -2   32.29    6.81
  -6  10  -2   35.39    7.66
   6 -10  -2   27.44    6.53
   6  10  -1    7.32    3.55
   6  10  -1    6.56    3.79
  -6  10  -1   12.22    5.04
   6 -10  -1    7.20    3.71
   6  10   0    1.00    1.84
  -6  10   0    1.99    2.61
   6  10   0    1.81    1.73
   6  10   1   20.50    6.05
  -6  10   1   13.10    5.25
   6  10   1   12.54    4.58
   6 -10   1    7.19    4.72
   6  10   2   48.42    8.72
  -6  10   2   31.38    6.98
   6  10   2   27.94    6.67
   6 -10   2   39.09    7.95
   6  10   3    2.24    2.61
   6  10   3    9.59    4.00
  -6  10   3    6.60    4.27
   6 -10   3    4.78    3.22
  -6  10   4   25.29    7.22
   6  10   4   24.99    7.39
   6  10   4   22.34    6.72
   6 -10   4   23.58    5.33
   6  10   5   15.12    4.81
  -6  10   5   12.04    4.56
   6  10   5    8.67    3.64
   6 -10   5   15.26    4.58
   6  10   6    9.86    3.53
   6  10   6    5.53    3.52
  -6  10   6   10.28    4.06
   6 -10   6   13.02    5.53
   6  10   7    7.28    4.88
  -6  10   7    4.52    1.58
   6  10   7   13.32    4.85
   6 -10   7   13.12    4.38
  -6  10   8   22.11    5.97
   6  10   8   29.73    7.10
   6 -10   8   38.19    7.58
   6  10   9    6.91    5.10
   6  10   9    1.38    1.61
   6 -10   9    1.86    2.81
   6  10  10   -1.35    1.65
  -6  10  10   -2.77    2.92
   6  10  11    1.48    1.58
  -6  10  11    6.97    3.42
   6  10  12   19.89    6.28
   6  10  12   12.62    5.19
  -6  10  12   17.02    6.02
   6  10  13    9.73    4.55
   6  10  13    3.32    3.22
  -6  10  13    5.69    3.97
   6  11  -5    8.13    4.53
  -6  11  -5    7.43    3.65
   6 -11  -5    7.36    5.10
   6  11  -4   -1.48    2.76
  -6  11  -4    3.45    2.93
   6 -11  -4    3.82    3.03
   6  11  -3    2.31    2.43
  -6  11  -3   -1.31    4.04
   6 -11  -3   -9.11    4.67
   6  11  -2   -0.95    2.08
   6 -11  -2   -2.26    3.49
   6  11  -1   11.87    5.90
  -6  11  -1   12.12    5.26
   6 -11  -1    3.73    2.63
   6  11   0    3.07    2.89
  -6  11   0    9.51    4.64
   6 -11   0    5.22    3.40
   6  11   1    7.83    4.27
  -6  11   1    7.22    3.77
   6  11   1    7.11    3.87
   6 -11   1    2.16    4.16
   6  11   2    3.25    1.75
   6  11   2    1.78    2.77
   6 -11   2    0.05    2.49
   6  11   3    8.16    4.53
  -6  11   3    6.50    3.92
   6  11   3    3.21    2.73
   6 -11   3    0.88    2.76
   6  11   4    0.12    1.63
   6  11   4    2.19    3.10
  -6  11   4    4.43    3.63
   6 -11   4   -1.88    2.63
  -6  11   5    2.78    2.11
   6  11   5    2.62    3.92
   6  11   5    3.05    3.84
   6 -11   5   -1.10    3.55
   7   0 -28   -6.26    4.28
   7   0 -27    1.65    2.02
   7   0 -26    0.90    1.67
   7   0 -25    5.42    2.95
   7   0 -24   -3.39    3.58
   7   0 -23    2.34    2.83
   7   0 -22   -2.15    2.30
   7   0 -21   -4.97    2.89
   7   0 -20    1.00    2.44
   7   0 -19   -0.36    1.65
   7   0 -18   -1.76    1.72
   7   0 -17    0.97    1.25
   7   0 -16   -0.09    1.79
   7   0 -15    1.56    1.85
   7   0 -14   -0.41    1.88
   7   0 -13    0.28    1.18
   7   0 -13   -0.39    1.84
   7   0 -12    0.64    1.01
   7   0 -12    0.06    0.96
   7   0 -11    0.67    1.92
   7   0 -11   -0.11    0.95
   7   0 -10   -0.58    1.33
   7   0 -10    1.19    1.70
   7   0  -9    0.13    0.96
   7   0  -9   -0.31    0.69
   7   0  -8    0.71    1.00
   7   0  -8    0.84    1.30
   7   0  -8   -0.03    1.46
   7   0  -7    0.35    1.01
   7   0  -7   -0.38    1.27
   7   0  -7    0.64    2.41
   7   0  -6   -1.10    1.44
   7   0  -6    0.24    1.60
   7   0  -6    1.84    1.49
   7   0  -5    1.20    1.84
   7   0  -5   -0.45    1.54
   7   0  -5    0.20    1.42
   7   0  -4   -0.48    1.03
   7   0  -4    0.39    0.84
   7   0  -4    0.56    1.21
   7   0  -3    0.09    1.44
   7   0  -3   -0.16    0.57
   7   0  -3   -0.24    0.93
   7   0  -2   -0.51    1.46
   7   0  -2    0.49    0.93
   7   0  -2    0.98    1.27
   7   0  -1    3.04    2.08
   7   0  -1    0.45    0.83
   7   0  -1   -0.79    1.41
   7   0   0   -0.22    1.12
   7   0   0   -0.41    0.85
   7   0   0    0.05    0.96
   7   0   1    1.12    1.31
   7   0   1    0.66    0.87
   7   0   2   -0.74    1.36
   7   0   2   -0.15    1.11
   7   0   3   -0.27    1.20
   7   0   3   -0.19    0.59
   7   0   4   -0.16    0.79
   7   0   4    0.30    0.99
   7   0   5    1.16    2.11
   7   0   5   -0.13    1.28
   7   0   6   -0.17    1.26
   7   0   6    0.73    1.64
   7   0   7   -0.22    1.47
   7   0   7    0.21    0.58
   7   0   8   -0.56    0.96
   7   0   8   -0.35    1.07
   7   0   9   -0.42    1.39
   7   0   9    0.37    0.76
   7   0  10    0.74    1.46
   7   0  10    0.29    0.76
   7   0  11    1.29    1.39
   7   0  11    1.18    0.99
   7   0  12   -0.54    1.43
   7   0  12    1.70    1.17
   7   0  13   -0.02    1.83
   7   0  13    1.11    1.32
   7   0  14   -0.94    1.64
   7   0  15    1.94    2.77
   7   0  16    0.14    1.80
   7   0  17    0.02    2.03
   7   0  18   -0.44    1.12
   7   0  19    2.11    2.85
   7   0  20   -0.44    1.86
   7   0  21    1.33    2.48
   7   0  22   -1.92    3.31
   7   0  23    1.50    2.60
   7  -1 -29   -4.18    3.78
   7  -1 -28   88.08   11.73
   7  -1 -27    6.96    4.78
   7  -1 -26    1.16    2.71
   7  -1 -25   25.76    6.05
   7   1 -24  159.80   14.66
   7  -1 -24  158.73   14.92
   7  -1 -23   11.23    4.25
   7   1 -23   17.45    4.80
   7   1 -22   57.59    8.93
   7  -1 -22   71.28    9.93
   7  -1 -21   50.10    8.46
   7   1 -21   40.74    7.13
   7   1 -20   72.65    9.52
   7  -1 -20   71.56    9.48
   7   1 -19   53.30    8.13
   7  -1 -19   56.45    8.82
   7   1 -18   52.40    7.57
   7  -1 -18   63.79    8.95
   7   1 -17   65.21    8.33
   7  -1 -17   50.03    7.99
   7   1 -16  508.60   22.55
   7  -1 -16  583.27   25.44
   7  -1 -15  110.92   10.74
   7  -1 -15  103.66    9.20
   7   1 -15  117.65   10.88
   7   1 -14  877.02   28.24
   7  -1 -14  875.55   30.13
   7  -1 -14  829.31   25.50
   7  -1 -13   81.86    7.91
   7   1 -13   72.58    7.96
   7  -1 -13   78.48    8.78
   7   1 -12  146.52   10.99
   7  -1 -12  144.03   10.24
   7   1 -12  142.26   11.21
   7   1 -12  133.63    8.00
   7   1 -11  166.05    9.26
   7   1 -11  179.40   12.10
   7  -1 -11  182.97   13.12
   7   1 -11  186.02   12.51
   7  -1 -11  188.69   11.76
   7   1 -10   65.83    5.80
   7   1 -10   64.95    7.07
   7  -1 -10   56.84    7.35
   7   1 -10   60.75    7.16
   7  -1 -10   55.58    6.33
   7  -1  -9   29.10    4.48
   7   1  -9   21.24    3.11
   7   1  -9   15.95    3.54
   7   1  -9   27.19    4.71
   7  -1  -9   20.68    4.31
   7  -1  -8  134.14    9.72
   7   1  -8  138.77    8.42
   7   1  -8  147.30   10.18
   7  -1  -8  163.35   12.06
   7   1  -8  130.09   10.01
   7  -1  -7  153.10   10.09
   7   1  -7  145.42    8.82
   7   1  -7  152.94   10.86
   7  -1  -7  143.91   10.76
   7   1  -7  131.94    9.52
   7  -1  -6  361.33   15.54
   7   1  -6  362.08   13.89
   7  -1  -6  346.77   16.53
   7   1  -6  374.09   15.89
   7   1  -6  398.97   17.20
   7  -1  -5  442.50   17.10
   7   1  -5  427.37   15.31
   7  -1  -5  447.06   18.71
   7   1  -5  475.75   17.86
   7   1  -5  418.79   17.54
   7  -1  -4  284.71   13.71
   7  -1  -4  321.03   16.04
   7   1  -4  303.55   14.05
   7   1  -4  289.58   12.60
   7   1  -4  277.65   14.26
   7  -1  -3  567.00   19.44
   7   1  -3  577.95   18.03
   7  -1  -3  595.47   21.54
   7   1  -3  586.96   19.32
   7   1  -3  577.00   20.24
   7  -1  -2 1097.16   27.25
   7   1  -2 1102.34   25.32
   7  -1  -2 1036.78   28.20
   7   1  -2 1043.49   25.81
   7   1  -2 1103.29   27.40
   7  -1  -1   34.21    4.88
   7  -1  -1   31.16    4.91
   7   1  -1   36.21    4.71
   7   1  -1   36.22    4.64
   7   1  -1   25.90    4.54
   7   1   0    3.16    1.14
   7   1   0    2.43    1.42
   7  -1   0    2.28    1.62
   7  -1   0    1.24    1.85
   7  -1   1   36.90    5.17
   7  -1   1   41.67    5.60
   7   1   1   31.31    4.32
   7   1   1   31.52    4.50
   7  -1   2 1078.09   27.26
   7   1   2 1109.95   26.32
   7   1   2 1060.78   26.37
   7   1   3  534.61   19.04
   7  -1   3  569.21   19.86
   7   1   3  561.91   18.76
   7  -1   4  291.29   14.44
   7   1   4  314.04   14.78
   7   1   4  260.85   12.54
   7   1   5  469.90   18.46
   7  -1   5  452.20   18.04
   7   1   5  428.61   16.28
   7   1   6  330.47   15.93
   7   1   6  373.28   14.95
   7  -1   6  330.21   15.65
   7   1   7  144.04   10.43
   7   1   7  141.80    9.19
   7  -1   7  134.63   10.24
   7   1   8  150.69   10.90
   7  -1   8  155.12   11.21
   7   1   8  136.71    9.08
   7  -1   9   21.67    4.38
   7   1   9   16.51    3.42
   7   1   9   22.29    3.56
   7   1  10   66.96    7.64
   7   1  10   59.07    5.74
   7  -1  10   58.66    6.73
   7   1  11  168.06   11.93
   7  -1  11  160.84   11.64
   7   1  11  179.49   10.21
   7   1  12  148.71   11.59
   7  -1  12  137.73   10.91
   7   1  12  158.87    9.50
   7   1  13   80.72    8.72
   7   1  13   78.40    6.62
   7  -1  13  100.49    9.55
   7   1  14  861.30   29.30
   7  -1  14  844.43   28.17
   7   1  14  828.03   20.98
   7   1  15  116.93   10.85
   7  -1  15  104.23    9.97
   7   1  16  569.32   24.72
   7  -1  16  521.20   23.40
   7   1  17   53.95    7.74
   7  -1  17   44.63    7.15
   7   1  18   60.11    8.37
   7  -1  18   72.86    9.01
   7   1  19   52.94    8.15
   7  -1  19   70.24    9.01
   7   1  20   77.70   10.02
   7  -1  20   88.61   10.02
   7   1  21   45.63    7.81
   7  -1  21   33.81    6.47
   7  -1  22   65.63    9.49
   7   1  22   76.23   10.49
   7   1  23    8.89    3.73
   7   1  24  178.30   15.90
   7  -2 -28   13.79    4.83
   7  -2 -27   -1.54    1.44
   7  -2 -26   -0.69    1.61
   7  -2 -25   12.50    4.34
   7  -2 -24    5.94    2.99
   7  -2 -23   22.57    5.82
   7  -2 -22    9.25    4.18
   7  -2 -21   31.32    6.86
   7  -2 -20   10.76    2.70
   7   2 -19    2.41    4.19
   7  -2 -19    0.28    1.97
   7   2 -18   85.76    9.52
   7  -2 -18   91.74   10.74
   7   2 -17   34.98    6.05
   7  -2 -17   44.36    7.36
   7   2 -17   30.17    6.23
   7  -2 -16  482.64   23.48
   7   2 -16  471.99   20.81
   7  -2 -16  460.63   20.58
   7   2 -16  464.80   22.06
   7   2 -15  128.46   10.71
   7  -2 -15  120.51   11.84
   7  -2 -15  120.90   10.83
   7   2 -15  130.99   11.71
   7   2 -14  111.17   10.04
   7  -2 -14  100.77   10.98
   7  -2 -14  115.09   10.33
   7   2 -14  114.36   10.40
   7   2 -13   78.69    7.86
   7  -2 -13   88.68    9.54
   7  -2 -13   88.11    8.85
   7   2 -13   92.77    9.18
   7   2 -12  213.08   13.59
   7   2 -12  181.76   11.67
   7  -2 -12  185.02   13.62
   7  -2 -12  189.68   13.09
   7  -2 -11   11.62    3.04
   7   2 -11   18.79    3.00
   7   2 -11   10.07    3.14
   7  -2 -11   15.13    4.08
   7   2 -11   15.62    3.10
   7   2 -10   84.82    6.04
   7  -2 -10   88.41    9.54
   7  -2 -10   78.30    8.13
   7   2 -10   96.76    9.05
   7   2 -10   91.11    7.91
   7  -2  -9  201.92   13.91
   7   2  -9  210.75   13.27
   7   2  -9  199.78    9.70
   7   2  -9  182.74   11.20
   7  -2  -9  198.78   12.83
   7  -2  -8  429.90   20.33
   7   2  -8  459.47   14.79
   7   2  -8  436.67   16.81
   7   2  -8  429.38   18.93
   7  -2  -8  428.40   18.68
   7   2  -7   15.42    4.16
   7  -2  -7   17.45    3.75
   7  -2  -7   19.68    3.89
   7   2  -7   12.34    2.56
   7  -2  -6   49.64    5.91
   7   2  -6   47.96    5.30
   7  -2  -6   41.22    6.24
   7   2  -6   48.22    4.93
   7  -2  -5  258.70   13.96
   7  -2  -5  249.92   14.66
   7   2  -5  260.62   12.53
   7   2  -5  260.58   11.84
   7  -2  -4   32.73    4.85
   7   2  -4   43.28    5.06
   7   2  -4   43.23    4.96
   7   2  -4   37.90    5.30
   7  -2  -4   53.75    6.93
   7   2  -3  281.41   12.88
   7  -2  -3  275.23   14.41
   7  -2  -3  247.76   14.39
   7   2  -3  260.86   12.34
   7   2  -3  257.01   13.96
   7   2  -2  123.34    8.72
   7  -2  -2  121.64    9.46
   7  -2  -2  133.24   10.46
   7   2  -2  125.65    8.51
   7   2  -2  113.87    9.48
   7   2  -1    1.26    1.62
   7   2  -1    0.74    1.61
   7  -2  -1    4.39    2.12
   7  -2  -1   -0.01    0.85
   7   2   0    1.81    1.50
   7  -2   0    2.27    1.44
   7  -2   0    2.52    1.21
   7   2   0   -0.29    0.88
   7  -2   1    1.60    1.59
   7   2   1    2.84    1.46
   7   2   1    2.88    1.90
   7  -2   1    3.08    2.01
   7   2   2  116.72    9.19
   7   2   2  127.08    9.30
   7  -2   2  119.19    9.50
   7  -2   2  125.59   10.00
   7   2   3  250.24   13.07
   7   2   3  274.98   13.92
   7  -2   3  263.23   14.17
   7   2   4   46.15    5.72
   7   2   4   44.08    5.79
   7  -2   4   38.27    5.19
   7   2   5  270.07   13.54
   7   2   5  246.31   13.65
   7  -2   5  239.69   13.67
   7   2   6   40.04    5.20
   7  -2   6   51.75    6.26
   7   2   7   18.00    3.66
   7   2   7   11.48    3.59
   7  -2   7   17.31    3.57
   7   2   8  409.52   16.66
   7   2   8  397.45   18.33
   7  -2   8  406.42   18.20
   7   2   9  186.58   11.16
   7   2   9  177.56   12.33
   7  -2   9  194.42   12.66
   7   2  10   89.61    7.87
   7   2  10   86.78    9.06
   7  -2  10   85.46    8.59
   7   2  11   15.28    3.18
   7  -2  11   10.87    3.74
   7   2  11   13.37    3.76
   7   2  12  197.81   11.78
   7   2  12  178.42   13.23
   7  -2  12  204.03   13.75
   7   2  13   93.71    8.03
   7   2  13   96.54    9.89
   7  -2  13   86.53    9.04
   7   2  14  123.89    9.34
   7   2  14  134.01   11.96
   7  -2  14  134.00   11.36
   7   2  15  118.09    8.93
   7   2  15  124.07   11.56
   7  -2  15  121.45   10.87
   7  -2  16  435.96   21.45
   7   2  16  437.49   21.85
   7   2  17   32.99    6.52
   7  -2  17   40.93    6.70
   7   2  18   81.50    9.63
   7  -2  18   70.36    8.90
   7   2  19    2.50    2.92
   7  -2  19   -0.34    1.44
   7   2  20   11.51    3.12
   7  -2  20   12.73    3.63
   7   2  21   42.98    7.02
   7   2  22    3.91    1.46
   7   2  23   16.64    4.91
   7   2  24   10.91    5.05
   7   2  25   10.90    4.44
   7  -3 -28   30.71    6.81
   7  -3 -27    6.23    4.19
   7  -3 -26   20.25    5.79
   7  -3 -25   16.37    4.89
   7  -3 -24  131.34   14.56
   7  -3 -23    5.34    2.76
   7  -3 -22    2.03    3.87
   7  -3 -21    1.00    2.11
   7  -3 -20  219.71   17.11
   7  -3 -19   17.33    5.05
   7  -3 -18  477.39   24.82
   7  -3 -18  499.01   24.09
   7   3 -18  520.18   23.91
   7  -3 -17   20.94    5.28
   7   3 -17   21.70    5.06
   7  -3 -17   22.80    5.83
   7  -3 -16   12.82    4.30
   7  -3 -16   10.84    3.38
   7   3 -16    8.29    2.61
   7  -3 -15   38.95    7.20
   7  -3 -15   29.45    6.19
   7   3 -15   26.00    5.65
   7  -3 -14 1044.90   34.72
   7   3 -14 1083.45   33.08
   7   3 -13    8.01    3.77
   7  -3 -13   11.12    4.29
   7  -3 -13    6.41    2.81
   7  -3 -12 1207.06   36.33
   7  -3 -12 1153.96   34.24
   7   3 -12 1218.13   34.48
   7   3 -11   82.34    8.96
   7   3 -11  108.93    8.22
   7  -3 -11   92.98   10.26
   7  -3 -11  105.51   10.44
   7  -3 -10   41.96    6.38
   7   3 -10   45.22    5.18
   7  -3 -10   38.98    6.54
   7   3 -10   42.22    6.19
   7   3  -9   23.58    4.84
   7   3  -9   32.38    4.34
   7  -3  -9   34.50    6.06
   7   3  -9   38.59    4.40
   7  -3  -9   29.91    5.84
   7   3  -8 1045.82   23.96
   7  -3  -8 1006.09   31.58
   7   3  -8 1041.68   23.19
   7  -3  -8  991.03   29.86
   7   3  -8 1030.26   30.38
   7   3  -7   19.03    4.45
   7  -3  -7   25.54    4.92
   7   3  -7   17.83    3.10
   7  -3  -7   25.95    5.02
   7   3  -7   24.40    3.33
   7   3  -6  661.69   19.38
   7   3  -6  625.81   17.99
   7  -3  -6  612.21   23.53
   7   3  -6  657.09   23.77
   7  -3  -5   63.14    7.44
   7   3  -5   56.49    6.00
   7   3  -5   72.01    7.61
   7  -3  -5   71.64    8.15
   7   3  -5   60.01    5.73
   7   3  -4    1.13    1.29
   7  -3  -4    3.13    2.25
   7   3  -4    3.49    1.52
   7   3  -4    2.70    1.60
   7  -3  -4    3.48    1.42
   7   3  -3   28.28    4.74
   7  -3  -3   29.61    5.29
   7   3  -3   31.67    4.57
   7  -3  -3   23.51    4.69
   7   3  -3   22.14    3.43
   7   3  -2 1092.92   29.86
   7  -3  -2 1037.05   29.74
   7   3  -2 1093.94   26.81
   7  -3  -2 1068.03   31.14
   7  -3  -1   28.99    5.13
   7   3  -1   22.59    4.21
   7  -3  -1   22.12    5.00
   7   3  -1   22.11    3.70
   7   3   0   -0.01    0.61
   7   3   0    1.23    0.71
   7  -3   0    0.81    0.77
   7  -3   1   26.31    4.85
   7   3   1   24.26    4.46
   7   3   1   30.78    5.07
   7  -3   1   21.13    4.75
   7   3   2 1064.50   29.08
   7  -3   2 1126.11   30.57
   7   3   2 1110.17   29.30
   7  -3   2 1046.88   30.24
   7   3   3   20.05    4.18
   7  -3   3   18.33    4.37
   7   3   3   31.17    5.24
   7  -3   3   32.08    5.22
   7   3   4    1.86    2.25
   7   3   4    7.69    2.65
   7  -3   4    4.78    2.34
   7  -3   4    1.16    1.15
   7   3   5   57.01    6.71
   7  -3   5   53.96    6.71
   7   3   5   67.13    7.64
   7   3   6  625.01   22.39
   7  -3   6  652.01   23.60
   7   3   6  609.41   22.99
   7   3   7   21.65    4.08
   7   3   7   18.82    4.52
   7  -3   7   14.84    3.46
   7  -3   8  966.52   29.39
   7   3   8  995.61   30.53
   7   3   8 1003.84   28.49
   7   3   9   40.65    5.63
   7  -3   9   31.01    5.62
   7   3  10   41.99    5.77
   7   3  10   26.78    4.95
   7  -3  10   42.24    6.41
   7   3  11  101.33    9.06
   7  -3  11  114.59   10.59
   7   3  11   91.48    9.72
   7   3  12 1143.49   30.83
   7  -3  12 1163.86   33.44
   7   3  12 1152.70   34.92
   7   3  13    6.72    2.78
   7   3  13    4.47    1.53
   7  -3  13    3.47    1.97
   7  -3  14 1029.96   32.45
   7   3  14  993.01   33.42
   7   3  14 1004.32   29.31
   7   3  15   32.03    5.39
   7   3  15   30.18    6.08
   7  -3  15   33.01    5.79
   7   3  16   15.12    4.59
   7   3  16   20.96    4.59
   7  -3  16   12.36    3.88
   7   3  17   26.17    5.29
   7  -3  17   45.23    7.42
   7  -3  18  546.91   24.93
   7   3  18  528.74   25.81
   7  -3  19   24.22    5.47
   7   3  19   26.00    5.76
   7   3  20  212.69   16.67
   7   3  21    3.31    1.23
   7   3  22   -1.15    2.59
   7   3  23   16.02    5.06
   7   3  24  131.82   14.37
   7   3  25   12.84    4.06
   7   3  26   19.45    3.81
   7  -4 -27    6.65    3.96
   7  -4 -26   -2.13    2.69
   7  -4 -25    2.96    2.81
   7  -4 -24    6.93    3.91
   7  -4 -23    2.17    1.97
   7  -4 -22   34.20    6.60
   7  -4 -21   10.32    4.72
   7  -4 -20    1.77    3.01
   7  -4 -19  156.89   14.24
   7  -4 -19  181.48   15.35
   7  -4 -18   67.04    9.34
   7  -4 -18   72.93    9.54
   7  -4 -17   11.03    4.42
   7  -4 -17    6.19    3.61
   7   4 -17   11.37    4.11
   7   4 -16   16.88    4.89
   7  -4 -16   11.66    3.84
   7  -4 -16   10.64    4.33
   7  -4 -15   50.15    8.11
   7  -4 -15   43.71    7.32
   7   4 -15   45.72    7.03
   7  -4 -14  124.64   12.51
   7  -4 -14  119.45   11.76
   7   4 -14  116.64   11.54
   7  -4 -13  100.58   11.10
   7  -4 -13  113.90   11.39
   7   4 -13  105.36   10.68
   7   4 -12   20.75    4.83
   7  -4 -12   19.36    5.08
   7  -4 -12   21.01    5.07
   7  -4 -11  200.91   15.40
   7  -4 -11  199.95   14.71
   7   4 -11  201.00   14.61
   7   4 -10   32.09    5.47
   7  -4 -10   25.90    6.02
   7  -4 -10   35.27    6.45
   7  -4  -9    1.53    1.80
   7   4  -9    2.70    2.61
   7  -4  -9    2.77    1.50
   7   4  -8   70.98    8.29
   7   4  -8   71.10    6.51
   7  -4  -8   65.12    8.56
   7  -4  -8   74.43    8.91
   7   4  -7  517.13   22.31
   7  -4  -7  534.56   23.84
   7  -4  -7  556.06   23.56
   7   4  -6   45.97    6.51
   7   4  -6   46.36    5.48
   7  -4  -6   58.82    8.28
   7  -4  -6   67.37    8.26
   7  -4  -5    6.27    2.02
   7   4  -5    5.24    2.19
   7  -4  -5    7.11    1.54
   7   4  -5    6.63    1.84
   7   4  -5    7.07    2.00
   7   4  -4    3.86    2.30
   7   4  -4    9.66    2.35
   7  -4  -4    9.12    3.24
   7  -4  -4    7.17    2.87
   7   4  -4    6.78    1.50
   7   4  -3   70.05    8.16
   7   4  -3   85.76    7.90
   7   4  -3   80.21    6.32
   7  -4  -3   84.73    9.20
   7  -4  -3   75.25    8.47
   7   4  -2    6.86    2.57
   7  -4  -2    9.50    2.60
   7   4  -2    8.35    2.76
   7  -4  -2   12.57    3.59
   7   4  -1   13.09    3.36
   7  -4  -1   11.08    3.05
   7   4  -1    2.53    1.24
   7  -4  -1    7.22    2.31
   7   4   0   -0.36    1.28
   7   4   0    0.52    1.23
   7  -4   0    0.41    1.28
   7  -4   0   -0.61    1.43
   7   4   1    9.12    2.94
   7  -4   1    9.66    3.39
   7   4   1    9.35    2.87
   7  -4   1    9.04    2.64
   7   4   2    4.42    1.37
   7  -4   2    8.46    2.81
   7   4   2    8.97    2.99
   7  -4   2    8.33    2.10
   7  -4   3   82.66    8.88
   7   4   3   75.75    8.17
   7   4   3   87.50    8.80
   7  -4   3   80.76    8.83
   7   4   4    7.39    2.43
   7  -4   4    6.96    2.57
   7   4   4    6.08    2.45
   7  -4   4    5.65    2.48
   7   4   5    5.82    3.01
   7   4   5   11.62    2.77
   7  -4   5    3.30    2.27
   7  -4   5   11.66    3.15
   7   4   6   51.63    7.03
   7  -4   6   66.48    7.84
   7   4   6   49.32    6.78
   7  -4   6   39.46    6.26
   7   4   7  532.13   22.20
   7  -4   7  519.68   22.33
   7   4   7  522.39   22.52
   7   4   8   70.69    7.97
   7  -4   8   64.05    7.93
   7   4   8   81.00    9.09
   7   4   9    1.02    1.78
   7   4   9    5.45    3.68
   7  -4   9    5.52    3.19
   7   4  10   36.00    5.91
   7  -4  10   35.77    5.73
   7   4  10   47.73    7.10
   7   4  11  210.96   14.33
   7  -4  11  198.53   13.99
   7   4  11  237.64   16.16
   7   4  12   21.01    5.16
   7  -4  12   21.88    5.43
   7   4  12   31.22    5.89
   7   4  13  105.89   10.19
   7  -4  13   95.76   10.02
   7   4  13  116.40   11.42
   7   4  14  122.53   10.89
   7  -4  14   98.37   10.35
   7   4  14  114.47   11.46
   7   4  15   37.54    6.35
   7  -4  15   35.58    6.84
   7   4  15   40.89    6.82
   7   4  16   16.28    4.01
   7   4  16   13.50    4.46
   7  -4  16   13.87    4.58
   7   4  17   10.98    2.62
   7   4  17   14.20    4.64
   7  -4  17    4.77    3.21
   7  -4  18   58.88    8.81
   7   4  18   76.61   10.17
   7   4  19  187.95   15.94
   7   4  20    4.10    2.78
   7   4  21   24.64    6.27
   7   4  22   18.91    5.70
   7   4  23   -1.00    2.52
   7   4  24    4.53    3.58
   7   4  25    2.43    1.66
   7   4  26   -2.25    4.40
   7   4  27   12.04    5.73
   7  -5 -26    0.04    1.79
   7  -5 -25   11.09    4.07
   7  -5 -24   57.46   10.11
   7  -5 -23    4.29    3.44
   7  -5 -22   78.93   10.98
   7  -5 -21    6.41    2.79
   7  -5 -20    4.48    3.32
   7  -5 -20    9.29    4.26
   7  -5 -19   51.73    8.98
   7  -5 -19   45.11    8.47
   7  -5 -18  199.59   16.96
   7  -5 -18  217.85   17.40
   7  -5 -17   62.72    9.93
   7   5 -17   66.95    9.32
   7  -5 -17   47.70    8.49
   7   5 -16    3.93    3.62
   7  -5 -16    2.41    2.21
   7  -5 -16    6.85    3.08
   7   5 -15   18.28    4.80
   7  -5 -15   11.80    4.32
   7  -5 -15   12.47    4.59
   7   5 -14   12.31    4.45
   7  -5 -14   12.92    4.21
   7  -5 -14   17.21    4.75
   7   5 -13    4.08    2.92
   7  -5 -13   -0.45    2.77
   7  -5 -13    2.39    2.61
   7  -5 -12  241.43   17.41
   7  -5 -12  209.16   16.09
   7   5 -12  230.75   16.11
   7   5 -11   55.71    8.10
   7  -5 -11   37.66    7.19
   7  -5 -11   38.57    6.82
   7   5 -10    7.77    2.76
   7  -5 -10    7.93    2.62
  -7   5 -10    4.87    2.47
   7  -5 -10    6.32    2.97
   7   5  -9   24.39    5.69
   7  -5  -9    8.18    3.49
   7  -5  -9   18.37    4.20
  -7   5  -9   11.75    3.40
   7   5  -8  260.70   16.72
  -7   5  -8  276.56   15.57
   7  -5  -8  251.76   17.05
   7  -5  -8  266.82   17.49
   7   5  -7   64.13    7.91
   7   5  -7   63.28    6.85
   7  -5  -7   55.71    8.36
   7  -5  -7   63.00    8.55
   7  -5  -6   16.21    3.72
   7   5  -6   17.52    4.35
   7   5  -6   14.66    3.39
   7  -5  -6    7.94    2.79
   7   5  -5   33.19    5.76
   7  -5  -5   43.86    6.97
   7   5  -5   43.59    5.81
   7  -5  -5   36.04    6.21
   7   5  -4   57.29    7.66
   7  -5  -4   62.03    8.17
   7   5  -4   50.91    6.22
   7  -5  -4   48.14    7.18
   7  -5  -3   61.66    8.49
   7   5  -3   61.30    7.30
   7   5  -3   61.09    7.87
   7  -5  -3   55.04    7.83
   7   5  -2  291.68   17.37
   7   5  -2  258.23   14.81
   7  -5  -2  296.78   17.81
   7  -5  -1   14.94    4.41
   7   5  -1    6.08    2.49
   7  -5  -1   12.65    2.93
   7   5  -1   12.44    3.49
   7   5   0    1.20    1.79
   7  -5   0   -0.29    2.25
   7   5   0    1.70    2.78
   7  -5   0    1.40    1.57
   7  -5   1    9.39    3.19
   7   5   1   10.60    4.24
   7  -5   1   14.73    3.99
   7   5   1   16.99    4.41
   7   5   2  286.44   17.23
   7  -5   2  268.54   16.74
   7   5   2  302.78   16.76
   7  -5   2  297.06   17.45
   7  -5   3   55.82    7.84
   7   5   3   52.03    7.39
   7  -5   3   53.10    7.26
   7   5   3   50.16    7.27
   7  -5   4   39.04    6.65
   7   5   4   39.35    6.26
   7  -5   4   42.95    6.98
   7   5   4   45.53    6.82
   7  -5   5   30.95    6.39
   7   5   5   34.14    5.73
   7   5   5   29.85    5.95
   7  -5   5   42.34    6.87
   7  -5   6   21.33    5.06
   7   5   6   17.72    4.82
   7  -5   6   22.79    4.86
   7   5   6   16.65    4.54
   7  -5   7   50.20    7.76
   7   5   7   70.06    9.11
   7   5   7   67.39    8.70
   7  -5   7   48.70    7.27
   7  -5   8  266.84   17.07
   7   5   8  282.51   17.34
   7  -5   8  264.78   16.69
   7   5   8  233.16   15.86
   7   5   9   19.93    4.81
   7  -5   9   16.55    4.22
   7  -5   9   14.40    3.10
   7   5   9   15.58    4.20
   7   5  10    7.90    2.41
   7  -5  10   10.11    3.54
   7   5  10    7.97    3.87
   7  -5  10    6.49    2.92
   7   5  11   55.80    7.53
   7  -5  11   33.37    5.95
   7   5  11   42.84    6.82
   7  -5  12  218.15   15.57
   7   5  12  214.12   15.29
   7   5  12  216.87   16.21
   7   5  13    3.06    2.62
   7  -5  13   -0.83    2.40
   7   5  13    0.90    2.39
   7   5  14    2.90    2.62
   7  -5  14   16.59    4.25
   7   5  14   11.19    3.35
   7   5  15    6.82    2.53
   7   5  15   15.36    5.02
   7  -5  15    7.86    3.53
   7   5  16    3.88    2.20
   7  -5  16    0.91    2.13
   7   5  16    1.43    2.62
   7   5  17   69.90    9.38
   7   5  17   54.76    8.60
   7   5  18  204.17   16.79
   7   5  19   36.28    7.30
   7   5  20    2.47    2.03
   7   5  21    7.33    3.03
   7   5  22   61.70    9.70
   7   5  23    2.95    4.85
   7   5  24   77.87   11.63
   7   5  25    7.93    4.71
   7   5  26    4.03    3.51
   7  -6 -24   -4.35    4.12
   7  -6 -23    0.64    1.89
   7  -6 -22   -0.49    2.86
   7  -6 -21   14.15    5.03
   7  -6 -21   14.12    4.74
   7  -6 -20    0.84    2.04
   7  -6 -20    1.71    1.36
   7  -6 -19    7.00    4.10
   7  -6 -19    3.25    3.57
   7  -6 -18    0.91    2.37
   7  -6 -18    3.15    2.21
   7  -6 -17    1.05    2.75
   7  -6 -17   -3.75    3.08
   7   6 -16   -0.81    2.07
   7  -6 -16    3.15    3.38
   7  -6 -16    1.27    2.80
   7   6 -15    4.35    2.69
   7  -6 -15    5.35    2.47
   7  -6 -15    1.66    1.53
   7   6 -14    8.22    3.21
   7  -6 -14    5.48    2.56
   7  -6 -14    8.24    4.44
   7   6 -13   25.84    5.56
   7  -6 -13   30.26    7.51
   7  -6 -13   14.43    5.38
   7   6 -12    7.69    2.49
   7  -6 -12    9.40    3.94
   7  -6 -12    6.54    3.58
   7   6 -11   26.98    6.10
   7  -6 -11   13.55    4.70
   7  -6 -11   19.88    5.10
   7   6 -10   15.92    4.04
   7  -6 -10   17.14    5.15
   7  -6 -10    8.81    3.16
   7   6  -9    9.07    3.89
  -7   6  -9    5.60    3.32
   7  -6  -9   -0.71    1.39
   7  -6  -9    5.20    3.51
   7   6  -8    1.04    1.15
  -7   6  -8    0.08    1.96
   7  -6  -8   -1.05    1.91
   7  -6  -8   -0.35    1.70
  -7   6  -7    3.47    2.17
   7   6  -7    3.67    2.31
   7  -6  -7    9.40    4.36
   7  -6  -7    6.27    2.81
   7  -6  -6    1.20    2.19
   7   6  -6    7.56    3.92
  -7   6  -6    2.14    2.52
   7   6  -6    3.07    1.96
   7  -6  -6    2.20    2.20
   7  -6  -5   28.73    6.27
  -7   6  -5   33.87    5.50
   7   6  -5   44.83    6.98
   7   6  -5   32.63    5.49
   7  -6  -5   31.18    6.31
   7  -6  -4   16.06    4.72
   7   6  -4   14.44    3.28
  -7   6  -4   15.66    4.50
   7  -6  -4   15.31    4.44
   7   6  -4   18.34    4.30
   7  -6  -3    4.53    2.93
   7   6  -3    1.57    1.94
   7  -6  -3    1.09    3.07
   7   6  -3    0.88    2.61
   7  -6  -2   23.61    5.79
   7   6  -2   12.78    4.09
   7  -6  -2   14.84    4.23
   7   6  -2   13.49    3.70
   7  -6  -1   17.79    4.54
   7   6  -1   21.00    5.26
   7  -6  -1   17.46    5.00
   7   6  -1   15.36    4.30
   7  -6   0    7.27    3.49
   7   6   0    6.36    2.59
   7  -6   0    6.38    3.30
   7   6   0    2.06    1.14
   7   6   1   21.49    4.74
   7  -6   1   21.73    4.64
   7   6   1   15.97    4.63
   7  -6   1   19.93    5.17
   7   6   2   21.66    4.79
   7  -6   2    8.67    3.37
   7   6   2   19.72    5.42
   7  -6   2   12.84    4.38
   7   6   3    6.16    2.52
   7  -6   3    7.90    2.89
   7   6   3   -1.33    2.09
   7  -6   3    1.16    3.06
   7   6   4   16.76    4.73
   7  -6   4   11.65    3.36
   7   6   4   12.16    4.23
   7  -6   4   20.49    5.62
   7   6   5   23.92    5.64
   7  -6   5   45.76    7.53
   7   6   5   42.63    7.13
   7  -6   5   40.11    7.04
   7   6   6    1.97    2.02
   7  -6   6    5.30    3.74
   7   6   6    1.15    1.47
   7  -6   6    8.39    4.09
   7   6   7    7.64    3.18
   7  -6   7   10.77    3.93
   7   6   7    6.39    3.64
   7  -6   7    6.49    3.11
   7   6   8    2.14    1.38
   7  -6   8    3.25    2.98
   7  -6   8    3.19    2.49
   7   6   8   -0.73    1.41
   7   6   9    8.71    3.72
   7  -6   9    1.49    2.03
   7  -6   9    2.18    2.55
   7   6   9    5.95    2.87
   7   6  10    6.08    3.01
   7  -6  10    9.04    3.42
   7   6  10    3.23    2.52
   7  -6  10    7.11    2.91
   7  -6  11   17.77    5.23
   7   6  11   22.89    5.30
   7  -6  11   19.74    5.35
   7   6  11   22.37    5.94
   7  -6  12   10.44    3.91
   7   6  12   12.73    4.24
   7  -6  12   12.59    4.19
   7   6  12    7.40    2.57
   7  -6  13   35.53    6.89
   7   6  13   30.43    6.20
   7   6  13   32.77    6.99
   7  -6  13   35.23    7.03
   7  -6  14   10.19    3.96
   7   6  14    3.85    2.21
   7   6  14   12.46    5.12
   7  -6  14   10.49    3.66
   7  -6  15   13.06    5.10
   7   6  15   10.69    4.15
   7   6  15    2.64    3.27
   7   6  16    1.66    1.36
   7   6  16    0.26    1.75
   7   6  17   -3.71    3.91
   7   6  17    0.12    2.74
   7   6  18   -1.79    2.92
   7   6  19    0.17    2.80
   7   6  20   -2.51    2.54
  -7   6  20   -2.84    1.94
   7   6  21   11.84    5.22
  -7   6  21    5.77    4.02
   7   6  22    1.49    1.58
  -7   6  22    6.46    3.68
   7   6  23   -2.07    3.66
  -7   6  23    1.12    2.81
   7   6  24   -2.20    3.21
  -7   6  24   -2.95    2.89
   7  -7 -22   13.00    4.89
   7  -7 -22   32.21    7.86
   7  -7 -21    6.23    3.32
   7  -7 -21    5.28    4.21
   7  -7 -20   26.21    6.98
   7  -7 -20   22.70    5.61
   7  -7 -19   -1.12    2.34
   7  -7 -19    4.80    3.66
   7  -7 -18  112.00   13.42
   7  -7 -18  101.28   12.54
   7  -7 -17   12.96    3.60
   7  -7 -17   22.01    6.52
   7  -7 -16   -0.26    3.41
   7  -7 -16   -3.39    3.31
   7   7 -15    0.46    3.83
   7  -7 -15    2.00    1.76
   7  -7 -15    3.84    2.58
   7   7 -14   27.76    7.31
   7  -7 -14   19.24    4.94
   7   7 -13   14.89    5.88
   7  -7 -13    4.41    3.00
   7  -7 -13   17.81    5.60
   7   7 -12  140.52   13.87
   7  -7 -12  173.40   15.35
   7  -7 -12  147.69   14.40
   7   7 -11   11.30    5.11
   7  -7 -11    7.92    3.17
   7  -7 -11    1.80    1.68
   7   7 -10   -2.73    1.79
   7  -7 -10    1.33    3.49
   7  -7 -10    2.86    3.46
   7   7  -9    3.58    2.89
  -7   7  -9    6.59    2.44
   7  -7  -9    0.44    2.71
   7  -7  -9    6.13    3.27
   7   7  -8  255.53   18.12
  -7   7  -8  225.14   16.75
   7  -7  -8  250.28   18.02
   7  -7  -8  270.21   18.88
   7   7  -7    1.05    1.25
  -7   7  -7    7.11    3.52
   7  -7  -7    8.73    3.77
   7  -7  -7    5.82    2.69
   7   7  -6   39.79    7.43
  -7   7  -6   42.50    7.85
   7  -7  -6   37.58    7.03
   7  -7  -6   44.42    7.48
   7   7  -5   13.64    4.23
  -7   7  -5   26.10    5.84
   7  -7  -5   14.09    4.91
   7   7  -5   19.87    4.80
   7  -7  -5   27.40    6.08
   7   7  -4  101.39   11.27
  -7   7  -4  103.53   11.40
   7  -7  -4  105.46   11.71
   7  -7  -4   99.50   11.50
   7   7  -4   70.62    8.88
   7   7  -3   -1.59    1.56
  -7   7  -3    1.85    2.08
   7  -7  -3   -3.22    3.68
   7   7  -3   -0.17    1.74
   7  -7  -3    1.45    2.26
   7   7  -2  155.75   14.00
  -7   7  -2  117.34   12.24
   7  -7  -2  128.34   12.91
   7  -7  -2  159.79   14.47
   7   7  -2  150.37   12.72
   7  -7  -1    9.92    3.29
   7   7  -1   21.60    5.59
   7   7  -1   19.80    4.55
  -7   7  -1   14.87    4.68
   7  -7  -1   16.22    4.94
   7  -7   0    0.55    1.56
   7  -7   0    5.01    3.32
   7   7   0    0.59    2.13
   7   7   0    2.62    1.82
  -7   7   0    0.56    2.37
   7  -7   1   23.36    6.02
   7   7   1   25.10    5.22
   7   7   1   20.39    5.01
  -7   7   1   20.56    4.76
   7  -7   1   22.57    4.81
   7   7   2  136.95   13.79
  -7   7   2  151.34   13.43
   7  -7   2  118.12   12.24
   7  -7   2  136.90   13.06
   7   7   2  131.07   12.30
   7  -7   3    1.82    1.95
   7   7   3    5.34    2.76
   7   7   3   -0.58    2.14
  -7   7   3    1.83    2.49
   7  -7   3    2.08    2.11
   7   7   4   90.77   10.51
  -7   7   4   94.89   10.97
   7  -7   4   99.13   11.45
   7  -7   4   89.62   10.69
   7   7   4   88.37   10.36
   7  -7   5   11.31    4.11
   7   7   5    7.39    3.22
   7   7   5   15.56    4.50
   7  -7   5   19.06    5.36
   7  -7   6   34.40    6.71
   7   7   6   39.66    6.92
   7  -7   6   32.81    7.17
   7   7   6   44.21    7.14
   7  -7   7    7.33    3.88
   7   7   7   13.39    4.29
   7   7   7    7.86    3.27
   7  -7   7    1.12    2.46
   7   7   8  264.10   18.63
   7  -7   8  289.49   19.41
   7   7   8  232.96   17.31
   7  -7   9    8.49    4.44
   7   7   9    3.29    3.37
   7   7   9    5.83    4.62
   7  -7   9    8.88    3.77
   7  -7  10    0.78    2.14
   7   7  10    5.44    3.31
   7   7  10    1.41    1.61
   7  -7  10   -0.23    2.64
   7  -7  11    9.13    4.50
   7   7  11    9.29    2.95
   7   7  11    8.01    4.08
   7   7  12  140.45   13.92
  -7   7  12  141.74   13.74
   7  -7  12  129.21   13.39
   7   7  12  142.91   14.59
   7   7  13   15.48    4.49
   7  -7  13    7.67    3.60
   7   7  13    6.35    2.72
  -7   7  13    9.20    5.17
   7  -7  14   23.07    5.62
  -7   7  14   27.66    6.84
   7   7  14   19.98    5.68
   7   7  15    6.17    3.59
  -7   7  15    3.87    3.20
   7   7  15    3.19    2.14
   7   7  16    2.02    2.27
  -7   7  16    3.75    3.62
   7   7  16    4.32    3.84
   7   7  17   16.28    4.07
  -7   7  17   13.37    4.95
   7   7  18   98.09   12.69
  -7   7  18  103.61   12.41
   7   7  18  121.18   13.28
  -7   7  19    3.20    3.17
   7   7  19    2.35    2.45
   7   7  20   42.01    8.27
  -7   7  20   31.17    7.65
  -7   7  21    4.06    2.56
   7   7  21    2.67    1.40
  -7   7  22   15.62    5.69
   7   7  22   35.40    8.15
   7  -8 -20   -1.88    2.46
   7  -8 -20   -1.89    3.34
   7  -8 -19    0.55    2.36
   7  -8 -19   -3.23    3.90
   7  -8 -18   -2.91    3.23
   7  -8 -18    5.18    2.63
   7  -8 -17    3.93    2.05
   7  -8 -17    7.86    3.81
   7  -8 -16   -2.31    3.14
   7  -8 -16   -1.77    3.22
   7   8 -15    5.08    4.69
   7  -8 -15    5.30    4.52
   7  -8 -15    7.49    4.79
   7   8 -14    7.28    4.59
   7  -8 -14   11.80    2.87
   7  -8 -14   17.72    5.53
   7   8 -13   10.45    4.46
   7  -8 -13   11.28    4.41
   7  -8 -13    6.97    3.96
   7   8 -12    2.81    3.94
   7  -8 -12    4.42    3.20
   7  -8 -12    4.65    4.06
   7  -8 -11    9.35    4.24
   7   8 -11   10.09    4.33
   7  -8 -11   11.18    4.04
   7   8 -10   -0.33    1.84
   7  -8 -10   -0.66    1.64
   7  -8 -10    4.78    3.69
   7   8  -9   12.72    3.83
   7  -8  -9   16.16    5.40
   7  -8  -9    9.71    2.59
   7   8  -8   -0.54    2.46
   7  -8  -8    5.34    2.54
  -7   8  -8   -0.17    1.73
   7  -8  -8    2.71    4.03
   7   8  -7    2.41    1.93
  -7   8  -7    4.18    3.77
   7  -8  -7    5.12    3.05
   7  -8  -7    0.21    2.50
   7   8  -6   20.69    5.43
  -7   8  -6    5.44    3.20
   7  -8  -6   15.87    4.76
   7  -8  -6    3.28    2.87
   7   8  -5    7.14    3.18
  -7   8  -5    2.68    2.72
   7  -8  -5    2.70    3.65
   7  -8  -5    6.66    4.69
   7   8  -4   12.91    5.10
   7  -8  -4    7.32    4.67
   7   8  -4    7.71    2.91
  -7   8  -4    0.86    1.87
   7  -8  -4    4.74    2.68
   7   8  -3   -1.53    2.56
   7   8  -3    5.75    3.23
  -7   8  -3    5.58    3.69
   7  -8  -3    1.12    1.84
   7  -8  -3    1.16    3.52
   7   8  -2    7.23    3.44
   7   8  -2    7.37    3.68
  -7   8  -2    4.65    2.96
   7  -8  -2    6.93    3.54
   7  -8  -2    7.56    3.85
   7   8  -1    1.27    2.05
   7   8  -1   -0.19    2.23
   7  -8  -1   -0.05    2.36
  -7   8  -1   -2.55    2.01
   7   8   0    2.11    1.94
   7   8   0    1.57    1.71
  -7   8   0    2.84    2.55
   7  -8   0    0.18    1.85
   7  -8   0    0.04    2.45
  -7   8   1    2.87    2.20
   7   8   1    1.29    1.98
   7   8   1    3.29    2.60
   7  -8   1    3.47    2.56
   7  -8   1    2.20    2.88
   7   8   2    8.50    2.94
   7   8   2    6.49    2.82
  -7   8   2    5.27    3.15
   7  -8   2    0.86    1.93
   7  -8   2    4.48    1.83
   7  -8   3    2.14    1.63
   7   8   3    3.65    3.90
   7   8   3    0.98    1.46
  -7   8   3   -0.85    2.38
   7  -8   3    4.24    4.55
   7  -8   4   -1.05    2.57
  -7   8   4    4.10    2.70
   7   8   4    2.62    4.10
   7   8   4    6.01    4.24
   7  -8   4    5.42    3.58
   7  -8   5    5.78    3.12
   7   8   5    6.18    1.85
   7   8   5    1.49    3.19
  -7   8   5    4.40    3.18
   7  -8   6   10.58    4.49
  -7   8   6    6.74    3.74
   7   8   6   11.45    4.52
   7   8   6    8.10    3.83
   7  -8   7    3.95    4.19
  -7   8   7    5.55    3.13
   7   8   7    1.35    1.50
   7   8   7    0.94    1.67
   7  -8   8    2.20    2.85
   7   8   8   -1.12    2.17
  -7   8   8    2.83    2.26
   7  -8   9    9.18    4.24
   7   8   9   12.06    3.58
   7   8   9    6.62    3.65
  -7   8   9   14.58    4.79
   7  -8  10    4.66    3.13
   7   8  10    1.78    2.66
   7   8  10    6.33    2.90
  -7   8  10    1.06    1.99
   7  -8  11    4.39    2.76
  -7   8  11    5.00    3.66
   7   8  11    6.69    2.09
   7   8  11    2.03    1.77
   7  -8  12    3.04    2.04
   7   8  12   -0.59    1.80
  -7   8  12   -0.43    2.06
   7   8  12    1.29    2.32
   7   8  13    9.88    3.75
   7   8  13   15.56    4.97
  -7   8  13   10.61    5.15
   7   8  14    9.96    4.34
   7   8  14   12.29    4.30
  -7   8  14   10.85    3.31
  -7   8  15   -0.22    2.42
   7   8  15    4.14    2.31
   7   8  16   -1.85    2.17
  -7   8  16    0.61    3.28
   7   8  16   -1.09    1.74
   7   8  17   11.13    4.15
  -7   8  17   14.20    5.79
   7   8  17    0.64    3.28
   7   8  18    5.16    3.32
  -7   8  18    3.27    2.94
   7   8  18    0.11    2.50
  -7   8  19   -1.77    2.79
   7   8  19   -1.94    1.57
  -7   8  20   -0.74    2.28
   7   8  20    0.53    2.04
   7  -9 -17    3.40    3.09
   7  -9 -17    2.68    2.81
   7  -9 -16    1.36    2.11
   7  -9 -16   -0.22    3.33
   7  -9 -15    8.68    4.50
   7  -9 -15    7.77    3.86
   7   9 -14   65.44   10.87
   7  -9 -14   53.51    9.67
   7  -9 -14   81.55   11.20
   7   9 -13    0.93    1.46
   7  -9 -13    5.28    3.70
   7  -9 -13    8.87    4.49
   7   9 -12   97.55   12.56
   7  -9 -12  104.82   13.14
   7  -9 -12   88.58   11.82
   7   9 -11    6.01    2.39
   7  -9 -11    5.16    3.83
   7  -9 -11    4.84    3.59
   7   9 -10    2.89    1.93
   7  -9 -10    8.23    3.29
   7  -9 -10    3.81    2.62
   7   9  -9    4.58    3.75
   7  -9  -9    2.38    1.98
   7  -9  -9    2.43    1.81
   7  -9  -8  160.91   16.13
   7   9  -8  168.45   16.16
   7  -9  -8  165.93   15.55
   7   9  -7    4.33    3.46
  -7   9  -7    3.33    3.32
   7  -9  -7    1.25    2.14
   7  -9  -7    6.89    5.02
   7  -9  -6   42.62    8.94
  -7   9  -6   28.31    6.85
   7   9  -6   40.59    8.59
   7  -9  -6   31.13    7.47
   7   9  -5    8.24    3.07
  -7   9  -5    4.90    3.77
   7  -9  -5    3.81    2.78
   7  -9  -5   15.75    4.82
   7   9  -4   50.65    8.86
  -7   9  -4   45.08    8.44
   7  -9  -4   44.66    8.53
   7  -9  -4   41.49    8.24
   7   9  -3   -0.47    2.91
  -7   9  -3    4.50    4.34
   7  -9  -3   -0.12    2.04
   7  -9  -3    0.54    1.55
   7   9  -2  126.24   13.68
  -7   9  -2   92.44   12.36
   7  -9  -2   95.39   11.65
   7  -9  -2  106.11   12.93
   7   9  -2   93.15   11.58
   7   9  -1    4.49    2.99
   7   9  -1    3.12    1.45
  -7   9  -1    5.98    2.67
   7  -9  -1    4.81    4.03
   7   9   0    2.37    1.66
   7   9   0    0.77    1.97
  -7   9   0    4.91    2.01
   7  -9   0   -0.17    2.31
   7   9   1    2.79    2.94
   7   9   1    5.01    3.69
  -7   9   1    1.65    3.10
   7  -9   1    8.50    2.97
   7   9   2   79.54   10.83
   7   9   2  112.30   12.62
  -7   9   2   94.70   12.02
   7  -9   2   96.51   12.57
   7  -9   3    1.43    2.53
   7   9   3    4.37    2.88
   7   9   3   -2.54    3.30
  -7   9   3    5.55    3.39
   7   9   4   64.29    9.80
   7   9   4   46.76    8.58
  -7   9   4   55.93    9.40
   7  -9   4   59.20    9.30
   7   9   5    7.75    3.19
   7   9   5    5.80    3.12
  -7   9   5    5.61    3.13
   7  -9   5   10.81    4.19
   7   9   6   50.43    8.53
   7   9   6   38.01    7.83
  -7   9   6   29.41    6.61
   7  -9   6   33.90    6.37
   7   9   7   -0.23    4.76
   7   9   7    2.84    3.11
  -7   9   7    4.73    4.37
   7  -9   7    4.96    2.79
   7   9   8  165.07   15.47
   7   9   8  197.90   17.91
  -7   9   8  172.62   16.67
   7  -9   8  155.74   15.73
   7   9   9    5.28    2.66
  -7   9   9   10.50    5.18
   7  -9   9    3.25    2.65
   7   9  10    5.97    1.33
   7   9  10    3.68    2.10
  -7   9  10    8.25    4.25
   7  -9  10    4.50    3.29
   7   9  11    9.42    4.54
   7   9  11    3.80    1.67
  -7   9  11    9.04    4.33
   7  -9  11    6.55    4.38
   7   9  12   82.72   11.77
  -7   9  12   91.63   12.28
  -7   9  13   -2.76    4.29
   7   9  13    1.99    2.61
   7   9  14   70.37   10.83
  -7   9  14   53.53    9.24
   7   9  14   64.99   10.57
   7   9  15   13.41    5.09
  -7   9  15   13.75    4.46
   7   9  15    9.77    4.30
   7   9  16    2.83    1.97
  -7   9  16    7.25    4.52
   7   9  16    3.53    1.93
   7   9  17   12.05    5.17
  -7   9  17    6.20    3.71
   7   9  17    2.87    1.96
   7  10 -12    3.44    2.43
   7 -10 -12    3.55    2.76
   7 -10 -12    4.45    3.09
   7  10 -11    9.16    3.51
   7 -10 -11   20.52    6.17
   7 -10 -11   18.23    5.58
   7 -10 -10   -0.36    2.39
   7 -10 -10    5.19    3.09
   7  10  -9    0.56    3.00
   7 -10  -9   -3.37    3.66
   7 -10  -9   -0.78    1.31
   7  10  -8    6.36    4.15
   7 -10  -8    2.54    1.62
   7  10  -7   29.66    7.06
   7 -10  -7   14.91    4.95
   7  10  -6   -0.04    3.70
  -7  10  -6   -1.32    1.90
   7 -10  -6    4.45    3.78
   7  10  -5   20.90    6.53
  -7  10  -5   16.39    5.89
   7 -10  -5   31.04    6.97
   7  10  -4    3.32    2.32
  -7  10  -4   -1.62    2.27
   7 -10  -4    5.89    3.50
   7  10  -3    0.27    2.09
  -7  10  -3    0.41    2.01
   7 -10  -3    1.26    1.91
   7  10  -2   -2.28    2.88
   7 -10  -2    5.63    5.68
  -7  10  -2    4.96    3.35
   7  10  -1   -0.14    3.26
  -7  10  -1    7.41    4.35
   7 -10  -1    9.07    3.58
   7  10   0    4.96    3.97
   7  10   0   -0.39    2.57
  -7  10   0   -5.19    4.27
   7 -10   0   -0.83    1.42
   7  10   1    2.54    2.02
   7  10   1    2.42    2.40
  -7  10   1    4.78    2.32
   7 -10   1   -0.65    2.51
   7  10   2   -1.12    3.30
   7  10   2    2.68    3.13
  -7  10   2    0.75    3.06
   7 -10   2   -2.47    2.16
   7  10   3   -0.53    3.27
   7  10   3   -2.19    1.96
  -7  10   3   -1.26    2.21
   7 -10   3    4.12    3.77
   7  10   4    6.32    3.41
   7  10   4    2.11    1.75
  -7  10   4    7.27    4.08
   7 -10   4    2.62    2.50
   7  10   5   24.84    6.60
   7  10   5   24.09    5.62
   7 -10   5   24.15    6.64
  -7  10   5   30.72    6.73
   7  10   6   -0.13    1.61
   7  10   6    0.67    1.70
  -7  10   6   -0.84    2.90
   7 -10   6    4.15    3.88
   7  10   7   23.55    5.97
   7  10   7   21.34    5.54
  -7  10   7   20.88    5.72
   7 -10   7   31.21    7.57
   7  10   8    8.54    3.54
   7  10   8   -4.16    3.81
  -7  10   8    1.83    3.38
   7 -10   8    3.51    3.54
   7  10   9   -2.69    3.21
   7  10   9    7.23    4.35
  -7  10   9    2.73    3.12
   7 -10   9    4.31    2.45
   7  10  10    6.70    4.27
   7  10  10    0.92    1.84
  -7  10  10    2.46    1.63
   7  10  11   10.60    3.88
   7  10  11    9.87    5.39
  -7  10  11   10.22    5.22
   7  10  12    5.84    3.44
   7  10  12    5.22    4.43
  -7  10  12    3.71    3.03
   7  11  -2   22.26    6.59
  -7  11  -2   20.40    6.92
   7 -11  -2   22.55    6.43
   7  11  -1    3.70    3.26
  -7  11  -1   -2.74    3.75
   7 -11  -1   -3.29    3.81
   7  11   0    2.20    2.51
   7 -11   0   -2.25    2.60
   7  11   1    9.83    5.07
   7  11   1    4.57    3.55
  -7  11   1   -2.50    3.12
   7 -11   1    3.33    3.44
   7  11   2   18.47    5.28
   7  11   2   34.07    8.04
  -7  11   2   28.79    7.31
   7 -11   2   19.70    6.10
   8   0 -27   22.89    6.17
   8   0 -26   69.77   10.82
   8   0 -25   36.68    7.74
   8   0 -24   35.91    7.23
   8   0 -23   -0.15    1.92
   8   0 -22   19.52    5.27
   8   0 -21   67.11    9.48
   8   0 -20    7.78    3.47
   8   0 -19   74.70    9.60
   8   0 -18  162.57   13.84
   8   0 -17  222.17   16.12
   8   0 -16   36.93    6.69
   8   0 -15  226.55   15.46
   8   0 -14  117.86   10.96
   8   0 -13   59.41    8.35
   8   0 -13   93.43    8.03
   8   0 -12  560.63   23.51
   8   0 -12  600.86   20.50
   8   0 -11  538.85   19.23
   8   0 -11  532.60   22.54
   8   0 -10  108.06    8.68
   8   0 -10  100.84    9.84
   8   0  -9 1244.65   29.26
   8   0  -9 1231.50   33.48
   8   0  -8  817.17   23.55
   8   0  -8  755.91   25.73
   8   0  -8  788.33   26.35
   8   0  -7   13.98    2.83
   8   0  -7   15.95    3.52
   8   0  -7   11.70    3.26
   8   0  -6  414.76   16.75
   8   0  -6  464.42   19.81
   8   0  -6  449.11   19.17
   8   0  -5   48.25    5.81
   8   0  -5   44.56    5.88
   8   0  -5   42.62    5.96
   8   0  -4  808.74   23.54
   8   0  -4  812.23   25.20
   8   0  -4  886.92   26.64
   8   0  -3 1533.25   32.68
   8   0  -3 1481.25   34.49
   8   0  -2  717.17   22.28
   8   0  -2  721.78   22.88
   8   0  -2  745.04   24.30
   8   0  -1  115.24    9.23
   8   0  -1   85.84    8.22
   8   0  -1   95.37    8.32
   8   0   0 1217.31   29.11
   8   0   0 1159.48   29.00
   8   0   0 1135.44   29.86
   8   0   1  108.61    8.97
   8   0   1  116.50    8.93
   8   0   2  742.73   23.33
   8   0   2  770.80   22.80
   8   0   3 1503.00   33.75
   8   0   3 1362.58   30.03
   8   0   4  786.08   24.69
   8   0   4  908.57   24.07
   8   0   5   35.82    5.37
   8   0   5   36.71    4.80
   8   0   6  447.71   19.09
   8   0   6  462.84   16.90
   8   0   7   10.26    3.17
   8   0   7   11.98    2.62
   8   0   8  813.27   26.69
   8   0   8  765.12   21.28
   8   0   9 1152.45   32.17
   8   0   9 1118.48   25.81
   8   0  10  109.50   10.14
   8   0  10  115.04    8.10
   8   0  11  539.89   22.61
   8   0  11  510.61   16.85
   8   0  12  629.58   24.96
   8   0  12  628.44   18.33
   8   0  13   95.28    9.76
   8   0  13   83.88    6.70
   8   0  14  106.94   10.71
   8   0  15  238.66   16.26
   8   0  16   29.75    5.80
   8   0  17  248.70   17.08
   8   0  18  158.08   13.86
   8   0  19   67.28    9.06
   8   0  20    6.60    1.73
   8   0  21   67.40    9.47
   8   0  22   17.58    5.08
   8   0  23    3.92    4.34
   8  -1 -28   18.69    6.40
   8  -1 -27    3.59    2.71
   8  -1 -26    0.68    2.35
   8  -1 -25    5.18    3.77
   8  -1 -24   12.45    4.40
   8   1 -23    5.42    4.51
   8  -1 -23   -2.57    2.18
   8   1 -22    7.16    3.13
   8  -1 -22    9.51    3.94
   8   1 -21   -1.27    2.51
   8  -1 -21    2.62    1.57
   8   1 -20    3.83    2.68
   8  -1 -20    4.99    3.98
   8   1 -19   14.83    3.95
   8  -1 -19   14.27    3.93
   8  -1 -18   36.69    7.11
   8   1 -18   27.74    6.22
   8   1 -17   48.03    7.20
   8  -1 -17   48.52    7.07
   8  -1 -16   34.02    6.77
   8   1 -16   28.93    5.19
   8   1 -15   10.38    3.34
   8  -1 -15   18.70    5.14
   8  -1 -15   21.55    4.88
   8  -1 -14    5.71    2.64
   8   1 -14    5.22    2.23
   8  -1 -14    6.81    3.26
   8  -1 -13    1.77    1.97
   8   1 -13    1.49    1.33
   8  -1 -13    4.51    1.46
   8   1 -13    6.01    2.43
   8  -1 -12    4.64    2.26
   8   1 -12    6.23    2.76
   8   1 -12    5.05    2.66
   8  -1 -12    6.08    2.72
   8   1 -12    2.27    1.49
   8   1 -11   48.62    5.26
   8   1 -11   36.62    5.54
   8  -1 -11   43.81    6.59
   8   1 -11   41.81    6.36
   8  -1 -11   48.64    6.41
   8   1 -10   24.30    5.16
   8   1 -10   25.45    4.02
   8  -1 -10   22.74    4.08
   8  -1 -10   26.98    5.07
   8   1 -10   22.59    4.57
   8   1  -9   19.33    3.58
   8  -1  -9   16.35    4.03
   8  -1  -9   23.93    4.82
   8   1  -9   17.42    3.62
   8   1  -9   16.37    3.66
   8  -1  -8   36.02    4.97
   8   1  -8   39.33    4.80
   8  -1  -8   38.16    6.16
   8   1  -8   43.10    5.76
   8   1  -8   41.78    5.86
   8  -1  -7   73.56    7.48
   8   1  -7   65.51    6.31
   8  -1  -7   55.66    7.23
   8   1  -7   58.54    6.84
   8   1  -7   53.90    6.69
   8  -1  -6   17.64    3.77
   8  -1  -6   13.31    3.69
   8   1  -6   14.45    3.54
   8   1  -6   12.06    2.95
   8   1  -6   18.70    4.01
   8  -1  -5    8.70    2.70
   8  -1  -5   16.23    3.44
   8   1  -5    9.33    2.80
   8   1  -5   16.97    3.16
   8   1  -5    4.68    1.50
   8  -1  -4   15.46    3.47
   8  -1  -4   12.02    3.71
   8   1  -4   17.54    3.66
   8   1  -4   23.52    4.69
   8   1  -4   12.57    3.29
   8  -1  -3   51.54    6.11
   8  -1  -3   52.97    6.73
   8   1  -3   50.22    5.83
   8   1  -3   61.30    6.88
   8   1  -3   39.53    5.70
   8   1  -2   88.14    8.09
   8  -1  -2   96.36    8.36
   8   1  -2   88.52    7.74
   8  -1  -2  111.73    9.61
   8  -1  -1   82.25    8.03
   8  -1  -1   90.08    8.65
   8   1  -1  100.33    8.29
   8   1  -1   93.08    8.23
   8   1  -1  112.88    9.19
   8   1   0    3.72    1.57
   8   1   0    3.60    1.93
   8  -1   0    2.04    1.38
   8  -1   0    3.10    0.99
   8  -1   1  110.25    9.30
   8   1   1  114.94    9.08
   8   1   1   95.04    8.39
   8  -1   2   76.85    7.82
   8   1   2   87.76    7.96
   8   1   2   92.92    8.19
   8  -1   3   50.87    6.47
   8   1   3   41.85    5.80
   8   1   3   55.49    6.46
   8   1   4   15.40    3.14
   8   1   4   11.99    2.77
   8  -1   4   18.76    3.48
   8   1   5    9.53    2.38
   8   1   5    8.80    2.53
   8  -1   5   15.28    3.46
   8   1   6   17.83    3.74
   8   1   6   18.53    3.73
   8  -1   6   16.46    3.66
   8  -1   7   67.76    7.64
   8   1   7   61.95    6.35
   8   1   8   34.72    5.44
   8  -1   8   40.82    6.10
   8   1   8   29.39    4.40
   8  -1   9   16.14    4.15
   8   1   9   15.47    3.38
   8   1   9   20.30    4.35
   8   1  10   26.29    4.55
   8  -1  10   32.85    5.62
   8   1  10   26.91    4.30
   8   1  11   48.59    6.81
   8  -1  11   44.20    6.50
   8   1  11   41.91    5.26
   8   1  12    3.96    1.62
   8  -1  12    1.95    1.32
   8   1  12    2.90    1.77
   8   1  13    8.14    2.47
   8  -1  13    9.74    3.70
   8   1  13    3.40    2.42
   8   1  14    8.61    2.07
   8  -1  14    7.92    1.92
   8   1  14    6.31    2.00
   8  -1  15   10.07    3.00
   8   1  15    9.25    2.84
   8  -1  16   23.67    4.92
   8   1  16   32.15    5.97
   8   1  17   49.39    7.56
   8  -1  17   42.29    6.73
   8  -1  18   22.74    5.00
   8   1  18   35.87    6.56
   8  -1  19   21.45    5.85
   8   1  19    9.57    3.76
   8  -1  20    8.60    4.27
   8   1  20   10.40    4.86
   8  -1  21    3.39    1.65
   8   1  21    3.32    1.50
   8   1  22    5.49    3.76
   8  -1  22   12.23    4.36
   8   1  23    4.48    3.23
   8   1  24   12.86    3.83
   8  -2 -28   17.91    5.58
   8  -2 -27   36.81    7.76
   8  -2 -26   12.91    5.18
   8  -2 -25   20.65    5.29
   8  -2 -24   46.71    7.92
   8  -2 -23    8.42    3.47
   8  -2 -22   33.20    7.12
   8  -2 -21   95.94   11.19
   8  -2 -20    6.20    4.01
   8  -2 -19   18.18    5.11
   8   2 -18  101.79   11.17
   8  -2 -18   95.89   11.18
   8   2 -17   54.04    7.56
   8  -2 -17   69.07    9.33
   8   2 -17   65.38    8.92
   8   2 -16   68.61    8.29
   8  -2 -16   69.37    9.11
   8  -2 -16   77.90    8.79
   8   2 -16   63.30    8.71
   8   2 -15  196.39   13.84
   8  -2 -15  184.64   14.92
   8  -2 -15  174.13   13.32
   8   2 -15  158.19   13.02
   8   2 -14   59.64    7.47
   8  -2 -14   81.19    9.61
   8  -2 -14   70.30    8.70
   8   2 -14   71.13    8.58
   8  -2 -13   18.03    4.46
   8   2 -13   26.83    4.89
   8  -2 -13   25.91    5.49
   8   2 -13   20.07    4.39
   8   2 -12  150.39   11.62
   8  -2 -12  163.41   13.43
   8  -2 -12  162.50   12.25
   8   2 -12  178.77   13.03
   8   2 -11  248.85   14.33
   8  -2 -11  260.85   16.82
   8   2 -11  244.95   15.43
   8  -2 -11  284.67   16.19
   8   2 -10   32.03    4.20
   8   2 -10   31.03    5.02
   8  -2 -10   37.52    6.65
   8   2 -10   40.14    6.29
   8  -2 -10   36.63    5.87
   8   2  -9  124.40    8.43
   8   2  -9  123.53    9.81
   8  -2  -9  115.46   10.88
   8   2  -9  123.97   10.63
   8  -2  -9  127.69   10.72
   8  -2  -8  168.15   12.09
   8   2  -8  176.17   10.13
   8   2  -8  165.07   11.24
   8   2  -8  174.52   12.85
   8  -2  -8  177.17   13.60
   8  -2  -7  146.23   11.05
   8  -2  -7  118.92   10.89
   8   2  -7  121.87    8.58
   8   2  -7  156.04   11.70
   8   2  -7  146.91   10.31
   8   2  -6   15.79    3.76
   8   2  -6   14.64    3.17
   8  -2  -6   10.23    2.15
   8  -2  -6   13.13    3.67
   8   2  -6   15.72    3.51
   8  -2  -5  242.22   14.21
   8  -2  -5  249.33   15.43
   8   2  -5  246.27   12.67
   8   2  -5  227.37   12.61
   8   2  -5  225.61   14.04
   8  -2  -4  267.07   14.91
   8  -2  -4  289.93   16.58
   8   2  -4  297.07   14.46
   8   2  -4  315.43   14.41
   8   2  -4  276.57   15.39
   8  -2  -3  275.77   15.14
   8  -2  -3  286.91   16.31
   8   2  -3  249.63   13.22
   8   2  -3  243.65   12.84
   8  -2  -2  469.24   19.64
   8  -2  -2  494.89   21.55
   8   2  -2  479.71   18.51
   8   2  -2  480.44   18.28
   8   2  -2  476.81   19.61
   8  -2  -1  456.63   19.44
   8  -2  -1  455.07   20.51
   8   2  -1  452.93   19.38
   8   2  -1  461.10   18.22
   8   2   0  173.75   11.38
   8  -2   0  180.42   12.32
   8  -2   0  188.66   13.26
   8   2   0  179.36   12.04
   8   2   1  442.20   18.34
   8  -2   1  451.35   19.31
   8  -2   1  443.46   19.82
   8   2   1  424.40   18.48
   8   2   2  470.09   18.97
   8  -2   2  480.70   20.06
   8  -2   2  475.96   20.63
   8   2   2  454.71   18.91
   8   2   3  253.03   14.33
   8  -2   3  253.83   14.78
   8  -2   3  267.36   15.42
   8   2   3  246.15   13.91
   8   2   4  255.29   14.74
   8  -2   4  276.70   15.52
   8   2   4  281.76   14.74
   8   2   5  240.25   13.44
   8   2   5  213.75   13.36
   8  -2   5  258.30   14.96
   8   2   6   11.63    2.77
   8  -2   6   11.52    2.63
   8   2   6   14.10    4.45
   8   2   7  126.40    9.70
   8   2   7  135.41   10.98
   8  -2   7  115.37    9.97
   8   2   8  174.14   11.39
   8   2   8  169.54   12.50
   8  -2   8  185.15   13.09
   8   2   9  123.60    9.62
   8   2   9  123.06   10.82
   8  -2   9  106.68   10.06
   8   2  10   25.03    4.40
   8   2  10   33.38    5.67
   8  -2  10   32.44    5.49
   8   2  11  244.47   13.57
   8   2  11  227.51   15.30
   8  -2  11  250.57   15.76
   8   2  12  165.10   11.24
   8   2  12  183.16   13.59
   8  -2  12  160.54   12.52
   8  -2  13   19.77    4.64
   8   2  13   25.75    5.41
   8   2  13   22.81    4.46
   8   2  14   69.42    9.04
   8  -2  14   76.03    8.91
   8   2  14   74.18    7.56
   8   2  15  169.50   13.95
   8  -2  15  192.85   14.63
   8   2  15  185.65   11.72
   8   2  16   80.75    9.68
   8  -2  16   59.69    8.10
   8   2  17   65.40    8.75
   8  -2  17   51.13    7.58
   8   2  18   90.52   10.72
   8  -2  18   88.62   10.30
   8   2  19   19.23    5.19
   8  -2  19   21.88    5.27
   8   2  20   10.68    3.49
   8  -2  20   13.06    4.40
   8   2  21   87.27   11.06
   8  -2  21   81.92   10.64
   8   2  22   44.79    8.35
   8   2  23    7.62    3.44
   8   2  24   65.79   10.57
   8   2  25   15.35    5.27
   8  -3 -27   -3.72    3.78
   8  -3 -26   -3.03    3.32
   8  -3 -25    5.58    3.75
   8  -3 -24    2.83    1.72
   8  -3 -23    2.67    3.13
   8  -3 -22    2.99    3.35
   8  -3 -21   -1.54    2.55
   8  -3 -20    3.86    2.42
   8  -3 -19    7.80    3.07
   8   3 -19   12.78    5.39
   8  -3 -18   20.07    5.76
   8   3 -18   18.72    5.27
   8  -3 -17  140.21   13.13
   8  -3 -17  131.77   12.44
   8   3 -17  116.54   11.94
   8  -3 -16   96.26   11.13
   8  -3 -16   98.10   10.68
   8   3 -16   88.22    9.96
   8  -3 -15   66.41    9.21
   8  -3 -15   39.86    7.01
   8   3 -15   59.21    8.20
   8  -3 -14   49.38    8.06
   8  -3 -14   49.48    7.47
   8   3 -14   48.36    6.87
   8   3 -13   37.60    5.92
   8  -3 -13   37.06    6.43
   8  -3 -13   35.09    6.49
   8   3 -12    0.57    2.19
   8  -3 -12    4.97    2.47
   8   3 -12   -0.33    0.66
   8  -3 -12    2.24    1.97
   8   3 -11   35.13    5.28
   8  -3 -11   27.53    5.76
   8   3 -11   50.48    7.02
   8  -3 -11   36.97    6.70
   8   3 -10   52.87    5.95
   8  -3 -10   55.64    8.14
   8  -3 -10   45.20    6.60
   8   3 -10   47.36    7.06
   8   3  -9   48.61    5.85
   8  -3  -9   58.02    7.84
   8   3  -9   59.07    5.78
   8  -3  -9   49.51    7.09
   8   3  -9   69.79    7.92
   8   3  -8   57.67    5.97
   8  -3  -8   67.28    8.42
   8   3  -8   55.31    5.88
   8  -3  -8   58.29    7.49
   8   3  -8   45.66    6.64
   8  -3  -7   91.83   10.48
   8   3  -7   86.01    7.44
   8   3  -7   89.59    7.40
   8   3  -7   81.14    8.90
   8  -3  -7   61.18    7.67
   8  -3  -6   32.25    5.57
   8  -3  -6   26.00    5.37
   8   3  -6   22.21    4.91
   8   3  -6   36.35    5.03
   8   3  -6   30.32    4.56
   8   3  -5   10.03    3.30
   8  -3  -5    7.92    2.89
   8   3  -5    8.60    2.56
   8  -3  -5    6.36    3.20
   8   3  -5   11.38    2.59
   8   3  -4    1.19    1.25
   8  -3  -4    0.57    1.38
   8   3  -4    1.83    1.76
   8  -3  -4   -0.36    1.38
   8   3  -4    1.60    1.30
   8  -3  -3   45.25    6.35
   8   3  -3   45.32    5.66
   8  -3  -3   39.81    6.45
   8   3  -3   47.83    5.60
   8   3  -3   44.35    6.39
   8   3  -2   39.81    5.80
   8  -3  -2   44.90    6.28
   8  -3  -2   46.80    6.55
   8   3  -2   37.71    4.88
   8   3  -1   24.26    4.85
   8  -3  -1   20.55    4.00
   8   3  -1   22.92    4.13
   8  -3  -1   20.84    4.69
   8   3   0   10.09    3.21
   8  -3   0    8.88    3.02
   8   3   0   10.18    2.83
   8  -3   0    8.38    2.72
   8   3   1   14.01    3.23
   8  -3   1   19.14    4.59
   8  -3   1   14.92    4.16
   8   3   1   16.29    3.56
   8   3   2   47.07    6.25
   8  -3   2   50.50    6.70
   8  -3   2   45.90    6.45
   8   3   3   40.52    5.75
   8  -3   3   37.04    5.93
   8   3   3   42.61    5.84
   8  -3   3   41.34    6.19
   8   3   4    0.65    1.30
   8  -3   4   -0.17    1.28
   8  -3   4    0.40    2.14
   8   3   4    3.55    1.71
   8   3   5    8.71    2.80
   8   3   5   18.80    4.28
   8  -3   5   11.08    3.06
   8  -3   5    9.39    2.83
   8   3   6   27.87    5.22
   8   3   6   21.54    4.75
   8  -3   6   25.85    4.91
   8   3   7   68.30    7.70
   8  -3   7   89.56    9.01
   8   3   7   67.63    8.01
   8   3   8   50.43    6.41
   8  -3   8   53.43    7.09
   8   3   8   51.41    7.18
   8   3   9   62.81    7.29
   8  -3   9   54.93    7.23
   8   3   9   59.84    7.77
   8   3  10   42.89    6.03
   8  -3  10   64.72    8.22
   8   3  10   48.75    7.59
   8   3  11   43.17    6.10
   8   3  11   39.14    6.36
   8  -3  11   29.61    5.41
   8   3  12    2.29    3.25
   8  -3  12    3.51    1.36
   8   3  12    2.22    1.65
   8   3  13   46.53    6.39
   8  -3  13   37.22    6.41
   8   3  13   45.95    7.12
   8   3  14   46.38    6.55
   8   3  14   55.53    8.33
   8  -3  14   41.02    7.14
   8   3  15   40.69    5.93
   8  -3  15   30.64    6.19
   8   3  16   74.58    9.26
   8  -3  16  108.76   11.25
   8   3  17  128.21   13.03
   8  -3  17  138.31   12.87
   8  -3  18   15.63    4.15
   8   3  18   20.22    5.45
   8   3  19    7.50    2.85
   8  -3  19   11.36    3.88
   8  -3  20   -0.21    2.38
   8   3  20    7.64    3.07
   8   3  21    1.75    1.47
   8   3  22    4.43    3.35
   8   3  23    0.40    1.75
   8   3  24   -1.49    2.06
   8   3  25   -0.96    2.97
   8   3  26   -2.78    2.29
   8  -4 -26   -0.29    3.35
   8  -4 -25   25.78    6.05
   8  -4 -24   41.85    8.01
   8  -4 -23    6.99    2.98
   8  -4 -22   28.60    7.20
   8  -4 -21   48.70    8.24
   8  -4 -20   -0.94    2.61
   8  -4 -19   16.29    4.96
   8  -4 -19   13.43    5.50
   8  -4 -18   29.36    6.58
   8  -4 -18   32.33    7.22
   8   4 -18   40.05    7.86
   8  -4 -17    3.99    2.28
   8  -4 -17    8.94    3.71
   8   4 -17    4.99    2.40
   8  -4 -16  107.19   11.80
   8  -4 -16  101.18   11.30
   8   4 -16   92.96   11.37
   8  -4 -15  157.17   14.18
   8  -4 -15  154.71   14.02
   8   4 -15  155.20   13.76
   8  -4 -14   47.19    7.92
   8  -4 -14   47.74    7.83
   8   4 -14   44.73    7.18
   8  -4 -13   30.87    6.00
   8  -4 -13   32.44    6.67
   8   4 -12   29.79    5.35
   8  -4 -12   39.46    6.76
   8  -4 -12   22.73    5.19
   8  -4 -11  111.37   11.52
   8  -4 -11  115.78   11.99
   8   4 -11  139.58   12.04
   8  -4 -10   28.38    5.72
   8  -4 -10   13.58    5.01
   8   4 -10   34.46    6.21
   8  -4  -9   26.24    5.45
   8  -4  -9   25.46    5.55
   8   4  -9   32.83    6.69
   8   4  -8   11.94    3.73
   8   4  -8   18.41    3.45
   8  -4  -8   14.76    4.12
   8  -4  -8   10.85    3.91
   8   4  -7   97.51    8.22
   8  -4  -7  108.37   11.26
   8  -4  -7  109.96   10.89
   8   4  -7  102.12   10.04
   8   4  -6   15.60    3.28
   8   4  -6   27.29    5.30
   8  -4  -6   20.81    5.38
   8  -4  -6   16.36    4.69
   8   4  -5  367.73   19.22
   8   4  -5  385.82   16.92
   8  -4  -5  361.97   19.94
   8   4  -5  357.22   14.49
   8  -4  -5  349.54   19.19
   8   4  -4  182.82   13.20
   8   4  -4  177.69   11.71
   8  -4  -4  217.84   15.43
   8   4  -4  188.78   10.54
   8  -4  -4  189.06   13.64
   8  -4  -3   57.73    7.89
   8   4  -3   65.11    8.16
   8   4  -3   59.87    7.18
   8  -4  -3   68.02    8.48
   8   4  -3   52.11    5.81
   8  -4  -2  323.35   18.25
   8   4  -2  360.30   18.87
   8   4  -2  350.48   16.94
   8  -4  -2  294.53   17.41
   8   4  -2  331.47   14.44
   8  -4  -1  589.29   24.37
   8  -4  -1  531.92   23.83
   8   4  -1  576.22   21.99
   8   4   0   88.32    9.26
   8  -4   0   66.53    8.62
   8   4   0   65.89    7.69
   8  -4   0   79.16    9.28
   8   4   1  564.13   23.22
   8  -4   1  585.38   24.49
   8   4   1  554.34   22.53
   8  -4   1  535.17   23.92
   8   4   2  343.76   18.17
   8  -4   2  308.60   17.62
   8   4   2  306.83   17.02
   8  -4   2  321.52   18.18
   8   4   3   62.95    8.06
   8  -4   3   53.76    7.37
   8   4   3   47.54    6.32
   8  -4   3   52.95    7.82
   8   4   4  177.90   13.54
   8  -4   4  205.61   14.32
   8   4   4  169.07   12.88
   8  -4   4  166.83   12.93
   8   4   5  355.62   18.67
   8  -4   5  349.82   18.81
   8   4   5  349.20   18.93
   8  -4   5  360.82   19.33
   8   4   6   29.03    6.10
   8  -4   6   20.29    4.91
   8   4   6   33.04    5.85
   8  -4   6   16.29    3.04
   8   4   7  128.25   11.14
   8  -4   7  127.89   11.74
   8   4   7   93.35    9.68
   8  -4   7  106.37   10.70
   8   4   8   20.10    5.04
   8   4   8   16.83    4.48
   8  -4   8   16.17    4.64
   8   4   9   29.20    5.81
   8   4   9   22.69    4.95
   8  -4   9   23.48    4.86
   8   4  10   36.00    6.39
   8  -4  10   42.58    6.44
   8   4  10   30.14    6.35
   8   4  11  111.31   10.66
   8  -4  11  125.97   11.78
   8   4  11  130.29   12.11
   8   4  12   37.49    5.91
   8  -4  12   40.88    6.76
   8   4  12   30.28    6.17
   8   4  13   38.90    6.49
   8  -4  13   37.52    6.84
   8   4  13   44.14    7.18
   8   4  14   49.81    7.27
   8  -4  14   56.40    7.99
   8   4  14   45.17    7.57
   8   4  15  166.22   13.48
   8  -4  15  158.11   13.72
   8   4  15  152.40   14.10
   8   4  16  138.09   12.42
   8  -4  16   95.74   11.06
   8   4  16  123.08   12.87
   8   4  17   12.69    4.90
   8  -4  17    6.72    3.25
   8   4  18   29.60    6.60
   8  -4  18   28.14    6.18
   8   4  19   23.12    5.33
   8   4  20    1.51    1.79
   8   4  21   51.68    8.76
   8   4  22   29.29    6.94
   8   4  23    2.30    2.29
   8   4  24   41.67    7.92
   8   4  25   38.32    7.69
   8   4  26    0.85    3.22
   8  -5 -25    1.15    1.88
   8  -5 -24    0.35    2.71
   8  -5 -23    1.45    2.59
   8  -5 -22    1.84    1.68
   8  -5 -21    4.96    4.06
   8  -5 -20   -1.00    1.62
   8  -5 -20   15.25    6.00
   8  -5 -19    2.88    2.10
   8  -5 -19    4.26    3.13
   8  -5 -18   10.18    4.91
   8  -5 -18    2.27    3.23
   8   5 -17   11.97    5.78
   8  -5 -17   10.41    4.58
   8  -5 -17   16.48    5.79
   8  -5 -16   39.67    7.23
   8   5 -16   45.68    7.96
   8  -5 -16   42.39    8.04
   8   5 -15   39.46    7.13
   8  -5 -15   37.67    7.14
   8  -5 -15   37.61    6.98
   8   5 -14   25.51    5.39
   8  -5 -14   25.56    6.42
   8  -5 -14   37.18    7.05
   8   5 -13    9.71    4.03
   8  -5 -13    8.32    4.99
   8  -5 -13   12.53    4.46
   8   5 -12   26.55    6.16
   8  -5 -12   31.73    6.15
   8  -5 -12   12.66    3.61
   8   5 -11   14.88    3.72
   8  -5 -11   13.62    4.84
   8  -5 -11   18.80    5.39
   8   5 -10    3.09    2.15
  -8   5 -10    2.03    1.43
   8  -5 -10   -1.07    2.47
   8  -5 -10    1.95    2.07
   8  -5  -9    5.95    3.43
   8   5  -9    5.31    2.48
   8  -5  -9    9.41    3.31
   8  -5  -8   24.25    5.39
   8   5  -8   29.01    6.28
   8  -5  -8   19.29    5.31
   8   5  -7   68.24    8.79
   8   5  -7   59.00    6.94
   8  -5  -7   69.50    9.42
   8  -5  -7   70.08    9.32
   8  -5  -6   18.37    4.62
   8   5  -6   14.60    3.76
   8  -5  -6   24.42    5.54
   8   5  -6   22.93    4.43
   8   5  -5   11.26    3.04
   8  -5  -5   14.65    4.73
   8   5  -5   10.54    3.32
   8  -5  -5   16.11    4.67
   8   5  -4   62.01    8.21
   8   5  -4   54.87    6.83
   8  -5  -4   49.88    7.14
   8  -5  -4   53.00    8.09
   8   5  -3   55.58    7.88
   8   5  -3   49.11    6.94
   8  -5  -3   53.91    8.08
   8  -5  -3   45.39    7.46
   8   5  -2   29.28    6.14
   8   5  -2   39.53    6.31
   8  -5  -2   34.70    6.17
   8  -5  -2   34.71    6.39
   8   5  -1   23.35    4.89
   8  -5  -1   16.63    4.30
   8   5  -1   11.42    3.07
   8  -5  -1    9.24    3.62
   8   5   0   24.78    4.69
   8  -5   0   25.05    5.59
   8   5   0   23.26    4.72
   8  -5   0   33.62    6.44
   8   5   1   25.72    5.85
   8  -5   1   25.48    5.87
   8   5   1    9.28    2.99
   8  -5   1   20.18    5.23
   8  -5   2   25.15    5.76
   8   5   2   32.40    5.50
   8  -5   2   24.31    5.19
   8   5   2   29.87    6.00
   8  -5   3   47.84    7.60
   8   5   3   50.03    7.04
   8   5   3   48.17    7.39
   8  -5   3   47.28    7.61
   8  -5   4   63.25    8.52
   8   5   4   55.78    7.56
   8   5   4   53.17    7.83
   8  -5   4   55.02    7.97
   8   5   5   24.25    5.36
   8  -5   5   13.79    5.42
   8   5   5   18.44    5.18
   8  -5   5   17.65    3.75
   8   5   6   16.80    4.45
   8  -5   6   21.94    5.02
   8   5   6   34.44    6.11
   8  -5   6   26.84    6.28
   8  -5   7   58.96    8.42
   8   5   7   63.18    8.15
   8   5   7   78.18    9.44
   8  -5   7   62.23    8.55
   8   5   8   22.41    5.62
   8  -5   8   11.47    3.92
   8   5   8   18.63    4.30
   8  -5   8   22.47    4.94
   8   5   9    7.90    2.71
   8  -5   9    4.53    2.16
   8   5   9    7.45    3.01
   8  -5   9    9.54    3.54
   8   5  10    2.96    1.61
   8  -5  10   -0.93    3.07
   8   5  10    0.25    2.12
   8  -5  10    0.34    1.43
   8   5  11   15.20    4.08
   8  -5  11   22.25    5.58
   8   5  11   13.09    4.83
   8   5  12   22.85    5.52
   8  -5  12   20.38    5.36
   8   5  12   11.59    3.93
   8   5  13   15.34    4.88
   8  -5  13   12.91    4.99
   8   5  13   11.62    4.43
   8   5  14   25.31    5.78
   8  -5  14   34.84    6.58
   8   5  14   25.52    5.98
   8   5  15   32.56    6.41
   8  -5  15   33.04    6.98
   8   5  15   49.54    7.89
   8   5  16   41.97    7.31
   8   5  16   39.34    7.25
   8  -5  16   29.51    6.10
   8   5  17   16.54    5.36
   8   5  17   30.96    6.57
   8  -5  17   13.67    4.98
   8   5  18    5.23    3.95
   8   5  19   11.07    4.21
   8   5  20    2.31    2.20
   8   5  21    5.76    3.66
   8   5  22    1.76    3.74
   8   5  23    0.94    3.40
   8   5  24    0.98    2.20
   8   5  25    3.58    4.38
   8  -6 -23    2.32    2.26
   8  -6 -22   11.70    6.41
   8  -6 -21   35.17    7.12
   8  -6 -21    9.67    4.56
   8  -6 -20   13.06    4.14
   8  -6 -20    6.86    3.13
   8  -6 -19   25.38    7.06
   8  -6 -19   20.32    6.01
   8  -6 -18   41.82    7.88
   8  -6 -18   44.44    8.26
   8  -6 -17   22.34    5.89
   8  -6 -17   21.23    5.86
   8   6 -17   35.74    8.26
   8   6 -16   24.68    6.44
   8  -6 -16   16.06    5.44
   8  -6 -16   13.80    3.92
   8  -6 -15   93.98   11.45
   8  -6 -15   98.17   11.85
   8   6 -14   38.33    7.40
   8  -6 -14   41.17    7.82
   8  -6 -14   41.27    7.77
   8   6 -13    0.21    2.72
   8  -6 -13    4.91    3.52
   8  -6 -13    3.68    3.33
   8  -6 -12   81.38   10.72
   8  -6 -12   85.00   11.07
   8   6 -12   65.26    9.43
   8   6 -11  119.11   12.61
   8  -6 -11  137.62   13.47
   8  -6 -11  114.20   12.78
   8   6 -10   21.90    5.44
   8  -6 -10   19.53    5.31
   8  -6 -10   28.15    6.32
   8   6  -9   75.55    9.01
  -8   6  -9   78.46    9.22
   8  -6  -9   94.75   11.16
   8   6  -8   43.92    7.48
  -8   6  -8   35.51    6.56
   8  -6  -8   41.95    7.56
   8  -6  -8   47.87    8.12
   8  -6  -7   22.38    5.24
   8   6  -7   29.46    6.39
  -8   6  -7   22.63    5.23
   8  -6  -7   25.64    6.11
   8   6  -6  154.70   13.55
   8   6  -6  155.89   12.51
  -8   6  -6  150.79   12.77
   8  -6  -6  156.87   14.22
   8  -6  -6  162.56   14.38
   8   6  -5  217.35   16.21
   8   6  -5  208.27   14.20
   8  -6  -5  211.52   16.57
   8  -6  -5  224.76   16.81
   8  -6  -4   15.47    4.46
   8   6  -4   11.53    5.29
   8   6  -4   11.56    3.72
   8  -6  -4   19.85    4.91
   8   6  -3   58.07    8.14
   8   6  -3   48.43    7.02
   8  -6  -3   56.54    8.76
   8  -6  -3   51.92    8.24
   8   6  -2   77.11    9.36
   8   6  -2   66.12    8.38
   8  -6  -2   73.61    9.14
   8   6  -1   83.96    9.83
   8   6  -1   91.29   10.01
   8  -6  -1   69.15    9.20
   8  -6  -1  101.06   10.92
   8   6   0   85.51   10.14
   8  -6   0   91.02   10.51
   8   6   0  113.32   10.79
   8  -6   0  104.94   11.06
   8   6   1  107.85   11.60
   8  -6   1   85.41    9.81
   8   6   1   90.81    9.73
   8  -6   1   87.47   10.38
   8   6   2   65.33    8.45
   8  -6   2   80.24    9.62
   8   6   2   66.34    8.46
   8  -6   2   73.65    9.17
   8   6   3   69.63    8.77
   8  -6   3   45.57    8.01
   8   6   3   61.15    8.28
   8  -6   3   48.48    7.90
   8  -6   4    9.17    3.05
   8   6   4   12.93    3.95
   8   6   4   14.25    4.36
   8  -6   4    9.93    3.05
   8   6   5  217.35   16.05
   8  -6   5  192.40   15.69
   8   6   5  188.84   14.87
   8  -6   5  184.32   15.14
   8   6   6  172.37   14.45
   8  -6   6  156.85   14.32
   8   6   6  178.38   14.62
   8  -6   6  185.29   14.98
   8  -6   7   19.31    5.01
   8   6   7   16.18    4.17
   8   6   7   20.64    5.53
   8  -6   7   31.19    5.97
   8   6   8   46.89    7.38
   8  -6   8   42.80    7.26
   8   6   8   31.77    6.15
   8  -6   8   54.82    8.91
   8  -6   9   90.07   10.72
   8   6   9   70.42    9.50
   8   6   9   74.99    9.48
   8  -6   9   82.50    9.92
   8  -6  10   21.83    5.89
   8   6  10   24.06    5.88
   8   6  10   20.50    5.09
   8  -6  10   14.03    4.82
   8  -6  11  131.43   13.32
   8   6  11  152.45   13.70
   8   6  11  134.47   13.95
   8  -6  11  126.30   13.05
   8  -6  12   68.62    9.60
   8   6  12   62.12    8.95
   8   6  12   77.68   10.21
   8  -6  12   70.34   10.00
   8   6  13    2.74    3.39
   8  -6  13    1.23    1.83
   8   6  13    0.28    2.56
   8  -6  13   -0.22    2.52
   8  -6  14   39.81    8.78
   8   6  14   47.45    7.65
   8   6  14   69.63    9.77
   8  -6  14   56.99    8.76
   8  -6  15   65.70   10.41
   8   6  15   83.94   10.46
   8   6  16   15.92    5.43
   8  -6  16    8.82    4.72
   8   6  16   20.73    5.01
   8   6  17   34.85    6.82
   8   6  17   28.35    6.17
   8   6  18   38.88    7.18
   8   6  19   25.52    6.72
   8   6  20    3.35    3.22
   8   6  21   21.21    6.70
   8   6  22    1.94    3.74
   8   6  23    8.90    4.64
  -8   6  23    1.97    3.15
   8  -7 -21   -0.67    1.74
   8  -7 -21   -0.02    2.55
   8  -7 -20    5.26    2.18
   8  -7 -20    7.07    2.95
   8  -7 -19   -3.86    2.24
   8  -7 -19    4.11    3.28
   8  -7 -18   10.51    3.99
   8  -7 -18   -1.71    3.04
   8  -7 -17    4.98    3.55
   8  -7 -17   -3.71    1.81
   8   7 -16   -0.11    1.64
   8  -7 -16   -1.57    2.06
   8  -7 -16   -0.46    1.76
   8   7 -15   -1.25    1.93
   8  -7 -15    4.27    2.75
   8  -7 -15   -1.41    1.65
   8   7 -14    2.30    2.10
   8  -7 -14    2.31    2.56
   8  -7 -14    4.11    2.26
   8  -7 -13    4.50    3.56
   8   7 -13    0.64    3.10
   8  -7 -13    8.74    3.16
   8   7 -12   30.37    6.29
   8  -7 -12   28.28    6.68
   8  -7 -12   23.05    6.17
   8   7 -11   34.67    7.44
   8  -7 -11   38.42    7.75
   8  -7 -11   28.31    6.64
   8   7 -10   19.79    5.25
   8  -7 -10   26.48    5.94
   8  -7 -10   29.34    6.46
   8   7  -9   -1.11    1.46
   8  -7  -9    2.91    3.43
   8  -7  -9    3.10    3.31
   8   7  -8   35.10    7.00
   8  -7  -8   56.84    9.41
  -8   7  -8   34.77    6.30
   8  -7  -8   40.79    7.51
   8   7  -7   39.51    7.81
  -8   7  -7   26.09    6.40
   8  -7  -7   27.13    6.49
   8  -7  -7   39.19    6.71
   8  -7  -6   11.32    4.52
   8   7  -6   14.15    5.09
  -8   7  -6   20.40    5.06
   8  -7  -6   18.71    5.06
   8   7  -5   64.60    9.12
   8  -7  -5   85.27   10.94
  -8   7  -5   76.09    9.83
   8  -7  -5   57.05    8.41
   8  -7  -4   22.17    5.81
   8   7  -4   20.56    4.07
  -8   7  -4   26.78    5.98
   8   7  -4   19.62    5.27
   8  -7  -4   16.22    4.70
  -8   7  -3   38.72    6.82
   8   7  -3   46.07    8.01
   8  -7  -3   50.17    8.17
   8   7  -3   51.29    7.87
   8  -7  -3   44.30    7.92
   8  -7  -2   34.72    7.09
   8   7  -2   29.14    6.60
  -8   7  -2   33.60    6.86
   8  -7  -2   30.74    6.59
   8   7  -2   41.33    7.22
   8   7  -1   56.68    8.28
  -8   7  -1   68.03    9.26
   8  -7  -1   72.50    9.95
   8   7  -1   41.25    7.51
   8  -7  -1   67.61    9.60
   8   7   0   88.09   10.72
  -8   7   0   89.43   10.59
   8  -7   0   85.04   10.48
   8   7   0   90.02   10.44
   8  -7   0   94.41   11.27
   8   7   1   73.55    9.78
   8  -7   1   58.37    8.84
   8   7   1   54.92    8.18
   8  -7   1   57.92    8.34
   8  -7   2   32.11    7.08
   8   7   2   36.27    7.22
   8  -7   2   44.14    7.98
   8   7   2   34.62    6.58
   8  -7   3   36.56    7.10
   8   7   3   34.56    6.68
   8  -7   3   51.05    8.57
   8   7   3   30.84    6.35
   8  -7   4   29.92    6.59
   8   7   4   29.41    5.78
   8  -7   4   27.92    5.93
   8   7   4   24.18    6.14
   8   7   5   61.15    8.97
   8  -7   5   75.13   10.08
   8   7   5   47.30    8.40
   8  -7   5   67.51    9.65
   8  -7   6   18.32    5.17
   8   7   6   29.06    6.34
   8  -7   6   21.19    6.04
   8   7   6   13.93    4.75
   8   7   7   36.23    6.76
   8  -7   7   32.46    6.80
   8   7   7   52.91    8.18
   8  -7   7   47.36    7.93
   8   7   8   43.83    8.09
   8  -7   8   54.94    8.93
   8   7   8   46.16    7.86
   8  -7   8   47.94    8.58
   8  -7   9   -1.66    2.15
   8   7   9    1.69    3.52
   8  -7   9   -1.22    2.77
   8   7   9   -0.20    1.29
   8  -7  10   19.90    4.74
   8   7  10   25.93    5.84
   8  -7  10   21.19    5.76
   8   7  10   20.49    5.18
   8  -7  11   47.31    7.80
   8   7  11   42.03    7.76
   8  -7  11   58.13    9.53
   8   7  11   44.98    7.81
   8  -7  12   29.41    6.66
   8   7  12   35.21    7.44
   8   7  12   41.80    7.29
   8  -7  13    7.84    5.08
   8   7  13   10.70    4.61
   8   7  13    3.41    2.24
   8  -7  14    2.22    2.69
   8   7  14    4.35    3.61
   8   7  14    2.92    2.90
   8   7  15    0.69    2.34
   8   7  15    0.38    1.49
   8   7  16    8.01    5.05
   8   7  16    6.20    2.92
   8   7  17    4.03    3.47
   8   7  17    4.34    4.00
  -8   7  17   -2.59    2.24
   8   7  18    5.08    2.43
  -8   7  18    2.50    3.75
   8   7  19    1.88    2.51
  -8   7  19    3.07    3.73
   8   7  20    4.54    3.16
  -8   7  20    9.94    5.76
   8   7  21    7.74    3.92
  -8   7  21    1.63    3.71
   8  -8 -19   10.43    4.33
   8  -8 -19    9.36    3.99
   8  -8 -18   15.86    4.76
   8  -8 -18   31.61    7.54
   8  -8 -17   39.82    7.84
   8  -8 -17   35.93    7.97
   8  -8 -16   -1.05    2.55
   8  -8 -16    2.12    2.39
   8   8 -15   21.39    5.58
   8  -8 -15   17.07    5.15
   8  -8 -15   21.37    6.16
   8   8 -14    9.34    3.72
   8  -8 -14   16.73    5.31
   8   8 -13   -1.14    3.01
   8  -8 -13    3.43    1.95
   8  -8 -13    1.15    1.78
   8   8 -12   54.95    9.47
   8  -8 -12   50.57    8.79
   8  -8 -12   39.56    7.79
   8   8 -11   95.82   12.14
   8  -8 -11   85.39   11.36
   8  -8 -11   73.78   11.14
   8   8 -10    3.14    3.15
   8  -8 -10    9.30    4.25
   8  -8 -10    5.26    2.16
   8   8  -9   31.84    6.90
   8  -8  -9   46.16    8.79
   8   8  -8   43.91    8.06
  -8   8  -8   79.39   11.71
   8  -8  -8   74.95   10.81
   8  -8  -8   52.41    8.66
   8   8  -7   21.29    6.05
  -8   8  -7   15.18    5.00
   8  -8  -7   20.43    6.00
   8  -8  -7   13.10    4.77
   8   8  -6   14.96    4.42
  -8   8  -6   11.40    3.85
   8  -8  -6   19.86    6.06
   8  -8  -6   21.50    4.86
   8   8  -5   70.16   10.00
  -8   8  -5   63.56    9.67
   8  -8  -5   60.79    9.96
   8  -8  -5   56.70    9.28
   8   8  -4    9.13    3.71
  -8   8  -4   20.12    5.54
   8  -8  -4   13.55    4.88
   8  -8  -4   10.82    4.37
   8   8  -3    8.08    3.17
   8  -8  -3    2.48    2.21
   8   8  -3    4.88    3.25
  -8   8  -3    8.90    3.98
   8  -8  -3    9.23    4.59
  -8   8  -2   33.03    6.95
   8   8  -2   39.96    7.68
   8  -8  -2   37.25    7.34
   8   8  -2   45.32    7.69
   8  -8  -2   25.03    6.41
   8   8  -1   37.93    7.68
  -8   8  -1   27.27    6.39
   8  -8  -1   29.20    6.43
   8   8  -1   16.74    4.40
   8  -8  -1   30.73    7.13
   8  -8   0    2.20    3.17
   8   8   0    0.80    2.63
  -8   8   0    4.15    1.97
   8  -8   0    4.16    2.91
   8   8   0    6.48    3.62
   8  -8   1   24.15    6.67
   8   8   1   33.31    7.12
  -8   8   1   21.83    5.68
   8  -8   1   46.70    8.69
   8   8   1   35.69    6.24
   8  -8   2   36.05    7.66
   8   8   2   39.35    7.27
  -8   8   2   43.52    8.07
   8  -8   2   47.99    9.49
   8   8   2   28.12    6.07
   8  -8   3   10.34    4.06
   8   8   3    6.62    2.80
  -8   8   3   11.78    4.63
   8  -8   3    4.09    3.56
   8   8   3   11.90    3.69
   8  -8   4   17.64    5.25
  -8   8   4   17.69    5.35
   8   8   4   17.79    5.67
   8  -8   4   15.73    5.53
   8   8   4    6.13    4.21
   8   8   5   74.42   10.24
  -8   8   5   72.69   10.22
   8  -8   5   62.93    9.46
   8  -8   5   53.72    9.13
   8  -8   6   16.53    4.99
  -8   8   6   22.98    5.57
   8   8   6   11.32    3.70
   8   8   6    3.97    3.09
   8  -8   7    8.08    3.27
   8   8   7   17.48    5.76
  -8   8   7   18.63    5.64
   8   8   7   14.12    4.71
   8   8   8   62.13    9.21
  -8   8   8   34.97    7.05
   8  -8   8   52.68    8.66
   8   8   8   52.87    8.80
   8  -8   9   42.91    8.06
   8   8   9   36.85    7.44
  -8   8   9   52.83    8.99
   8   8   9   47.54    8.45
   8  -8  10    8.21    4.71
   8   8  10    5.53    2.63
  -8   8  10   -1.62    1.67
   8   8  10    5.26    2.97
   8   8  11   97.61   12.37
  -8   8  11   64.47    9.59
   8   8  11   91.13   11.80
   8  -8  11   72.84   10.67
   8   8  12   42.31    8.63
  -8   8  12   60.32    9.57
   8   8  12   55.54    8.88
   8  -8  12   57.37    9.90
   8  -8  13    4.68    3.44
  -8   8  13    0.84    1.99
   8   8  13    4.04    3.98
   8   8  13   -1.08    2.44
   8   8  14   21.03    5.22
  -8   8  14   10.60    4.08
   8   8  14   22.88    5.76
   8   8  15   31.42    6.88
  -8   8  15   34.20    8.04
   8   8  15   27.29    6.37
   8   8  16    2.86    2.67
  -8   8  16    4.74    3.33
   8   8  16    6.85    4.12
  -8   8  17   46.46    8.23
   8   8  17   56.06   10.30
   8   8  17   51.27    8.85
   8   8  18   14.83    4.59
  -8   8  18   19.15    6.28
   8   8  19    6.68    4.08
  -8   8  19    5.16    3.21
   8  -9 -15   12.42    4.61
   8  -9 -15    8.30    5.32
   8   9 -14   -2.36    3.84
   8  -9 -14    3.79    3.49
   8  -9 -14   10.52    6.56
   8   9 -13   11.91    4.06
   8  -9 -13   10.37    3.84
   8  -9 -13    3.54    1.96
   8   9 -12    4.41    4.05
   8  -9 -12    7.50    4.14
   8  -9 -12    7.41    2.22
   8   9 -11   12.40    4.61
   8  -9 -11    4.32    2.09
   8  -9 -11   19.79    5.64
   8   9 -10    3.71    2.18
   8  -9 -10    5.20    2.69
   8  -9 -10    8.65    3.57
   8   9  -9   -0.46    1.85
   8  -9  -9    3.29    2.64
   8  -9  -9    2.12    2.16
   8   9  -8   14.92    4.88
   8  -9  -8   13.27    4.48
   8  -9  -8   10.05    4.30
   8   9  -7    0.93    2.81
   8  -9  -7   -0.92    3.78
  -8   9  -7    3.74    2.53
   8  -9  -7    1.18    2.11
   8   9  -6    1.21    2.26
  -8   9  -6    3.56    2.47
   8  -9  -6   -2.45    3.91
   8  -9  -6   -0.55    3.06
   8   9  -5    7.68    2.45
  -8   9  -5    7.99    4.36
   8  -9  -5   16.27    5.72
   8  -9  -5   13.92    4.71
   8   9  -4    9.14    4.11
  -8   9  -4    1.85    3.64
   8  -9  -4   -0.45    2.06
   8  -9  -4    9.57    4.49
   8   9  -3    3.87    2.44
  -8   9  -3    1.30    2.84
   8  -9  -3    8.62    3.34
   8  -9  -3    3.00    4.73
   8   9  -2   15.55    5.27
  -8   9  -2    9.84    4.22
   8  -9  -2    7.54    5.21
   8   9  -2   19.90    7.64
   8  -9  -2   12.05    4.33
   8   9  -1    1.35    2.32
  -8   9  -1    9.73    4.41
   8  -9  -1    6.21    3.45
   8   9  -1    2.44    2.09
   8  -9  -1    5.13    3.27
   8   9   0    6.95    4.38
  -8   9   0    2.79    3.74
   8   9   0    6.19    3.37
   8  -9   0    2.10    2.66
   8   9   1    5.22    4.33
  -8   9   1    1.20    1.95
   8   9   1    5.55    4.10
   8  -9   1    8.21    4.14
   8   9   2    1.95    1.41
  -8   9   2    5.72    3.40
   8  -9   2    9.99    3.69
   8   9   2    9.70    3.68
   8   9   3   11.95    5.37
  -8   9   3    3.53    2.70
   8  -9   3    3.23    1.56
   8   9   3   12.01    4.57
   8   9   4    8.21    3.12
   8   9   4    2.83    3.27
  -8   9   4    4.58    3.25
   8  -9   4    4.30    3.97
   8   9   5    2.03    1.88
   8   9   5   17.38    6.16
  -8   9   5   15.53    5.59
   8  -9   5   18.10    5.27
   8   9   6    1.48    3.44
   8   9   6   -1.93    1.68
  -8   9   6    3.33    1.99
   8  -9   6    6.62    4.85
   8   9   7    2.36    1.78
   8   9   7   -4.46    2.89
  -8   9   7    2.13    2.99
   8  -9   7   -1.37    2.43
   8   9   8   12.14    3.19
  -8   9   8    8.68    4.48
   8   9   8   12.02    5.18
   8  -9   8   12.25    5.26
   8   9   9    0.67    2.69
  -8   9   9    0.45    1.87
   8   9   9    3.65    2.14
   8  -9   9   -3.68    2.45
   8   9  10    5.87    3.64
  -8   9  10    8.13    3.77
   8   9  10    0.47    1.62
   8  -9  10    9.41    4.60
   8   9  11    2.89    2.47
  -8   9  11    5.03    2.73
   8   9  11   10.23    4.99
   8  -9  11   -2.05    3.60
   8   9  12    1.63    2.35
  -8   9  12   10.12    4.94
   8   9  12    3.71    2.85
   8   9  13   16.07    5.58
  -8   9  13   14.59    5.16
   8   9  13    8.15    4.31
   8   9  14    2.63    2.08
  -8   9  14   12.71    5.32
   8   9  14    7.50    4.10
   8   9  15   13.46    7.26
  -8   9  15    7.83    3.27
   8   9  15    5.78    2.91
   8  10 -10    1.02    2.98
   8 -10 -10   -2.77    3.71
   8 -10 -10   -0.57    2.23
   8  10  -9   19.27    5.51
   8 -10  -9   31.49    7.70
   8 -10  -9   33.88    7.99
   8  10  -8   21.83    5.58
   8 -10  -8   15.54    5.50
   8 -10  -8    8.33    3.60
   8  10  -7    7.50    5.03
   8 -10  -7    5.09    3.71
   8  10  -6    3.65    4.89
  -8  10  -6    1.09    3.17
   8 -10  -6   -1.47    1.93
   8  10  -5   28.29    7.30
  -8  10  -5   27.43    7.16
   8 -10  -5   28.05    7.11
   8  10  -4    8.59    4.73
  -8  10  -4    6.33    5.10
   8 -10  -4    5.14    1.41
   8  10  -3   -2.42    2.44
  -8  10  -3   -0.75    1.46
   8 -10  -3    2.47    3.18
   8  10  -2   12.61    5.18
  -8  10  -2   17.90    5.79
   8 -10  -2   14.13    5.05
   8  10  -1   22.57    6.41
  -8  10  -1   10.30    3.96
   8 -10  -1   17.81    5.45
  -8  10   0    2.65    2.15
   8  10   0    1.71    3.98
   8  10   0    3.93    3.19
   8 -10   0   -0.27    2.85
   8  10   1   16.96    5.91
  -8  10   1   20.87    4.52
   8 -10   1   16.13    4.95
   8  10   1   17.36    5.41
   8  10   2   14.16    4.69
  -8  10   2   14.78    5.19
   8 -10   2   14.28    4.54
   8  10   2    2.49    3.17
   8  10   3    4.34    3.74
  -8  10   3   -4.03    2.69
   8 -10   3    1.29    2.07
   8  10   3    4.91    3.25
   8  10   4    7.71    4.41
  -8  10   4    8.48    3.70
   8 -10   4   13.72    4.42
   8  10   4   16.36    5.65
   8  10   5   31.14    7.73
  -8  10   5   28.67    7.64
   8 -10   5   23.27    6.73
   8  10   5   45.60    8.53
   8  10   6    1.69    2.34
  -8  10   6   -2.13    3.63
   8 -10   6   -0.87    2.57
   8  10   6   -2.75    3.33
   8  10   7    6.76    2.34
  -8  10   7    7.01    3.36
   8 -10   7   11.87    4.88
   8  10   7    0.16    2.53
  -8  10   8    6.82    4.35
   8 -10   8    6.22    4.65
   8  10   8    0.42    2.33
   8  10   9   22.07    6.68
  -8  10   9   26.96    7.25
   8 -10   9   15.95    5.39
   8  10   9   39.25    8.00
  -8  10  10   -0.31    2.16
   8  10  10    3.24    1.59
   9   0 -26   -4.49    2.87
   9   0 -25   -0.32    2.65
   9   0 -24    1.33    2.76
   9   0 -23    1.98    2.17
   9   0 -22    0.17    1.90
   9   0 -21   -1.01    1.77
   9   0 -20   -1.31    2.80
   9   0 -19    0.26    2.45
   9   0 -18    6.47    3.77
   9   0 -17    1.76    2.79
   9   0 -16   -0.44    1.12
   9   0 -15   -1.92    2.31
   9   0 -14    0.56    1.18
   9   0 -13   -1.07    1.11
   9   0 -13    1.76    2.08
   9   0 -12    0.53    1.45
   9   0 -12    0.29    1.48
   9   0 -11    0.40    1.68
   9   0 -11    1.44    1.55
   9   0 -10    0.46    1.33
   9   0 -10   -0.28    1.16
   9   0  -9   -0.60    1.56
   9   0  -9   -0.29    1.55
   9   0  -8   -0.18    1.19
   9   0  -8   -0.10    1.36
   9   0  -7    0.81    0.75
   9   0  -7    2.06    1.76
   9   0  -7    0.16    2.65
   9   0  -6   -0.85    0.66
   9   0  -6    0.15    1.92
   9   0  -6   -0.30    1.87
   9   0  -5   -0.52    0.81
   9   0  -5    0.31    1.77
   9   0  -5    1.22    1.76
   9   0  -4   -0.39    0.93
   9   0  -4    0.17    1.24
   9   0  -4   -0.94    1.36
   9   0  -3   -0.30    0.89
   9   0  -3    2.31    2.61
   9   0  -3    1.96    0.94
   9   0  -2    0.52    1.15
   9   0  -2    0.64    1.67
   9   0  -2    0.54    2.02
   9   0  -1    0.10    0.83
   9   0  -1    0.99    1.45
   9   0  -1   -0.75    1.08
   9   0   0    0.72    1.27
   9   0   0    0.20    1.39
   9   0   0   -0.01    0.76
   9   0   1    0.63    0.92
   9   0   1   -0.13    1.39
   9   0   2   -0.18    1.35
   9   0   2    0.42    0.75
   9   0   3    0.29    1.07
   9   0   3    1.24    0.81
   9   0   4    0.55    0.66
   9   0   4   -0.34    1.14
   9   0   5   -0.50    0.76
   9   0   5    0.26    1.16
   9   0   6    0.08    1.15
   9   0   6    0.02    1.15
   9   0   7    1.14    2.23
   9   0   7    0.37    1.00
   9   0   8   -2.16    2.89
   9   0   8    0.24    1.00
   9   0   9   -0.76    1.50
   9   0   9    2.83    1.92
   9   0  10    2.24    1.49
   9   0  10   -2.03    1.67
   9   0  11   -1.16    2.75
   9   0  11    0.73    1.07
   9   0  12   -0.20    1.79
   9   0  12   -0.27    1.44
   9   0  13   -0.12    1.55
   9   0  13    0.95    1.20
   9   0  14    0.89    1.86
   9   0  15   -1.29    1.51
   9   0  16   -2.35    2.77
   9   0  17   -0.38    1.60
   9   0  18    0.80    2.29
   9   0  19    0.45    2.17
   9   0  20   -2.66    2.72
   9   0  21    2.01    2.41
   9   0  22    1.43    2.68
   9   0  23    1.77    3.69
   9   0  24    2.46    2.11
   9  -1 -28   21.07    6.46
   9  -1 -27   31.76    5.54
   9  -1 -26   38.54    8.29
   9  -1 -25   10.07    3.68
   9  -1 -24   -0.35    1.90
   9  -1 -23   16.29    5.81
   9   1 -22   58.85    9.90
   9  -1 -22   31.56    6.48
   9   1 -21   90.08   11.02
   9  -1 -21   99.46   11.94
   9   1 -20   18.07    4.28
   9  -1 -20   20.45    5.10
   9   1 -19   48.15    7.95
   9  -1 -19   58.30    8.95
   9   1 -18    4.37    2.81
   9  -1 -18    1.61    1.67
   9   1 -17  433.02   22.56
   9  -1 -17  463.76   23.92
   9  -1 -16   79.70    9.80
   9   1 -16   78.08    9.40
   9   1 -15  253.44   16.77
   9  -1 -15  248.01   17.04
   9  -1 -14    7.01    2.80
   9   1 -14    2.60    2.03
   9  -1 -14    3.55    1.83
   9  -1 -13    1.38    0.87
   9   1 -13   -1.18    2.32
   9  -1 -13   -0.39    1.94
   9   1 -13    2.20    2.57
   9   1 -12  100.07   10.04
   9  -1 -12   96.09   10.15
   9   1 -12   86.79    9.46
   9  -1 -12   94.52    9.17
   9   1 -11  806.28   24.05
   9   1 -11  836.73   29.05
   9  -1 -11  838.28   30.32
   9   1 -11  830.39   29.22
   9  -1 -11  841.38   27.41
   9  -1 -10   47.88    6.59
   9   1 -10   52.74    6.31
   9   1 -10   32.78    5.59
   9  -1 -10   63.43    8.54
   9   1 -10   43.49    6.80
   9  -1  -9  554.18   22.09
   9   1  -9  546.70   19.92
   9  -1  -9  529.50   23.63
   9   1  -9  528.36   22.16
   9   1  -9  546.87   22.80
   9  -1  -8  169.91   12.03
   9   1  -8  155.93   11.81
   9   1  -8  174.84   11.15
   9  -1  -8  163.55   12.75
   9   1  -8  179.74   12.55
   9  -1  -7  189.50   12.53
   9   1  -7  166.26   12.00
   9   1  -7  185.08   11.65
   9  -1  -7  205.32   14.46
   9   1  -7  188.57   13.09
   9  -1  -6  187.65   12.75
   9   1  -6  204.62   12.37
   9  -1  -6  175.64   13.17
   9   1  -6  189.26   12.81
   9   1  -6  201.92   13.44
   9  -1  -5  430.20   19.05
   9   1  -5  448.96   18.19
   9  -1  -5  484.55   21.88
   9   1  -5  468.27   20.17
   9   1  -5  474.69   20.48
   9  -1  -4  302.88   15.87
   9   1  -4  310.35   15.29
   9  -1  -4  337.22   17.76
   9   1  -4  347.05   17.37
   9   1  -4  327.34   16.98
   9  -1  -3  430.83   18.98
   9   1  -3  459.53   18.67
   9  -1  -3  442.26   20.30
   9   1  -3  462.17   19.82
   9   1  -3  469.31   20.27
   9   1  -2  239.71   13.36
   9  -1  -2  233.72   13.87
   9  -1  -2  258.08   15.64
   9   1  -2  237.17   14.24
   9   1  -2  233.43   14.20
   9  -1  -1  695.24   24.28
   9   1  -1  710.30   23.56
   9  -1  -1  718.91   25.91
   9   1  -1  739.05   24.94
   9   1  -1  713.96   24.40
   9  -1   0 1080.37   30.09
   9   1   0 1040.19   28.92
   9  -1   0 1083.22   31.56
   9   1   0 1114.34   30.26
   9  -1   1  715.94   25.06
   9  -1   1  672.13   25.19
   9   1   1  708.99   23.95
   9   1   1  685.53   23.46
   9  -1   2  235.43   14.23
   9   1   2  229.67   13.67
   9  -1   3  443.09   19.68
   9   1   3  463.00   19.84
   9   1   3  438.42   18.93
   9  -1   4  313.43   16.60
   9   1   4  323.14   16.75
   9   1   4  338.31   16.48
   9  -1   5  388.20   18.85
   9   1   5  450.10   19.97
   9   1   5  425.33   18.34
   9  -1   6  192.60   13.23
   9   1   6  197.43   12.32
   9   1   6  190.46   13.17
   9  -1   7  176.49   12.73
   9   1   7  194.31   12.19
   9   1   7  189.03   13.19
   9  -1   8  160.29   12.06
   9   1   8  177.95   11.63
   9   1   8  176.75   13.10
   9  -1   9  501.73   22.10
   9   1   9  525.16   20.17
   9   1   9  542.55   23.20
   9  -1  10   40.89    6.32
   9   1  10   56.38    6.56
   9   1  10   43.97    6.48
   9  -1  11  823.59   28.98
   9   1  11  770.33   24.46
   9  -1  12  103.85   10.48
   9   1  12   84.83    7.92
   9   1  12   80.87    9.19
   9   1  13    1.40    2.28
   9  -1  13    0.18    1.39
   9   1  13    0.13    1.46
   9  -1  14   12.10    3.96
   9   1  14    7.32    3.29
   9   1  14    2.43    1.60
   9  -1  15  252.77   17.08
   9   1  15  234.55   16.72
   9  -1  16    2.29    2.76
   9   1  16   62.36    8.80
   9  -1  17  439.28   23.34
   9   1  17  431.33   23.06
   9  -1  18    5.78    3.54
   9   1  18    0.57    1.45
   9  -1  19   52.08    8.22
   9   1  19   50.26    8.03
   9   1  20   25.15    6.28
   9  -1  20   16.31    4.33
   9  -1  21   95.69   11.42
   9   1  21   99.12   11.80
   9   1  22   51.78    7.77
   9  -1  22   36.36    7.69
   9   1  23   15.34    4.66
   9   1  24    3.17    3.12
   9   1  25   20.33    6.03
   9  -2 -27   -3.85    3.16
   9  -2 -26    4.59    3.53
   9  -2 -25    5.88    3.08
   9  -2 -24    2.36    3.86
   9  -2 -23    1.47    2.03
   9  -2 -22    7.23    3.40
   9  -2 -21    6.00    4.50
   9  -2 -20   -3.27    4.16
   9  -2 -19    0.93    3.30
   9  -2 -18   24.76    6.18
   9  -2 -17    3.05    2.48
   9   2 -17    6.42    4.06
   9   2 -17    4.73    3.12
   9   2 -16    4.28    1.72
   9  -2 -16    7.47    3.51
   9   2 -16    9.74    3.70
   9  -2 -16    7.52    3.33
   9   2 -15   -0.15    1.96
   9  -2 -15    1.99    1.85
   9   2 -15    0.80    1.46
   9  -2 -15    0.67    1.25
   9  -2 -14    4.52    2.56
   9   2 -14    7.78    3.48
   9  -2 -14    4.66    3.37
   9   2 -14    4.13    2.42
   9  -2 -13    3.27    1.54
   9   2 -13    4.06    2.62
   9  -2 -13    3.22    2.22
   9   2 -13    4.27    1.98
   9  -2 -12   21.95    5.04
   9   2 -12   19.96    4.33
   9  -2 -12   30.76    5.62
   9   2 -12   16.48    2.98
   9  -2 -11   18.00    4.53
   9   2 -11   12.92    3.38
   9  -2 -11   15.30    3.81
   9   2 -11   20.88    4.53
   9  -2 -10    1.06    1.46
   9   2 -10   -0.06    1.22
   9   2 -10    0.40    2.12
   9  -2 -10    3.52    2.13
   9   2 -10    3.41    2.46
   9  -2  -9    1.52    1.26
   9  -2  -9    3.17    2.05
   9   2  -9    0.45    1.21
   9   2  -9    0.73    1.19
   9   2  -9    5.53    2.43
   9  -2  -8   44.29    6.68
   9   2  -8   41.89    5.20
   9  -2  -8   30.66    6.24
   9   2  -8   36.81    5.37
   9   2  -8   45.59    6.76
   9   2  -7   22.85    4.72
   9  -2  -7   20.30    4.42
   9   2  -7   26.55    4.49
   9  -2  -7   18.22    4.55
   9   2  -7   22.38    4.11
   9   2  -6    9.28    2.56
   9   2  -6    7.39    3.09
   9  -2  -6    4.57    2.05
   9  -2  -6   13.23    4.41
   9   2  -6   11.98    3.89
   9   2  -5    1.18    1.05
   9   2  -5    4.59    2.13
   9  -2  -5    2.74    1.90
   9  -2  -5    5.21    1.52
   9   2  -5    5.01    2.75
   9   2  -4    4.99    2.04
   9   2  -4    2.54    1.74
   9  -2  -4    4.93    1.97
   9  -2  -4    4.61    2.50
   9   2  -4    4.41    1.57
   9   2  -3   13.79    3.94
   9   2  -3    8.87    2.72
   9  -2  -3   14.77    3.74
   9  -2  -3   13.29    3.23
   9   2  -3   16.63    3.63
   9   2  -2   11.89    3.75
   9   2  -2   12.23    3.24
   9  -2  -2   18.56    3.90
   9  -2  -2   16.51    4.31
   9   2  -2    9.56    3.03
   9  -2  -1   46.36    6.49
   9  -2  -1   44.56    6.39
   9   2  -1   55.46    6.81
   9   2  -1   50.20    6.39
   9   2  -1   63.60    7.46
   9   2   0   24.88    4.68
   9  -2   0   20.93    4.11
   9  -2   0   27.15    4.92
   9   2   0   24.24    4.71
   9  -2   1   57.85    7.23
   9  -2   1   56.37    7.55
   9   2   1   55.24    7.13
   9   2   2   20.73    4.35
   9   2   2   17.02    3.90
   9  -2   2   13.90    4.23
   9  -2   2   12.89    4.02
   9   2   3    5.79    1.37
   9   2   3   10.66    3.34
   9  -2   3   12.57    3.20
   9  -2   3   12.22    3.84
   9   2   4    4.38    1.65
   9   2   4    6.05    2.70
   9  -2   4    6.65    2.29
   9   2   5    1.74    1.93
   9   2   5    0.82    1.39
   9   2   6    9.51    2.85
   9   2   6    8.19    2.92
   9  -2   6    5.33    1.33
   9   2   7   26.03    4.62
   9   2   7   25.65    5.07
   9  -2   7   22.70    4.60
   9   2   8   51.96    7.21
   9  -2   8   55.33    7.28
   9   2   8   33.62    5.38
   9   2   9    1.19    2.72
   9   2   9    0.43    1.44
   9  -2   9    1.11    2.72
   9   2  10    0.66    1.87
   9   2  10    1.30    1.14
   9  -2  10    3.77    1.91
   9   2  11   14.69    3.68
   9   2  11    9.62    3.29
   9  -2  11   10.32    3.30
   9   2  12   24.88    4.53
   9   2  12   19.17    4.83
   9  -2  12   10.62    2.65
   9   2  13    1.15    0.89
   9   2  13    2.10    2.35
   9  -2  13    2.52    1.90
   9   2  14    8.42    3.18
   9   2  14   10.90    4.17
   9  -2  14    8.14    3.38
   9   2  15   -0.41    2.69
   9  -2  15    2.45    2.57
   9   2  16   11.89    4.69
   9  -2  16    8.65    3.35
   9   2  17    6.59    2.35
   9  -2  17    2.57    2.16
   9   2  18   19.49    5.66
   9  -2  18   19.60    5.05
   9   2  19   -1.33    2.92
   9  -2  19   -0.47    1.40
   9   2  20   -0.28    1.33
   9  -2  20    2.29    2.93
   9   2  21    2.40    1.86
   9  -2  21    2.91    2.73
   9   2  22    9.07    5.06
   9   2  23    3.09    1.84
   9   2  24    1.55    3.57
   9   2  25    5.17    4.56
   9   2  26    0.49    2.34
   9  -3 -27   71.40   10.38
   9  -3 -26   -2.15    2.13
   9  -3 -25   49.38    8.51
   9  -3 -24   28.81    6.85
   9  -3 -23    1.96    3.03
   9  -3 -22   63.14    9.77
   9  -3 -21  115.29   13.54
   9  -3 -20   -2.55    2.80
   9  -3 -19   29.98    6.88
   9   3 -19   24.57    5.61
   9  -3 -18   94.66   11.16
   9   3 -18   98.94   11.28
   9  -3 -17   42.84    7.84
   9  -3 -17   50.45    7.97
   9   3 -17   52.33    7.91
   9  -3 -16  491.99   25.26
   9  -3 -16  432.09   23.79
   9   3 -16  452.59   23.30
   9  -3 -15   65.13    9.05
   9  -3 -15   45.77    7.96
   9   3 -15   70.96    9.43
   9  -3 -14  115.15   12.29
   9  -3 -14   94.33   11.16
   9   3 -14  102.52   11.13
   9  -3 -13   71.50    9.45
   9   3 -13   81.75    9.68
   9  -3 -12  426.56   22.76
   9  -3 -12  420.49   21.79
   9   3 -12  405.30   21.18
   9  -3 -11  599.81   27.14
   9  -3 -11  565.72   24.81
   9   3 -11  590.91   25.55
   9  -3 -10  644.29   26.40
   9   3 -10  673.61   27.08
   9  -3 -10  692.33   28.83
   9   3  -9    6.30    3.11
   9  -3  -9    3.18    1.34
   9   3  -9    2.32    1.16
   9  -3  -9    7.65    3.47
   9   3  -9    3.28    1.69
   9  -3  -8  124.44   11.87
   9   3  -8  118.52    9.57
   9   3  -8  105.61    8.78
   9   3  -8  120.36   11.11
   9  -3  -8  132.01   11.84
   9  -3  -7 1174.22   34.91
   9  -3  -7 1250.19   37.01
   9   3  -7 1208.08   30.47
   9   3  -7 1201.89   29.75
   9   3  -7 1223.35   35.37
   9  -3  -6   69.90    8.45
   9  -3  -6   78.97    9.15
   9   3  -6   76.54    7.72
   9   3  -6   85.69    7.84
   9   3  -6   72.21    8.81
   9  -3  -5 1684.01   41.74
   9  -3  -5 1669.79   43.40
   9   3  -5 1660.45   35.53
   9   3  -5 1637.89   35.89
   9   3  -5 1644.21   40.67
   9  -3  -4  688.91   26.72
   9  -3  -4  682.23   27.47
   9   3  -4  633.99   22.48
   9   3  -4  707.46   23.72
   9   3  -4  736.83   27.26
   9   3  -3    0.41    1.68
   9  -3  -3   -0.44    1.43
   9   3  -3    1.35    1.51
   9  -3  -3    3.40    3.41
   9   3  -3    1.24    1.48
   9   3  -2   36.15    5.79
   9  -3  -2   37.29    6.45
   9  -3  -2   43.14    7.11
   9   3  -2   26.35    4.50
   9   3  -2   45.02    6.93
   9   3  -1 2360.60   44.99
   9  -3  -1 2323.95   48.39
   9  -3  -1 2226.60   48.68
   9   3   0   21.08    4.88
   9  -3   0    6.61    3.26
   9   3   0   12.51    3.30
   9  -3   0   16.38    4.63
   9   3   1 2351.62   47.47
   9  -3   1 2268.40   47.59
   9  -3   1 2235.13   49.12
   9   3   2   36.45    5.50
   9   3   2   33.41    5.75
   9  -3   2   43.82    6.79
   9  -3   2   41.33    7.07
   9   3   3    1.35    1.08
   9  -3   3    0.47    1.76
   9   3   3    1.00    1.73
   9  -3   3    3.71    2.78
   9   3   4  691.00   25.35
   9   3   4  695.70   25.37
   9  -3   4  727.18   27.28
   9  -3   4  750.55   28.14
   9   3   5 1651.68   39.39
   9   3   5 1590.07   39.09
   9  -3   5 1646.09   40.88
   9  -3   5 1679.36   42.20
   9   3   6   80.54    8.78
   9   3   6   76.67    8.87
   9  -3   6   73.97    8.84
   9   3   7 1274.31   34.51
   9   3   7 1215.28   34.97
   9  -3   7 1238.58   35.96
   9   3   8  134.27   11.23
   9   3   8  130.19   11.59
   9  -3   8  121.94   11.12
   9   3   9    6.07    2.27
   9  -3   9    2.00    1.20
   9   3   9    7.24    3.23
   9   3  10  709.24   26.24
   9  -3  10  750.91   28.55
   9   3  11  531.01   22.75
   9   3  11  548.73   24.76
   9  -3  11  539.79   24.45
   9   3  12  417.68   20.15
   9   3  12  403.66   21.62
   9  -3  12  455.85   22.77
   9   3  13   91.36    9.64
   9   3  13   80.50    9.86
   9  -3  13  107.72   11.24
   9   3  14   96.60    9.95
   9   3  14   90.69   10.56
   9  -3  14   89.23   10.18
   9   3  15   52.82    7.25
   9   3  15   51.36    8.64
   9  -3  15   53.01    7.79
   9   3  16  437.52   23.49
   9  -3  16  448.26   23.58
   9   3  17   47.92    8.59
   9  -3  17   53.54    8.44
   9   3  18   95.02   11.24
   9  -3  18   79.46   10.14
   9  -3  19   23.32    5.84
   9   3  19   31.85    6.93
   9  -3  20   -0.12    2.27
   9   3  20    0.82    2.36
   9   3  21   85.32   11.55
   9   3  22   66.28   10.04
   9   3  23   10.83    4.74
   9   3  24   15.80    5.00
   9   3  25   79.26   11.80
   9   3  26   11.34    4.90
   9   3  27   78.00   11.85
   9  -4 -26   17.99    6.21
   9  -4 -25   -4.97    4.21
   9  -4 -24    0.54    1.51
   9  -4 -23    7.14    3.07
   9  -4 -22    1.64    1.76
   9  -4 -21    6.61    3.24
   9  -4 -20    0.34    2.45
   9  -4 -19    4.00    3.01
   9  -4 -18    0.88    2.68
   9  -4 -18    3.03    2.63
   9   4 -18    2.10    1.52
   9  -4 -17  173.69   15.55
   9  -4 -17  162.65   14.39
   9   4 -17  187.60   15.84
   9  -4 -16    2.25    1.76
   9  -4 -16   -0.60    1.47
   9   4 -16   -0.50    1.56
   9   4 -15   11.56    5.03
   9  -4 -15   11.52    4.28
   9  -4 -15   12.62    4.14
   9   4 -14   28.37    6.33
   9  -4 -14   17.57    4.72
   9  -4 -14   15.65    4.08
   9   4 -13    1.60    1.95
   9  -4 -13    0.98    1.47
   9  -4 -13    1.99    2.56
   9  -4 -12   59.23    8.78
   9  -4 -12   71.49    9.33
   9   4 -12   52.15    8.04
   9  -4 -11  201.24   16.15
   9  -4 -11  204.15   15.85
   9   4 -11  238.39   16.54
   9   4 -10    5.97    3.21
   9  -4 -10    0.23    1.72
   9  -4 -10    2.46    1.73
   9  -4  -9  158.53   14.26
   9  -4  -9  144.10   12.71
   9   4  -9  153.38   13.14
   9  -4  -8  118.65   12.30
   9   4  -8  117.12    9.61
   9  -4  -8  103.09   10.87
   9   4  -8  108.36   10.98
   9   4  -7    1.10    1.52
   9  -4  -7   -0.03    2.62
   9   4  -7   -1.01    1.62
   9  -4  -7    1.98    1.82
   9   4  -6  193.84   12.62
   9  -4  -6  213.73   16.05
   9  -4  -6  186.74   14.27
   9   4  -6  191.13   14.27
   9   4  -5   89.79    8.70
   9  -4  -5   76.37    9.58
   9  -4  -5   91.01   10.36
   9   4  -5   98.01   10.45
   9   4  -4   55.76    8.21
   9  -4  -4   67.61    8.50
   9   4  -4   70.10    7.78
   9  -4  -4   69.21    9.12
   9   4  -4   76.38    7.72
   9  -4  -3   29.90    5.91
   9   4  -3   18.35    5.11
   9   4  -3   13.66    3.21
   9  -4  -3   27.27    5.44
   9   4  -3   28.78    4.69
   9   4  -2  153.50   12.72
   9  -4  -2  149.55   12.76
   9   4  -2  140.89   11.24
   9  -4  -2  143.17   12.94
   9   4  -2  142.88   10.25
   9   4  -1    0.23    1.67
   9  -4  -1    0.32    2.92
   9  -4  -1   -0.18    2.98
   9   4  -1   -0.96    1.12
   9   4   0  451.77   21.65
   9  -4   0  436.94   21.80
   9   4   0  429.02   20.11
   9  -4   0  400.34   21.68
   9   4   1    0.73    2.36
   9  -4   1   -1.55    2.04
   9  -4   1    0.41    2.73
   9   4   1    0.64    1.58
   9   4   2  154.12   12.51
   9  -4   2  155.18   12.87
   9   4   2  159.18   12.43
   9  -4   2  131.86   12.26
   9   4   3   16.79    4.97
   9   4   3   26.95    5.49
   9  -4   3   10.13    3.60
   9  -4   3   22.72    5.73
   9   4   4   72.13    8.53
   9  -4   4   61.25    7.95
   9   4   4   63.14    7.96
   9  -4   4   48.67    7.20
   9   4   5   86.39    9.70
   9  -4   5   80.00    9.68
   9   4   5   76.38    8.85
   9  -4   5   85.37    9.98
   9   4   6  205.73   14.61
   9  -4   6  224.26   15.65
   9   4   6  230.63   15.60
   9  -4   6  211.75   15.62
   9   4   7   -0.63    1.17
   9   4   7   -0.60    1.98
   9  -4   7    2.50    3.29
   9  -4   7   -1.24    2.83
   9   4   8  140.82   11.85
   9  -4   8  107.72   11.18
   9   4   8  114.96   11.26
   9   4   9  158.38   13.04
   9  -4   9  153.19   13.27
   9   4   9  147.75   13.17
   9   4  10    1.83    2.57
   9   4  10    3.61    3.37
   9  -4  10    2.19    1.20
   9   4  11  216.55   15.39
   9  -4  11  241.54   16.77
   9   4  11  223.26   16.31
   9   4  12   74.29    8.97
   9  -4  12   60.07    8.43
   9   4  12   56.04    8.18
   9   4  13    6.68    3.54
   9   4  13    3.21    2.48
   9  -4  13    5.45    3.99
   9   4  14   21.69    4.93
   9   4  14   14.62    4.77
   9  -4  14   19.32    5.16
   9   4  15   13.89    4.21
   9   4  15    7.55    2.89
   9  -4  15    5.77    2.95
   9   4  16    1.53    1.99
   9   4  16   -3.36    3.17
   9  -4  16   -0.45    1.74
   9  -4  17  183.86   15.45
   9   4  17  160.59   14.67
   9  -4  18    6.76    4.99
   9   4  18    2.83    2.67
   9  -4  19    8.93    4.41
   9   4  19    5.82    3.43
   9   4  20    2.36    3.22
   9   4  21    7.39    3.55
   9   4  22   -0.37    2.44
   9   4  23   14.32    5.46
   9   4  24   -1.54    3.33
   9   4  25    1.29    2.82
   9   4  26   12.92    5.11
   9  -5 -24    4.68    2.60
   9  -5 -23    6.31    3.32
   9  -5 -22   22.82    5.26
   9  -5 -21   49.42    8.06
   9  -5 -20    8.35    4.26
   9  -5 -19    5.24    4.70
   9  -5 -19   15.59    5.24
   9  -5 -18    0.60    2.17
   9  -5 -18   -0.57    1.73
   9   5 -18    3.23    4.81
   9   5 -17   15.11    5.13
   9  -5 -17   14.96    4.85
   9  -5 -17    9.27    4.12
   9   5 -16   10.11    4.34
   9  -5 -16   23.96    6.42
   9  -5 -16   17.47    4.54
   9  -5 -15  192.49   16.04
   9  -5 -15  191.86   16.44
   9   5 -15  168.13   15.16
   9   5 -14   11.80    4.22
   9  -5 -14   19.93    5.70
   9  -5 -14   15.85    5.41
   9   5 -13    2.63    1.32
   9  -5 -13    2.57    2.28
   9  -5 -13    3.23    3.18
   9   5 -12   29.88    6.48
   9  -5 -12   31.18    6.35
   9  -5 -12   29.95    6.63
   9  -5 -11  240.77   17.76
   9  -5 -11  210.37   16.51
   9   5 -11  246.07   17.53
   9  -5 -10    8.43    4.01
   9   5 -10    9.71    3.21
   9  -5 -10    8.99    3.34
   9  -5  -9    5.94    2.18
   9   5  -9    9.66    3.46
   9  -5  -9    7.75    3.46
   9  -5  -8    0.46    2.12
   9   5  -8    1.20    1.50
   9  -5  -8    1.81    1.40
   9   5  -7   41.70    6.91
   9  -5  -7   49.82    7.95
   9  -5  -7   64.93    8.84
   9  -5  -6   19.49    4.83
   9   5  -6   27.03    5.97
   9  -5  -6   22.12    5.14
   9   5  -6   26.23    4.64
   9   5  -5  374.76   20.76
   9   5  -5  401.66   19.44
   9  -5  -5  364.16   21.26
   9  -5  -5  383.57   21.71
   9   5  -4   47.18    7.30
   9   5  -4   30.00    5.49
   9  -5  -4   39.07    7.30
   9  -5  -4   46.31    7.68
   9   5  -3   11.41    3.44
   9  -5  -3   16.62    5.08
   9  -5  -3    9.40    2.54
   9   5  -3   18.27    4.46
   9   5  -2   13.43    3.94
   9   5  -2   15.13    5.40
   9  -5  -2   14.07    4.82
   9  -5  -2   12.28    4.94
   9   5  -1  388.14   21.15
   9   5  -1  361.31   19.48
   9  -5  -1  334.38   20.32
   9  -5  -1  396.62   21.44
   9   5   0   49.10    7.44
   9  -5   0   26.45    5.50
   9   5   0   35.57    6.27
   9  -5   0   38.28    7.24
   9  -5   1  358.00   20.49
   9   5   1  401.09   21.16
   9   5   1  385.62   20.29
   9  -5   1  380.25   21.81
   9   5   2   19.17    5.77
   9   5   2   13.27    3.97
   9  -5   2   13.18    4.37
   9  -5   2   12.09    4.37
   9   5   3   16.64    4.37
   9   5   3    6.58    2.43
   9  -5   3   10.42    3.67
   9  -5   3    9.70    4.13
   9   5   4   31.52    6.58
   9  -5   4   30.84    6.15
   9   5   4   52.51    7.67
   9  -5   4   32.62    6.59
   9  -5   5  409.30   22.13
   9   5   5  392.14   21.08
   9   5   5  380.34   20.71
   9  -5   5  355.09   21.26
   9   5   6   25.82    5.56
   9  -5   6   19.09    5.01
   9   5   6   29.13    6.29
   9  -5   6   22.72    5.53
   9   5   7   48.12    7.24
   9  -5   7   43.23    7.66
   9   5   7   41.17    7.31
   9  -5   7   58.28    8.44
   9   5   8    2.06    2.12
   9   5   8    2.21    1.42
   9  -5   8    1.97    1.26
   9  -5   8   -2.42    2.91
   9   5   9    9.14    2.49
   9  -5   9   16.79    4.83
   9  -5   9   18.03    5.27
   9   5  10    2.39    3.04
   9   5  10   11.06    3.83
   9  -5  10   14.52    3.48
   9  -5  10   13.99    4.76
   9   5  11  232.97   16.85
   9  -5  11  221.74   16.72
   9   5  11  209.42   16.15
   9  -5  11  224.24   17.27
   9   5  12   44.40    7.37
   9   5  12   40.88    6.78
   9  -5  12   34.71    6.88
   9   5  13    8.49    3.77
   9   5  13   11.98    3.26
   9  -5  13    4.45    2.87
   9   5  14   28.05    6.76
   9   5  14   24.53    5.65
   9  -5  14   18.03    5.94
   9   5  15  186.23   15.38
   9  -5  15  160.80   14.74
   9   5  15  208.84   16.66
   9   5  16   30.29    6.65
   9   5  16   15.34    5.44
   9  -5  16   14.55    5.48
   9   5  17    8.37    2.77
   9  -5  17    2.26    2.49
   9   5  18    5.86    3.86
   9   5  19   15.65    6.51
   9   5  20    3.68    3.79
   9   5  21   33.79    7.01
   9   5  22   21.10    5.96
   9   5  23    8.55    4.52
   9   5  24    4.75    2.11
   9  -6 -23   -0.74    1.61
   9  -6 -22   -1.18    2.49
   9  -6 -21    9.37    5.84
   9  -6 -20   -0.82    2.60
   9  -6 -20    6.18    4.52
   9  -6 -19   14.98    5.11
   9  -6 -19    7.48    4.83
   9  -6 -18   11.46    4.96
   9  -6 -18    9.61    4.74
   9   6 -17    6.38    4.20
   9  -6 -17    6.60    3.06
   9  -6 -17    9.40    3.90
   9   6 -16   16.83    5.20
   9  -6 -16   14.84    5.17
   9  -6 -16   24.82    6.26
   9  -6 -15   45.36    8.23
   9   6 -15   38.64    7.48
   9  -6 -15   44.52    8.51
   9   6 -14    4.18    2.38
   9  -6 -14    3.93    1.71
   9   6 -13   19.16    5.52
   9  -6 -13   15.39    5.56
   9  -6 -13    6.24    2.28
   9   6 -12    9.16    4.63
   9  -6 -12    8.17    4.59
   9  -6 -12    9.12    4.52
   9   6 -11    1.27    3.29
   9  -6 -11    1.80    1.33
   9  -6 -11   -0.47    2.75
   9   6 -10   16.33    5.11
   9  -6 -10   18.68    5.82
   9  -6 -10   20.99    5.21
   9   6  -9    6.09    2.87
  -9   6  -9   -0.91    1.17
   9  -6  -9   11.24    3.69
   9  -6  -9    5.78    4.25
   9   6  -8   55.62    8.27
  -9   6  -8   46.88    7.82
   9  -6  -8   50.73    8.23
   9  -6  -8   51.50    8.50
   9  -6  -7   35.37    6.82
   9  -6  -7   49.38    8.82
   9  -6  -6    3.64    2.79
   9   6  -6    2.44    1.90
   9  -6  -6    4.72    4.41
   9  -6  -5    4.70    3.23
   9   6  -5    2.23    2.60
   9  -6  -5    8.23    4.27
   9   6  -5    4.83    2.81
   9   6  -4   15.95    4.49
   9  -6  -4   16.33    5.18
   9   6  -4   17.91    4.19
   9  -6  -4   10.93    4.07
   9   6  -3    4.49    2.64
   9   6  -3    3.67    2.34
   9  -6  -3    4.86    1.84
   9  -6  -2    7.36    2.15
   9   6  -2    4.71    2.26
   9   6  -2    5.20    1.86
   9  -6  -2    1.81    3.31
   9   6  -1   51.49    7.77
   9   6  -1   47.23    7.47
   9  -6  -1   61.83    8.59
   9  -6  -1   34.92    7.36
   9   6   0   68.66    8.92
   9   6   0   62.97    8.59
   9  -6   0   72.28    9.49
   9  -6   0   64.54    9.33
   9   6   1   49.81    7.80
   9   6   1   40.96    7.26
   9  -6   1   55.59    8.30
   9  -6   1   49.27    8.52
   9  -6   2    4.25    2.19
   9  -6   2    0.95    2.02
   9   6   2    2.09    2.64
   9   6   2    6.09    2.88
   9  -6   3    6.24    2.36
   9   6   3    3.82    3.19
   9   6   3    8.84    2.93
   9  -6   3    5.70    2.85
   9   6   4   11.76    4.36
   9  -6   4    5.09    3.17
   9   6   4    8.72    3.17
   9  -6   4   15.21    3.60
   9   6   5    8.48    3.62
   9  -6   5    8.62    3.62
   9   6   5    3.21    1.36
   9  -6   5    0.17    2.51
   9   6   6   -1.10    2.10
   9  -6   6    3.65    2.28
   9   6   6    2.88    2.40
   9  -6   6    1.04    2.34
   9  -6   7   51.17    8.53
   9   6   7   70.96    9.55
   9  -6   7   60.04    8.92
   9   6   7   43.33    7.50
   9  -6   8   54.03    8.35
   9   6   8   62.77    8.76
   9   6   8   52.96    8.52
   9  -6   8   49.56    7.97
   9   6   9    4.16    2.33
   9  -6   9    4.77    2.53
   9   6   9    5.98    2.87
   9  -6   9    9.49    4.65
   9   6  10   19.22    5.39
   9  -6  10   26.20    6.69
   9   6  10   23.55    5.35
   9  -6  10   26.03    5.69
   9   6  11    0.02    1.81
   9  -6  11    0.75    1.44
   9   6  11   -0.48    2.46
   9  -6  11    0.48    3.04
   9   6  12   11.68    4.24
   9  -6  12    6.82    3.50
   9   6  12    7.73    3.31
   9  -6  12    3.44    3.32
   9   6  13   12.22    3.93
   9  -6  13   21.69    6.06
   9   6  13   15.74    4.46
   9  -6  13   15.42    5.39
   9   6  14    9.85    4.93
   9  -6  14    4.27    3.02
   9   6  14    7.89    4.36
   9  -6  14   -0.71    1.67
   9   6  15   36.75    7.16
   9  -6  15   33.52    7.39
   9   6  15   44.32    7.83
   9  -6  15   26.87    6.78
   9   6  16   26.15    6.72
   9  -6  16   11.77    4.45
   9   6  16   31.04    7.31
   9   6  17    7.85    1.91
   9   6  18   13.02    4.62
   9   6  19   15.33    5.28
   9   6  20   -0.68    2.75
   9   6  21    0.64    2.75
   9   6  22    3.62    2.66
   9   6  23   -2.12    2.71
   9  -7 -21   23.32    6.00
   9  -7 -21   26.29    8.24
   9  -7 -20   13.63    5.22
   9  -7 -20    2.45    3.04
   9  -7 -19    7.38    4.05
   9  -7 -19    6.03    4.62
   9  -7 -18    1.01    1.67
   9  -7 -18    3.40    3.49
   9  -7 -17   23.92    4.87
   9  -7 -17   29.25    7.63
   9   7 -16    6.09    3.78
   9  -7 -16    7.68    3.29
   9  -7 -16    6.99    3.46
   9  -7 -15  135.60   14.47
   9  -7 -15  163.99   15.81
   9   7 -15  144.74   14.97
   9   7 -14    1.50    1.71
   9  -7 -14    1.92    1.97
   9  -7 -14    0.72    1.19
   9   7 -13    1.79    1.67
   9  -7 -13    4.59    3.86
   9  -7 -13    8.96    4.44
   9   7 -12    4.19    3.83
   9  -7 -12    6.16    2.31
   9  -7 -12    5.80    4.56
   9   7 -11  140.15   14.29
   9  -7 -11  144.67   14.43
   9  -7 -11  158.63   15.22
   9   7 -10   15.01    5.80
   9  -7 -10   17.88    5.09
   9  -7 -10   19.66    6.42
   9   7  -9   38.87    7.56
   9  -7  -9   35.45    6.56
   9  -7  -9   40.24    6.78
   9   7  -8   10.21    3.96
   9  -7  -8   13.40    5.63
  -9   7  -8   13.26    4.50
   9  -7  -8    6.22    3.99
   9   7  -7    6.36    4.20
  -9   7  -7    3.43    3.09
   9  -7  -7    5.71    2.32
   9  -7  -7   13.69    5.24
   9   7  -6   42.00    7.37
  -9   7  -6   36.27    7.10
   9  -7  -6   37.19    7.83
   9  -7  -6   52.97    8.76
   9   7  -5  184.28   15.58
   9  -7  -5  191.22   16.43
  -9   7  -5  174.57   15.11
   9  -7  -5  161.42   15.02
   9  -7  -4    2.72    2.04
   9   7  -4    2.94    2.50
   9   7  -4   -0.30    1.97
  -9   7  -4    3.47    3.12
   9  -7  -4    3.74    2.11
   9  -7  -3   11.28    3.17
   9   7  -3   30.07    6.18
   9   7  -3   25.22    5.44
  -9   7  -3   29.67    6.33
   9  -7  -3   26.54    6.90
   9  -7  -2    1.49    1.98
   9   7  -2    1.91    2.94
   9   7  -2    3.09    2.30
   9  -7  -2    4.77    2.93
   9   7  -1  137.48   13.70
   9   7  -1  120.08   12.10
   9  -7  -1  106.69   11.96
   9  -7  -1  125.66   13.28
   9   7   0  222.04   17.17
   9   7   0  210.27   16.43
   9  -7   0  176.38   15.53
   9  -7   0  200.81   16.43
   9   7   1  119.08   12.36
   9   7   1  124.20   12.52
   9  -7   1  137.44   14.19
   9  -7   1  101.89   12.42
   9  -7   2    4.41    4.15
   9   7   2   -1.66    2.55
   9   7   2    3.78    2.53
   9  -7   2    7.56    5.29
   9   7   3   27.31    5.92
   9  -7   3   17.37    5.68
   9   7   3   28.81    6.16
   9  -7   3   19.74    5.82
   9  -7   4    1.67    2.35
   9   7   4    2.69    2.44
   9   7   4    1.54    2.59
   9  -7   4   -0.68    2.48
   9   7   5  183.42   15.74
   9   7   5  182.43   15.34
   9  -7   5  167.46   15.78
   9  -7   5  144.73   14.35
   9   7   6   54.40    8.40
   9  -7   6   54.02    8.98
   9   7   6   37.10    7.88
   9  -7   6   54.48    8.58
   9  -7   7    3.30    1.41
   9   7   7    2.23    2.50
   9   7   7    7.95    3.53
   9  -7   7    9.04    4.20
   9  -7   8   21.04    6.17
   9   7   8    5.78    4.14
   9   7   8   11.79    4.15
   9  -7   8    8.59    4.17
   9  -7   9   38.65    7.63
   9   7   9   42.22    7.65
   9   7   9   41.40    7.30
   9  -7   9   39.78    7.84
   9  -7  10   19.95    5.69
   9   7  10   15.61    4.53
   9   7  10   11.54    4.01
   9  -7  10   15.81    3.91
   9   7  11  159.50   14.77
   9   7  11  160.77   15.31
   9  -7  11  138.68   14.61
   9  -7  11  158.34   15.16
   9  -7  12    8.64    4.58
   9   7  12   11.78    4.52
   9   7  12    6.17    3.41
   9  -7  12   10.60    5.48
   9  -7  13   11.18    4.44
   9   7  13    1.28    3.75
   9   7  13    7.50    3.79
   9  -7  14    4.44    3.41
   9   7  14    1.52    3.82
   9   7  14    1.27    2.34
   9   7  15  107.33   12.94
   9   7  15  107.99   12.74
   9  -7  15  144.45   15.05
   9   7  16    2.69    2.99
   9   7  16    5.04    3.85
   9   7  17   16.94    3.93
   9   7  17   19.77    6.87
   9   7  18   -1.41    1.76
   9   7  19    3.24    2.24
   9   7  20   15.34    5.62
  -9   7  20    7.66    1.95
   9   7  21   22.32    7.27
  -9   7  21   30.50    8.35
   9  -8 -18    5.19    3.13
   9  -8 -18    3.33    4.08
   9  -8 -17   -1.27    4.13
   9  -8 -17   -2.43    1.57
   9   8 -16   -3.13    2.48
   9  -8 -16   -2.13    3.85
   9  -8 -16   -2.45    3.05
   9   8 -15    0.84    2.38
   9  -8 -15    3.02    2.24
   9  -8 -15    5.66    4.17
   9   8 -14    1.65    2.18
   9  -8 -14    2.04    3.12
   9  -8 -14    1.79    2.05
   9   8 -13    4.67    3.91
   9  -8 -13   -1.92    2.45
   9  -8 -13   -0.28    2.29
   9  -8 -12   -0.52    1.50
   9   8 -12    3.77    3.84
   9  -8 -12    0.44    1.76
   9   8 -11   -0.61    2.06
   9  -8 -11   10.93    3.93
   9  -8 -11    5.19    2.98
   9  -8 -10    3.98    2.68
   9  -8 -10    6.98    3.20
   9   8  -9   -1.33    1.61
   9  -8  -9    7.18    3.72
   9  -8  -9    2.83    3.76
   9   8  -8    7.00    1.75
   9  -8  -8    9.91    4.98
   9  -8  -8    1.64    2.31
  -9   8  -7    7.73    4.20
   9   8  -7    6.42    3.35
   9  -8  -7    4.07    2.12
   9  -8  -7   10.58    2.35
   9   8  -6   26.00    6.19
  -9   8  -6   39.32    7.88
   9  -8  -6   23.67    5.95
   9  -8  -6   26.39    7.38
   9   8  -5    1.47    1.97
  -9   8  -5   -0.81    4.08
   9  -8  -5    6.91    4.35
   9  -8  -5    3.01    2.67
   9   8  -4    1.41    1.38
  -9   8  -4    6.05    4.61
   9  -8  -4   10.35    4.16
   9  -8  -4    6.96    3.12
  -9   8  -3   14.21    4.77
   9   8  -3    9.37    4.85
   9  -8  -3   17.72    5.86
   9  -8  -3    5.66    3.45
   9  -8  -2   15.16    4.45
   9   8  -2   26.39    6.57
   9   8  -2   22.74    6.41
  -9   8  -2    6.92    3.09
   9  -8  -2   20.13    6.46
   9  -8  -1    2.11    2.66
   9   8  -1    0.88    2.25
   9   8  -1    3.29    2.66
  -9   8  -1    3.55    3.70
   9  -8  -1   -0.50    2.20
   9  -8   0    8.39    4.23
   9   8   0    9.73    5.05
   9   8   0    3.76    2.10
  -9   8   0    1.18    3.40
   9  -8   0    7.41    4.95
   9  -8   1    3.01    1.41
   9   8   1   -1.64    2.52
   9   8   1   -1.62    2.22
  -9   8   1    3.23    2.24
   9  -8   1   -1.48    2.77
   9  -8   2   12.12    3.48
   9   8   2   26.46    6.22
  -9   8   2   18.37    3.93
   9   8   2   11.84    4.24
   9  -8   2   13.18    4.28
   9  -8   3    6.34    2.64
  -9   8   3    4.23    2.63
   9   8   3    9.97    2.77
   9   8   3   12.87    4.29
   9  -8   3   15.42    5.22
   9  -8   4    3.57    2.68
   9   8   4    2.36    2.62
  -9   8   4    1.26    3.16
   9   8   4   -1.64    2.78
   9  -8   4    3.73    1.67
   9  -8   5    5.78    3.42
   9   8   5    1.74    1.45
  -9   8   5    6.08    3.69
   9   8   5    6.55    3.77
   9  -8   5    0.80    2.78
   9  -8   6   25.91    5.95
   9   8   6   23.74    5.36
  -9   8   6   20.20    5.59
   9   8   6   19.86    5.21
   9  -8   6   29.48    7.06
   9  -8   7   12.38    5.47
   9   8   7   12.42    4.46
  -9   8   7   13.38    4.78
   9   8   7   -0.75    1.55
   9  -8   8    2.82    2.16
   9   8   8    5.38    3.54
  -9   8   8   10.60    4.44
   9   8   8    9.84    4.38
   9  -8   9    0.23    3.10
   9   8   9    2.03    1.81
  -9   8   9    7.42    4.88
   9   8   9    0.75    1.26
   9  -8  10    8.81    3.57
   9   8  10   13.38    4.13
  -9   8  10   10.80    4.14
   9   8  10    6.56    3.81
   9  -8  11    7.53    4.57
   9   8  11    1.19    3.43
  -9   8  11    6.06    4.10
   9   8  11    3.16    1.76
   9  -8  12   -2.07    2.04
   9   8  12    3.23    2.57
   9   8  12    5.89    3.77
  -9   8  12    5.29    4.97
   9  -8  13    0.64    1.79
   9   8  13    6.64    4.78
   9   8  13   -0.54    1.91
  -9   8  13    5.20    2.87
   9   8  14    5.85    2.72
   9   8  14   10.01    5.70
  -9   8  14   -1.24    2.24
   9   8  15    2.36    2.96
   9   8  15    3.11    3.05
  -9   8  15    5.56    3.77
   9   8  16   -1.81    2.99
   9   8  16   -4.57    4.92
  -9   8  16   -3.79    4.46
   9   8  17   -4.52    4.27
   9   8  17    3.80    3.65
  -9   8  17    2.80    2.10
   9   8  18    0.11    2.18
  -9   8  18    0.66    1.69
   9   9 -14   -1.71    3.02
   9  -9 -14   -1.78    2.45
   9  -9 -14    2.89    2.99
   9   9 -13    5.37    3.81
   9  -9 -13   -1.18    2.34
   9  -9 -13    2.90    4.13
   9   9 -12    5.84    4.74
   9  -9 -12    6.75    3.73
   9  -9 -12   -0.09    2.65
   9   9 -11   54.47    9.35
   9  -9 -11   47.49    9.31
   9  -9 -11   55.12    9.82
   9   9 -10   75.84   10.66
   9  -9 -10   78.95   11.60
   9   9  -9   34.43    7.55
   9  -9  -9   39.69    7.53
   9  -9  -9   37.30    7.80
   9  -9  -8    0.82    2.62
   9   9  -8   -0.35    2.35
   9  -9  -8    2.22    2.89
   9   9  -7   39.73    7.54
   9  -9  -7   33.51    8.22
   9  -9  -7   24.54    6.48
   9   9  -6   24.09    6.12
  -9   9  -6   30.62    8.08
   9  -9  -6   29.72    7.38
   9  -9  -6   32.00    7.14
   9   9  -5  119.68   13.50
  -9   9  -5  125.35   13.46
   9  -9  -5  126.34   14.44
   9  -9  -5   93.34   12.58
   9   9  -4    0.69    1.64
  -9   9  -4    8.10    3.56
   9  -9  -4    7.33    4.27
   9  -9  -4    8.87    4.00
   9   9  -3    6.19    3.73
  -9   9  -3    2.04    2.36
   9  -9  -3   -0.06    3.08
   9  -9  -3   -1.97    3.18
   9   9  -2    3.47    3.74
  -9   9  -2   -2.29    3.18
   9  -9  -2   -4.79    2.03
   9  -9  -2    2.60    3.39
   9   9  -1   61.50    9.51
  -9   9  -1   44.80    8.09
   9  -9  -1   62.01   10.84
   9   9  -1   56.33    9.07
   9  -9  -1   52.94    9.70
   9   9   0   62.63    9.97
  -9   9   0   55.91    8.61
   9  -9   0   60.68   10.08
   9   9   0   68.61    9.83
   9  -9   0   46.48    8.93
   9   9   1   71.04   10.39
  -9   9   1   73.37   10.50
   9   9   1   58.47    9.36
   9  -9   1   43.15    8.79
   9   9   2    1.36    3.48
  -9   9   2    6.09    3.59
   9   9   2    5.65    4.06
   9  -9   2    3.83    3.73
  -9   9   3    6.01    4.57
   9   9   3   -3.33    3.55
   9   9   3    1.13    1.81
   9  -9   3    1.67    1.86
   9   9   4    9.34    3.77
  -9   9   4   10.11    4.43
   9   9   4    7.57    2.89
   9  -9   4   11.24    3.39
   9   9   5  119.72   13.95
  -9   9   5  114.10   13.69
   9   9   5  124.89   13.96
   9  -9   5  126.74   14.34
   9  -9   6   19.17    6.63
   9   9   6   33.41    7.77
  -9   9   6   29.44    7.06
   9   9   6   30.05    7.23
   9  -9   7   10.94    4.33
   9   9   7   20.59    5.56
  -9   9   7   20.95    5.47
   9   9   7   20.09    6.33
   9  -9   8   -0.78    2.10
   9   9   8   -4.58    3.39
  -9   9   8   -0.76    2.73
   9   9   8    1.53    2.86
   9  -9   9   35.66    8.48
   9   9   9   36.35    8.16
  -9   9   9   36.54    7.78
   9   9   9   28.69    6.54
   9   9  10   40.13    7.66
  -9   9  10   55.87    9.02
   9   9  10   56.72    9.64
   9  -9  10   70.11   11.51
   9  -9  11   40.11    8.77
   9   9  11   53.03    9.72
  -9   9  11   57.31    9.15
   9   9  11   34.53    6.84
   9  -9  12    1.24    1.93
   9   9  12    5.57    3.70
  -9   9  12    1.75    2.81
   9   9  12    4.01    2.12
   9   9  13   -2.88    3.77
   9   9  13    6.29    3.23
  -9   9  13    7.05    4.61
   9   9  14   -1.15    2.38
   9   9  14    2.33    2.22
  -9   9  14    6.76    4.05
   9  10  -8   32.72    8.80
   9 -10  -8   34.21    6.67
   9 -10  -8   35.93    7.81
   9  10  -7    6.60    3.73
   9 -10  -7    1.02    3.27
   9  10  -6   60.64   10.45
   9 -10  -6   80.66   12.10
   9  10  -5   17.10    6.35
  -9  10  -5    8.70    2.12
   9 -10  -5   11.07    4.74
   9  10  -4   -0.58    2.83
   9 -10  -4    5.85    4.37
  -9  10  -4   10.60    4.54
   9  10  -3    2.85    3.69
  -9  10  -3   -1.63    2.92
   9 -10  -3   -1.16    3.67
  -9  10  -2   23.81    6.45
   9 -10  -2   31.98    6.91
   9  10  -1    8.24    4.73
  -9  10  -1   15.37    6.14
   9 -10  -1   12.37    5.77
   9  10   0   96.95   11.88
  -9  10   0   80.71   12.07
   9 -10   0   80.07   11.59
   9  10   1    6.64    2.43
  -9  10   1    3.18    3.45
   9  10   1    2.18    2.41
   9 -10   1    5.41    3.11
   9  10   2   43.52    8.33
  -9  10   2   28.50    6.45
   9  10   2   36.65    8.02
   9 -10   2   51.73    9.24
   9  10   3    3.93    2.91
  -9  10   3    3.33    2.75
   9  10   3    1.39    1.92
   9 -10   3    2.19    3.84
   9  10   4    5.71    3.90
  -9  10   4    2.02    2.51
   9  10   4   17.75    5.93
   9 -10   4   10.38    5.79
   9  10   5   24.07    7.03
  -9  10   5   13.78    5.50
   9  10   5   17.64    5.17
   9 -10   5   20.25    5.58
   9  10   6   75.12   10.91
  -9  10   6   95.27   12.94
   9  10   6   60.01    9.94
   9 -10   6   80.08   12.40
   9  10   7    7.25    3.54
  -9  10   7    9.33    4.89
   9  10   7   15.28    5.91
   9 -10   7   11.82    6.32
   9  10   8   55.54    9.98
  -9  10   8   30.83    7.75
   9  10   8   50.82    9.37
   9 -10   8   36.25    8.39
  10   0 -25   28.07    6.27
  10   0 -24   46.43    8.31
  10   0 -23  104.88   12.54
  10   0 -22   32.17    7.09
  10   0 -21  142.26   14.14
  10   0 -20   40.10    8.35
  10   0 -19   59.98    9.48
  10   0 -18  174.74   15.05
  10   0 -17  217.20   16.83
  10   0 -16   81.11   10.45
  10   0 -15  255.19   17.48
  10   0 -14  118.22   12.56
  10   0 -13  208.80   15.64
  10   0 -12  261.99   15.61
  10   0 -12  285.03   18.29
  10   0 -11  241.40   14.77
  10   0 -11  273.61   17.66
  10   0 -10   82.23    8.50
  10   0 -10   89.63   10.14
  10   0  -9  209.63   13.47
  10   0  -9  213.82   14.91
  10   0  -8  218.47   13.76
  10   0  -8  176.00   13.68
  10   0  -7  125.01   10.45
  10   0  -7  132.75   12.04
  10   0  -7  144.13   12.04
  10   0  -6   57.46    7.05
  10   0  -6   63.57    7.93
  10   0  -6   56.84    7.75
  10   0  -5  205.60   13.44
  10   0  -5  203.77   14.31
  10   0  -5  236.51   14.86
  10   0  -4  279.86   15.74
  10   0  -4  267.22   16.60
  10   0  -4  246.64   15.31
  10   0  -3  210.82   13.61
  10   0  -3  224.43   15.17
  10   0  -3  237.53   14.66
  10   0  -2  187.68   12.75
  10   0  -2  195.78   13.97
  10   0  -2  187.47   13.28
  10   0  -1  110.99   10.18
  10   0  -1  106.57   10.28
  10   0  -1  115.86   10.05
  10   0   0   -0.13    1.04
  10   0   0   -0.10    0.80
  10   0   0    1.13    0.88
  10   0   1   94.78    9.27
  10   0   1   91.30    9.53
  10   0   1   91.31    8.79
  10   0   2  176.37   12.58
  10   0   2  165.36   11.71
  10   0   3  208.51   13.94
  10   0   3  248.40   14.58
  10   0   4  232.45   14.72
  10   0   4  325.13   16.65
  10   0   5  203.76   14.00
  10   0   5  218.78   13.81
  10   0   6   58.41    7.67
  10   0   6   56.45    6.79
  10   0   7  134.59   11.72
  10   0   7  129.60   10.23
  10   0   8  206.88   14.61
  10   0   8  219.38   13.36
  10   0   9  248.43   16.14
  10   0   9  191.68   12.42
  10   0  10   78.56    9.29
  10   0  10   97.23    8.83
  10   0  11  229.04   15.87
  10   0  11  255.06   14.34
  10   0  12  258.75   17.01
  10   0  12  254.34   14.09
  10   0  13  207.70   15.47
  10   0  14  145.95   13.28
  10   0  15  254.03   17.75
  10   0  16   79.15   10.31
  10   0  17  242.35   17.59
  10   0  18  160.39   14.54
  10   0  19   66.28    9.71
  10   0  20   54.86    8.47
  10   0  21  149.95   14.83
  10   0  22   43.46    8.36
  10   0  23   89.10   11.67
  10   0  24   34.51    7.51
  10  -1 -27    0.91    3.74
  10  -1 -26    3.81    3.63
  10  -1 -25    5.35    2.96
  10  -1 -24    5.45    3.29
  10  -1 -23    4.67    3.40
  10  -1 -22    7.92    4.25
  10   1 -21   18.82    6.45
  10  -1 -21    4.71    3.28
  10   1 -20   12.84    4.58
  10  -1 -20    9.62    4.33
  10   1 -19    2.53    2.51
  10  -1 -19    3.70    1.83
  10  -1 -18    5.63    2.85
  10   1 -18    3.16    3.05
  10  -1 -17   11.59    4.06
  10   1 -17    6.95    2.62
  10   1 -16    4.19    2.66
  10  -1 -16   10.91    3.50
  10   1 -15    9.03    3.38
  10  -1 -15   10.77    3.86
  10  -1 -14    2.05    3.16
  10   1 -14    0.57    1.50
  10  -1 -14    3.13    2.74
  10  -1 -13   22.75    4.64
  10   1 -13   30.02    5.85
  10  -1 -13   27.49    5.31
  10   1 -13   31.48    6.87
  10  -1 -12   28.54    5.50
  10   1 -12   25.60    5.38
  10  -1 -12   16.87    3.95
  10   1 -12   21.38    4.80
  10  -1 -11    1.47    1.79
  10   1 -11    0.86    1.24
  10   1 -11    0.46    2.08
  10  -1 -11    1.10    2.08
  10   1 -11   -0.35    2.13
  10  -1 -10    4.78    2.54
  10   1 -10    3.70    1.78
  10  -1 -10    6.21    2.49
  10   1 -10    1.52    2.08
  10   1 -10    6.06    3.09
  10  -1  -9    9.15    3.22
  10   1  -9    7.19    2.46
  10  -1  -9    6.77    3.02
  10   1  -9    7.98    3.15
  10   1  -9   10.41    3.64
  10  -1  -8    3.96    1.69
  10   1  -8    2.17    2.02
  10  -1  -8    0.18    2.07
  10   1  -8    2.81    2.38
  10   1  -8    0.48    1.01
  10  -1  -7   40.04    6.01
  10   1  -7   31.82    5.32
  10  -1  -7   36.52    6.55
  10   1  -7   29.42    5.68
  10   1  -7   45.51    6.70
  10   1  -6   24.18    4.59
  10  -1  -6   15.40    4.10
  10  -1  -6   18.05    4.21
  10   1  -6   13.33    3.83
  10   1  -6   26.56    5.22
  10  -1  -5    0.77    1.43
  10  -1  -5    0.37    1.25
  10   1  -5    0.41    0.87
  10   1  -5    2.28    1.97
  10   1  -5    0.07    1.48
  10  -1  -4    3.33    2.13
  10  -1  -4    4.62    1.77
  10   1  -4    5.21    2.66
  10   1  -4    1.72    1.20
  10   1  -4    3.95    1.53
  10  -1  -3    8.24    2.82
  10  -1  -3    9.63    3.02
  10   1  -3    6.44    3.02
  10   1  -3    6.07    2.25
  10   1  -3    4.26    2.83
  10   1  -2    8.40    2.86
  10  -1  -2    5.53    2.39
  10  -1  -2    2.70    1.96
  10   1  -2    4.50    2.61
  10   1  -2    5.66    1.45
  10  -1  -1   44.30    6.62
  10   1  -1   30.11    5.08
  10   1  -1   31.85    5.28
  10  -1  -1   32.44    5.61
  10   1  -1   28.59    5.24
  10   1   0   24.79    4.60
  10  -1   0   23.27    5.19
  10  -1   0   23.69    5.16
  10   1   0   19.36    4.57
  10   1   0   10.23    3.54
  10  -1   1   27.05    5.17
  10   1   1   29.51    5.09
  10  -1   1   30.30    5.79
  10   1   1   31.82    5.22
  10   1   2    9.32    2.92
  10   1   2   10.13    2.78
  10  -1   2    7.23    2.47
  10  -1   2    7.21    2.64
  10   1   3    3.20    1.97
  10   1   3    8.21    3.60
  10  -1   3    5.56    3.19
  10   1   4    3.93    2.73
  10   1   4    1.66    1.43
  10  -1   4    3.31    0.84
  10   1   5    0.63    1.43
  10   1   5    0.72    1.21
  10  -1   5    1.76    1.31
  10   1   6   17.67    4.18
  10   1   6   22.50    4.70
  10  -1   6   19.37    4.66
  10   1   7   35.07    6.12
  10   1   7   27.66    5.02
  10  -1   7   30.91    5.56
  10   1   8    1.02    1.21
  10   1   8   -1.98    2.19
  10  -1   8   -0.62    2.29
  10   1   9   10.09    3.38
  10   1   9    8.67    4.02
  10  -1   9   11.28    3.68
  10   1  10    7.24    2.62
  10   1  10    4.79    2.94
  10  -1  10    1.72    1.52
  10   1  11    1.29    2.53
  10  -1  11    0.12    1.85
  10   1  11    0.93    1.17
  10   1  12   20.82    5.12
  10   1  12   28.47    5.21
  10  -1  12   19.40    4.64
  10   1  13   24.26    5.40
  10   1  13   30.73    5.16
  10  -1  13   27.64    6.02
  10   1  14   -0.04    1.87
  10  -1  14    0.74    1.85
  10  -1  15   15.65    4.88
  10   1  15   10.72    3.21
  10   1  16   11.31    4.75
  10  -1  16    2.10    1.86
  10   1  17    9.53    3.41
  10  -1  17    8.99    4.29
  10   1  18    6.76    3.34
  10  -1  18    6.09    4.05
  10   1  19    4.90    2.73
  10  -1  19    9.61    3.86
  10   1  20    0.92    3.42
  10  -1  20    5.89    2.55
  10   1  21    1.82    1.37
  10  -1  21    3.98    3.18
  10   1  22    9.32    3.94
  10  -1  22   -0.52    3.79
  10   1  23   -0.34    2.68
  10  -1  23    3.18    2.64
  10   1  24    4.19    2.71
  10   1  25   10.04    2.34
  10  -2 -26   11.91    5.02
  10  -2 -25   13.55    5.11
  10  -2 -24   28.35    7.02
  10  -2 -23   22.99    6.55
  10  -2 -22   22.60    6.58
  10  -2 -21   36.02    7.82
  10  -2 -20   11.81    4.11
  10  -2 -19   40.43    7.30
  10  -2 -18  114.10   12.31
  10  -2 -17  115.27   12.31
  10  -2 -16   58.76    8.98
  10   2 -16   43.78    7.38
  10   2 -15  127.16   12.02
  10  -2 -15  137.85   13.45
  10   2 -15  129.05   12.71
  10   2 -14   91.85   10.08
  10  -2 -14  105.04   12.04
  10  -2 -14   93.61   10.64
  10   2 -14   91.56   10.44
  10   2 -13   87.63    9.46
  10  -2 -13   76.05   10.26
  10   2 -13   91.20    9.95
  10  -2 -13   68.12    8.83
  10   2 -12  184.21   13.66
  10  -2 -12  196.49   15.87
  10   2 -12  185.45   14.55
  10  -2 -12  168.85   13.71
  10   2 -11  356.65   18.88
  10  -2 -11  366.26   21.39
  10   2 -11  361.19   19.86
  10  -2 -11  349.70   19.34
  10   2 -10   86.11    8.83
  10   2 -10   94.72    9.82
  10  -2 -10  102.00   11.04
  10   2 -10  116.65   11.32
  10  -2 -10  101.17   10.40
  10  -2  -9  155.66   13.15
  10   2  -9  158.53   11.13
  10  -2  -9  158.39   13.73
  10   2  -9  181.08   13.22
  10   2  -9  183.67   13.85
  10  -2  -8  214.02   15.15
  10   2  -8  171.31   12.00
  10  -2  -8  178.47   14.39
  10   2  -8  190.29   13.46
  10   2  -8  201.86   14.83
  10  -2  -7   74.19    8.52
  10   2  -7   86.83    8.35
  10  -2  -7   86.30    9.97
  10   2  -7   78.84    8.57
  10   2  -7   90.66    9.59
  10  -2  -6   73.53    8.57
  10   2  -6   81.97    8.11
  10  -2  -6   72.17    9.19
  10   2  -6   94.82    9.70
  10   2  -6   98.65   10.09
  10   2  -5  248.25   14.34
  10  -2  -5  254.99   16.93
  10   2  -5  254.10   15.38
  10   2  -5  226.39   15.03
  10  -2  -4  135.43   11.50
  10  -2  -4  139.67   12.55
  10   2  -4  160.51   11.43
  10   2  -4  149.65   11.86
  10   2  -4  143.34   12.20
  10  -2  -3  241.59   15.40
  10  -2  -3  228.02   16.16
  10   2  -3  215.51   13.68
  10   2  -3  227.55   14.38
  10   2  -3  232.62   15.26
  10  -2  -2  386.19   19.97
  10  -2  -2  367.47   19.99
  10   2  -2  405.35   19.12
  10   2  -2  379.66   18.22
  10   2  -2  387.03   20.31
  10  -2  -1  265.72   16.21
  10  -2  -1  262.44   16.91
  10   2  -1  258.69   15.46
  10   2  -1  253.48   15.19
  10   2  -1  252.05   16.66
  10  -2   0   52.97    7.24
  10  -2   0   50.11    7.77
  10   2   0   52.67    7.14
  10   2   0   59.00    8.31
  10  -2   1  242.55   15.83
  10  -2   1  274.49   17.21
  10   2   1  268.14   15.57
  10   2   1  271.82   15.83
  10  -2   2  369.90   19.39
  10  -2   2  362.25   20.00
  10   2   2  336.16   18.12
  10   2   2  384.03   18.91
  10  -2   3  216.62   14.80
  10  -2   3  238.96   16.19
  10   2   3  255.25   15.37
  10   2   3  224.47   14.68
  10  -2   4  154.27   12.34
  10  -2   4  144.09   12.69
  10   2   4  148.98   11.86
  10   2   4  141.32   11.87
  10   2   5  224.15   15.24
  10  -2   5  261.72   16.74
  10   2   6   77.65    8.89
  10  -2   6   77.96    9.02
  10   2   6   84.71    8.94
  10   2   7   69.25    8.74
  10  -2   7   70.62    8.49
  10   2   7   73.19    8.29
  10   2   8  213.40   14.90
  10  -2   8  194.06   14.70
  10   2   8  173.82   12.74
  10   2   9  165.59   13.53
  10  -2   9  177.13   14.06
  10   2   9  173.86   12.73
  10   2  10   96.38   10.40
  10  -2  10   83.02    9.52
  10   2  10   93.06    9.49
  10   2  11  333.69   19.45
  10  -2  11  331.55   19.85
  10   2  11  343.58   18.07
  10   2  12  211.16   15.66
  10  -2  12  179.50   14.45
  10   2  12  192.12   13.45
  10   2  13   55.93    8.26
  10  -2  13   78.09    9.84
  10   2  13   66.52    8.14
  10   2  14  114.52   11.90
  10  -2  14   93.43   11.00
  10   2  14   81.06    8.83
  10   2  15  141.98   13.48
  10  -2  15  134.29   12.92
  10   2  16   54.92    8.58
  10  -2  16   46.05    7.87
  10   2  17  110.34   12.57
  10  -2  17  105.76   12.12
  10   2  18   90.74   11.23
  10  -2  18   98.96   11.47
  10   2  19   53.15    8.55
  10  -2  19   49.49    8.41
  10   2  20   10.45    3.95
  10  -2  20   10.82    4.79
  10  -2  21   37.80    7.89
  10   2  21   57.26    9.76
  10   2  22   28.37    7.36
  10  -2  22   25.92    7.49
  10   2  23   14.99    3.83
  10   2  24   37.04    7.02
  10   2  25   21.93    6.31
  10   2  26   12.06    3.95
  10  -3 -26    1.98    3.02
  10  -3 -25    0.35    2.44
  10  -3 -24    4.92    2.35
  10  -3 -23    2.26    2.25
  10  -3 -22    1.49    2.87
  10  -3 -21    1.81    3.09
  10  -3 -20    1.54    1.92
  10  -3 -19    0.56    1.66
  10   3 -19    0.99    2.51
  10  -3 -18   -2.15    2.65
  10   3 -18    0.71    1.28
  10  -3 -17    0.34    2.16
  10   3 -17    0.27    2.07
  10  -3 -16    7.79    3.39
  10   3 -16    8.12    2.75
  10  -3 -16    5.42    3.47
  10  -3 -15   -0.92    1.38
  10   3 -15   -0.85    2.34
  10  -3 -15   -2.11    2.10
  10  -3 -14   -0.34    1.07
  10  -3 -14    1.36    1.56
  10   3 -14   -0.87    2.43
  10  -3 -13   14.29    4.08
  10  -3 -13   20.44    5.87
  10   3 -13   11.46    2.78
  10  -3 -12    4.66    1.17
  10  -3 -12    9.65    3.62
  10   3 -12   12.09    4.01
  10   3 -11    4.78    3.10
  10  -3 -11    3.32    2.33
  10  -3 -11    1.07    2.65
  10   3 -10   23.60    5.87
  10  -3 -10   29.55    5.51
  10  -3 -10   24.01    5.88
  10   3  -9    6.19    2.99
  10  -3  -9    5.67    3.55
  10  -3  -9    5.79    2.95
  10   3  -9    4.72    2.44
  10   3  -9   -3.28    1.61
  10   3  -8    1.40    2.20
  10  -3  -8   -1.71    2.60
  10  -3  -8    2.38    1.72
  10   3  -8    0.16    2.23
  10   3  -8   -0.28    1.41
  10   3  -7   24.42    5.26
  10   3  -7   19.04    3.95
  10  -3  -7   22.35    4.76
  10  -3  -7   19.61    4.63
  10   3  -7   24.42    4.93
  10   3  -6   21.93    5.47
  10   3  -6   22.29    4.47
  10  -3  -6   17.53    4.59
  10  -3  -6   20.47    5.14
  10   3  -6   13.90    3.48
  10   3  -5    2.59    2.45
  10   3  -5    2.55    0.96
  10  -3  -5    3.66    2.61
  10  -3  -5   -0.54    2.70
  10   3  -5   -0.30    1.89
  10   3  -4   23.38    4.69
  10  -3  -4   12.51    4.05
  10  -3  -4   20.38    5.55
  10   3  -4   23.36    4.31
  10   3  -4   33.52    5.99
  10   3  -3    3.12    3.03
  10   3  -3    0.73    0.85
  10  -3  -3    2.59    3.73
  10  -3  -3    5.79    3.00
  10   3  -3    1.19    1.44
  10   3  -2    2.72    1.24
  10  -3  -2    9.10    3.96
  10   3  -2    7.46    3.46
  10  -3  -2   11.55    4.29
  10   3  -2   14.12    3.77
  10   3  -1   17.36    4.48
  10  -3  -1   10.19    2.77
  10   3  -1   25.26    4.92
  10  -3  -1   16.36    5.06
  10   3  -1   20.36    4.95
  10   3   0    8.71    3.89
  10  -3   0    7.37    1.76
  10   3   0    8.85    3.19
  10  -3   0   12.53    3.84
  10   3   1   13.07    4.91
  10  -3   1   15.94    4.03
  10   3   1   18.39    3.97
  10  -3   1   14.56    4.50
  10   3   2    6.36    3.37
  10  -3   2    6.79    3.37
  10   3   2    8.87    3.63
  10  -3   2    8.29    2.60
  10   3   3    5.93    2.60
  10  -3   3    5.02    3.00
  10   3   3    0.79    1.50
  10  -3   3   -1.60    2.97
  10   3   4   23.11    5.04
  10  -3   4   13.22    3.45
  10   3   4   16.16    3.60
  10  -3   4   26.21    5.90
  10  -3   5    2.56    2.69
  10   3   5    5.47    2.22
  10   3   5    1.06    1.96
  10  -3   5    5.78    2.76
  10   3   6   17.91    4.45
  10  -3   6   14.70    3.57
  10   3   6   17.76    4.54
  10  -3   6   11.92    3.57
  10  -3   7   30.10    5.41
  10   3   7   21.81    5.21
  10   3   7   30.61    5.65
  10   3   8    2.25    2.08
  10  -3   8   -0.64    2.11
  10   3   8    0.30    1.50
  10   3   9    7.51    3.03
  10  -3   9   12.83    4.29
  10   3   9    5.97    2.51
  10   3  10   30.27    5.75
  10  -3  10   24.77    5.56
  10   3  10   24.06    5.61
  10   3  11    3.18    3.51
  10  -3  11    2.67    2.38
  10   3  11    3.83    2.22
  10   3  12   12.36    4.20
  10  -3  12    2.35    2.64
  10   3  12   10.29    3.69
  10   3  13    9.59    4.04
  10  -3  13   18.84    4.32
  10   3  13    8.62    3.38
  10   3  14   -0.11    1.22
  10  -3  14    0.81    2.75
  10   3  14   -1.95    2.08
  10  -3  15   -0.22    2.15
  10   3  15    1.49    3.10
  10  -3  16    4.00    3.82
  10   3  16    6.49    2.61
  10  -3  17    0.51    2.38
  10   3  17    2.63    2.20
  10  -3  18    0.18    2.07
  10   3  18    1.48    2.58
  10   3  19   -0.50    2.45
  10  -3  19   -3.28    2.85
  10   3  20    0.44    3.13
  10  -3  20   -3.71    3.90
  10   3  21   -1.20    3.39
  10   3  22    2.62    3.84
  10   3  23    4.16    1.94
  10   3  24    5.51    2.98
  10   3  25    3.38    2.68
  10   3  26    3.85    2.23
  10  -4 -25   29.29    7.76
  10  -4 -24   26.01    5.69
  10  -4 -23    7.42    4.25
  10  -4 -22   25.18    6.72
  10  -4 -21   38.60    7.59
  10  -4 -20    6.29    4.08
  10  -4 -19   34.25    7.11
  10   4 -19   33.59    8.71
  10  -4 -18   76.33   10.66
  10   4 -18   60.35    9.46
  10  -4 -17   49.88    8.50
  10  -4 -17   61.91    9.22
  10   4 -17   50.05    8.08
  10  -4 -16   46.33    7.64
  10   4 -16   43.21    8.24
  10  -4 -16   27.60    6.84
  10  -4 -15   72.69   10.33
  10  -4 -15   77.23   10.48
  10   4 -15   90.94   10.86
  10  -4 -14   85.78   11.15
  10  -4 -14   81.95   10.58
  10   4 -14   84.34   10.47
  10  -4 -13   55.62    9.07
  10  -4 -13   57.92    8.88
  10   4 -13   62.49    9.04
  10  -4 -12  110.82   12.34
  10  -4 -12  112.56   12.03
  10   4 -12  135.37   13.42
  10  -4 -11  223.09   17.10
  10  -4 -11  197.63   16.15
  10   4 -11  217.46   16.54
  10  -4 -10   62.45    8.71
  10   4 -10   59.49    8.76
  10  -4  -9   70.92    9.61
  10  -4  -9   72.68    9.65
  10   4  -9   66.75    9.16
  10  -4  -8   90.27   11.11
  10  -4  -8  109.35   11.58
  10   4  -8   97.60   11.20
  10   4  -7   25.38    5.94
  10  -4  -7   23.05    5.51
  10   4  -7   26.10    4.94
  10  -4  -7   29.16    6.36
  10  -4  -6   40.21    7.62
  10   4  -6   38.14    5.61
  10   4  -6   41.79    7.45
  10  -4  -6   48.38    7.61
  10  -4  -5  147.48   13.17
  10  -4  -5  156.52   14.05
  10   4  -5  137.06   11.37
  10   4  -5  146.81   12.56
  10   4  -4   69.09    8.05
  10  -4  -4   56.49    8.31
  10  -4  -4   66.69    9.42
  10   4  -4   69.76    8.47
  10  -4  -3   74.22    9.26
  10   4  -3   69.27    8.07
  10  -4  -3   52.49    8.09
  10   4  -3   58.76    7.19
  10   4  -3   72.04    8.99
  10  -4  -2  218.67   16.03
  10   4  -2  190.02   13.61
  10  -4  -2  229.31   16.81
  10   4  -2  218.73   13.62
  10   4  -2  240.70   16.60
  10   4  -1  202.10   15.02
  10  -4  -1  242.96   16.63
  10   4  -1  231.10   15.08
  10  -4  -1  208.14   16.47
  10   4   0  144.07   12.65
  10  -4   0  127.20   11.99
  10  -4   0  134.99   12.70
  10   4   1  240.16   16.08
  10  -4   1  217.21   15.67
  10   4   1  208.73   14.39
  10  -4   1  227.46   16.63
  10   4   2  214.54   15.49
  10  -4   2  220.58   15.77
  10   4   2  237.20   15.44
  10  -4   2  247.41   17.14
  10   4   3   73.65    9.17
  10  -4   3   74.76    9.54
  10   4   3   65.16    8.54
  10  -4   3   71.14    8.82
  10   4   4   53.65    7.88
  10  -4   4   71.91    9.09
  10   4   4   59.20    7.93
  10  -4   4   41.39    6.99
  10   4   5  130.07   12.09
  10  -4   5  157.43   13.65
  10   4   5  141.34   12.54
  10  -4   5  131.65   12.92
  10   4   6   35.60    6.65
  10   4   6   34.27    6.47
  10  -4   6   33.17    6.53
  10  -4   6   39.69    7.15
  10   4   7   37.88    6.59
  10   4   7   26.44    6.18
  10  -4   7   29.94    6.15
  10  -4   7   27.63    6.47
  10   4   8  120.88   11.86
  10  -4   8  105.81   11.29
  10   4   8  115.96   11.80
  10  -4   8  124.76   12.68
  10   4   9   83.50    9.72
  10  -4   9   81.21    9.80
  10   4   9   67.68    9.32
  10   4  10   82.69    9.64
  10  -4  10   87.73   10.87
  10   4  10   64.82    8.76
  10   4  11  184.22   14.78
  10  -4  11  208.95   16.25
  10   4  11  234.55   16.77
  10   4  12  108.35   11.35
  10  -4  12  119.14   12.47
  10   4  12  103.08   11.76
  10   4  13   62.27    8.86
  10  -4  13   75.12    9.97
  10   4  13   57.65    8.54
  10   4  14   81.92   10.21
  10  -4  14   87.68   10.97
  10   4  14   90.33   11.10
  10   4  15   80.36   10.18
  10  -4  15  101.83   11.71
  10   4  15   87.48   10.76
  10   4  16   47.42    8.43
  10  -4  16   42.53    7.54
  10   4  17   57.29    9.32
  10  -4  17   45.34    8.40
  10   4  18   62.17    9.68
  10  -4  18   60.12    9.74
  10  -4  19   26.66    7.07
  10   4  19   27.08    5.97
  10   4  20   15.59    5.32
  10   4  21   27.39    6.23
  10   4  22   12.47    4.56
  10   4  23    1.69    1.41
  10   4  24   29.87    6.32
  10   4  25   18.66    5.92
  10  -5 -23   -4.81    3.71
  10  -5 -22    4.68    3.60
  10  -5 -21    4.97    3.32
  10  -5 -20    1.97    2.63
  10  -5 -19    4.14    3.89
  10  -5 -19   -4.09    2.61
  10  -5 -18   -2.69    2.90
  10  -5 -18   -1.99    1.41
  10   5 -18   -0.35    2.42
  10   5 -17    3.96    3.57
  10  -5 -17    3.03    1.60
  10  -5 -17    3.72    3.54
  10   5 -16   23.02    5.42
  10  -5 -16   19.23    5.03
  10  -5 -16   21.96    5.75
  10   5 -15   15.78    5.11
  10  -5 -15   13.69    5.91
  10  -5 -15   19.26    5.85
  10   5 -14    3.15    2.87
  10  -5 -14    3.46    3.21
  10  -5 -14    4.95    2.89
  10   5 -13    1.32    3.47
  10  -5 -13   -1.17    1.43
  10  -5 -13    1.34    2.91
  10  -5 -12    0.66    1.84
  10   5 -12   -0.36    2.29
  10  -5 -12    0.83    1.75
  10  -5 -11    6.81    3.68
  10   5 -11    8.97    3.59
  10  -5 -11    4.42    1.81
  10  -5 -10   16.49    5.63
  10   5 -10   27.05    6.05
  10  -5 -10   10.69    3.76
  10  -5  -9    6.36    3.03
  10   5  -9    4.92    3.26
  10  -5  -9    1.88    1.57
  10  -5  -8   29.29    7.08
  10   5  -8   18.93    5.39
  10  -5  -8   21.55    5.49
  10   5  -7   15.74    4.37
  10  -5  -7   14.39    4.90
  10  -5  -7   18.48    5.56
  10   5  -6    2.52    1.69
  10  -5  -6    6.31    3.29
  10   5  -6    7.15    2.84
  10  -5  -6    4.92    3.42
  10   5  -5   10.84    4.02
  10  -5  -5    7.60    3.60
  10   5  -5   10.15    3.67
  10  -5  -5    8.07    2.78
  10   5  -4   27.73    6.01
  10   5  -4   29.35    5.13
  10  -5  -4   33.65    6.76
  10  -5  -4   42.04    7.43
  10   5  -3   10.52    4.22
  10  -5  -3   14.13    5.25
  10  -5  -3   14.87    3.73
  10   5  -3   14.32    3.72
  10   5  -2   42.04    7.33
  10   5  -2   40.90    6.83
  10  -5  -2   48.89    7.78
  10  -5  -2   46.66    7.36
  10  -5  -1  127.06   12.48
  10   5  -1  117.11   11.66
  10   5  -1  119.24   11.10
  10  -5  -1  117.02   12.35
  10  -5   0  101.39   10.99
  10   5   0  113.64   11.34
  10   5   0   96.17   10.15
  10  -5   0  102.08   11.42
  10   5   1  131.82   12.17
  10  -5   1  118.03   11.76
  10   5   1  126.57   11.70
  10  -5   1  132.20   12.96
  10   5   2   50.94    8.15
  10  -5   2   39.53    6.84
  10   5   2   52.06    7.37
  10  -5   2   42.80    7.35
  10   5   3   14.27    4.10
  10   5   3   13.07    4.39
  10  -5   3   11.18    3.28
  10  -5   3   15.91    5.48
  10   5   4   39.82    7.51
  10  -5   4   42.27    7.36
  10   5   4   46.13    7.25
  10  -5   4   32.78    6.85
  10   5   5   13.05    4.16
  10   5   5    9.24    2.99
  10  -5   5   12.74    4.32
  10  -5   5   11.41    4.00
  10   5   6    3.38    2.60
  10   5   6    6.18    2.85
  10  -5   6    6.48    3.17
  10  -5   6    8.32    3.99
  10   5   7   21.27    5.34
  10   5   7   15.64    5.00
  10  -5   7   14.25    3.90
  10  -5   7   22.38    5.50
  10   5   8   27.17    5.32
  10   5   8   20.70    5.51
  10  -5   8   32.54    6.38
  10  -5   8   31.00    6.97
  10   5   9    4.24    2.68
  10   5   9    2.86    1.59
  10  -5   9    4.94    3.68
  10  -5   9    5.39    3.81
  10   5  10    6.78    3.31
  10   5  10   25.99    5.74
  10  -5  10   12.16    4.00
  10  -5  10   24.66    5.36
  10   5  11    6.05    3.98
  10   5  11   10.58    4.88
  10  -5  11    7.15    3.16
  10  -5  11    5.16    3.62
  10   5  12    5.50    3.32
  10   5  12    6.87    4.26
  10  -5  12    4.42    2.89
  10  -5  12    3.41    4.11
  10   5  13    0.50    2.09
  10   5  13   -1.50    3.41
  10  -5  13   -0.67    1.65
  10   5  14    1.35    2.86
  10   5  14    0.96    1.95
  10  -5  14    6.23    3.82
  10   5  15   14.92    4.69
  10   5  15   20.95    5.60
  10  -5  15   10.41    3.06
  10   5  16   11.60    4.02
  10  -5  16    9.50    3.85
  10  -5  17    1.32    4.02
  10   5  17    1.57    2.53
  10  -5  18   -4.04    3.68
  10   5  18    5.11    4.20
  10   5  19   -1.32    3.93
  10   5  20    0.97    2.96
  10   5  21    8.94    4.05
  10   5  22    0.75    1.65
  10   5  23    7.70    4.63
  10  -6 -22   16.97    5.76
  10  -6 -21   52.40   10.00
  10  -6 -20   27.17    7.58
  10  -6 -19   20.36    6.20
  10  -6 -19   11.59    5.95
  10  -6 -18   40.90    8.52
  10  -6 -18   32.47    7.64
  10   6 -17   38.18    8.10
  10  -6 -17   26.08    6.23
  10  -6 -17   41.45    8.39
  10   6 -16   47.01    8.65
  10  -6 -16   35.06    8.01
  10  -6 -16   49.26    8.25
  10  -6 -15   85.08   11.57
  10  -6 -15   98.17   12.35
  10   6 -15   94.82   12.12
  10  -6 -14   68.62   10.84
  10  -6 -14   67.90   10.22
  10   6 -13   41.16    8.07
  10  -6 -13   59.28    9.20
  10  -6 -13   58.08    9.84
  10  -6 -12   47.99    8.97
  10  -6 -12   49.67    9.41
  10   6 -12   46.62    7.96
  10  -6 -11   44.04    8.51
  10   6 -11   53.68    8.84
  10  -6 -11   37.25    7.54
  10  -6 -10   33.34    7.40
  10   6 -10   35.80    6.98
  10  -6 -10   26.26    6.55
  10  -6  -9   57.54    9.02
  10  -6  -9   50.42    8.47
  10   6  -9   61.65    9.15
  10   6  -8   59.71    8.76
  10  -6  -8   52.62    9.34
  10  -6  -8   63.75    9.49
  10  -6  -7    9.98    4.72
  10   6  -7   17.76    4.43
  10  -6  -7   16.02    5.41
  10   6  -6   33.42    6.86
  10  -6  -6   30.01    5.75
  10  -6  -6   44.58    8.46
  10   6  -5  108.90   11.79
  10   6  -5   92.73   10.19
  10  -6  -5   88.17   11.51
  10  -6  -5   88.70   11.37
  10   6  -4   47.44    7.67
  10   6  -4   67.15    8.71
  10  -6  -4   69.97    9.32
  10  -6  -4   45.38    8.59
  10  -6  -3   10.30    4.27
  10   6  -3    4.76    3.32
  10  -6  -3    4.34    3.61
  10   6  -3    1.60    2.08
  10   6  -2   46.75    8.62
  10  -6  -2   34.09    6.65
  10   6  -2   33.69    6.30
  10  -6  -2   48.95    9.00
  10   6  -1   83.83   10.74
  10   6  -1  100.17   10.45
  10  -6  -1   95.14   11.15
  10  -6  -1   93.72   10.98
  10   6   0   93.79   11.01
  10   6   0   89.33   10.49
  10  -6   0   99.52   11.80
  10  -6   0   73.16   10.19
  10   6   1   90.10   10.62
  10  -6   1   93.54   11.09
  10   6   1  101.64   10.94
  10  -6   1  101.11   11.56
  10   6   2   50.27    7.83
  10  -6   2   48.32    7.50
  10   6   2   44.11    7.38
  10  -6   2   50.68    8.60
  10   6   3    3.77    2.21
  10   6   3    3.46    2.13
  10  -6   3    6.07    3.43
  10  -6   3    5.65    3.41
  10  -6   4   59.32    9.16
  10   6   4   66.19    9.47
  10   6   4   46.70    8.04
  10  -6   4   47.29    8.52
  10  -6   5   93.05   11.36
  10   6   5  100.66   11.21
  10   6   5   79.94   10.25
  10  -6   5  105.30   12.40
  10   6   6   33.35    6.61
  10   6   6   31.31    6.37
  10  -6   6   28.29    6.11
  10  -6   6   50.03    8.40
  10   6   7    9.82    4.01
  10   6   7    9.98    3.60
  10  -6   7   13.06    4.12
  10  -6   7   16.98    5.05
  10   6   8   62.07    9.53
  10  -6   8   46.92    8.04
  10   6   8   55.14    8.74
  10  -6   8   75.99   11.05
  10  -6   9   53.67    9.13
  10   6   9   65.72    9.76
  10   6   9   61.44    9.51
  10  -6   9   52.33    8.92
  10   6  10   41.69    7.99
  10   6  10   30.13    6.99
  10  -6  10   41.26    7.18
  10  -6  10   46.40    8.74
  10  -6  11   42.44    8.42
  10   6  11   58.59    9.00
  10   6  11   45.06    8.03
  10  -6  11   40.81    8.88
  10   6  12   39.09    7.91
  10   6  12   39.90    7.48
  10  -6  12   37.16    7.03
  10  -6  12   43.73    8.30
  10   6  13   60.32    8.66
  10   6  13   43.25    7.58
  10  -6  13   35.81    7.40
  10  -6  13   63.26   10.21
  10  -6  14   89.72   11.84
  10   6  14   68.88   10.12
  10   6  14   70.04    9.97
  10  -6  14   63.25    9.55
  10  -6  15   99.14   12.70
  10   6  15  105.38   12.41
  10   6  15   98.51   12.30
  10   6  16   51.21    9.47
  10  -6  16   42.39    8.71
  10   6  16   50.48    8.81
  10  -6  16   25.82    6.98
  10   6  17   33.21    8.24
  10   6  18   28.94    6.35
  10   6  19   14.31    4.51
  10   6  20   19.63    5.36
  10   6  21   61.44   10.00
  10   6  22   11.76    5.02
  10  -7 -20    3.12    3.15
  10  -7 -20    4.77    4.16
  10  -7 -19    5.13    3.36
  10  -7 -19    1.42    2.13
  10  -7 -18   15.50    5.82
  10  -7 -18    7.60    3.54
  10  -7 -17    2.51    2.30
  10  -7 -17    4.91    1.55
  10   7 -16    9.13    3.04
  10  -7 -16   15.99    5.35
  10  -7 -16    5.02    3.33
  10   7 -15    7.83    4.18
  10  -7 -15   10.88    4.16
  10  -7 -15    4.27    2.06
  10   7 -14   12.74    4.39
  10  -7 -14   21.81    5.60
  10  -7 -14   15.94    4.83
  10   7 -13    0.30    1.91
  10  -7 -13    9.11    4.40
  10  -7 -13   10.07    4.44
  10   7 -12    4.41    3.81
  10  -7 -12    5.45    2.61
  10  -7 -12   10.59    4.84
  10   7 -11   27.08    5.86
  10  -7 -11   31.37    7.60
  10  -7 -11   16.78    5.56
  10   7 -10   34.29    7.42
  10  -7 -10   27.99    6.29
  10  -7 -10   25.97    6.43
  10   7  -9   30.61    6.82
  10  -7  -9   21.97    5.75
  10  -7  -9   27.20    6.80
  10   7  -8   12.21    4.50
  10  -7  -8   20.58    5.18
  10  -7  -8   13.24    5.07
  10  -7  -7    0.28    1.78
  10   7  -7    2.72    1.40
 -10   7  -7    2.63    3.74
  10  -7  -7    1.23    2.50
  10  -7  -6    5.47    1.52
  10   7  -6    8.85    3.14
  10  -7  -6   15.21    5.30
 -10   7  -6    7.79    3.22
  10  -7  -5    5.26    3.83
  10   7  -5   10.25    4.44
 -10   7  -5    5.95    2.11
  10  -7  -5    5.95    3.37
  10   7  -4   -5.48    2.63
  10  -7  -4    4.02    3.16
  10   7  -4    4.48    4.32
  10  -7  -4    5.88    4.03
  10  -7  -3    5.90    2.37
  10   7  -3   10.89    4.37
  10   7  -3   11.14    3.25
  10  -7  -3    3.62    2.47
  10  -7  -2    7.71    4.64
  10   7  -2   20.12    5.28
  10   7  -2   14.14    4.27
  10  -7  -2   25.38    6.49
  10   7  -1   58.05    8.82
  10  -7  -1   30.09    6.93
  10   7  -1   49.77    8.24
  10  -7  -1   42.39    7.96
  10  -7   0   18.61    5.45
  10   7   0   17.29    4.58
  10   7   0   16.50    4.93
  10  -7   0   12.27    4.25
  10  -7   1   43.69    7.92
  10   7   1   38.82    7.44
  10   7   1   50.87    7.92
  10  -7   1   30.59    7.10
  10  -7   2   16.77    5.65
  10   7   2    7.06    4.45
  10   7   2    9.27    3.79
  10  -7   2   13.65    4.89
  10  -7   3    6.31    3.01
  10   7   3    8.78    5.41
  10   7   3    5.03    3.67
  10  -7   3    8.29    4.48
  10  -7   4    5.36    1.73
  10   7   4    6.66    4.32
  10   7   4    5.33    2.80
  10  -7   4    4.88    3.61
  10  -7   5    8.16    4.02
  10   7   5   -0.87    3.40
  10   7   5    0.97    1.76
  10  -7   5    5.32    4.23
  10  -7   6    6.79    2.30
  10   7   6    6.20    3.55
  10   7   6    6.79    2.82
  10  -7   6   13.78    5.69
  10  -7   7    4.60    4.38
  10   7   7    1.67    1.76
  10   7   7    2.92    2.19
  10  -7   7    4.19    4.52
  10  -7   8   15.67    4.84
  10   7   8   22.50    5.35
  10   7   8   12.73    5.48
  10  -7   8   17.31    5.88
  10  -7   9   21.28    5.26
  10   7   9   13.08    5.17
  10   7   9   16.75    5.00
  10  -7   9   18.18    5.76
  10  -7  10   23.70    7.11
  10   7  10   32.75    6.89
  10   7  10   36.70    7.08
  10  -7  10   25.46    6.91
  10  -7  11   30.88    6.79
  10   7  11   24.04    6.08
  10   7  11   31.56    7.12
  10  -7  11   26.72    7.61
  10   7  12    4.03    4.10
  10  -7  12   10.30    4.13
  10   7  12    4.08    3.03
  10  -7  12    5.67    3.33
  10   7  13    5.41    1.94
  10  -7  13    4.51    4.09
  10   7  13    9.40    5.10
  10  -7  13    6.36    3.86
  10   7  14   22.53    5.43
  10  -7  14   12.75    4.56
  10   7  14   23.14    5.82
  10   7  15    3.07    4.23
  10   7  15    2.08    2.64
  10   7  16    9.71    6.13
  10   7  16    6.52    3.80
  10   7  17    0.77    2.14
  10   7  18   12.96    4.62
  10   7  19   -0.60    1.32
  10   7  20    7.92    5.14
  10  -8 -17    5.75    3.65
  10  -8 -17    6.01    3.24
  10   8 -16    5.65    5.07
  10  -8 -16   11.38    5.53
  10  -8 -16   10.80    5.01
  10   8 -15   31.34    6.87
  10  -8 -15   31.90    7.67
  10   8 -14   39.79    7.97
  10  -8 -14   31.07    7.60
  10  -8 -14   39.10    8.08
  10   8 -13    8.73    4.68
  10  -8 -13    7.22    3.37
  10  -8 -13   11.69    4.50
  10   8 -12   14.70    6.01
  10  -8 -12   14.30    4.50
  10  -8 -12   26.49    6.73
  10   8 -11   13.36    3.59
  10  -8 -11   23.73    7.32
  10  -8 -11   20.69    5.43
  10   8 -10   13.23    4.24
  10  -8 -10    2.96    2.48
  10   8  -9   40.94    8.40
  10  -8  -9   34.27    7.55
  10  -8  -9   41.39    8.67
  10   8  -8   62.62    9.93
  10  -8  -8   60.69   10.26
  10  -8  -8   49.82    9.08
  10   8  -7   18.47    6.24
 -10   8  -7    6.22    4.13
  10  -8  -7    6.59    4.43
  10  -8  -7    9.87    4.81
  10   8  -6   59.03    9.06
 -10   8  -6   63.20    9.99
  10  -8  -6   78.11   11.74
  10  -8  -6   45.40    8.44
  10   8  -5   69.04   10.50
 -10   8  -5   67.08    9.81
  10  -8  -5   68.54   11.05
  10  -8  -5   72.14   10.82
 -10   8  -4   57.89    9.37
  10  -8  -4   52.36    8.69
  10  -8  -4   62.69    9.72
  10  -8  -3   12.23    4.83
  10   8  -3   11.55    4.89
 -10   8  -3    3.35    2.59
  10  -8  -3   19.21    4.66
  10  -8  -2   14.48    5.12
  10   8  -2   34.82    7.27
  10   8  -2   14.03    5.16
 -10   8  -2   15.25    5.69
  10  -8  -2   22.28    6.33
  10  -8  -1   14.03    4.56
  10   8  -1   25.17    6.43
  10   8  -1   22.69    6.32
 -10   8  -1   29.70    6.53
  10  -8  -1   28.35    7.02
  10  -8   0   28.11    7.05
  10   8   0   29.76    6.93
  10   8   0   40.44    7.82
 -10   8   0   25.88    6.10
  10  -8   0   29.95    7.90
  10  -8   1   18.39    5.31
  10   8   1   26.00    6.86
  10   8   1   20.37    5.83
 -10   8   1   23.09    6.44
  10  -8   1   21.81    6.00
  10  -8   2   12.12    4.40
  10   8   2   14.54    5.11
  10   8   2   21.73    6.04
 -10   8   2   14.53    4.05
  10  -8   2   12.89    5.33
  10  -8   3   17.38    5.44
  10   8   3   14.18    4.32
  10   8   3   16.47    5.37
 -10   8   3   24.79    5.82
  10  -8   3    8.20    3.28
  10  -8   4   47.62    8.40
  10   8   4   63.69    9.94
  10   8   4   68.65    9.96
  10  -8   4   49.24    8.63
  10   8   5   87.83   11.15
  10   8   5  103.17   12.31
  10  -8   5   67.87   11.09
  10  -8   5   92.56   11.77
  10   8   6   65.11    9.42
  10   8   6   70.90   10.60
  10  -8   6   52.75    9.24
  10  -8   6   55.22    8.98
  10  -8   7   12.58    4.45
  10   8   7    3.36    2.52
  10   8   7   16.61    4.94
  10  -8   7    7.70    5.79
  10   8   8   57.40    9.46
  10   8   8   34.05    7.42
  10  -8   8   46.03    8.90
  10  -8   9   13.05    6.31
  10   8   9   24.91    6.09
  10   8   9   27.70    6.46
  10  -8  10    5.92    4.57
  10   8  10    9.48    4.72
  10   8  10    9.01    1.88
  10  -8  11   14.32    5.24
  10   8  11   20.19    6.21
  10   8  11   19.73    5.55
  10  -8  12   20.81    6.87
  10   8  12   17.37    5.63
  10   8  12   20.69    5.72
  10  -8  13   12.47    5.42
  10   8  13   13.04    6.57
  10   8  13   12.37    4.37
  10   8  14   32.40    7.37
 -10   8  14   19.29    5.64
  10   8  15   37.37    8.41
  10   8  15   42.22    8.26
 -10   8  15   45.46    8.96
  10   8  16    8.53    3.77
  10   8  16    4.64    2.22
 -10   8  16    0.99    2.04
  10   8  17    5.16    5.58
 -10   8  17    9.13    4.61
  10   9 -13    0.75    1.85
  10  -9 -13    2.85    2.90
  10  -9 -13   -0.19    1.34
  10   9 -12   -3.56    3.62
  10  -9 -12   -2.53    2.67
  10  -9 -12   -0.10    2.41
  10   9 -11    6.87    2.66
  10  -9 -11    2.47    2.62
  10  -9 -11    6.88    3.78
  10   9 -10    9.29    5.41
  10  -9 -10    5.46    4.66
  10  -9 -10    5.57    3.58
  10   9  -9    2.81    3.30
  10  -9  -9    0.50    1.75
  10  -9  -9    1.68    3.34
  10   9  -8    8.78    3.50
  10  -9  -8    6.89    4.60
  10  -9  -8    5.87    4.46
  10   9  -7    3.96    3.12
  10  -9  -7    4.68    4.23
  10  -9  -7   -0.47    2.22
  10   9  -6    4.55    3.76
  10  -9  -6    3.40    5.51
  10  -9  -6    7.27    4.27
  10   9  -5   -0.44    2.71
 -10   9  -5    5.23    4.05
  10  -9  -5    1.67    2.07
  10  -9  -5    1.11    3.54
  10   9  -4    8.29    4.64
 -10   9  -4   10.95    5.41
  10  -9  -4    3.54    4.21
  10  -9  -4    7.58    3.67
  10   9  -3    3.87    2.05
  10  -9  -3   10.12    4.20
 -10   9  -3    3.02    2.05
  10  -9  -3    7.79    3.88
  10   9  -2    2.51    2.68
 -10   9  -2   -0.10    2.83
  10  -9  -2   -1.31    1.79
  10  -9  -2    6.22    4.34
  10   9  -1    6.05    2.80
 -10   9  -1   12.25    5.78
  10  -9  -1    3.61    3.73
  10  -9  -1   11.07    4.23
  10   9   0   10.98    4.81
  10   9   0    2.64    2.73
 -10   9   0   19.50    5.78
  10  -9   0   12.89    5.15
  10  -9   0   17.90    5.92
  10   9   1    4.91    3.72
  10   9   1    0.29    2.00
 -10   9   1   16.80    5.41
  10  -9   1   18.76    5.54
  10  -9   1    5.07    3.58
  10  -9   2    3.93    3.38
  10   9   2   -0.79    3.06
  10   9   2    1.60    2.70
 -10   9   2    2.09    3.31
  10  -9   3    5.82    3.02
  10   9   3   14.63    4.31
  10   9   3    4.94    3.12
 -10   9   3    8.47    2.88
  10  -9   4    7.90    4.93
  10   9   4    9.51    3.23
  10   9   4   15.56    5.23
 -10   9   4   15.78    5.61
  10  -9   5    3.67    2.91
  10   9   5    5.84    3.91
  10   9   5   10.57    6.23
 -10   9   5    1.94    2.89
  10  -9   6   10.73    3.85
  10   9   6   13.64    5.67
  10   9   6    2.16    3.01
 -10   9   6    5.46    3.49
  10  -9   7    0.37    2.72
  10   9   7    0.69    1.75
  10   9   7    2.52    2.53
 -10   9   7    1.33    3.30
  10  -9   8    3.39    3.59
  10   9   8    7.43    4.37
  10   9   8   10.51    5.02
 -10   9   8    6.82    4.58
  10   9   9    2.13    2.94
  10   9   9    0.81    2.02
 -10   9   9    0.04    2.22
  10  -9  10    9.10    4.97
  10   9  10   -1.50    3.39
  10   9  10   11.84    4.68
 -10   9  10    3.92    3.11
  10  -9  11   10.48    5.14
  10   9  11    5.14    2.88
  10   9  11    8.79    4.86
 -10   9  11   18.10    5.33
  10  -9  12   -0.06    2.42
  10   9  12   -1.03    3.08
  10   9  12   -1.39    1.53
 -10   9  12    3.72    3.41
  10   9  13    5.76    4.54
  10   9  13    1.20    1.89
 -10   9  13    2.66    2.44
  10  10  -6   18.43    6.45
  10 -10  -6   14.49    5.02
  10  10  -5   11.78    5.00
  10 -10  -5    7.70    4.06
  10  10  -4   20.54    6.29
 -10  10  -4   22.89    6.24
  10 -10  -4   13.26    5.33
  10  10  -3    2.56    2.17
 -10  10  -3    1.88    3.23
  10 -10  -3   -3.82    2.31
  10  10  -2   18.93    5.68
 -10  10  -2   17.09    7.31
  10 -10  -2   19.00    6.32
  10  10  -1    1.62    2.18
 -10  10  -1   -0.53    3.80
  10 -10  -1    8.52    3.95
  10  10   0    1.74    3.69
 -10  10   0    4.69    2.55
  10 -10   0   -1.85    1.94
  10  10   1    7.32    3.16
  10  10   1    0.51    3.77
 -10  10   1    9.23    4.92
  10 -10   1    7.59    4.01
  10  10   2   20.11    5.15
  10  10   2   12.85    4.83
 -10  10   2   17.74    5.53
  10 -10   2   23.27    6.61
  10  10   3   -0.75    4.01
  10  10   3    5.41    3.23
 -10  10   3    7.32    3.84
  10 -10   3   10.57    5.56
  10  10   4   31.34    8.04
  10  10   4    8.33    5.35
 -10  10   4   14.20    5.42
  10 -10   4   23.99    6.80
  10  10   5   17.74    5.65
  10  10   5   13.00    3.86
 -10  10   5   14.15    5.75
  10 -10   5    6.26    4.38
  10  10   6   33.38    7.51
  10  10   6   21.62    6.43
 -10  10   6   19.13    6.19
  10 -10   6   16.21    5.35
  11   0 -24   -0.46    3.20
  11   0 -23   -2.13    3.27
  11   0 -22   -0.20    2.15
  11   0 -21   -1.21    3.11
  11   0 -20    1.14    2.29
  11   0 -19    1.50    2.39
  11   0 -18    1.87    3.11
  11   0 -17    3.83    2.40
  11   0 -16   -1.32    2.17
  11   0 -15    3.15    1.31
  11   0 -14   -2.09    1.19
  11   0 -13   -0.83    1.95
  11   0 -12   -0.86    1.01
  11   0 -12    1.72    1.63
  11   0 -11    2.49    1.57
  11   0 -11   -0.58    1.59
  11   0 -10   -0.08    0.85
  11   0 -10    1.15    1.98
  11   0  -9   -0.72    1.86
  11   0  -9   -1.72    3.06
  11   0  -8    0.37    2.05
  11   0  -8   -2.24    2.07
  11   0  -7    0.31    1.32
  11   0  -7    0.59    1.98
  11   0  -6    1.45    1.88
  11   0  -6   -0.75    2.11
  11   0  -6   -0.74    1.51
  11   0  -5    0.75    1.70
  11   0  -5   -1.49    2.60
  11   0  -5    0.18    1.43
  11   0  -4    0.94    1.95
  11   0  -4    1.70    1.41
  11   0  -4   -0.04    1.63
  11   0  -3    1.76    1.58
  11   0  -3   -0.51    2.50
  11   0  -3   -1.25    1.27
  11   0  -2   -0.71    1.23
  11   0  -2    2.16    2.84
  11   0  -2    0.50    1.91
  11   0  -1   -0.18    1.08
  11   0  -1   -0.73    1.37
  11   0  -1    2.17    2.76
  11   0   0   -0.02    2.05
  11   0   0    1.49    1.04
  11   0   0   -0.91    1.26
  11   0   1   -0.30    1.14
  11   0   1   -1.37    1.73
  11   0   1   -0.83    1.79
  11   0   2   -1.37    3.06
  11   0   2   -0.36    2.23
  11   0   3   -0.14    1.22
  11   0   3    1.12    2.60
  11   0   4    1.47    1.60
  11   0   4   -0.41    1.65
  11   0   5    1.75    3.31
  11   0   5    1.60    1.15
  11   0   6   -0.05    1.16
  11   0   6    1.58    0.86
  11   0   7   -0.69    2.19
  11   0   7   -0.65    1.55
  11   0   8   -1.27    2.69
  11   0   8   -1.18    2.09
  11   0   9   -0.13    1.63
  11   0   9   -0.24    1.37
  11   0  10   -0.82    1.51
  11   0  10    0.10    2.08
  11   0  11    0.58    2.97
  11   0  11    0.66    1.07
  11   0  12    0.10    1.68
  11   0  12    1.26    2.18
  11   0  13    2.14    2.68
  11   0  14    4.08    3.90
  11   0  15    1.66    2.13
  11   0  16    0.97    1.41
  11   0  17    0.70    1.65
  11   0  18   -0.93    1.96
  11   0  19   -2.03    1.60
  11   0  20   -0.31    1.55
  11   0  21   -4.68    3.29
  11   0  22   -0.28    1.65
  11   0  23    0.33    1.98
  11   0  24    2.82    4.29
  11  -1 -26    0.94    3.43
  11  -1 -25   15.93    5.67
  11  -1 -24   59.78   10.05
  11  -1 -23   12.14    4.87
  11  -1 -22    1.17    3.36
  11  -1 -21   15.27    5.84
  11  -1 -20   12.52    4.62
  11   1 -19   72.88   10.62
  11  -1 -19   66.58    9.82
  11   1 -18  205.35   16.56
  11  -1 -18  200.85   16.85
  11   1 -17   37.66    7.09
  11  -1 -17   18.13    4.63
  11   1 -16    1.56    2.00
  11  -1 -16    1.66    3.11
  11   1 -15   57.81    8.71
  11  -1 -15   55.35    8.82
  11   1 -14  184.96   14.93
  11  -1 -14  184.19   15.41
  11   1 -13  440.99   23.49
  11  -1 -13  455.53   24.25
  11  -1 -13  394.54   20.99
  11  -1 -12  398.64   21.14
  11   1 -12  438.08   23.00
  11  -1 -12  423.93   24.14
  11   1 -12  472.25   23.91
  11  -1 -11   11.59    3.63
  11   1 -11   25.49    5.83
  11  -1 -11   18.54    4.87
  11   1 -11   15.29    4.30
  11  -1 -10  204.10   15.13
  11   1 -10  218.08   14.05
  11  -1 -10  190.13   15.16
  11   1 -10  217.54   15.69
  11   1 -10  212.69   15.62
  11  -1  -9  194.58   14.05
  11   1  -9  221.44   14.28
  11  -1  -9  195.22   15.19
  11   1  -9  225.00   15.64
  11   1  -9  211.30   15.39
  11  -1  -8  169.93   13.40
  11   1  -8  215.61   14.18
  11  -1  -8  209.63   15.61
  11   1  -8  207.32   15.03
  11   1  -8  193.19   14.66
  11  -1  -7  245.36   16.02
  11   1  -7  231.62   14.75
  11  -1  -7  222.81   16.39
  11   1  -7  284.95   17.65
  11   1  -7  237.92   15.84
  11  -1  -6  168.77   13.25
  11   1  -6  141.57   11.46
  11  -1  -6  144.83   12.83
  11   1  -6  156.46   13.06
  11   1  -6  127.01   11.52
  11   1  -5   37.20    5.88
  11  -1  -5   26.50    5.29
  11  -1  -5   50.41    7.96
  11   1  -5   40.65    6.63
  11   1  -5   38.70    6.49
  11  -1  -4   33.20    5.78
  11   1  -4   28.29    5.18
  11  -1  -4   24.05    5.57
  11   1  -4   25.50    4.99
  11   1  -4   21.11    4.89
  11  -1  -3  309.08   17.70
  11   1  -3  299.62   16.63
  11  -1  -3  308.06   18.74
  11   1  -3  290.91   17.22
  11   1  -3  303.91   17.46
  11  -1  -2  805.44   28.32
  11   1  -2  743.03   26.54
  11  -1  -2  806.86   30.42
  11   1  -2  730.70   27.57
  11   1  -2  752.28   27.47
  11  -1  -1   38.94    6.30
  11   1  -1   37.63    5.86
  11  -1  -1   48.77    7.20
  11   1  -1   40.63    6.54
  11   1  -1   37.73    6.62
  11   1   0    3.54    2.48
  11  -1   0    2.81    1.12
  11  -1   0    1.64    1.15
  11   1   0   -0.41    1.41
  11   1   0    3.58    2.68
  11  -1   1   50.25    7.05
  11   1   1   42.77    6.50
  11  -1   1   50.15    7.77
  11   1   1   40.53    6.27
  11  -1   2  766.43   28.04
  11   1   2  730.29   27.16
  11  -1   2  687.85   28.06
  11   1   2  724.53   27.05
  11  -1   3  290.87   17.46
  11   1   3  281.51   16.85
  11  -1   3  280.51   17.94
  11   1   3  257.92   15.57
  11   1   4   29.23    5.31
  11  -1   4   28.75    5.75
  11   1   4   20.26    3.87
  11  -1   5   47.80    7.28
  11   1   5   47.39    7.06
  11   1   5   49.56    7.13
  11   1   6  152.97   12.78
  11   1   6  153.53   12.06
  11  -1   7  233.87   15.84
  11   1   7  251.44   16.66
  11   1   7  259.58   15.64
  11  -1   8  188.25   14.58
  11   1   8  205.01   15.18
  11   1   8  210.56   14.11
  11  -1   9  185.36   14.57
  11   1   9  221.13   15.93
  11   1   9  225.65   14.75
  11  -1  10  212.99   15.74
  11   1  10  223.14   16.36
  11   1  10  200.62   14.02
  11   1  11   20.35    4.94
  11  -1  11   21.58    5.52
  11   1  11   22.02    4.46
  11  -1  12  423.28   22.39
  11   1  12  443.92   23.25
  11   1  12  430.92   20.23
  11  -1  13  408.72   22.61
  11   1  13  421.29   22.88
  11   1  13  409.40   19.52
  11  -1  14  185.20   15.55
  11   1  14  163.63   14.54
  11  -1  15   57.61    8.71
  11   1  15   63.59    9.07
  11   1  16    5.74    2.37
  11  -1  16    7.56    2.98
  11   1  17   37.93    7.33
  11  -1  17   22.20    5.35
  11  -1  18  189.46   16.55
  11   1  18  214.24   17.10
  11  -1  19   51.75    8.89
  11   1  19   63.08    9.35
  11   1  20    9.96    4.21
  11  -1  20   16.45    5.43
  11   1  21   25.42    6.41
  11  -1  21    6.95    4.01
  11   1  22   -1.10    3.18
  11  -1  22    0.95    2.36
  11   1  23    9.17    4.89
  11  -1  23    9.37    2.17
  11   1  24   49.27    8.59
  11   1  25   19.59    4.87
  11  -2 -25    7.94    4.09
  11  -2 -24    5.41    3.86
  11  -2 -23   22.67    6.21
  11  -2 -22    2.51    3.20
  11  -2 -21    0.13    2.28
  11  -2 -20    9.88    3.49
  11  -2 -19   -0.19    2.39
  11  -2 -18    2.44    1.31
  11  -2 -17    2.04    1.22
  11  -2 -16   11.36    4.48
  11   2 -16   -0.39    2.17
  11  -2 -15   -3.17    2.02
  11   2 -15   -5.76    2.58
  11  -2 -15    1.96    3.12
  11   2 -15    0.32    1.36
  11  -2 -14   10.90    3.76
  11   2 -14    9.95    4.18
  11  -2 -14   11.48    3.11
  11   2 -14   10.66    3.35
  11  -2 -13   24.16    6.10
  11   2 -13   16.63    4.11
  11  -2 -13   17.60    4.71
  11   2 -13   17.51    5.40
  11  -2 -12    4.65    3.53
  11   2 -12    1.92    1.44
  11  -2 -12    3.60    2.95
  11   2 -12   -0.78    2.61
  11  -2 -11    5.25    3.18
  11   2 -11    4.37    2.18
  11  -2 -11    0.38    1.33
  11   2 -11    5.63    3.27
  11  -2 -10    5.87    2.84
  11  -2 -10    7.37    3.47
  11   2 -10    8.08    2.82
  11   2 -10    3.92    2.24
  11  -2  -9    4.17    1.23
  11   2  -9    5.03    2.53
  11  -2  -9    1.68    1.51
  11   2  -9    8.82    3.56
  11   2  -9    6.32    3.49
  11  -2  -8   66.65    8.59
  11   2  -8   56.21    7.37
  11  -2  -8   68.55    9.58
  11   2  -8   70.07    8.55
  11   2  -8   61.83    8.66
  11  -2  -7   27.82    5.58
  11   2  -7   24.40    5.14
  11  -2  -7   16.31    4.87
  11   2  -7   23.37    4.62
  11   2  -7   16.91    4.01
  11  -2  -6   -0.19    1.83
  11  -2  -6    2.51    1.31
  11   2  -6    4.27    2.83
  11   2  -6    3.50    2.52
  11   2  -6    5.79    3.01
  11  -2  -5   33.42    6.22
  11   2  -5   37.59    5.94
  11  -2  -5   33.39    6.70
  11   2  -5   30.79    5.38
  11   2  -5   38.87    7.19
  11   2  -4    4.45    2.60
  11   2  -4    5.72    3.09
  11  -2  -4    3.57    2.36
  11  -2  -4    0.76    2.23
  11   2  -4    4.57    2.44
  11  -2  -3  352.21   19.35
  11   2  -3  322.24   17.51
  11  -2  -3  346.70   20.47
  11   2  -3  353.83   19.04
  11   2  -3  358.08   19.30
  11   2  -2    6.18    2.84
  11   2  -2    9.99    3.45
  11  -2  -2   14.34    4.08
  11  -2  -2    8.63    2.25
  11   2  -2    9.10    2.25
  11  -2  -1  247.16   16.14
  11  -2  -1  235.22   16.51
  11   2  -1  238.86   15.56
  11   2  -1  227.77   15.54
  11   2  -1  255.23   16.30
  11   2   0    0.44    2.76
  11   2   0   -0.06    1.90
  11  -2   0   -0.06    0.98
  11  -2   0    1.03    2.61
  11   2   0    0.08    1.09
  11  -2   1  251.51   16.70
  11  -2   1  277.03   17.80
  11   2   1  252.68   16.00
  11   2   1  237.78   15.78
  11   2   2    9.48    3.05
  11   2   2    9.31    3.50
  11  -2   2   12.95    4.13
  11  -2   2    9.53    3.73
  11  -2   3  339.66   19.19
  11  -2   3  367.98   20.99
  11   2   3  372.62   19.58
  11   2   3  381.59   19.93
  11   2   4   -0.50    1.70
  11   2   4    1.16    1.29
  11  -2   4    2.01    1.00
  11  -2   4    1.69    1.87
  11   2   5   26.15    5.09
  11  -2   5   24.84    5.24
  11   2   5   36.21    6.13
  11   2   6    5.25    3.02
  11   2   6    2.59    0.97
  11  -2   6    0.58    2.36
  11   2   7   26.67    5.61
  11   2   7   21.83    4.78
  11  -2   7   22.82    4.84
  11  -2   8   57.33    8.13
  11   2   8   64.11    8.55
  11   2   8   64.23    8.68
  11   2   9    4.71    4.02
  11   2   9    1.58    1.79
  11  -2   9    3.71    1.49
  11   2  10    1.65    2.22
  11   2  10    7.01    4.40
  11  -2  10    6.36    3.45
  11   2  11    5.74    1.40
  11   2  11    2.48    2.90
  11  -2  11    8.20    3.84
  11   2  12    2.69    2.29
  11   2  12    0.38    2.20
  11  -2  12    0.60    1.27
  11   2  13   19.76    4.52
  11   2  13   18.46    4.72
  11  -2  13   25.35    5.68
  11   2  14   15.95    3.93
  11  -2  14   12.61    4.45
  11   2  15    0.07    1.58
  11  -2  15    2.37    3.59
  11   2  16   -1.22    2.89
  11  -2  16    3.83    2.25
  11   2  17    2.55    2.21
  11  -2  17    0.21    2.75
  11   2  18    5.42    4.42
  11  -2  18    6.25    2.57
  11   2  19   -0.80    2.17
  11  -2  19    3.49    3.30
  11   2  20    9.93    3.82
  11  -2  20    6.89    3.04
  11   2  21   -0.98    3.98
  11  -2  21    0.62    2.48
  11   2  22    3.97    2.71
  11  -2  22    6.96    4.66
  11   2  23   26.56    6.64
  11   2  24    1.78    2.60
  11   2  25    6.01    5.04
  11  -3 -25   60.07   10.12
  11  -3 -24   43.01    8.69
  11  -3 -23   33.96    7.45
  11  -3 -22   17.77    6.22
  11  -3 -21    8.51    3.42
  11  -3 -20   23.69    6.27
  11  -3 -19   27.92    7.24
  11   3 -19   17.24    6.04
  11  -3 -18   85.59   11.26
  11   3 -18  105.13   12.45
  11  -3 -17   63.35    9.31
  11   3 -17   57.38    9.03
  11  -3 -16    0.88    1.93
  11   3 -16    1.13    1.62
  11  -3 -15   23.58    5.85
  11  -3 -15   31.42    7.82
  11   3 -15   26.37    6.35
  11  -3 -14   89.22   11.28
  11  -3 -14   78.74   10.34
  11   3 -14   67.77    9.74
  11  -3 -13   85.42   10.86
  11  -3 -13   92.48   10.86
  11   3 -13   82.28   10.41
  11  -3 -12   72.57    9.78
  11   3 -12   98.67   11.23
  11  -3 -12   99.29   11.13
  11  -3 -11  171.71   15.45
  11   3 -11  159.46   14.22
  11  -3 -11  142.62   13.33
  11  -3 -10   26.68    5.91
  11  -3 -10   34.44    6.58
  11   3 -10   37.48    7.49
  11   3  -9  690.90   28.48
  11  -3  -9  718.52   29.44
  11  -3  -8  210.51   16.16
  11   3  -8  194.23   13.40
  11  -3  -8  210.60   16.33
  11   3  -8  221.95   16.16
  11  -3  -7   59.33    8.50
  11   3  -7   82.90    8.76
  11  -3  -7   74.58    9.61
  11   3  -7   69.11    8.12
  11   3  -7   75.00    9.32
  11  -3  -6   46.61    7.46
  11  -3  -6   55.40    8.26
  11   3  -6   44.84    6.47
  11   3  -6   42.75    6.22
  11   3  -6   55.31    8.58
  11  -3  -5  436.38   22.80
  11  -3  -5  407.52   22.82
  11   3  -5  440.48   20.87
  11   3  -5  426.49   20.57
  11   3  -5  473.52   23.63
  11  -3  -4  231.21   16.41
  11   3  -4  205.70   14.31
  11   3  -4  209.07   14.50
  11   3  -4  233.74   16.32
  11  -3  -3 1554.75   42.69
  11  -3  -3 1586.26   45.22
  11   3  -3 1623.60   40.24
  11   3  -3 1554.93   42.05
  11  -3  -2  275.48   18.31
  11  -3  -2  290.34   19.39
  11   3  -2  271.26   16.71
  11   3  -2  312.04   17.35
  11   3  -2  312.67   18.59
  11  -3  -1 1416.17   40.42
  11  -3  -1 1374.18   40.95
  11   3  -1 1357.49   37.34
  11   3  -1 1451.88   38.32
  11  -3   0   42.10    6.73
  11  -3   0   46.42    7.91
  11   3   0   67.29    8.69
  11   3   0   56.41    7.77
  11  -3   1 1432.64   40.66
  11  -3   1 1369.83   41.55
  11   3   1 1422.73   39.13
  11   3   1 1472.80   39.20
  11   3   2  266.48   16.82
  11  -3   2  292.35   18.32
  11  -3   2  252.45   17.79
  11   3   2  284.91   17.42
  11   3   3 1555.81   40.88
  11  -3   3 1634.27   43.87
  11  -3   3 1585.70   44.24
  11   3   3 1496.95   40.76
  11   3   4  214.61   15.38
  11  -3   4  232.72   16.80
  11  -3   4  213.79   16.36
  11   3   4  200.30   14.92
  11   3   5  468.98   22.81
  11  -3   5  432.99   22.36
  11  -3   5  428.12   23.27
  11   3   5  437.62   21.63
  11   3   6   43.98    7.04
  11  -3   6   46.87    7.93
  11  -3   6   47.22    8.75
  11   3   7  101.50   10.77
  11  -3   7   79.32    9.35
  11   3   7   74.69    9.09
  11   3   8  193.41   14.86
  11  -3   8  205.53   15.76
  11   3   8  211.74   15.15
  11   3   9  644.91   27.82
  11  -3   9  715.67   29.66
  11   3   9  651.68   26.67
  11   3  10   16.07    4.56
  11  -3  10   26.35    5.71
  11   3  10   25.34    5.63
  11   3  11  115.23   12.04
  11  -3  11  129.41   12.80
  11   3  11  151.08   13.85
  11   3  12   82.18   10.17
  11  -3  12   93.37   10.79
  11   3  12  103.53   11.07
  11   3  13  109.94   11.83
  11  -3  13   85.87   10.97
  11   3  13   97.41   10.58
  11   3  14   78.96   10.05
  11  -3  14   75.80   10.14
  11   3  14   83.74   10.06
  11   3  15   21.11    4.29
  11  -3  15   18.03    5.29
  11   3  16    1.22    2.55
  11  -3  16    5.07    2.80
  11   3  17   49.40    8.33
  11  -3  17   49.72    8.86
  11   3  18  110.05   12.88
  11  -3  18   87.71   11.46
  11   3  19   23.79    5.62
  11  -3  19   23.20    6.84
  11   3  20   25.14    6.78
  11  -3  20   27.98    7.12
  11   3  21    9.56    4.04
  11  -3  21    1.47    2.49
  11   3  22   15.45    5.59
  11   3  23   47.50    9.13
  11   3  24   42.74    8.65
  11   3  25   51.81    9.79
  11  -4 -24    8.72    3.89
  11  -4 -23    6.79    3.91
  11  -4 -22   28.38    7.15
  11  -4 -21    7.93    2.40
  11  -4 -20    2.49    2.25
  11  -4 -19    7.11    4.38
  11   4 -19    2.30    3.12
  11  -4 -18   -0.95    1.99
  11   4 -18   -4.61    4.31
  11  -4 -17    2.37    2.29
  11  -4 -17    3.65    2.37
  11   4 -17    4.91    4.29
  11  -4 -16    1.91    4.22
  11  -4 -16    3.34    2.67
  11   4 -16    1.46    1.47
  11  -4 -15    1.75    2.79
  11   4 -15    3.93    1.50
  11  -4 -14    4.62    3.60
  11  -4 -14    1.91    3.21
  11   4 -14    0.95    1.27
  11   4 -13   -1.54    2.10
  11  -4 -13    0.60    1.42
  11  -4 -13   -0.04    2.20
  11   4 -12   34.51    7.14
  11  -4 -12   31.94    6.78
  11  -4 -12   38.16    7.03
  11   4 -11    8.82    3.44
  11  -4 -11    9.47    3.71
  11  -4 -11    8.85    4.76
  11  -4 -10   33.88    7.69
  11  -4 -10   36.69    6.95
  11   4 -10   52.50    7.99
  11   4  -9    8.75    3.17
  11  -4  -9   11.84    4.54
  11  -4  -9   -1.44    1.45
  11  -4  -8  111.50   12.38
  11   4  -8  124.04   12.28
  11  -4  -8   98.92   11.25
  11   4  -7   18.84    4.60
  11   4  -7    9.98    3.38
  11  -4  -7   17.11    4.09
  11  -4  -7    9.44    4.31
  11   4  -6    9.37    3.53
  11  -4  -6    9.31    3.41
  11   4  -6    7.65    3.14
  11  -4  -6   10.27    4.53
  11   4  -5    7.97    4.23
  11  -4  -5    2.91    2.99
  11   4  -5    2.47    1.51
  11  -4  -5    4.40    3.46
  11  -4  -4  621.91   28.11
  11  -4  -4  691.32   30.40
  11   4  -4  659.69   26.40
  11   4  -4  709.79   29.19
  11  -4  -3   78.17    9.78
  11  -4  -3   73.38   10.18
  11   4  -3   68.64    9.13
  11   4  -3   65.56    8.27
  11   4  -2  168.79   13.58
  11  -4  -2  182.49   15.26
  11  -4  -2  154.06   14.56
  11   4  -2  175.43   13.20
  11   4  -2  166.09   13.75
  11   4  -1  213.65   15.05
  11  -4  -1  195.44   15.44
  11  -4  -1  238.81   17.95
  11   4  -1  209.17   14.71
  11   4  -1  240.03   16.75
  11   4   0    5.61    3.46
  11  -4   0   -0.92    2.51
  11   4   0    1.16    1.56
  11  -4   0   -1.08    2.41
  11  -4   1  228.07   16.44
  11   4   1  243.45   16.40
  11  -4   1  245.12   17.95
  11   4   1  253.29   16.92
  11  -4   2  152.85   13.39
  11   4   2  161.22   13.24
  11  -4   2  149.21   14.17
  11   4   2  160.29   13.22
  11   4   3   59.96    8.46
  11   4   3   54.86    7.95
  11  -4   3   67.77    8.58
  11  -4   3   56.28    8.41
  11   4   4  657.71   27.95
  11   4   4  604.02   26.08
  11  -4   4  673.61   28.87
  11  -4   4  683.15   29.81
  11   4   5    0.34    2.46
  11  -4   5    6.83    2.94
  11   4   5    3.28    1.80
  11  -4   5    2.18    2.32
  11   4   6   12.26    4.16
  11  -4   6   10.76    3.65
  11   4   6    9.34    3.90
  11  -4   6    0.90    2.59
  11   4   7   13.72    4.33
  11  -4   7   14.30    3.83
  11   4   7   16.77    4.88
  11  -4   7   13.69    5.45
  11   4   8   88.18    9.94
  11   4   8  125.61   11.95
  11  -4   8   85.12   10.06
  11  -4   8  102.72   12.31
  11   4   9    7.40    3.75
  11  -4   9    4.03    3.36
  11   4   9    4.40    3.29
  11  -4   9    9.25    3.79
  11   4  10   55.21    8.32
  11   4  10   61.80    8.80
  11  -4  10   34.54    6.96
  11   4  11   12.23    3.79
  11  -4  11    7.25    3.07
  11   4  11    8.07    3.87
  11   4  12   29.80    6.26
  11  -4  12   33.08    6.66
  11   4  12   35.81    6.73
  11   4  13    0.19    2.66
  11  -4  13    0.19    2.11
  11   4  13    1.74    3.38
  11   4  14    0.68    3.18
  11  -4  14    0.38    2.15
  11   4  14    6.22    4.61
  11   4  15    7.15    3.20
  11  -4  15    9.83    3.51
  11   4  15    5.11    3.66
  11  -4  16    2.33    1.99
  11   4  16   -0.01    1.28
  11  -4  17   -1.46    3.10
  11   4  17   -0.17    1.79
  11  -4  18   -2.21    3.95
  11   4  18    1.02    2.33
  11  -4  19   -0.12    2.24
  11   4  19    9.40    5.22
  11   4  20    4.34    3.27
  11   4  21    2.85    2.07
  11   4  22   24.50    6.37
  11   4  23   17.62    5.26
  11   4  24    5.70    1.84
  11  -5 -22   27.71    6.29
  11  -5 -21    4.05    2.47
  11  -5 -20   28.96    6.78
  11  -5 -19   15.51    4.87
  11   5 -19   -6.19    3.10
  11  -5 -18   26.75    6.47
  11  -5 -18   32.61    7.91
  11   5 -18   28.92    6.96
  11  -5 -17   17.44    5.77
  11  -5 -17   12.02    4.83
  11   5 -17   23.65    6.37
  11   5 -16    4.75    2.02
  11  -5 -16   12.85    4.49
  11  -5 -16    4.18    3.62
  11   5 -15   19.38    6.19
  11  -5 -15   29.22    7.29
  11  -5 -15   29.33    6.42
  11  -5 -14   64.03    9.85
  11  -5 -14   78.89   10.90
  11   5 -14   61.85   10.05
  11  -5 -13   66.82   10.17
  11   5 -13   76.31   10.49
  11  -5 -12   10.33    4.00
  11   5 -12   20.60    5.75
  11  -5 -12    9.32    4.27
  11  -5 -11    0.99    1.89
  11   5 -11    3.56    1.96
  11  -5 -11    5.21    3.54
  11   5 -10    0.26    1.48
  11  -5 -10   -0.53    1.81
  11  -5 -10    2.94    1.49
  11  -5  -9   62.68    9.53
  11  -5  -9   69.78    9.60
  11   5  -9   73.45   10.16
  11  -5  -8  219.98   17.76
  11  -5  -8  240.86   18.25
  11   5  -8  281.73   19.45
  11  -5  -7   47.20    8.57
  11  -5  -7   58.77    8.88
  11   5  -7   43.65    7.99
  11   5  -6   26.72    6.11
  11  -5  -6   31.29    6.58
  11  -5  -6   25.75    6.30
  11   5  -5    5.11    3.33
  11  -5  -5    3.86    3.08
  11   5  -5    6.01    2.93
  11  -5  -5    5.13    2.88
  11   5  -4  229.56   16.09
  11  -5  -4  268.22   18.85
  11  -5  -4  283.63   19.33
  11   5  -4  285.41   19.06
  11   5  -3   54.36    7.46
  11  -5  -3   43.01    8.01
  11  -5  -3   38.42    7.30
  11   5  -3   60.14    8.33
  11   5  -2  104.94   11.71
  11  -5  -2   87.47   11.04
  11   5  -2   90.53    9.85
  11  -5  -2  105.61   12.17
  11   5  -1  155.10   13.79
  11  -5  -1  154.45   14.40
  11   5  -1  134.68   12.74
  11  -5  -1  164.83   14.96
  11   5   0    4.52    3.39
  11  -5   0    2.73    2.19
  11   5   0    1.75    3.12
  11  -5   0    1.49    1.94
  11   5   1  153.58   13.94
  11  -5   1  136.47   13.57
  11   5   1  149.48   13.18
  11  -5   1  154.40   14.88
  11   5   2  103.16   11.49
  11  -5   2   99.77   11.56
  11   5   2   91.17   10.52
  11  -5   2   93.07   11.58
  11   5   3   50.15    8.17
  11  -5   3   45.90    7.46
  11   5   3   48.90    7.69
  11  -5   3   59.02    9.19
  11   5   4  257.27   18.16
  11  -5   4  276.64   18.59
  11   5   4  295.66   19.08
  11  -5   4  268.45   19.67
  11   5   5    4.81    2.20
  11  -5   5    3.35    2.59
  11  -5   5    7.74    3.28
  11   5   5    6.59    3.55
  11   5   6   27.70    6.12
  11  -5   6   24.66    5.24
  11  -5   6   28.58    6.32
  11   5   6   26.05    5.93
  11   5   7   50.45    8.66
  11  -5   7   46.94    7.72
  11   5   7   41.98    7.35
  11  -5   7   42.84    8.07
  11   5   8  275.32   18.80
  11  -5   8  263.37   18.71
  11   5   8  273.89   18.86
  11  -5   8  246.54   19.15
  11   5   9   63.22    8.97
  11  -5   9   52.37    8.75
  11   5   9   64.51    8.80
  11  -5   9   72.15   10.50
  11   5  10    3.63    4.16
  11  -5  10    2.29    3.47
  11  -5  10    3.74    3.64
  11   5  10   -1.33    2.34
  11   5  11    2.69    2.40
  11  -5  11    4.54    2.09
  11  -5  11    5.06    4.08
  11   5  11    3.07    2.20
  11   5  12   16.49    5.14
  11  -5  12   10.98    4.64
  11  -5  12   10.37    3.80
  11   5  12   13.78    4.23
  11   5  13   60.37    9.28
  11   5  13   72.18   10.00
  11  -5  13   43.36    7.79
  11  -5  13   51.40    9.37
  11   5  14   69.89   10.21
  11  -5  14   54.34    9.29
  11   5  14   64.81    9.69
  11   5  15   14.03    5.02
  11  -5  15   17.54    4.31
  11   5  15   23.07    6.00
  11  -5  16    4.15    2.77
  11   5  16    2.06    3.03
  11  -5  17   18.83    5.61
  11   5  17   13.19    3.95
  11   5  18   43.45    8.65
  11  -5  18   27.77    7.66
  11   5  19   18.26    5.31
  11   5  20   22.97    6.32
  11   5  21    4.93    3.58
  11   5  22   23.58    6.62
  11  -6 -21    1.60    2.19
  11  -6 -20   28.74    7.21
  11  -6 -19    2.09    2.76
  11  -6 -19    5.23    5.33
  11  -6 -18    0.14    1.75
  11  -6 -18    0.65    2.58
  11   6 -17    6.37    4.99
  11  -6 -17    1.64    2.72
  11  -6 -17   -3.77    3.07
  11   6 -16   -4.69    3.04
  11  -6 -16    3.37    2.29
  11  -6 -16    2.97    3.43
  11   6 -15   -1.57    1.91
  11  -6 -15    1.24    1.78
  11   6 -14   19.09    5.80
  11  -6 -14   17.67    5.79
  11  -6 -14   17.63    3.92
  11   6 -13    1.52    1.49
  11  -6 -13   11.65    4.89
  11  -6 -13    9.99    3.28
  11   6 -12   -2.70    4.10
  11  -6 -12    3.17    3.07
  11  -6 -12    2.19    2.46
  11  -6 -11    0.95    1.79
  11   6 -11    5.86    3.52
  11  -6 -11    1.36    2.58
  11   6 -10   41.52    7.90
  11  -6 -10   50.70    8.88
  11  -6 -10   45.01    8.25
  11  -6  -9    0.25    2.01
  11   6  -9    5.73    3.24
  11  -6  -9    7.30    4.49
  11  -6  -8   30.17    6.54
  11   6  -8   33.21    6.60
  11  -6  -8   22.76    6.04
  11  -6  -7   11.85    4.20
  11   6  -7    6.13    4.18
  11  -6  -7    4.33    3.98
  11  -6  -6   31.71    7.07
  11   6  -6   36.82    6.67
  11  -6  -6   40.48    7.85
  11  -6  -5   19.35    5.26
  11   6  -5    6.13    3.99
  11  -6  -5    9.68    3.82
  11   6  -4    7.08    4.43
  11  -6  -4    3.94    2.80
  11   6  -4    8.78    2.79
  11  -6  -4    7.50    3.71
  11   6  -3    3.09    2.95
  11  -6  -3    2.95    2.77
  11  -6  -3    5.13    4.59
  11   6  -3   -0.17    2.74
  11   6  -2   80.70   10.08
  11   6  -2   87.94   10.28
  11  -6  -2   70.28    9.98
  11  -6  -2   56.01    9.15
  11   6  -1    8.10    4.67
  11  -6  -1    9.07    4.12
  11  -6  -1   10.04    4.72
  11   6  -1    3.45    2.38
  11   6   0    1.40    2.18
  11  -6   0    3.57    2.71
  11  -6   0    5.21    2.08
  11   6   0    0.72    1.54
  11   6   1    9.13    4.55
  11  -6   1    5.74    2.36
  11  -6   1    1.71    2.39
  11   6   1    3.39    2.34
  11   6   2   60.30    9.13
  11   6   2   64.62    8.94
  11  -6   2   57.52    9.50
  11  -6   2   54.05    8.77
  11   6   3    2.10    2.41
  11   6   3    1.36    2.58
  11  -6   3    1.70    2.55
  11  -6   3    3.73    3.97
  11   6   4    3.77    2.22
  11   6   4    6.59    1.55
  11  -6   4    4.68    1.86
  11  -6   4    1.52    2.07
  11   6   5   15.19    4.70
  11   6   5   12.21    3.98
  11  -6   5   10.38    4.51
  11  -6   5   -0.22    3.37
  11   6   6   25.19    5.79
  11   6   6   34.41    7.04
  11  -6   6   36.57    7.30
  11  -6   6   31.62    7.27
  11   6   7    5.23    3.58
  11   6   7    9.11    2.42
  11  -6   7    6.76    3.51
  11  -6   7    3.37    2.98
  11   6   8   28.73    6.28
  11   6   8   35.62    6.53
  11  -6   8   34.05    6.78
  11  -6   8   29.04    6.63
  11   6   9    3.42    1.53
  11   6   9    2.77    2.15
  11  -6   9   -1.05    2.34
  11  -6   9    2.83    2.96
  11   6  10   36.25    7.25
  11   6  10   47.81    8.47
  11  -6  10   32.70    6.74
  11  -6  10   45.01    7.74
  11   6  11    1.82    1.36
  11  -6  11    5.42    2.29
  11  -6  11    3.73    3.05
  11   6  12    4.74    4.08
  11   6  12   -1.22    3.39
  11  -6  12   -2.14    3.37
  11  -6  12   -0.88    3.80
  11   6  13   18.38    5.82
  11   6  13   17.65    5.04
  11  -6  13   11.20    3.98
  11  -6  13    8.75    5.37
  11   6  14   24.55    5.91
  11   6  14   18.31    6.12
  11  -6  14    9.84    4.97
  11  -6  14   13.13    5.06
  11   6  15    6.31    3.13
  11   6  15    5.53    2.02
  11  -6  15    3.86    3.39
  11  -6  15    4.25    3.40
  11  -6  16   -1.36    3.20
  11  -6  16    0.61    2.41
  11   6  16    2.36    1.77
  11  -6  17   -2.34    3.02
  11  -6  17    4.24    3.00
  11   6  17    1.36    1.91
  11  -6  18   -2.30    2.28
  11   6  18   -0.46    2.47
  11   6  19    5.05    4.00
  11   6  20   34.36    8.00
  11   6  21    5.74    3.14
  11  -7 -18   17.55    5.25
  11  -7 -18   15.04    5.74
  11   7 -17   10.67    5.39
  11  -7 -17    7.05    3.79
  11  -7 -17    3.51    4.20
  11   7 -16    4.03    3.32
  11  -7 -16   -5.12    4.82
  11  -7 -16   -0.78    2.26
  11   7 -15   22.85    7.11
  11  -7 -15   15.55    5.41
  11  -7 -15   14.26    5.69
  11   7 -14   52.34    9.35
  11  -7 -14   36.39    8.42
  11  -7 -14   50.49    9.57
  11   7 -13   43.82    8.35
  11  -7 -13   53.56    8.59
  11  -7 -13   61.94    9.79
  11   7 -12   19.26    6.25
  11  -7 -12   32.88    7.62
  11  -7 -12   36.41    8.01
  11   7 -11    2.34    2.28
  11  -7 -11    8.73    4.25
  11  -7 -11    4.93    3.14
  11   7 -10    5.99    3.19
  11  -7 -10    4.62    3.53
  11  -7 -10    6.08    3.85
  11   7  -9   30.12    6.60
  11  -7  -9   28.83    7.17
  11  -7  -9   22.23    6.09
  11  -7  -8   83.72   11.76
  11   7  -8   90.07   11.25
  11   7  -7  110.75   12.86
 -11   7  -7  125.57   14.33
  11  -7  -7  106.06   12.67
  11  -7  -7  104.96   13.21
  11   7  -6   48.27    8.81
  11  -7  -6   33.55    7.59
 -11   7  -6   36.48    7.19
  11  -7  -6   50.42    9.09
  11  -7  -5    7.28    3.87
  11   7  -5    1.28    2.08
  11  -7  -5    2.01    2.48
  11   7  -4   50.08    8.64
  11  -7  -4   54.86    9.31
  11  -7  -4   46.23    8.35
  11   7  -3   97.12   11.76
  11   7  -3   86.79   11.05
  11  -7  -3  103.17   12.91
  11  -7  -3  105.74   12.60
  11  -7  -2   22.65    6.08
  11   7  -2   16.61    4.93
  11  -7  -2   23.33    6.30
  11   7  -2   22.59    6.25
  11  -7  -1    4.89    3.12
  11   7  -1    6.03    3.90
  11  -7  -1    2.50    1.64
  11   7  -1    1.28    2.33
  11   7   0    0.38    1.83
  11  -7   0    2.98    2.16
  11   7   0    3.53    3.13
  11  -7   0   -1.30    3.16
  11   7   1   -0.78    2.31
  11  -7   1    1.87    2.64
  11   7   1   -0.89    2.37
  11  -7   1    2.64    2.50
  11   7   2   25.68    6.34
  11  -7   2   23.07    5.52
  11   7   2   20.55    5.76
  11  -7   2   25.32    5.50
  11   7   3  106.24   11.78
  11   7   3  106.27   12.32
  11  -7   3   84.94   11.80
  11  -7   3   95.19   12.28
  11   7   4   53.88    9.11
  11  -7   4   42.19    8.22
  11   7   4   43.63    8.31
  11  -7   4   40.26    7.23
  11   7   5    4.12    3.23
  11   7   5    4.30    3.61
  11  -7   5    5.55    2.86
  11  -7   5    7.31    3.99
  11   7   6   26.15    5.93
  11   7   6   38.05    7.73
  11  -7   6   36.08    7.69
  11  -7   6   41.93    8.64
  11   7   7  105.75   12.42
  11   7   7  111.74   12.55
  11  -7   7  100.21   12.51
  11  -7   7   99.77   12.44
  11   7   8   83.96   11.30
  11   7   8  106.27   13.04
  11  -7   8   94.77   12.39
  11  -7   8  110.86   13.63
  11   7   9   46.96    8.91
  11   7   9   29.62    6.96
  11  -7   9   28.58    7.00
  11  -7   9   26.33    8.41
  11   7  10   -0.98    2.16
  11  -7  10   -0.92    1.55
  11  -7  10    1.26    2.40
  11   7  11    7.43    4.71
  11   7  11    7.82    4.23
  11  -7  11    3.08    1.68
  11  -7  11    5.87    4.14
  11   7  12   29.70    7.00
  11   7  12   34.16    7.71
  11  -7  12   21.64    6.67
  11  -7  12   35.97    8.46
  11   7  13   48.77    9.82
  11   7  13   57.54    9.26
  11  -7  13   59.01    9.76
  11  -7  13   63.61   10.57
  11   7  14   64.74   10.52
  11   7  14   50.42    8.20
  11  -7  14   44.82    8.82
  11   7  15   21.13    4.80
  11   7  15    7.91    3.06
  11  -7  15   25.46    8.12
  11   7  16    2.26    3.22
  11   7  17    3.80    3.64
  11   7  18   25.09    6.12
  11   8 -15    7.20    3.48
  11  -8 -15   10.70    4.25
  11  -8 -15    5.67    4.11
  11   8 -14   -3.82    2.62
  11  -8 -14   -4.80    5.56
  11  -8 -14    2.35    3.95
  11   8 -13    1.83    3.69
  11  -8 -13    3.21    2.00
  11  -8 -13    8.88    5.29
  11   8 -12   -0.44    2.34
  11  -8 -12    3.42    3.69
  11  -8 -12   -1.01    3.15
  11   8 -11    1.38    1.48
  11  -8 -11    0.01    2.30
  11  -8 -11    3.44    3.14
  11  -8 -10    0.78    3.94
  11  -8 -10    0.75    1.98
  11   8  -9    7.97    2.98
  11  -8  -9    3.49    4.67
  11  -8  -9    5.40    3.20
  11  -8  -8   -1.43    3.64
  11  -8  -8    4.62    2.32
  11   8  -7    3.14    3.81
  11  -8  -7   -1.42    3.55
  11  -8  -7    0.52    2.12
  11   8  -6    2.47    1.92
 -11   8  -6    3.98    3.76
  11  -8  -6    2.87    3.18
  11  -8  -6   -0.66    2.34
  11  -8  -5    1.18    1.29
  11   8  -5    2.33    2.04
 -11   8  -5    2.67    2.13
  11  -8  -5   -0.50    3.02
  11  -8  -4   -0.45    1.67
  11   8  -4   -1.61    2.13
 -11   8  -4    2.48    2.28
  11  -8  -4   -0.53    2.86
  11  -8  -3    4.07    3.99
  11   8  -3   -2.36    2.27
 -11   8  -3   -1.21    3.98
  11  -8  -3    7.93    4.78
  11  -8  -2    0.78    2.29
  11   8  -2    5.67    3.14
 -11   8  -2    2.09    3.12
  11  -8  -2   -3.59    4.06
  11  -8  -1   26.34    6.71
  11   8  -1   33.42    6.52
  11   8  -1   37.70    7.51
 -11   8  -1   47.97    8.14
  11  -8  -1   23.44    7.19
  11  -8   0    6.65    2.90
  11   8   0   -1.31    1.80
  11   8   0    5.62    4.08
 -11   8   0    2.20    2.12
  11  -8   0    0.23    2.51
  11  -8   1   31.87    7.29
  11   8   1   28.81    7.32
  11   8   1   32.22    7.62
  11  -8   1   23.57    6.87
  11  -8   2    5.12    4.48
  11   8   2    6.14    2.38
  11   8   2   -1.62    1.95
  11  -8   2    1.46    4.44
  11  -8   3    3.99    3.23
  11   8   3   -2.89    3.87
  11   8   3    2.45    2.81
  11  -8   3    2.38    4.22
  11  -8   4   -0.86    2.67
  11   8   4   -3.53    2.86
  11   8   4    1.86    1.88
  11  -8   5    0.69    2.74
  11   8   5    0.25    2.99
  11   8   5    6.86    3.11
  11  -8   5    2.08    1.87
  11  -8   6    5.14    3.78
  11   8   6    5.58    4.08
  11   8   6    7.11    3.52
  11  -8   6    7.42    4.21
  11  -8   7   -1.27    1.99
  11   8   7    6.67    4.54
  11   8   7   -0.92    2.78
  11  -8   7    6.79    6.96
  11  -8   8    1.62    3.14
  11   8   8    7.61    3.84
  11   8   8    3.56    1.95
  11  -8   8   -0.68    4.56
  11  -8   9   -0.04    2.08
  11   8   9    2.11    1.58
  11  -8  10   -0.30    2.19
  11   8  10   -2.18    2.26
  11   8  10    2.88    1.25
  11  -8  11   -2.15    4.43
  11   8  11   -1.64    3.28
  11   8  11    1.31    1.49
  11  -8  12   -1.89    3.34
  11   8  12   -0.64    2.79
  11   8  12   -0.54    2.58
  11   8  13    3.38    2.71
  11   8  13    0.62    2.35
  11  -8  14    5.88    5.79
  11   8  14    6.04    3.80
  11   8  14   -0.40    1.68
  11   8  15    1.02    2.72
  11   8  15    1.43    1.36
  11   9 -11    2.34    3.21
  11  -9 -11   -0.12    3.80
  11  -9 -11    7.80    3.61
  11   9 -10    3.28    3.09
  11  -9 -10    1.16    3.58
  11  -9 -10    5.84    3.64
  11   9  -9   20.31    5.39
  11  -9  -9   18.24    5.03
  11  -9  -9   14.66    4.99
  11   9  -8   19.51    5.45
  11  -9  -8   25.17    7.46
  11  -9  -8   20.30    5.73
  11   9  -7   46.41    9.11
  11  -9  -7   53.98    9.22
  11  -9  -7   49.49    8.94
  11   9  -6   11.95    4.55
  11  -9  -6   12.51    5.07
  11  -9  -6    7.14    3.83
  11   9  -5   11.81    5.51
 -11   9  -5   18.50    6.71
  11  -9  -5   12.31    4.81
  11  -9  -5   27.39    6.81
  11   9  -4    5.86    2.49
 -11   9  -4   -1.98    3.69
  11  -9  -4    1.56    2.62
  11  -9  -4    4.47    2.69
 -11   9  -3  129.02   14.21
  11  -9  -3  138.20   15.51
  11  -9  -3  156.96   15.53
  11   9  -2   33.53    8.27
 -11   9  -2   15.18    5.07
  11  -9  -2   23.92    6.56
  11  -9  -2   28.41    7.12
  11   9  -1    3.77    2.21
 -11   9  -1    6.81    3.49
  11  -9  -1    1.56    2.35
  11  -9  -1    2.27    2.04
  11  -9   0    9.82    5.78
  11   9   0    0.92    1.79
  11   9   0    8.57    6.13
 -11   9   0    9.32    3.98
  11  -9   0    5.43    4.96
  11  -9   1    1.81    2.39
  11   9   1    2.47    3.21
  11   9   1   11.86    4.93
 -11   9   1    4.38    4.12
  11  -9   1   11.62    6.81
  11  -9   2   19.58    6.52
  11   9   2   14.59    6.63
  11   9   2   19.61    6.19
 -11   9   2   19.62    5.70
  11  -9   2   12.21    4.48
  11   9   3  137.86   15.16
 -11   9   3  145.20   15.51
  11   9   3  106.27   13.13
  11  -9   3  107.07   13.35
  11  -9   4    2.27    2.42
  11   9   4    5.96    2.63
  11   9   4    4.64    2.71
 -11   9   4    3.14    4.01
  11  -9   5   21.58    6.34
  11   9   5   25.69    5.70
  11   9   5   15.60    5.04
 -11   9   5   19.57    5.80
  11  -9   6   10.34    5.93
  11   9   6   12.24    4.57
  11   9   6   24.45    6.74
 -11   9   6   19.62    6.56
  11   9   7   62.58   10.67
  11   9   7   34.51    7.48
 -11   9   7   55.05    9.23
  11  -9   7   67.93   10.57
  11  -9   8   31.24    7.77
  11   9   8   29.13    6.67
  11   9   8   17.55    5.75
 -11   9   8    8.20    2.56
  11  -9   9   16.45    5.64
  11   9   9   31.54    7.08
  11   9   9   18.38    5.66
 -11   9   9   25.87    6.68
  11  -9  10    1.05    2.48
  11   9  10   -1.48    4.61
  11   9  10    6.20    4.18
 -11   9  10    0.22    1.43
  11  -9  11   -2.41    3.82
  11   9  11    4.89    2.91
  11   9  11    2.26    2.72
 -11   9  11    6.03    3.70
  12   0 -23    6.96    4.16
  12   0 -22   12.74    5.03
  12   0 -21    4.75    3.62
  12   0 -20   41.01    8.49
  12   0 -19   81.97   10.81
  12   0 -18   56.65    9.49
  12   0 -17  169.16   15.60
  12   0 -16  101.16   12.49
  12   0 -15    4.95    1.70
  12   0 -14  243.96   18.25
  12   0 -13  440.41   24.47
  12   0 -12   -5.80    2.50
  12   0 -12  216.24   17.24
  12   0 -11  144.69   12.73
  12   0 -11  230.19   17.43
  12   0 -10  270.47   17.40
  12   0 -10  238.83   17.77
  12   0  -9   36.87    6.10
  12   0  -9   48.26    7.79
  12   0  -8  174.74   13.71
  12   0  -8  172.81   14.61
  12   0  -7   29.75    5.50
  12   0  -7   21.58    5.26
  12   0  -6  146.09   12.72
  12   0  -6  125.55   12.31
  12   0  -5  219.72   15.32
  12   0  -5  254.37   17.62
  12   0  -5  232.87   16.44
  12   0  -4  119.00   11.33
  12   0  -4  124.24   12.22
  12   0  -4  118.80   11.72
  12   0  -3   22.88    5.09
  12   0  -3   31.49    5.86
  12   0  -3   30.12    5.69
  12   0  -2  468.00   22.29
  12   0  -2  437.98   23.09
  12   0  -2  392.44   21.14
  12   0  -1  955.65   31.87
  12   0  -1  939.11   33.65
  12   0  -1 1019.82   33.12
  12   0   0  470.62   22.44
  12   0   0  494.49   23.90
  12   0   0  493.83   23.03
  12   0   1  961.04   32.33
  12   0   1  964.89   33.92
  12   0   1 1052.57   32.87
  12   0   2  448.63   22.31
  12   0   2  465.31   23.62
  12   0   2  430.38   21.33
  12   0   3   41.70    6.94
  12   0   3   34.32    6.35
  12   0   4  105.70   10.59
  12   0   4  116.48   10.91
  12   0   5  216.97   15.53
  12   0   5  236.28   15.80
  12   0   6  137.88   12.69
  12   0   6  138.10   11.84
  12   0   7   25.59    5.49
  12   0   7   18.57    4.29
  12   0   8  172.71   14.79
  12   0   8  162.52   12.82
  12   0   9   50.06    7.76
  12   0   9   36.25    6.01
  12   0  10  275.19   18.59
  12   0  10  274.55   16.69
  12   0  11  221.51   16.62
  12   0  12  171.23   15.10
  12   0  13  442.11   24.08
  12   0  14  241.94   18.01
  12   0  15    2.31    1.36
  12   0  16  128.83   13.02
  12   0  17  162.94   15.38
  12   0  18   51.14    8.57
  12   0  19   65.37    9.19
  12   0  20   35.66    8.13
  12   0  21    1.80    3.68
  12   0  22    3.12    3.20
  12   0  23    7.12    4.07
  12   0  24   21.14    7.07
  12  -1 -25    6.28    5.23
  12  -1 -24    2.99    3.09
  12  -1 -23   12.57    5.32
  12  -1 -22   -1.22    1.93
  12  -1 -21    6.36    3.94
  12  -1 -20    0.96    2.86
  12   1 -19   -9.08    3.63
  12  -1 -19    1.43    2.84
  12   1 -18   -0.11    1.76
  12  -1 -18   -0.58    1.65
  12   1 -17   14.32    4.83
  12  -1 -17   24.36    6.35
  12   1 -16    0.85    1.23
  12  -1 -16   17.53    5.42
  12   1 -15    4.57    3.09
  12  -1 -15    5.74    2.98
  12   1 -14    2.19    1.61
  12  -1 -14   13.22    4.32
  12  -1 -13    5.64    4.97
  12   1 -13    1.96    2.05
  12  -1 -13    4.79    3.68
  12  -1 -12   11.80    4.46
  12   1 -12    4.52    3.07
  12  -1 -12    3.67    2.57
  12  -1 -11   22.42    7.06
  12  -1 -11   46.82    8.68
  12   1 -11   34.19    6.37
  12   1 -11   48.99    8.66
  12  -1 -10   33.28    6.33
  12   1 -10   17.92    4.48
  12   1 -10   37.32    7.03
  12  -1 -10   36.03    6.98
  12   1 -10   27.51    5.64
  12  -1  -9   47.06    7.49
  12   1  -9   32.97    5.61
  12  -1  -9   39.66    7.12
  12   1  -9   30.00    6.42
  12   1  -9   37.35    6.46
  12  -1  -8   11.60    2.84
  12   1  -8   17.17    4.30
  12  -1  -8   13.77    4.06
  12   1  -8   11.86    3.67
  12   1  -8   18.96    5.15
  12  -1  -7    5.25    2.91
  12   1  -7    4.23    2.99
  12  -1  -7    2.53    2.92
  12   1  -7    2.94    2.49
  12   1  -7    0.45    1.66
  12  -1  -6   16.73    4.97
  12   1  -6   13.28    4.20
  12  -1  -6   12.26    3.57
  12   1  -6   15.69    4.70
  12   1  -6   10.26    3.98
  12  -1  -5   35.11    6.04
  12   1  -5   29.15    5.57
  12  -1  -5   22.42    5.23
  12   1  -5   25.31    5.60
  12   1  -5   25.87    5.63
  12  -1  -4   80.86    9.52
  12   1  -4   84.70    9.36
  12  -1  -4   61.14    8.75
  12   1  -4   69.85    8.74
  12   1  -4   54.88    8.10
  12  -1  -3  192.64   14.47
  12   1  -3  181.31   13.75
  12  -1  -3  188.17   15.54
  12   1  -3  202.69   15.54
  12   1  -3  175.58   13.67
  12  -1  -2  110.40   11.49
  12   1  -2  100.04   10.37
  12  -1  -2  102.63   11.45
  12   1  -2  103.37   11.30
  12   1  -2   95.78   10.20
  12  -1  -1   39.27    6.40
  12   1  -1   50.34    7.21
  12  -1  -1   48.38    7.86
  12   1  -1   46.39    7.25
  12   1  -1   40.69    6.33
  12  -1   0   20.35    5.23
  12  -1   0   12.24    4.80
  12   1   0   16.17    4.90
  12   1   0   16.57    4.42
  12   1   0   18.24    4.14
  12  -1   1   35.82    6.22
  12   1   1   43.91    6.98
  12  -1   1   48.68    8.00
  12   1   1   30.37    5.70
  12   1   1   33.56    6.04
  12  -1   2  109.98   10.84
  12   1   2  117.89   11.33
  12  -1   2   93.53   11.02
  12   1   2   99.89   10.17
  12  -1   3  183.51   14.47
  12   1   3  158.67   13.42
  12  -1   3  168.72   14.39
  12   1   3  200.49   14.60
  12  -1   4   73.67    8.92
  12   1   4   65.72    8.82
  12   1   4   66.74    8.77
  12   1   5   23.22    5.64
  12  -1   5   37.37    6.11
  12   1   5   21.40    5.32
  12   1   6   15.65    4.69
  12  -1   6   11.09    4.25
  12   1   6   13.14    3.38
  12   1   7    0.88    1.69
  12  -1   7    1.43    2.26
  12   1   7    3.30    2.03
  12   1   8   30.70    6.21
  12  -1   8   17.53    4.15
  12   1   8   17.99    4.50
  12   1   9   30.72    6.01
  12   1   9   31.65    7.06
  12  -1   9   30.39    6.03
  12   1  10   23.86    5.42
  12  -1  10   32.32    6.84
  12   1  10   21.26    4.48
  12   1  11   30.73    5.66
  12  -1  11   37.66    7.05
  12   1  11   46.43    6.58
  12   1  12    6.51    2.85
  12  -1  12    8.97    3.63
  12   1  12    7.90    3.32
  12   1  13    6.33    4.47
  12  -1  13    3.28    2.04
  12   1  14   14.18    4.44
  12  -1  14    7.96    4.53
  12   1  15    6.40    3.65
  12  -1  15    9.83    4.59
  12   1  16    8.65    3.99
  12  -1  16    6.36    3.67
  12   1  17   25.31    6.21
  12  -1  17   23.86    6.09
  12   1  18   -0.86    1.61
  12  -1  18    1.53    1.35
  12   1  19    1.15    1.80
  12  -1  19    4.89    3.95
  12   1  20    3.79    3.96
  12  -1  20    7.98    4.14
  12   1  21    4.53    3.98
  12  -1  21    4.20    1.97
  12   1  22    5.00    3.66
  12  -1  22    6.16    4.56
  12   1  23    4.52    4.31
  12  -1  23    1.28    2.41
  12   1  24    5.06    3.21
  12   1  25    2.02    4.53
  12  -2 -24   13.61    4.70
  12  -2 -23   12.57    4.33
  12  -2 -22   17.80    5.94
  12  -2 -21   14.74    4.79
  12  -2 -20   15.90    5.12
  12  -2 -19   25.08    6.41
  12  -2 -17   38.50    7.51
  12  -2 -16   17.84    5.93
  12   2 -16   29.14    6.53
  12  -2 -15   29.38    7.21
  12   2 -15   20.14    5.39
  12  -2 -14   73.49   10.44
  12   2 -14   68.39    9.62
  12  -2 -14   57.75    8.93
  12   2 -13  145.29   13.72
  12  -2 -13  142.40   14.56
  12   2 -13  147.18   13.83
  12  -2 -13  128.61   12.84
  12   2 -12  111.08   11.89
  12  -2 -12  104.97   12.59
  12   2 -12   88.58   10.87
  12  -2 -12  108.34   11.63
  12  -2 -11   57.51    8.65
  12   2 -11   56.70    8.52
  12  -2 -11   52.58    8.31
  12   2 -11   50.11    8.41
  12  -2 -10   59.39    9.10
  12  -2 -10   52.90    8.45
  12   2 -10   56.72    8.38
  12   2 -10   63.29    8.35
  12  -2  -9  103.32   11.51
  12   2  -9  105.54   10.52
  12  -2  -9  111.00   12.02
  12   2  -9  102.86   11.14
  12   2  -9  112.16   11.68
  12  -2  -8  157.85   13.80
  12   2  -8  160.58   12.68
  12  -2  -8  167.42   14.60
  12   2  -8  175.11   14.81
  12   2  -8  177.53   14.62
  12  -2  -7   82.43    9.83
  12   2  -7   65.45    8.62
  12  -2  -7   74.97    9.91
  12   2  -7   83.41    9.58
  12   2  -7   66.15    8.93
  12  -2  -6   57.37    7.94
  12   2  -6   35.86    6.26
  12  -2  -6   51.13    8.66
  12   2  -6   57.40    8.14
  12   2  -6   41.05    7.27
  12  -2  -5  129.59   12.27
  12   2  -5  115.59   11.07
  12  -2  -5  129.32   13.68
  12   2  -5  122.02   11.89
  12   2  -5  111.03   11.34
  12  -2  -4  196.95   15.29
  12   2  -4  207.38   14.74
  12  -2  -4  224.09   17.07
  12   2  -4  238.97   16.82
  12   2  -4  214.40   15.34
  12   2  -3   37.49    6.72
  12  -2  -3   39.12    7.02
  12   2  -3   27.61    5.78
  12  -2  -3   53.68    8.22
  12   2  -3   39.78    6.90
  12  -2  -2  263.79   17.86
  12   2  -2  321.60   18.56
  12  -2  -2  283.81   19.09
  12   2  -2  266.65   17.30
  12   2  -2  266.48   17.45
  12  -2  -1  486.86   23.60
  12   2  -1  459.37   22.14
  12  -2  -1  468.97   24.39
  12   2  -1  491.37   24.03
  12   2  -1  527.19   24.14
  12  -2   0  234.47   16.62
  12   2   0  229.28   15.59
  12  -2   0  250.79   17.80
  12   2   0  235.84   16.69
  12   2   0  232.05   16.19
  12  -2   1  477.43   23.48
  12  -2   1  509.57   25.13
  12   2   1  476.17   22.90
  12   2   1  541.55   24.65
  12  -2   2  324.94   19.61
  12  -2   2  289.44   19.59
  12   2   2  301.24   18.59
  12   2   2  264.24   17.32
  12   2   3   34.21    6.19
  12  -2   3   40.30    6.91
  12   2   3   38.99    6.72
  12  -2   3   38.04    6.81
  12  -2   4  229.35   16.41
  12  -2   4  249.57   17.99
  12   2   4  210.50   15.58
  12   2   4  191.72   14.64
  12  -2   5  102.14   11.41
  12   2   5  117.38   11.99
  12   2   5  124.96   11.57
  12  -2   6   63.43    8.95
  12   2   6   51.77    7.64
  12   2   6   63.64    8.49
  12  -2   7   60.23    8.52
  12   2   7   63.75    8.68
  12   2   7   65.74    8.71
  12  -2   8  194.94   15.46
  12   2   8  169.97   14.37
  12   2   8  187.93   14.64
  12  -2   9  117.57   12.23
  12   2   9  121.54   11.82
  12   2   9  121.05   12.13
  12  -2  10   63.08    9.13
  12   2  10   51.53    7.65
  12   2  10   60.53    8.63
  12  -2  11   50.00    8.36
  12   2  11   41.97    7.13
  12   2  11   47.06    7.80
  12  -2  12  104.65   11.82
  12   2  12  106.79   11.36
  12   2  12  112.40   12.30
  12  -2  13  121.23   12.91
  12   2  13  138.54   12.74
  12   2  13  117.76   12.62
  12  -2  14   67.02    9.81
  12   2  14   68.44    9.45
  12   2  15   18.64    4.58
  12  -2  15   26.91    6.39
  12   2  16   28.95    7.06
  12  -2  16   29.36    6.36
  12  -2  17   47.19    9.09
  12   2  17   42.91    8.44
  12  -2  18   65.57    9.92
  12   2  18   75.79   10.42
  12   2  19   20.67    5.27
  12  -2  19   11.06    4.38
  12   2  20   16.65    4.87
  12  -2  20   25.35    6.62
  12   2  21   10.22    3.55
  12  -2  21    9.46    3.47
  12   2  22   20.08    6.07
  12  -2  22   20.73    5.22
  12   2  23   -0.01    3.04
  12   2  24   33.02    7.58
  12  -3 -24    5.30    5.05
  12  -3 -23   12.85    4.33
  12  -3 -22    2.27    2.50
  12  -3 -21    7.77    4.60
  12  -3 -20    7.48    3.24
  12  -3 -19   -1.52    2.98
  12   3 -19    1.33    2.54
  12  -3 -18   17.86    5.08
  12   3 -18   14.29    4.78
  12  -3 -17    3.10    3.83
  12   3 -17    4.49    3.81
  12  -3 -16    3.56    2.16
  12   3 -16    0.72    1.56
  12  -3 -15    0.30    2.04
  12  -3 -15    3.56    3.66
  12   3 -15   -1.44    2.09
  12  -3 -14    0.28    2.27
  12  -3 -14    7.39    4.49
  12   3 -14    1.82    2.39
  12  -3 -13   -0.50    2.71
  12  -3 -13    6.28    3.32
  12   3 -13    4.58    3.37
  12  -3 -12   69.25    9.82
  12   3 -12   56.17    9.23
  12  -3 -12   79.69   10.50
  12  -3 -11   42.77    8.56
  12   3 -11   51.80    8.36
  12  -3 -11   36.66    7.48
  12  -3 -10   41.18    8.02
  12   3 -10   50.14    7.49
  12  -3 -10   49.09    8.22
  12  -3  -9   17.56    5.17
  12  -3  -9   31.00    6.90
  12   3  -9   29.46    6.25
  12   3  -8   28.31    6.17
  12  -3  -8   20.61    4.94
  12  -3  -8   25.60    5.99
  12   3  -7   12.06    4.09
  12  -3  -7    6.72    2.76
  12  -3  -7    5.95    3.48
  12   3  -7    5.14    2.69
  12   3  -7    5.79    2.55
  12   3  -6    6.61    2.37
  12   3  -6    4.35    2.20
  12  -3  -6    5.45    2.44
  12  -3  -6    1.21    1.22
  12   3  -6    5.14    2.62
  12   3  -5   24.22    5.56
  12  -3  -5   24.17    5.81
  12   3  -5   32.19    6.20
  12  -3  -5   35.58    6.96
  12   3  -5   35.09    6.32
  12  -3  -4  153.88   13.77
  12  -3  -4  162.39   15.02
  12   3  -4  173.41   14.03
  12   3  -4  145.53   12.70
  12   3  -4  175.23   14.89
  12  -3  -3  289.39   18.83
  12  -3  -3  320.56   21.00
  12   3  -3  296.97   18.32
  12   3  -3  328.45   19.01
  12   3  -3  290.48   19.17
  12  -3  -2  133.70   13.07
  12  -3  -2  153.82   14.40
  12   3  -2  124.03   11.77
  12   3  -2  137.41   12.36
  12   3  -2  142.73   13.57
  12   3  -1   30.59    6.01
  12  -3  -1   22.95    5.59
  12  -3  -1   32.22    6.88
  12   3  -1   30.16    5.73
  12   3  -1   33.23    6.01
  12   3   0   24.11    4.70
  12  -3   0   16.81    4.08
  12  -3   0   17.73    5.32
  12   3   0   26.21    5.70
  12   3   0   34.98    6.12
  12   3   1   32.49    6.36
  12  -3   1   35.30    6.52
  12  -3   1   25.85    6.38
  12   3   1   36.78    6.58
  12  -3   2  156.21   13.67
  12  -3   2  143.37   13.67
  12   3   2  159.22   13.29
  12   3   2  162.08   13.43
  12  -3   3  335.63   20.29
  12  -3   3  309.93   20.00
  12   3   3  279.03   17.79
  12   3   3  297.90   18.66
  12  -3   4  151.40   13.66
  12  -3   4  167.30   14.87
  12   3   4  177.16   14.05
  12   3   4  160.94   13.60
  12   3   5   27.27    5.98
  12   3   5   17.84    4.22
  12  -3   5   14.87    5.04
  12  -3   5   25.93    6.09
  12   3   6    2.58    2.15
  12   3   6    6.83    2.85
  12  -3   6    5.10    2.69
  12  -3   6    5.66    2.03
  12   3   7   11.08    2.79
  12   3   7    6.05    3.02
  12  -3   7    7.47    3.21
  12  -3   7    6.77    2.53
  12   3   8   30.09    6.57
  12   3   8   15.23    5.29
  12  -3   8   25.19    5.35
  12   3   9   39.26    6.93
  12   3   9   21.29    5.33
  12  -3   9   21.73    6.08
  12   3  10   49.19    7.68
  12  -3  10   43.53    7.63
  12   3  10   46.14    7.77
  12   3  11   44.12    8.05
  12   3  11   39.00    6.95
  12  -3  11   47.07    8.11
  12   3  12   60.49    9.20
  12  -3  12   43.53    7.29
  12   3  12   71.21    9.20
  12   3  13   -0.90    2.00
  12   3  13    1.13    2.16
  12  -3  13    2.58    3.41
  12   3  14    4.77    3.27
  12  -3  14    5.76    2.71
  12   3  15    1.13    2.37
  12  -3  15   -1.29    3.18
  12   3  16    2.17    3.12
  12  -3  16    1.65    1.34
  12   3  17   10.16    4.70
  12  -3  17    2.27    2.68
  12   3  18   26.44    6.89
  12  -3  18   26.24    6.30
  12   3  19    0.45    1.95
  12  -3  19    3.18    1.92
  12   3  20    3.40    2.69
  12  -3  20    1.55    3.17
  12   3  21    3.92    2.72
  12  -3  21    7.03    5.38
  12   3  22   10.21    5.48
  12   3  23   11.17    4.35
  12   3  24    4.36    3.76
  12  -4 -23   27.34    6.58
  12  -4 -22   30.84    7.87
  12  -4 -21   15.93    5.44
  12  -4 -20   22.40    6.16
  12  -4 -19    2.90    2.67
  12   4 -19    4.31    3.33
  12  -4 -18   16.59    4.87
  12   4 -18   25.20    6.81
  12  -4 -17   12.96    5.62
  12   4 -17   11.69    4.77
  12  -4 -16   16.89    5.38
  12   4 -16   17.19    6.14
  12  -4 -16   14.77    5.76
  12  -4 -15   12.78    4.09
  12  -4 -15   15.93    5.02
  12   4 -15    9.96    4.80
  12  -4 -14   33.14    7.82
  12  -4 -14   31.20    7.09
  12   4 -14   26.81    5.92
  12  -4 -13   34.74    7.18
  12  -4 -13   34.39    7.58
  12   4 -13   38.76    7.66
  12   4 -12    6.28    3.33
  12  -4 -12    3.55    1.52
  12  -4 -12    2.87    2.91
  12   4 -11   11.20    3.92
  12  -4 -11   16.86    5.18
  12  -4 -11    6.61    3.62
  12   4 -10   28.71    6.22
  12  -4 -10   24.69    5.70
  12  -4 -10   27.93    6.63
  12  -4  -9   67.62    9.83
  12   4  -9   57.05    8.89
  12  -4  -9   65.89    9.86
  12  -4  -8  172.86   16.02
  12   4  -8  184.15   15.50
  12  -4  -8  177.09   15.56
  12  -4  -7  213.81   17.26
  12   4  -7  197.23   15.93
  12  -4  -7  193.32   16.27
  12  -4  -6   71.72   10.24
  12  -4  -6   43.08    7.68
  12   4  -6   61.01    8.25
  12   4  -6   61.53    8.86
  12  -4  -5  160.02   14.73
  12  -4  -5  146.83   14.69
  12   4  -5  147.30   12.84
  12   4  -5  177.57   14.70
  12  -4  -4  321.24   20.90
  12  -4  -4  324.81   21.23
  12   4  -4  329.73   19.39
  12   4  -4  373.07   21.62
  12  -4  -3  236.44   17.37
  12  -4  -3  267.93   19.59
  12   4  -3  247.87   16.96
  12   4  -3  223.99   16.73
  12  -4  -2  273.90   18.93
  12  -4  -2  298.12   20.34
  12   4  -2  286.26   18.05
  12   4  -2  309.31   19.78
  12  -4  -1  145.43   13.66
  12  -4  -1  151.22   14.42
  12   4  -1  145.31   12.96
  12   4  -1  118.86   12.52
  12   4  -1  150.80   13.19
  12   4   0   30.11    6.85
  12  -4   0   29.36    6.91
  12   4   0   25.84    5.13
  12  -4   0   45.28    8.79
  12   4   0   23.24    6.18
  12   4   1  122.56   12.04
  12  -4   1  142.38   13.41
  12  -4   1  132.59   13.52
  12   4   1  120.65   12.48
  12   4   2  280.57   18.18
  12  -4   2  297.64   19.78
  12  -4   2  279.04   19.69
  12   4   2  308.98   19.67
  12   4   3  242.53   17.19
  12  -4   3  217.70   16.84
  12  -4   3  237.26   18.32
  12   4   3  228.26   17.00
  12   4   4  344.78   20.83
  12  -4   4  328.42   20.55
  12  -4   4  351.98   22.30
  12   4   4  346.58   20.65
  12   4   5  163.62   14.09
  12  -4   5  166.79   14.87
  12  -4   5  157.59   15.08
  12   4   5  145.76   13.37
  12   4   6   58.51    8.89
  12  -4   6   67.02    9.25
  12  -4   6   71.53   10.40
  12   4   6   59.85    8.73
  12   4   7  202.91   15.84
  12  -4   7  229.66   17.30
  12  -4   7  208.20   17.37
  12   4   7  210.95   16.08
  12   4   8  177.53   15.04
  12  -4   8  148.89   14.58
  12   4   8  174.51   14.78
  12   4   9   85.55   10.35
  12  -4   9   58.89    9.34
  12  -4   9   77.31   10.07
  12   4   9   72.32    9.57
  12   4  10   37.57    6.92
  12  -4  10   30.54    7.16
  12   4  10   21.64    5.47
  12  -4  10   25.22    6.52
  12   4  11    4.19    2.60
  12  -4  11    6.20    3.27
  12   4  11    5.49    2.80
  12   4  12    6.25    3.77
  12  -4  12    0.91    3.57
  12   4  12    4.26    1.96
  12   4  13   45.45    7.93
  12   4  13   38.46    7.51
  12  -4  13   32.24    6.94
  12   4  14   31.04    6.78
  12  -4  14   28.10    6.54
  12   4  14   22.35    5.66
  12  -4  15    4.01    3.02
  12   4  15    9.89    4.21
  12  -4  16   11.51    4.32
  12   4  16   13.70    5.13
  12  -4  17   14.22    4.91
  12   4  17   11.13    4.36
  12  -4  18   21.74    6.15
  12   4  18   16.18    5.13
  12  -4  19    7.07    3.88
  12   4  19    4.74    3.97
  12  -4  20   19.66    5.30
  12   4  20   15.41    5.65
  12   4  21   18.19    6.19
  12   4  22   56.08   10.20
  12   4  23   25.33    6.77
  12  -5 -21    4.03    2.53
  12  -5 -20    0.10    2.67
  12  -5 -19    7.76    3.61
  12   5 -19   30.44    9.13
  12  -5 -18    4.89    2.89
  12   5 -18   -1.18    2.23
  12  -5 -17   14.38    4.71
  12  -5 -17   12.47    5.02
  12   5 -17   10.03    3.67
  12  -5 -16    0.28    2.89
  12  -5 -16   -1.89    3.20
  12   5 -16    0.16    2.24
  12   5 -15   -0.53    1.91
  12  -5 -15   -1.99    2.81
  12  -5 -15    2.90    3.98
  12   5 -14    1.28    1.92
  12  -5 -14   -1.17    2.08
  12  -5 -14   -1.06    2.67
  12  -5 -13   18.65    5.70
  12   5 -13   16.22    4.41
  12  -5 -13   10.44    5.35
  12   5 -12   15.33    5.49
  12  -5 -12    6.99    3.68
  12  -5 -12    6.41    3.62
  12   5 -11   19.62    5.72
  12  -5 -11    5.67    3.50
  12  -5 -11   21.21    6.12
  12   5 -10   34.90    6.78
  12  -5 -10   34.07    7.21
  12  -5 -10   38.64    7.86
  12   5  -9   15.63    4.66
  12  -5  -9    6.56    3.36
  12  -5  -9   13.84    4.96
  12   5  -8    2.72    4.21
  12  -5  -8    2.91    2.50
  12  -5  -8    2.52    2.46
  12   5  -7   11.29    3.90
  12  -5  -7   12.24    4.96
  12  -5  -7    6.57    3.34
  12   5  -6    2.34    2.98
  12  -5  -6    0.32    2.70
  12  -5  -6   -0.06    2.71
  12   5  -5   -1.01    1.90
  12   5  -5    1.41    1.09
  12  -5  -5   -2.50    1.56
  12   5  -4    3.84    3.81
  12  -5  -4    2.55    3.69
  12   5  -4    1.28    2.19
  12  -5  -4    0.67    2.33
  12  -5  -3   28.82    6.68
  12   5  -3   20.06    5.17
  12  -5  -3   21.28    4.97
  12   5  -3   30.39    7.37
  12  -5  -2   42.98    7.94
  12   5  -2   54.63    7.91
  12   5  -2   47.88    7.17
  12  -5  -2   55.91    9.64
  12  -5  -1   34.54    7.59
  12   5  -1   45.19    7.34
  12   5  -1   24.30    5.40
  12  -5  -1   46.60    8.33
  12   5   0   10.44    3.86
  12  -5   0    9.21    3.59
  12   5   0   17.70    4.64
  12  -5   0    9.58    4.74
  12   5   1   27.52    6.26
  12  -5   1   27.41    5.79
  12   5   1   32.72    6.29
  12  -5   1   39.04    7.34
  12   5   2   54.83    8.66
  12   5   2   63.42    8.87
  12  -5   2   43.51    7.72
  12  -5   2   44.94    7.88
  12   5   3   25.03    6.32
  12  -5   3   15.74    5.69
  12   5   3   17.43    5.02
  12  -5   3   36.10    7.79
  12   5   4   -0.07    2.34
  12  -5   4    0.76    2.10
  12   5   4    3.00    1.69
  12  -5   4    1.48    2.24
  12   5   5   -0.34    2.94
  12  -5   5    1.20    3.32
  12   5   5    2.19    2.37
  12  -5   5    2.00    3.21
  12   5   6    2.39    2.33
  12  -5   6   -2.21    1.93
  12   5   6    0.12    2.34
  12  -5   6    1.87    2.94
  12   5   7    7.33    3.61
  12  -5   7   18.51    5.11
  12   5   7    4.41    3.00
  12  -5   7   12.60    5.69
  12   5   8    2.13    4.75
  12  -5   8    4.05    1.97
  12   5   8    0.02    1.73
  12  -5   8   -3.57    3.83
  12   5   9   14.56    4.66
  12  -5   9   19.30    5.36
  12   5   9   22.18    5.05
  12  -5   9   17.39    4.83
  12   5  10   34.19    7.33
  12  -5  10   19.83    5.65
  12   5  10   38.48    7.05
  12  -5  10   22.67    6.23
  12   5  11   18.74    5.51
  12  -5  11   11.22    4.35
  12   5  11   15.31    4.64
  12  -5  11   19.15    6.46
  12   5  12    5.04    2.66
  12  -5  12   14.06    4.54
  12   5  12    5.08    3.28
  12  -5  12    6.45    3.90
  12   5  13   18.63    5.30
  12  -5  13   19.14    6.09
  12   5  13   21.44    6.20
  12  -5  13   26.81    7.04
  12   5  14   -1.76    3.52
  12  -5  14    0.51    1.91
  12   5  14   -1.78    2.95
  12  -5  14    3.06    6.10
  12  -5  15   -2.57    2.16
  12   5  15    1.83    2.95
  12  -5  16   -0.42    3.17
  12   5  16    2.39    2.56
  12  -5  17   10.86    4.67
  12   5  17    9.78    3.15
  12  -5  18    9.89    5.11
  12   5  18    7.90    3.69
  12   5  19    2.75    3.48
  12   5  20   -0.22    2.06
  12   5  21   -0.37    2.07
  12  -6 -19   18.07    5.47
  12  -6 -18    7.84    4.22
  12  -6 -18    4.97    4.34
  12   6 -18    4.65    2.89
  12  -6 -17   28.16    6.49
  12  -6 -17   18.50    5.23
  12   6 -16   13.26    5.52
  12  -6 -16   19.02    5.60
  12  -6 -16   28.93    6.60
  12   6 -15    0.73    2.19
  12  -6 -15    4.63    3.35
  12  -6 -15    8.60    3.70
  12  -6 -14   53.69    9.57
  12  -6 -14   51.81    9.20
  12   6 -14   46.85    8.62
  12  -6 -13   83.17   11.70
  12  -6 -13   67.97   10.71
  12   6 -13   80.85   11.10
  12   6 -12    4.14    2.25
  12  -6 -12    2.79    3.26
  12  -6 -12    6.26    2.64
  12  -6 -11   29.65    6.89
  12   6 -11   44.32    8.33
  12  -6 -11   29.78    6.09
  12   6 -10   41.40    7.59
  12  -6 -10   47.07    8.85
  12  -6 -10   40.28    8.55
  12  -6  -9   10.14    3.75
  12   6  -9   11.20    5.37
  12  -6  -9   21.09    6.18
  12  -6  -8  107.40   13.23
  12  -6  -8   96.70   12.21
  12   6  -8  102.35   12.58
  12  -6  -7  121.88   13.58
  12  -6  -7  167.14   15.51
  12   6  -7  167.09   15.53
  12   6  -6   30.33    7.29
  12  -6  -6   31.34    7.64
  12  -6  -6   17.71    5.23
  12   6  -5   45.82    7.81
  12  -6  -5   40.12    7.66
  12  -6  -5   41.29    8.09
  12   6  -4   92.44   11.52
  12  -6  -4   88.98   12.12
  12  -6  -4   80.05   10.78
  12   6  -4  104.35   12.09
  12   6  -3  146.02   13.81
  12  -6  -3  130.80   13.74
  12  -6  -3  148.67   14.45
  12   6  -3  136.74   13.98
  12   6  -2  120.13   12.74
  12   6  -2  121.92   12.62
  12  -6  -2  134.89   14.56
  12  -6  -2  118.68   12.95
  12  -6  -1   18.14    5.06
  12   6  -1   23.03    4.64
  12  -6  -1   33.33    8.06
  12   6   0    0.45    2.36
  12  -6   0    3.44    2.70
  12  -6   0   -2.46    3.42
  12   6   0   -0.47    2.25
  12   6   1   40.81    7.70
  12   6   1   34.76    7.65
  12  -6   1   32.39    7.12
  12  -6   1   25.87    6.92
  12  -6   2  138.25   14.04
  12   6   2  116.52   12.63
  12   6   2  131.42   12.85
  12  -6   2  145.49   15.16
  12  -6   3  156.32   14.88
  12   6   3  143.14   14.34
  12   6   3  158.71   14.30
  12   6   4   96.94   11.39
  12   6   4  104.85   11.90
  12  -6   4   80.51   11.02
  12   6   5   46.31    8.22
  12  -6   5   38.54    7.88
  12  -6   5   34.81    7.23
  12   6   5   42.55    7.36
  12   6   6   28.99    7.19
  12  -6   6   30.09    6.97
  12  -6   6   30.62    7.51
  12   6   6   23.44    5.74
  12   6   7  152.77   14.81
  12  -6   7  154.65   15.27
  12   6   7  175.47   15.61
  12  -6   7  121.49   13.56
  12   6   8  110.26   12.93
  12  -6   8  116.21   13.23
  12   6   8  105.38   12.01
  12  -6   8  101.36   12.55
  12   6   9   23.06    6.31
  12  -6   9   24.84    6.54
  12  -6   9   14.06    4.93
  12   6   9   31.34    6.84
  12   6  10   53.23    8.96
  12   6  10   41.72    7.78
  12  -6  10   45.78    8.10
  12   6  11   43.06    8.93
  12  -6  11   26.15    6.25
  12  -6  11   35.37    8.35
  12   6  11   40.19    7.24
  12   6  12    5.33    3.76
  12  -6  12    2.89    1.86
  12  -6  12    7.25    3.65
  12   6  12    1.36    2.08
  12   6  13   88.42   11.96
  12  -6  13   72.18   11.20
  12   6  13   72.19   10.37
  12  -6  13   79.60   11.92
  12   6  14   70.73   10.35
  12   6  14   68.20    9.90
  12  -6  14   51.39    8.78
  12  -6  14   42.70    8.75
  12   6  15    3.04    2.49
  12  -6  15    4.85    2.84
  12  -6  15    7.30    5.07
  12   6  15    5.10    2.97
  12  -6  16   19.52    5.92
  12  -6  16   22.11    6.50
  12   6  16   20.24    5.93
  12  -6  17   40.29    8.75
  12   6  17   27.10    5.71
  12  -6  17   35.30    8.66
  12   6  18   -0.64    2.83
  12  -6  18    4.67    5.41
  12   6  19   22.20    6.82
  12  -6  19   20.74    7.34
  12   7 -17   -2.37    3.87
  12  -7 -17    5.35    2.60
  12  -7 -17   -1.16    1.95
  12  -7 -16    1.54    2.24
  12  -7 -16    1.60    1.96
  12   7 -15   28.36    6.46
  12  -7 -15   29.10    6.75
  12  -7 -15   23.46    6.21
  12   7 -14    7.10    3.74
  12  -7 -14    8.47    5.33
  12  -7 -14    3.72    3.09
  12   7 -13   19.71    5.54
  12  -7 -13   22.55    6.67
  12  -7 -13   17.67    5.81
  12   7 -12   21.58    6.39
  12  -7 -12    6.41    4.25
  12  -7 -12   12.31    5.25
  12   7 -11   -0.25    2.38
  12  -7 -11   -1.26    4.00
  12  -7 -11    1.25    2.59
  12   7 -10   22.81    6.37
  12  -7 -10   20.97    6.26
  12  -7 -10   13.48    5.39
  12   7  -9   40.10    8.60
  12  -7  -9   57.68    9.07
  12  -7  -9   66.33   10.61
  12  -7  -8    1.65    1.47
  12   7  -8    7.86    3.06
  12  -7  -7   30.98    7.39
  12   7  -7   18.80    4.68
  12  -7  -7   21.80    6.50
  12  -7  -6    2.20    3.06
  12   7  -6    1.68    2.73
  12  -7  -6    1.81    2.72
  12  -7  -5    4.00    4.31
  12   7  -5   -2.46    2.13
  12  -7  -5    0.28    1.52
  12   7  -4   30.16    7.16
  12  -7  -4   33.33    6.98
  12  -7  -4   34.71    7.92
  12  -7  -3   16.08    5.44
  12   7  -3   14.01    5.06
  12  -7  -3   11.72    4.01
  12  -7  -2    8.85    4.95
  12   7  -2   11.46    4.09
  12  -7  -2   21.84    6.10
  12   7  -2   14.46    5.02
  12  -7  -1   40.62    7.91
  12   7  -1   26.17    5.53
  12  -7  -1   33.42    8.26
  12   7  -1   30.02    6.08
  12   7   0   17.70    5.58
  12  -7   0   14.31    4.55
  12  -7   0   13.98    4.83
  12   7   0   16.90    4.04
  12   7   1   37.90    8.27
  12  -7   1   28.69    6.60
  12  -7   1   34.13    6.92
  12   7   1   37.22    7.20
  12   7   2   15.89    5.11
  12  -7   2   12.33    3.84
  12  -7   2   15.11    5.57
  12   7   2   19.37    5.25
  12   7   3    7.54    2.69
  12  -7   3   10.28    5.05
  12   7   3   10.49    4.05
  12   7   4   49.78    9.08
  12  -7   4   36.31    7.83
  12  -7   4   27.15    6.56
  12   7   4   37.66    6.75
  12   7   5    1.82    3.60
  12  -7   5    7.39    3.59
  12  -7   5    5.18    4.56
  12   7   5    4.84    2.48
  12   7   6    7.24    4.62
  12  -7   6    1.38    1.53
  12  -7   6    1.80    3.77
  12   7   6    5.84    2.92
  12   7   7   18.22    5.31
  12   7   7   19.02    4.78
  12  -7   7   33.81    7.22
  12  -7   7   25.24    6.39
  12   7   8   10.53    4.17
  12   7   8   11.51    3.19
  12  -7   8   11.13    4.63
  12  -7   8    6.88    3.94
  12   7   9   50.84    9.31
  12   7   9   66.30    9.84
  12  -7   9   48.40    9.77
  12  -7   9   44.89    9.67
  12   7  10   18.15    4.69
  12   7  10   25.30    7.06
  12  -7  10   30.21    7.34
  12  -7  10   19.26    4.84
  12   7  11    2.09    1.94
  12   7  11    1.79    3.19
  12  -7  11   -1.93    2.25
  12  -7  11   -2.31    3.96
  12   7  12    9.44    4.57
  12  -7  12   11.68    5.50
  12  -7  12   10.31    6.15
  12   7  12   10.10    3.99
  12   7  13   13.71    2.68
  12  -7  13   16.05    5.83
  12  -7  13   10.83    5.91
  12   7  13    8.13    3.42
  12   7  14    5.10    3.42
  12  -7  14    3.47    2.81
  12  -7  14    2.41    3.05
  12   7  14    4.12    3.84
  12   7  15   28.30    7.12
  12  -7  15   28.18    7.81
  12   7  15   26.57    6.09
  12  -7  16   -3.66    4.94
  12   7  16   -0.17    2.26
  12   7  17   12.15    6.47
  12  -8 -13   35.29    8.33
  12  -8 -13   39.74    8.56
  12   8 -12   19.33    5.97
  12  -8 -12   27.27    6.58
  12   8 -11    7.37    4.50
  12  -8 -11    3.26    4.03
  12  -8 -11   10.43    4.97
  12  -8 -10    2.95    2.44
  12  -8 -10   10.76    5.01
  12   8  -9   21.22    6.21
  12  -8  -9   16.21    6.19
  12  -8  -9   19.62    6.28
  12   8  -8   11.82    4.23
  12  -8  -8   27.65    7.19
  12  -8  -8   15.76    4.94
  12   8  -7   46.73    8.04
  12  -8  -7   42.46    8.97
  12  -8  -7   42.33    8.96
  12  -8  -6   27.01    6.80
  12   8  -6   19.35    5.06
  12  -8  -6   24.98    7.61
  12  -8  -5    3.71    2.61
  12   8  -5    0.89    3.68
 -12   8  -5    9.20    3.44
  12  -8  -5    2.11    1.93
  12  -8  -4   12.08    4.08
  12   8  -4    9.30    4.38
 -12   8  -4   10.14    3.46
  12  -8  -4    6.61    5.35
  12   8  -3   38.35    7.76
 -12   8  -3   39.68    8.14
  12  -8  -3   34.75    7.75
  12  -8  -3   53.23    9.26
  12  -8  -2   12.19    4.86
  12   8  -2   14.24    2.66
 -12   8  -2   25.97    7.16
  12  -8  -2   18.68    5.27
  12  -8  -1   11.61    5.79
  12   8  -1   10.67    4.67
  12  -8  -1    5.85    5.27
  12   8  -1   12.68    6.14
  12  -8   0    0.18    3.69
  12   8   0    3.83    3.80
  12  -8   0    1.15    1.61
  12   8   0   -2.64    2.40
  12  -8   1    2.70    3.30
  12   8   1    7.52    3.38
  12  -8   1    3.47    2.00
  12   8   1    0.61    2.69
  12  -8   2    7.78    3.97
  12   8   2   15.98    5.78
  12  -8   2   10.44    4.67
  12   8   2    9.41    4.27
  12   8   3   56.68    9.66
  12  -8   3   54.07    9.13
  12  -8   3   39.12    8.65
  12   8   4    1.05    1.42
  12  -8   4   10.32    4.86
  12   8   4   10.32    4.49
  12  -8   4   11.41    4.44
  12   8   5    1.97    2.24
  12  -8   5   -1.77    4.03
  12   8   5   -0.36    2.78
  12  -8   5    3.71    3.25
  12   8   6   22.92    6.02
  12  -8   6   10.55    2.91
  12   8   6   19.09    5.78
  12  -8   6   18.33    6.85
  12   8   7   28.46    6.49
  12  -8   7   42.50    9.55
  12   8   7   39.20    7.81
  12  -8   7   39.00    8.73
  12   8   8   14.00    5.03
  12  -8   8   11.27    5.18
  12   8   8    4.41    2.92
  12  -8   8    4.90    3.18
  12   8   9   13.74    4.91
  12  -8   9   13.95    4.93
  12   8   9   12.66    4.62
  12   8  10   18.06    5.60
  12  -8  10   11.32    4.67
  12   8  10    8.10    4.79
  12   8  11    5.49    3.97
  12  -8  11   17.41    6.16
  12   8  11    5.43    3.68
  12   8  12   17.73    4.75
  12  -8  12   26.87    7.23
  12   8  12   22.84    6.33
  12   8  13   38.73    7.96
  12  -8  13   15.07    5.44
  12   8  13   28.18    7.00
  12   9  -8   -2.31    4.76
  12  -9  -8   -0.59    3.46
  12  -9  -8    1.02    3.57
  12   9  -7    6.49    4.71
  12  -9  -7    3.92    3.49
  12  -9  -7   -1.59    2.09
  12   9  -6    3.06    2.77
  12  -9  -6    2.99    3.77
  12  -9  -6    6.17    4.56
  12   9  -5    1.62    2.12
  12  -9  -5    3.07    2.92
  12  -9  -5    0.23    2.66
  12   9  -4    0.04    1.69
 -12   9  -4    3.61    2.28
  12  -9  -4   -2.67    4.34
  12  -9  -4   -0.23    2.10
  12   9  -3   40.56    8.66
 -12   9  -3   21.13    6.42
  12  -9  -3   24.27    7.15
  12  -9  -3   21.40    6.49
  12  -9  -2    4.81    3.88
  12   9  -2    0.82    2.01
 -12   9  -2   -1.10    1.37
  12  -9  -2   -2.53    2.17
  12  -9  -1    6.66    3.56
  12   9  -1    3.74    3.85
 -12   9  -1    6.88    4.19
  12  -9  -1    9.92    4.48
  12  -9   0    0.70    3.07
  12   9   0    3.35    2.28
 -12   9   0    4.13    4.24
  12  -9   0    0.57    2.13
  12   9   1    3.50    2.91
  12  -9   1    5.67    2.50
  12   9   1   11.42    6.48
 -12   9   1   11.80    4.95
  12  -9   1   -0.31    2.97
  12  -9   2   -1.06    1.99
  12   9   2   -1.23    3.53
  12   9   2   -0.10    1.55
 -12   9   2   -0.30    3.27
  12  -9   2    3.87    4.84
  12  -9   3   13.13    4.72
  12   9   3   16.99    5.79
  12   9   3   24.68    6.82
 -12   9   3    8.72    2.28
  12  -9   4    2.44    3.64
  12   9   4    0.82    1.93
  12   9   4    6.60    4.69
 -12   9   4    0.41    1.66
  12  -9   5    4.37    3.52
  12   9   5    6.70    3.45
  12   9   5   11.70    5.26
 -12   9   5    7.50    3.49
  12  -9   6   -0.51    2.95
  12   9   6    7.84    4.12
  12   9   6   -4.34    5.49
 -12   9   6    2.67    3.15
  12  -9   7    4.79    4.42
  12   9   7    5.14    2.58
  12   9   7    7.01    3.97
 -12   9   7    7.17    4.15
  12  -9   8    0.59    2.39
  12   9   8    7.98    4.73
  12   9   8    4.23    2.39
 -12   9   8    3.62    3.55
  13   0 -22   26.05    8.01
  13   0 -21   -1.69    2.30
  13   0 -20   -0.33    2.17
  13   0 -19   -2.93    2.69
  13   0 -18    1.53    3.04
  13   0 -17   -0.98    2.67
  13   0 -16    0.50    2.58
  13   0 -15    0.06    2.85
  13   0 -14    1.10    1.71
  13   0 -13    0.61    2.81
  13   0 -12    0.25    1.93
  13   0 -11   -0.35    2.08
  13   0 -11    0.77    3.15
  13   0 -10    1.43    2.10
  13   0 -10   -0.08    1.49
  13   0  -9   -0.19    1.37
  13   0  -9   -0.26    1.57
  13   0  -8   -0.07    2.15
  13   0  -8   -0.41    1.41
  13   0  -7    0.33    1.44
  13   0  -7    0.54    1.68
  13   0  -6    0.30    2.11
  13   0  -6   -0.84    1.31
  13   0  -5    0.43    1.95
  13   0  -5   -0.77    2.04
  13   0  -4    0.41    1.65
  13   0  -4   -2.98    2.68
  13   0  -3   -1.65    2.55
  13   0  -3    1.00    3.75
  13   0  -3    1.17    3.03
  13   0  -2    0.38    1.31
  13   0  -2   -0.66    1.72
  13   0  -2   -2.20    1.36
  13   0  -1    0.21    2.57
  13   0  -1   -1.71    1.50
  13   0  -1    5.24    3.86
  13   0   0   -1.14    1.89
  13   0   0   -1.07    1.64
  13   0   0   -0.04    1.60
  13   0   1   -0.14    1.60
  13   0   1    2.50    1.48
  13   0   1    0.34    2.04
  13   0   2   -0.46    2.75
  13   0   2   -1.53    1.94
  13   0   2    1.95    2.14
  13   0   3    0.69    1.89
  13   0   3   -0.87    1.38
  13   0   3    3.06    1.88
  13   0   4   -0.10    2.86
  13   0   4    1.17    2.09
  13   0   5    2.19    2.17
  13   0   5    1.69    1.93
  13   0   6    1.29    1.61
  13   0   6    0.73    2.50
  13   0   7   -1.44    2.20
  13   0   7   -0.72    1.44
  13   0   8    0.56    1.51
  13   0   8    0.20    1.52
  13   0   9   -0.77    1.70
  13   0   9   -0.12    2.17
  13   0  10   -0.89    2.06
  13   0  11   -0.56    1.57
  13   0  12    1.94    3.96
  13   0  13    1.88    1.31
  13   0  14    4.11    3.99
  13   0  15    1.30    3.56
  13   0  16    1.79    1.84
  13   0  17    1.45    1.96
  13   0  18   -2.44    2.29
  13   0  19    0.48    3.11
  13   0  20    0.48    1.88
  13   0  21   -0.60    2.59
  13   0  22   -2.83    2.29
  13   0  23    0.46    2.73
  13   0  24    0.49    2.51
  13  -1 -24    3.72    4.10
  13  -1 -23    6.19    4.43
  13  -1 -22    8.39    3.23
  13  -1 -21   59.96    9.74
  13  -1 -20   76.34   10.92
  13  -1 -19   16.29    5.95
  13  -1 -18    1.98    2.52
  13   1 -17   14.94    3.96
  13  -1 -17   22.59    5.16
  13   1 -16  102.33   12.39
  13  -1 -16   96.38   12.24
  13   1 -15   35.44    6.95
  13  -1 -15   26.81    6.33
  13   1 -14   82.89   10.81
  13  -1 -14   88.95   11.53
  13   1 -13   12.32    3.24
  13  -1 -13   16.16    5.43
  13   1 -12   62.13    9.64
  13  -1 -12   53.15    9.33
  13  -1 -11    8.53    3.78
  13  -1 -11    9.60    3.51
  13   1 -11   12.92    5.01
  13   1 -11    5.05    3.75
  13  -1 -10  104.19   11.00
  13   1 -10  111.65   11.71
  13  -1 -10  118.43   12.85
  13   1 -10  110.52   11.85
  13  -1  -9  120.70   12.52
  13   1  -9  123.11   12.01
  13  -1  -9  115.01   12.59
  13   1  -9  105.67   11.45
  13   1  -9  142.98   13.41
  13  -1  -8   14.69    4.37
  13   1  -8   12.09    3.48
  13  -1  -8   10.18    3.95
  13   1  -8   11.35    4.74
  13   1  -8    9.77    4.54
  13  -1  -7   43.38    7.15
  13   1  -7   39.34    6.63
  13   1  -7   32.27    7.08
  13  -1  -7   31.20    6.71
  13   1  -7   34.70    6.32
  13  -1  -6   74.49    9.46
  13   1  -6   70.07    8.92
  13  -1  -6   60.37    9.15
  13   1  -6   67.38    9.22
  13   1  -6   68.88    9.29
  13  -1  -5  326.70   19.82
  13   1  -5  327.99   19.23
  13  -1  -5  317.13   20.56
  13   1  -5  320.60   20.35
  13  -1  -4   51.95    7.84
  13   1  -4   38.66    6.40
  13  -1  -4   53.05    8.29
  13   1  -4   42.90    7.32
  13   1  -4   41.92    7.45
  13  -1  -3   95.96   10.60
  13   1  -3   89.20   10.04
  13  -1  -3   99.18   11.71
  13   1  -3   80.17   10.04
  13   1  -3   81.65    9.67
  13  -1  -2  112.52   11.54
  13   1  -2  129.29   11.84
  13  -1  -2  129.17   12.76
  13   1  -2  148.92   13.65
  13   1  -2  153.91   13.05
  13  -1  -1   75.47    9.84
  13   1  -1   79.37    9.82
  13  -1  -1   78.05   10.39
  13   1  -1   84.43   10.27
  13   1  -1   70.45    9.02
  13  -1   0 1113.68   36.36
  13   1   0 1181.67   37.06
  13  -1   0 1155.40   39.10
  13   1   0 1094.08   36.99
  13   1   0 1093.73   35.04
  13  -1   1   84.93    9.95
  13   1   1   76.41    9.45
  13  -1   1   71.86    9.81
  13   1   1   82.64   10.37
  13   1   1   59.16    8.65
  13  -1   2  136.02   12.68
  13   1   2  129.50   12.11
  13  -1   2  112.62   11.67
  13   1   2  124.99   12.44
  13   1   2  151.83   12.94
  13  -1   3   84.57   10.15
  13   1   3   74.55    9.44
  13  -1   3  100.89   11.50
  13   1   3   75.01    8.89
  13  -1   4   46.50    7.70
  13   1   4   42.55    7.02
  13  -1   4   42.23    7.35
  13   1   4   47.94    7.22
  13  -1   5  290.37   18.99
  13   1   5  355.58   20.62
  13   1   5  320.21   18.95
  13  -1   6   61.66    8.71
  13   1   6   52.95    7.97
  13   1   6   62.78    8.48
  13   1   7   32.33    5.80
  13  -1   7   22.81    5.54
  13   1   7   33.72    5.60
  13   1   8   15.94    5.27
  13  -1   8   14.43    4.40
  13   1   8   19.99    4.51
  13  -1   9  140.15   13.20
  13   1   9  125.76   12.68
  13   1   9  135.29   12.35
  13  -1  10  119.77   12.65
  13   1  10  130.31   12.84
  13   1  10  130.90   12.12
  13   1  11   10.24    3.42
  13  -1  11    0.18    3.29
  13   1  11   10.12    3.23
  13  -1  12   56.53    8.73
  13   1  12   61.80    9.28
  13   1  12   48.32    7.60
  13   1  13   13.63    4.30
  13  -1  13   10.56    3.42
  13  -1  14   91.36   11.31
  13   1  14   84.25   10.74
  13   1  15   49.51    8.95
  13  -1  15   27.61    6.65
  13  -1  16   93.60   11.87
  13   1  16   83.04   11.23
  13   1  17   15.49    5.18
  13  -1  17   13.44    5.10
  13   1  18    3.28    2.32
  13  -1  18    6.59    3.27
  13   1  19    0.17    1.80
  13  -1  19    0.62    1.78
  13  -1  20   75.25   10.88
  13   1  20  120.22   14.17
  13  -1  21   59.82   10.46
  13   1  21   60.12   10.19
  13   1  22   11.27    5.55
  13  -1  22   11.56    4.67
  13   1  23    6.20    4.65
  13  -1  23    1.41    3.89
  13   1  24    1.93    2.28
  13  -1  24    9.79    5.67
  13  -2 -23    8.69    4.52
  13  -2 -22    2.68    3.88
  13  -2 -21    2.50    2.26
  13  -2 -20    5.12    4.39
  13  -2 -19   -0.20    3.05
  13  -2 -18    2.53    2.06
  13  -2 -17   45.49    8.67
  13  -2 -16   13.92    5.14
  13  -2 -15    8.33    3.73
  13   2 -15    7.25    5.35
  13  -2 -14   -0.01    3.14
  13  -2 -14    2.35    2.17
  13  -2 -13   12.67    4.98
  13  -2 -13   11.48    4.44
  13   2 -13    7.19    1.96
  13  -2 -12   40.07    7.63
  13   2 -12   56.14    9.90
  13  -2 -12   37.93    7.81
  13   2 -12   41.84    7.33
  13  -2 -11  177.67   15.54
  13   2 -11  186.25   15.95
  13  -2 -11  156.68   15.41
  13   2 -11  168.24   15.06
  13  -2 -10   11.50    4.18
  13  -2 -10   14.24    4.73
  13   2 -10    7.70    3.28
  13   2 -10    9.83    3.31
  13  -2  -9   13.83    3.69
  13  -2  -9    9.09    4.12
  13   2  -9   14.88    5.15
  13   2  -9    9.47    3.08
  13  -2  -8   58.88    8.74
  13   2  -8   57.56    7.95
  13  -2  -8   55.78    8.62
  13   2  -8   44.39    7.53
  13   2  -8   66.50    9.09
  13  -2  -7   34.36    6.17
  13   2  -7   34.68    6.42
  13  -2  -7   28.42    5.92
  13   2  -7   33.27    6.54
  13   2  -7   30.91    5.73
  13  -2  -6    8.77    4.39
  13  -2  -6    0.64    2.53
  13   2  -6    9.73    4.31
  13   2  -6    3.83    2.32
  13   2  -6    0.28    1.75
  13  -2  -5    1.07    1.23
  13  -2  -5    2.57    3.16
  13   2  -5    2.01    2.54
  13   2  -5    0.12    1.17
  13   2  -5    0.27    2.76
  13  -2  -4   12.42    3.68
  13  -2  -4   17.73    5.55
  13   2  -4   16.60    5.15
  13   2  -4   20.88    4.58
  13   2  -4   16.16    5.13
  13  -2  -3   77.21   10.02
  13   2  -3   85.08    9.51
  13  -2  -3   73.02   10.43
  13   2  -3   78.86   10.02
  13   2  -3   77.22    9.60
  13  -2  -2   33.60    6.32
  13   2  -2   36.29    6.41
  13  -2  -2   36.62    6.97
  13   2  -2   26.13    5.76
  13   2  -2   36.16    6.17
  13   2  -1   27.74    5.70
  13  -2  -1   45.55    8.20
  13  -2  -1   26.45    7.44
  13   2  -1   35.03    6.67
  13  -2   0  452.58   23.75
  13   2   0  495.97   24.06
  13  -2   0  523.94   26.71
  13   2   0  486.80   24.77
  13   2   0  538.33   25.15
  13  -2   1   37.00    7.10
  13   2   1   46.39    7.42
  13  -2   1   33.00    7.48
  13   2   1   35.58    6.64
  13   2   1   37.75    7.23
  13   2   2   37.83    6.58
  13  -2   2   38.73    7.22
  13   2   2   39.11    6.63
  13  -2   2   43.29    7.85
  13  -2   3   78.66   10.00
  13   2   3   55.33    8.15
  13  -2   3   83.59   10.54
  13   2   3   64.79    9.04
  13   2   4    8.71    5.10
  13   2   4   16.11    4.60
  13  -2   4   12.71    5.21
  13  -2   4   16.69    4.96
  13   2   5   -0.73    2.36
  13   2   5    2.31    2.97
  13  -2   5    0.14    1.16
  13  -2   5   -0.57    2.19
  13   2   6    2.71    1.45
  13   2   6    6.07    2.17
  13  -2   6    3.63    3.28
  13  -2   6    3.79    4.33
  13   2   7   32.04    5.92
  13   2   7   34.96    6.61
  13  -2   7   36.73    7.22
  13  -2   8   61.08    8.93
  13   2   8   51.91    7.92
  13   2   8   43.40    7.37
  13   2   9   13.26    3.58
  13   2   9   11.13    4.07
  13  -2   9   10.44    3.56
  13   2  10   15.74    5.02
  13   2  10   11.49    4.19
  13  -2  10    6.94    4.18
  13  -2  11  176.41   15.59
  13   2  11  178.73   15.59
  13   2  11  132.14   13.25
  13  -2  12   53.93    8.42
  13   2  12   48.28    8.22
  13   2  12   44.71    7.48
  13   2  13   10.57    4.45
  13  -2  13    6.96    3.63
  13   2  14    2.81    2.63
  13  -2  14    1.75    2.34
  13   2  15   11.48    3.58
  13  -2  15    6.53    4.83
  13   2  16    7.64    3.86
  13  -2  16    4.30    2.95
  13  -2  17   39.67    7.76
  13   2  17   65.89    9.91
  13   2  18    0.48    1.83
  13  -2  18    3.75    3.92
  13   2  19    2.58    4.03
  13  -2  19    0.94    2.90
  13   2  20   -0.80    2.05
  13  -2  20    3.23    2.00
  13   2  21   12.04    4.20
  13  -2  21    7.62    3.99
  13   2  22    5.92    3.72
  13  -2  22    6.86    4.04
  13   2  23   23.58    7.76
  13  -3 -22   41.52    8.98
  13  -3 -21   10.85    4.61
  13  -3 -20   32.98    7.60
  13  -3 -19   11.65    4.47
  13  -3 -18   10.55    4.08
  13   3 -18   18.53    5.49
  13  -3 -17   14.62    5.11
  13   3 -17   12.41    5.19
  13  -3 -16  214.73   18.09
  13   3 -16  185.37   16.91
  13  -3 -15   24.02    6.87
  13  -3 -15   42.16    7.95
  13   3 -15   21.92    6.21
  13  -3 -14  102.71   12.55
  13  -3 -14  110.69   13.13
  13   3 -14  102.06   12.04
  13  -3 -13   39.34    7.79
  13  -3 -13   29.78    7.09
  13   3 -13   37.17    7.21
  13  -3 -12  146.40   15.41
  13   3 -12  141.81   14.01
  13  -3 -12  131.47   14.00
  13  -3 -11    8.58    2.76
  13  -3 -11   12.98    5.66
  13   3 -11    9.91    2.67
  13  -3 -10  329.31   22.25
  13   3 -10  275.07   19.55
  13  -3 -10  333.50   21.80
  13  -3  -9   35.43    7.40
  13  -3  -9   33.76    6.87
  13   3  -9   30.27    6.97
  13  -3  -8   36.00    7.22
  13  -3  -8   48.39    8.61
  13   3  -8   54.64    8.93
  13   3  -7   32.30    6.77
  13  -3  -7   37.21    7.81
  13   3  -7   36.38    6.66
  13  -3  -7   25.52    6.24
  13  -3  -6   66.10    9.20
  13   3  -6   71.75    8.91
  13  -3  -6   71.18    9.83
  13   3  -6   69.97    9.50
  13   3  -6   63.41    9.09
  13   3  -5    9.51    3.35
  13   3  -5    9.04    3.91
  13  -3  -5    6.76    3.29
  13  -3  -5    9.42    2.46
  13   3  -5    8.48    3.77
  13  -3  -4  215.83   16.81
  13   3  -4  222.08   16.09
  13  -3  -4  230.22   18.09
  13   3  -4  226.72   16.87
  13   3  -4  233.52   17.42
  13   3  -3   38.05    6.93
  13  -3  -3   31.81    6.79
  13   3  -3   36.67    7.02
  13  -3  -3   29.82    6.58
  13   3  -3   31.11    6.31
  13   3  -2    2.05    1.96
  13   3  -2   -0.42    2.25
  13  -3  -2    7.07    3.32
  13  -3  -2    4.05    2.58
  13   3  -2    3.92    2.36
  13   3  -1   20.93    5.23
  13   3  -1   17.88    5.58
  13  -3  -1   17.16    4.96
  13  -3  -1   17.49    5.57
  13   3  -1   26.09    5.32
  13  -3   0   90.29   10.85
  13  -3   0   86.64   11.01
  13   3   0   96.99   11.60
  13   3   0   71.76    9.38
  13   3   0   86.54   10.41
  13   3   1   20.62    5.24
  13   3   1   31.33    5.79
  13  -3   1   13.16    4.54
  13  -3   1   24.14    6.28
  13   3   1   16.22    4.14
  13   3   2    3.35    2.86
  13   3   2    1.63    2.14
  13  -3   2    5.69    3.61
  13  -3   2   -0.38    3.72
  13   3   3   32.13    6.65
  13   3   3   29.31    5.84
  13  -3   3   25.56    5.07
  13  -3   3   28.13    6.54
  13  -3   4  230.18   17.57
  13  -3   4  227.68   17.82
  13   3   4  208.68   16.07
  13   3   4  234.38   17.27
  13   3   5   23.25    6.14
  13   3   5    7.51    3.77
  13  -3   5    9.63    3.64
  13  -3   5   15.23    5.47
  13  -3   6   65.79    9.91
  13  -3   6   56.84    8.81
  13   3   6   75.03    9.85
  13   3   6   61.54    9.53
  13   3   7   32.96    7.09
  13  -3   7   41.78    7.50
  13  -3   7   33.08    7.12
  13   3   7   34.49    6.89
  13  -3   8   36.23    6.54
  13  -3   8   37.02    8.19
  13   3   8   47.92    8.30
  13   3   8   52.71    8.36
  13   3   9   28.65    5.95
  13   3   9   30.67    6.26
  13  -3   9   32.78    7.40
  13  -3  10  299.22   20.41
  13   3  10  288.07   19.48
  13   3  10  322.85   21.08
  13   3  11   13.77    3.81
  13   3  11    9.95    3.59
  13  -3  11   14.78    5.36
  13  -3  12  131.82   14.11
  13   3  12  125.68   12.72
  13   3  12  138.16   13.76
  13   3  13   37.83    7.34
  13   3  13   29.79    6.61
  13  -3  13   26.90    6.31
  13  -3  14  120.97   13.79
  13   3  14  111.07   12.37
  13   3  15   25.78    6.30
  13  -3  15   25.78    6.32
  13  -3  16  201.28   17.89
  13   3  16  211.59   17.47
  13   3  17    5.84    3.23
  13  -3  17    8.45    4.66
  13   3  18   14.46    4.65
  13  -3  18    6.46    3.50
  13   3  19    7.08    3.42
  13  -3  19   12.10    5.43
  13   3  20   20.57    6.10
  13  -3  20   28.77    8.09
  13   3  21   23.06    6.85
  13  -3  21   13.38    6.54
  13   3  22   49.36    9.57
  13  -4 -21    3.95    2.54
  13  -4 -20    1.20    4.07
  13   4 -20   20.59    7.18
  13  -4 -19   18.50    5.82
  13   4 -19   12.72    4.59
  13  -4 -18   -0.69    2.57
  13   4 -18   -2.02    3.75
  13  -4 -17    7.21    2.89
  13   4 -17   20.11    6.34
  13  -4 -16    5.72    4.43
  13   4 -16    4.33    3.40
  13  -4 -15   16.43    3.99
  13  -4 -15    6.99    4.46
  13   4 -15   14.36    3.48
  13  -4 -14    4.70    3.09
  13  -4 -14    6.21    3.03
  13   4 -14    4.58    2.72
  13  -4 -13   -0.04    1.93
  13  -4 -13   -0.70    2.92
  13   4 -13   -1.11    3.18
  13  -4 -12    6.78    3.32
  13  -4 -12    7.82    3.31
  13   4 -12    3.19    2.25
  13   4 -11   -3.35    2.92
  13  -4 -11    0.78    1.82
  13  -4 -11   -2.08    2.65
  13   4 -10    5.43    3.86
  13  -4 -10    3.33    1.58
  13  -4 -10    6.34    4.24
  13  -4  -9  134.67   14.56
  13   4  -9  154.22   14.79
  13  -4  -9  136.88   14.09
  13   4  -8   -0.46    1.47
  13  -4  -8    2.27    3.51
  13  -4  -8    0.03    2.56
  13   4  -7   11.62    4.96
  13  -4  -7    5.52    2.35
  13  -4  -7   11.36    5.31
  13  -4  -6   85.82   11.20
  13  -4  -6   78.99   10.73
  13   4  -6   98.67   11.10
  13   4  -6   86.03   10.70
  13   4  -5    2.60    3.25
  13   4  -5   -0.38    2.02
  13  -4  -5    4.17    2.88
  13  -4  -5    4.25    1.62
  13   4  -4   16.78    5.24
  13   4  -4   25.47    5.49
  13  -4  -4   26.67    6.54
  13  -4  -4   25.71    6.59
  13   4  -3    3.70    2.04
  13   4  -3    3.54    2.73
  13  -4  -3    5.25    3.33
  13  -4  -3    3.31    1.75
  13  -4  -2  124.98   13.28
  13  -4  -2  161.02   15.92
  13   4  -2  152.61   13.25
  13   4  -2  152.34   14.07
  13  -4  -1   81.13   10.67
  13  -4  -1   75.68   10.88
  13   4  -1   68.00    9.08
  13   4  -1   75.84   10.08
  13   4   0    2.05    3.68
  13  -4   0    0.87    1.80
  13   4   0   -0.54    1.55
  13  -4   0    0.67    3.02
  13   4   0    2.03    2.26
  13  -4   1   83.92   10.49
  13  -4   1   75.33   10.76
  13   4   1   65.52    8.82
  13   4   1   85.86   10.82
  13  -4   2  164.57   14.85
  13  -4   2  126.66   13.55
  13   4   2  138.65   13.65
  13   4   2  130.74   12.91
  13   4   3    9.78    3.52
  13  -4   3    5.07    1.85
  13   4   3    2.47    1.76
  13  -4   3    1.71    3.60
  13   4   4   16.13    4.39
  13  -4   4   25.41    6.34
  13   4   4   21.20    4.77
  13  -4   4   29.84    6.30
  13   4   5   10.13    3.90
  13  -4   5    6.93    3.60
  13   4   5    5.63    3.00
  13  -4   5    4.99    1.42
  13   4   6   82.54   10.37
  13  -4   6  101.73   11.51
  13  -4   6   77.44   10.86
  13   4   6   65.64    9.43
  13   4   7    9.84    4.73
  13  -4   7   11.57    4.43
  13   4   7   10.84    4.19
  13  -4   7   13.89    5.08
  13   4   8    0.19    2.30
  13  -4   8    1.19    1.88
  13   4   8    1.53    2.07
  13  -4   8    3.60    3.92
  13   4   9  148.44   14.08
  13  -4   9  146.80   14.41
  13  -4   9  151.33   15.42
  13   4   9  137.27   14.23
  13   4  10    6.65    4.41
  13  -4  10    8.33    3.42
  13   4  10    6.42    2.68
  13  -4  10   -2.73    3.29
  13   4  11    2.99    2.33
  13  -4  11    1.19    3.24
  13   4  11   -1.20    2.78
  13  -4  11    1.23    3.71
  13   4  12    8.50    2.72
  13  -4  12   15.96    5.60
  13   4  12   11.82    5.53
  13   4  13    0.33    2.50
  13  -4  13    1.14    2.66
  13   4  13    0.52    1.85
  13  -4  14    3.18    2.08
  13   4  14   10.27    4.24
  13  -4  15   25.89    7.01
  13   4  15   19.61    5.20
  13  -4  16    5.98    3.11
  13   4  16   -0.27    2.18
  13  -4  17   22.53    6.49
  13   4  17   25.72    6.07
  13  -4  18   -1.11    2.31
  13   4  18    0.96    2.61
  13  -4  19   10.68    5.02
  13   4  19   12.51    5.60
  13   4  20    6.30    3.84
  13  -4  20    6.81    3.99
  13   4  21   11.22    5.44
  13  -5 -20   16.76    5.40
  13  -5 -19    3.51    1.54
  13   5 -19    0.58    2.51
  13  -5 -18   11.39    4.81
  13   5 -18   11.98    5.43
  13  -5 -17   27.12    6.59
  13  -5 -17   16.88    6.78
  13   5 -17   17.62    5.68
  13  -5 -16   16.92    5.79
  13  -5 -16   11.19    5.19
  13   5 -16   15.12    5.32
  13  -5 -15   11.09    3.56
  13  -5 -15    5.47    2.79
  13   5 -15    8.50    4.31
  13  -5 -14   26.69    6.77
  13  -5 -14   18.79    6.35
  13   5 -14   22.70    6.45
  13   5 -13    2.76    2.06
  13  -5 -13    3.68    2.45
  13  -5 -13    2.97    2.26
  13   5 -12   11.72    5.27
  13  -5 -12   14.48    4.85
  13  -5 -12   18.95    6.03
  13   5 -11   53.85    8.33
  13  -5 -11   62.38    9.89
  13  -5 -11   64.91    9.86
  13  -5 -10   26.48    5.69
  13  -5 -10   18.80    6.34
  13   5 -10   37.06    8.28
  13   5  -9    7.26    4.80
  13  -5  -9    1.37    1.94
  13  -5  -9   -0.64    2.80
  13   5  -8   10.13    4.60
  13  -5  -8    2.60    1.94
  13  -5  -8    9.62    2.57
  13  -5  -7   38.15    8.08
  13   5  -7   43.11    7.81
  13  -5  -7   41.90    8.45
  13  -5  -6   95.22   12.04
  13   5  -6   77.41   10.39
  13  -5  -6   60.22    9.79
  13   5  -5   23.18    5.80
  13  -5  -5   34.00    7.23
  13  -5  -5   13.90    5.65
  13  -5  -4   83.19   10.84
  13   5  -4   72.64    9.50
  13   5  -4   74.07   10.16
  13  -5  -4   83.87   11.12
  13  -5  -3   45.82    7.81
  13  -5  -3   41.57    7.50
  13   5  -3   47.19    8.11
  13   5  -3   48.70    8.00
  13  -5  -2  163.38   15.46
  13  -5  -2  164.12   15.89
  13   5  -2  154.48   14.48
  13   5  -2  162.54   15.17
  13   5  -1  124.83   12.71
  13  -5  -1  113.33   13.04
  13  -5  -1  128.40   14.10
  13   5  -1  124.45   12.67
  13   5   0   15.39    5.35
  13  -5   0    7.07    1.57
  13   5   0   18.52    5.33
  13  -5   0   20.44    6.30
  13   5   1  122.82   12.57
  13  -5   1  107.67   12.41
  13  -5   1  127.28   14.13
  13   5   1  106.57   12.32
  13   5   2  147.97   14.34
  13  -5   2  159.19   15.31
  13  -5   2  166.84   16.17
  13   5   2  162.30   14.94
  13   5   3   48.22    8.28
  13  -5   3   51.73    8.74
  13  -5   3   64.37   10.53
  13   5   3   52.47    8.50
  13  -5   4   79.79   10.79
  13   5   4   72.50    9.95
  13  -5   4   76.34   10.91
  13   5   4   66.84   10.37
  13   5   5   26.80    5.69
  13  -5   5   21.68    6.30
  13   5   5   23.74    5.99
  13  -5   5   26.14    6.21
  13  -5   6   81.76   10.94
  13   5   6   87.90   10.95
  13  -5   6  115.03   13.01
  13   5   6   77.51   10.49
  13   5   7   41.37    7.75
  13   5   7   36.34    7.55
  13  -5   7   24.72    6.22
  13  -5   7   20.02    5.42
  13   5   8   11.49    4.37
  13  -5   8   15.57    4.14
  13   5   8    4.34    3.13
  13  -5   8    5.08    3.26
  13   5   9    6.05    3.92
  13  -5   9    2.46    1.78
  13   5   9    1.37    2.61
  13  -5   9   -0.62    2.08
  13   5  10   26.68    6.91
  13  -5  10   19.09    5.42
  13   5  10   21.58    5.93
  13  -5  10   23.84    5.76
  13   5  11   52.61    8.80
  13  -5  11   62.72    9.43
  13  -5  11   73.96   10.86
  13   5  11   65.77    9.99
  13   5  12   18.00    5.61
  13  -5  12   15.69    5.23
  13   5  12   24.53    5.95
  13  -5  12   18.85    6.35
  13   5  13    5.87    3.18
  13  -5  13    8.62    4.17
  13   5  13    6.52    3.05
  13  -5  13    5.78    3.96
  13   5  14   25.70    6.44
  13  -5  14   10.46    4.20
  13   5  14   23.88    6.25
  13  -5  14   10.86    4.86
  13  -5  15    7.57    4.49
  13   5  15    8.09    4.29
  13  -5  15    8.86    4.25
  13  -5  16   17.55    6.46
  13   5  16   19.41    5.40
  13  -5  17   20.56    6.17
  13   5  17   12.01    4.13
  13  -5  18    4.32    3.04
  13   5  18    5.55    4.42
  13  -5  19    4.80    4.56
  13   5  19    4.33    2.87
  13   5  20   17.79    5.86
  13  -6 -18   -0.88    2.96
  13   6 -18   -0.59    2.42
  13  -6 -17    5.33    3.92
  13  -6 -17   -2.81    4.06
  13   6 -17    6.78    4.60
  13  -6 -16   -2.25    3.56
  13  -6 -16    8.01    4.20
  13   6 -16    4.62    3.32
  13   6 -15    3.42    2.81
  13  -6 -15    4.43    1.76
  13  -6 -15    0.58    2.10
  13   6 -14    1.97    2.32
  13  -6 -14    2.92    3.06
  13   6 -13    3.43    1.89
  13  -6 -13    5.04    3.22
  13  -6 -13    5.37    4.32
  13  -6 -12    5.88    3.56
  13   6 -12    1.49    3.63
  13  -6 -12   -1.58    2.06
  13  -6 -11    6.17    3.82
  13   6 -11   11.46    4.47
  13  -6 -11    6.03    2.64
  13   6 -10    6.17    2.32
  13  -6 -10    6.86    4.64
  13  -6 -10   12.87    4.71
  13   6  -9    2.60    1.61
  13  -6  -9    2.64    2.54
  13  -6  -9    7.28    4.64
  13   6  -8    1.23    1.23
  13  -6  -8    3.73    3.40
  13  -6  -8    6.21    4.20
  13   6  -7    3.25    3.03
  13  -6  -7    5.69    3.62
  13  -6  -7    4.42    3.51
  13   6  -6   -2.40    1.73
  13  -6  -6    1.64    1.58
  13   6  -5   -0.46    2.15
  13  -6  -5   -0.84    1.97
  13  -6  -5    0.15    1.58
  13   6  -4   -1.45    1.57
  13  -6  -4    2.75    3.58
  13  -6  -4    2.96    3.22
  13   6  -3   16.45    5.74
  13  -6  -3   13.60    4.99
  13   6  -3   13.27    4.83
  13  -6  -3    6.94    2.23
  13   6  -2   -0.47    2.68
  13  -6  -2    6.87    4.21
  13   6  -2    6.91    2.94
  13  -6  -2   13.25    6.15
  13   6  -1    9.04    2.92
  13  -6  -1   13.61    5.57
  13   6  -1    6.47    2.55
  13  -6  -1    6.72    3.62
  13   6   0    3.65    2.24
  13  -6   0    2.11    2.29
  13   6   0    0.74    1.45
  13  -6   0    1.14    2.81
  13   6   1   18.32    6.20
  13  -6   1   10.56    4.14
  13   6   1    8.09    3.57
  13  -6   1   12.87    5.31
  13   6   2   13.44    4.93
  13  -6   2    8.31    4.62
  13   6   2   13.26    4.61
  13  -6   2   15.74    3.13
  13   6   3    7.14    3.16
  13  -6   3   18.85    5.86
  13   6   3    9.58    3.79
  13  -6   3    9.24    4.16
  13   6   4   -1.11    2.22
  13  -6   4   -1.83    2.48
  13   6   4    1.70    2.40
  13  -6   4   -1.28    1.95
  13   6   5    3.49    2.92
  13  -6   5    4.48    3.27
  13   6   5    4.85    2.87
  13  -6   5    6.02    4.55
  13   6   6    1.45    2.83
  13  -6   6    2.29    3.07
  13   6   6    0.81    2.53
  13  -6   6    8.70    4.26
  13   6   7    0.64    1.95
  13  -6   7   -0.23    3.43
  13   6   7    2.71    1.34
  13  -6   7    4.58    4.20
  13   6   8    7.14    3.35
  13  -6   8   10.32    4.15
  13   6   8    5.25    3.64
  13  -6   8    0.38    2.80
  13   6   9    3.64    4.05
  13  -6   9    5.72    4.82
  13   6   9    4.74    3.29
  13  -6   9    6.05    4.76
  13   6  10    5.98    3.77
  13  -6  10    7.55    3.23
  13   6  10    6.91    4.72
  13  -6  10    7.33    3.15
  13   6  11   13.43    5.69
  13  -6  11   12.89    4.53
  13   6  11    6.73    3.94
  13  -6  11    5.41    2.43
  13   6  12    2.19    4.13
  13  -6  12    2.73    3.47
  13   6  12    5.97    3.68
  13  -6  12   -0.05    2.33
  13   6  13    6.79    4.71
  13  -6  13    3.36    3.01
  13   6  13    9.57    4.62
  13  -6  13    7.92    3.64
  13   6  14    5.60    1.58
  13  -6  14    6.16    3.92
  13   6  14    7.01    4.99
  13  -6  14   -0.55    2.06
  13  -6  15    3.05    3.75
  13   6  15    4.64    2.48
  13  -6  15    4.99    4.51
  13  -6  16   -3.46    4.63
  13   6  16   -1.91    2.41
  13  -6  16   -2.40    4.55
  13  -6  17    0.50    4.01
  13   6  17    2.45    3.89
  13  -6  17   -1.47    3.91
  13   6  18   -1.65    2.19
  13  -6  18   -2.06    3.89
  13   7 -15    7.80    4.48
  13  -7 -15    8.78    4.74
  13  -7 -15    1.72    1.76
  13   7 -14   22.88    5.98
  13  -7 -14   10.82    3.20
  13  -7 -14   12.21    5.65
  13   7 -13    1.83    3.08
  13  -7 -13    5.88    4.92
  13  -7 -13    6.40    4.68
  13   7 -12    5.82    3.87
  13  -7 -12    4.42    3.16
  13  -7 -12   11.48    4.55
  13   7 -11   11.59    4.83
  13  -7 -11   13.59    4.91
  13  -7 -11    7.20    2.69
  13  -7 -10   47.42    9.03
  13  -7 -10   60.83    9.96
  13   7 -10   67.85   10.92
  13  -7  -9    5.65    4.26
  13   7  -9    6.52    4.04
  13  -7  -9    8.92    3.21
  13  -7  -8   22.18    6.23
  13   7  -8   15.61    4.45
  13  -7  -8    9.43    3.70
  13  -7  -7   11.99    4.37
  13   7  -7    6.29    1.29
  13  -7  -7   16.83    6.06
  13  -7  -6   55.23    9.56
  13  -7  -6   67.17   10.88
  13   7  -6   57.91    9.83
  13  -7  -5    3.86    3.33
  13   7  -5    3.55    2.69
  13  -7  -5   10.40    5.45
  13  -7  -4   29.39    6.85
  13   7  -4   34.88    7.69
  13  -7  -4   26.72    6.48
  13   7  -3   20.86    6.48
  13  -7  -3   25.11    6.47
  13  -7  -3    8.48    2.88
  13   7  -2   29.64    6.14
  13  -7  -2   14.85    4.54
  13  -7  -2   20.57    6.03
  13   7  -1   25.75    6.58
  13  -7  -1    8.19    3.76
  13   7  -1   16.44    5.05
  13  -7  -1   12.89    5.04
  13   7   0    8.82    4.06
  13  -7   0   16.82    6.12
  13   7   0    8.52    3.36
  13  -7   0   14.59    3.77
  13   7   1   19.55    5.90
  13  -7   1   24.35    6.75
  13   7   1   14.43    4.39
  13  -7   1   11.01    4.92
  13   7   2   46.73    8.10
  13  -7   2   35.78    7.27
  13  -7   2   20.62    6.39
  13   7   2   12.06    4.46
  13   7   3   19.17    6.33
  13  -7   3   18.85    5.82
  13  -7   3   10.29    4.27
  13   7   3    8.39    3.05
  13   7   4   35.54    7.38
  13  -7   4   34.62    8.07
  13  -7   4   32.41    7.49
  13   7   4   42.54    7.52
  13   7   5   -3.32    3.18
  13  -7   5   11.67    4.58
  13  -7   5    6.61    3.38
  13   7   5    6.26    3.27
  13   7   6   50.01    8.83
  13  -7   6   54.09   10.20
  13   7   6   46.31    8.09
  13  -7   6   56.62    9.84
  13   7   7    2.90    1.78
  13  -7   7    9.63    4.59
  13  -7   7    8.81    4.84
  13   7   7   13.94    3.29
  13   7   8   11.81    5.36
  13  -7   8   11.33    4.73
  13  -7   8    6.97    4.73
  13   7   8   17.03    4.99
  13   7   9   15.88    4.46
  13  -7   9   -0.01    1.62
  13  -7   9    1.74    3.05
  13   7   9   10.16    4.62
  13   7  10   65.59   10.25
  13  -7  10   57.51    9.43
  13   7  10   54.32    9.19
  13  -7  10   72.02   11.81
  13   7  11   12.22    5.53
  13  -7  11   19.93    5.55
  13  -7  11    3.32    3.40
  13   7  11   10.10    4.53
  13   7  12    6.25    3.39
  13  -7  12    4.33    4.59
  13  -7  12    6.88    4.51
  13   7  12    5.87    4.22
  13   7  13    5.37    4.63
  13  -7  13    0.32    3.99
  13  -7  13    1.25    2.99
  13   7  13    4.57    3.04
  13   7  14   21.55    7.33
  13  -7  14   12.71    6.04
  13  -7  14   12.85    4.63
  13   7  14   10.67    4.17
  13  -7  15   11.33    6.06
  13   7  15    7.90    3.50
  13   8 -11    6.35    2.05
  13  -8 -11   -0.03    2.60
  13  -8 -11    2.80    3.06
  13   8 -10    3.66    2.33
  13  -8 -10    4.28    3.66
  13  -8 -10    2.82    2.77
  13   8  -9    0.29    2.87
  13  -8  -9    5.93    3.74
  13  -8  -9    0.59    1.40
  13   8  -8    2.05    1.77
  13  -8  -8   -3.28    4.31
  13  -8  -8    7.46    3.71
  13  -8  -7    8.43    4.52
  13   8  -7    9.81    4.93
  13  -8  -7    6.35    3.75
  13  -8  -6    3.01    2.46
  13   8  -6    2.46    2.54
  13  -8  -6   -0.21    2.76
  13  -8  -5    2.76    4.07
  13   8  -5   -0.40    2.00
  13  -8  -5    5.72    4.63
  13  -8  -4   -1.37    2.23
  13   8  -4    0.44    2.15
 -13   8  -4   -3.75    4.10
  13  -8  -4    2.04    2.40
  13  -8  -3    0.78    2.82
  13   8  -3    2.95    2.62
  13  -8  -3    3.95    2.38
  13  -8  -2    6.29    4.46
  13   8  -2    3.26    3.24
  13  -8  -2    3.88    2.60
  13  -8  -1    2.10    2.35
  13   8  -1   -1.12    3.45
  13  -8  -1    0.63    4.60
  13  -8   0    3.83    3.65
  13   8   0    0.30    2.42
  13  -8   0    1.28    2.90
  13   8   0    1.96    3.90
  13  -8   1    2.96    4.51
  13   8   1    0.40    2.62
  13  -8   1   -3.83    4.68
  13   8   1    0.45    3.05
  13  -8   2    4.25    3.71
  13   8   2    3.28    3.06
  13  -8   2    2.68    3.33
  13   8   2    3.72    3.43
  13  -8   3    3.04    4.81
  13   8   3    5.70    3.38
  13  -8   3    1.58    4.48
  13   8   3    3.51    3.27
  13  -8   4   -1.51    3.15
  13   8   4    3.32    4.13
  13  -8   4    4.47    3.81
  13   8   4    3.74    3.13
  13  -8   5    7.23    4.41
  13   8   5    4.02    1.98
  13  -8   5    0.94    2.39
  13   8   5    7.01    4.65
  13  -8   6    9.91    6.40
  13   8   6    2.40    1.77
  13  -8   6    5.29    2.77
  13   8   6    4.55    3.10
  13   8   7    2.78    2.99
  13  -8   7    6.39    4.66
  13  -8   7    1.01    3.27
  13   8   7    9.11    4.72
  13   8   8   -3.00    3.08
  13  -8   8    5.52    3.76
  13  -8   8   -2.57    3.09
  13   8   8    7.82    3.25
  13   8   9   -0.22    3.43
  13  -8   9   -3.16    3.14
  13  -8   9    9.82    6.55
  13   8   9    7.28    4.22
  13   8  10   -1.81    2.61
  13  -8  10   -2.12    3.11
  13   8  10   -6.91    3.97
  13   8  11    1.41    1.63
  13  -8  11   -1.53    3.32
  13   8  11    1.10    1.59
  13  -9  -3   13.10    3.79
  13   9  -3    6.07    3.15
 -13   9  -3    2.31    3.74
  13  -9  -3   -0.42    3.79
  13  -9  -2   -4.31    2.33
  13   9  -2    3.26    4.24
 -13   9  -2    9.41    4.18
  13  -9  -2    8.15    5.30
  13  -9  -1    6.79    2.80
  13   9  -1    3.66    3.88
 -13   9  -1    1.18    1.64
  13  -9  -1    0.78    3.83
  13   9   0    3.47    3.08
 -13   9   0   11.59    3.43
  13  -9   0    7.58    4.18
  13  -9   1    1.02    1.85
  13   9   1    5.47    4.50
 -13   9   1    1.73    2.06
  13  -9   1    1.60    2.15
  13  -9   2   -0.76    2.46
  13   9   2   11.29    5.24
 -13   9   2    6.03    2.38
  13  -9   2    4.21    5.62
  13   9   2    3.78    2.35
  13  -9   3   -5.10    3.86
  13   9   3    5.04    4.89
 -13   9   3    9.25    5.36
  13  -9   3   -0.60    3.44
  13   9   3   -0.27    2.22
  14   0 -21   12.20    7.54
  14   0 -20   20.27    5.18
  14   0 -19    8.98    4.13
  14   0 -18   -2.97    3.48
  14   0 -17   13.07    5.72
  14   0 -16   81.04   11.81
  14   0 -15    8.75    4.09
  14   0 -14   34.91    7.31
  14   0 -13   80.25   11.40
  14   0 -12  116.18   13.44
  14   0 -11   13.08    4.95
  14   0 -10  147.98   14.00
  14   0 -10  124.57   13.57
  14   0  -9   16.29    4.66
  14   0  -9   19.56    5.35
  14   0  -8   17.77    5.10
  14   0  -8   18.80    5.99
  14   0  -7  171.97   14.81
  14   0  -7  143.77   14.40
  14   0  -6  237.90   17.45
  14   0  -6  295.37   20.16
  14   0  -5  110.93   12.29
  14   0  -5  105.44   12.59
  14   0  -4  195.46   15.62
  14   0  -4  193.12   16.37
  14   0  -3   94.24   11.01
  14   0  -3   94.33   11.25
  14   0  -2   55.47    8.47
  14   0  -2   50.24    8.53
  14   0  -1   97.55   11.02
  14   0  -1   88.25   11.21
  14   0   0  160.30   14.17
  14   0   0  168.28   15.12
  14   0   0  171.40   14.76
  14   0   1   87.22   10.58
  14   0   1   73.45   10.30
  14   0   1   82.55   10.49
  14   0   2   68.98    9.84
  14   0   2   64.07    9.55
  14   0   2   56.12    8.19
  14   0   3   92.85   11.17
  14   0   3   94.81   11.92
  14   0   3  108.18   11.99
  14   0   4  215.48   16.63
  14   0   4  216.85   17.35
  14   0   4  199.06   15.53
  14   0   5  102.98   11.72
  14   0   5  116.02   12.16
  14   0   6  215.61   17.15
  14   0   6  293.20   19.05
  14   0   7  179.45   15.46
  14   0   8   25.57    5.98
  14   0   9   23.71    5.79
  14   0  10  145.43   13.90
  14   0  11   10.66    4.16
  14   0  12  157.71   14.99
  14   0  13   80.85   10.74
  14   0  14   28.93    6.94
  14   0  15    7.72    4.29
  14   0  16   70.47   10.49
  14   0  17    3.04    3.23
  14   0  18    3.55    4.61
  14   0  19    2.67    2.03
  14   0  20   29.96    6.87
  14   0  21   22.39    6.49
  14   0  22   12.52    4.92
  14   0  23   11.92    5.80
  14  -1 -22    3.79    3.07
  14  -1 -21    0.15    2.72
  14  -1 -20   -0.04    2.12
  14  -1 -19    6.40    3.23
  14  -1 -18    3.51    3.33
  14  -1 -17   -0.22    2.78
  14   1 -16   14.29    6.91
  14  -1 -16    5.05    2.70
  14   1 -15    7.82    2.94
  14  -1 -15   24.61    6.51
  14   1 -14   -0.31    2.39
  14  -1 -14    5.01    4.48
  14   1 -13    0.54    1.90
  14  -1 -13    3.63    4.06
  14   1 -12    2.18    2.17
  14  -1 -12   -0.98    3.30
  14  -1 -11    1.31    1.35
  14  -1 -11   -0.92    1.56
  14   1 -11   -1.46    2.34
  14  -1 -10    6.75    3.32
  14  -1 -10    4.61    2.67
  14   1 -10   10.69    2.84
  14  -1  -9   17.75    5.11
  14   1  -9   22.05    5.33
  14  -1  -9   17.51    5.26
  14   1  -9   13.85    3.70
  14   1  -9   21.86    5.74
  14  -1  -8    4.60    3.31
  14   1  -8    6.56    3.43
  14  -1  -8    3.08    1.43
  14   1  -8    5.54    3.77
  14   1  -8    3.78    3.58
  14  -1  -7   38.71    7.40
  14   1  -7   43.02    7.45
  14  -1  -7   31.64    6.75
  14   1  -7   26.19    6.30
  14   1  -7   40.12    7.54
  14  -1  -6    0.55    1.21
  14   1  -6    4.79    2.89
  14  -1  -6    7.65    4.60
  14   1  -6    0.74    3.17
  14   1  -6    2.69    3.23
  14  -1  -5   -0.49    1.42
  14   1  -5    0.68    1.89
  14  -1  -5    0.61    2.26
  14   1  -5    1.74    3.65
  14   1  -5    3.90    4.31
  14  -1  -4   16.58    4.30
  14   1  -4   15.76    3.93
  14  -1  -4   13.30    4.64
  14   1  -4   15.82    5.38
  14   1  -4    6.74    2.39
  14  -1  -3   10.89    3.98
  14  -1  -3   11.67    4.18
  14   1  -3   19.02    4.55
  14   1  -3   12.26    4.14
  14   1  -3    8.45    2.78
  14  -1  -2   49.98    7.67
  14   1  -2   55.79    8.21
  14  -1  -2   64.76    9.56
  14   1  -2   59.54    9.02
  14   1  -2   60.72    8.90
  14  -1  -1   63.12    8.90
  14   1  -1   77.37   10.01
  14  -1  -1   59.36   10.03
  14   1  -1   72.54   10.51
  14   1  -1   68.72    9.33
  14  -1   0   71.55    9.96
  14   1   0   61.15    8.71
  14  -1   0   49.49    8.35
  14   1   0   41.58    6.69
  14   1   0   45.94    7.23
  14  -1   1   66.36    9.32
  14   1   1   66.76    9.44
  14  -1   1   63.09    9.74
  14   1   1   81.79   11.05
  14   1   1   48.81    8.05
  14  -1   2   70.47    9.70
  14   1   2   60.37    9.22
  14  -1   2   52.90    8.25
  14   1   2   59.26    9.01
  14   1   2   58.23    8.15
  14  -1   3   10.92    4.63
  14  -1   3    6.30    2.87
  14   1   3   11.83    3.77
  14   1   3   11.94    4.65
  14   1   3   17.34    4.98
  14   1   4   17.64    4.50
  14  -1   4   20.46    5.01
  14  -1   4   18.45    5.58
  14   1   4   16.54    4.66
  14   1   5    0.11    1.83
  14  -1   5    3.39    2.93
  14  -1   5    0.18    2.47
  14   1   5   -0.64    1.88
  14   1   6    2.21    2.37
  14   1   6    2.02    2.00
  14  -1   7   37.30    7.16
  14   1   7   39.14    7.28
  14   1   7   38.78    6.78
  14   1   8    5.26    3.51
  14  -1   8    5.90    5.03
  14   1   8    6.64    2.92
  14   1   9   20.75    5.75
  14  -1   9   17.75    4.63
  14   1   9   21.74    5.63
  14   1  10    5.75    1.47
  14  -1  10    8.15    4.73
  14   1  10    3.56    2.64
  14   1  11    1.11    1.56
  14  -1  11   -0.88    1.32
  14   1  11   -2.63    3.28
  14   1  12   -0.08    1.41
  14  -1  12    1.17    1.38
  14   1  13    0.82    1.85
  14  -1  13    2.00    1.95
  14   1  14   -0.60    1.95
  14  -1  14    2.54    2.55
  14   1  15    4.61    2.72
  14  -1  15    4.59    2.84
  14   1  16    3.92    2.57
  14  -1  16    7.98    4.42
  14   1  17    1.86    3.57
  14  -1  17   -3.10    3.95
  14   1  18   20.35    5.19
  14  -1  18    7.14    2.19
  14   1  19    7.82    5.11
  14  -1  19    5.11    3.65
  14   1  20    2.26    1.19
  14  -1  20    2.12    3.10
  14   1  21    2.86    2.97
  14  -1  21    1.29    3.18
  14   1  22    2.12    1.42
  14  -1  22    4.51    3.83
  14  -2 -22   11.45    5.13
  14  -2 -21   19.79    5.20
  14  -2 -20   20.12    6.35
  14  -2 -19    4.26    4.06
  14  -2 -18   -0.24    2.12
  14  -2 -17   11.57    5.23
  14  -2 -16   44.37    9.27
  14  -2 -15   15.38    4.87
  14  -2 -14   80.72   11.51
  14   2 -14   64.15   10.14
  14  -2 -13   20.25    6.22
  14  -2 -13   18.19    5.24
  14   2 -13   19.33    5.54
  14  -2 -12   50.68    9.02
  14   2 -12   47.14    8.19
  14  -2 -12   49.32    8.52
  14  -2 -11    7.35    2.56
  14  -2 -11    7.80    3.35
  14   2 -11   14.04    4.79
  14   2 -11    7.97    2.72
  14  -2 -10   48.81    8.64
  14  -2 -10   65.50    9.53
  14   2 -10   63.86    9.35
  14   2 -10   61.45    9.58
  14  -2  -9   81.36   10.91
  14  -2  -9   82.08   11.31
  14   2  -9   78.84   10.53
  14   2  -9   74.26   10.55
  14  -2  -8   18.73    5.40
  14   2  -8   23.24    5.53
  14  -2  -8   19.24    5.61
  14   2  -8   29.81    7.20
  14   2  -8   17.35    4.22
  14  -2  -7   11.24    3.48
  14  -2  -7   17.90    5.68
  14   2  -7   13.50    4.04
  14   2  -7   16.59    4.59
  14   2  -7   27.90    6.30
  14  -2  -6   58.70    9.29
  14   2  -6   74.38    9.39
  14  -2  -6   82.60   10.70
  14   2  -6   67.21    9.53
  14   2  -6   81.59   10.46
  14  -2  -5   65.61    9.47
  14   2  -5   88.10   10.49
  14  -2  -5   85.94   11.30
  14   2  -5   71.24   10.10
  14   2  -5   80.80   10.06
  14  -2  -4  103.16   11.67
  14   2  -4   84.29   10.04
  14  -2  -4  108.47   12.64
  14   2  -4  102.77   11.58
  14   2  -4   93.69   11.09
  14  -2  -3   26.35    5.41
  14  -2  -3   16.77    4.96
  14   2  -3   27.48    6.19
  14   2  -3   21.14    5.65
  14   2  -3   33.92    6.58
  14  -2  -2   14.98    4.63
  14  -2  -2   13.39    4.70
  14   2  -2   14.16    4.45
  14   2  -2   12.16    3.77
  14   2  -2   12.95    4.55
  14   2  -1   11.43    4.04
  14  -2  -1    9.73    3.39
  14  -2  -1    9.22    3.72
  14   2  -1   17.72    4.81
  14   2  -1   12.14    3.79
  14  -2   0  193.85   15.98
  14   2   0  216.43   16.71
  14  -2   0  188.38   16.93
  14   2   0  224.23   17.45
  14   2   0  206.22   16.10
  14   2   1    3.53    1.74
  14  -2   1   18.73    5.39
  14  -2   1   12.72    3.80
  14   2   1   12.43    4.78
  14   2   1   13.39    4.47
  14   2   2   17.48    5.21
  14  -2   2    6.95    2.39
  14  -2   2   11.89    4.58
  14   2   2   11.70    3.94
  14   2   2   19.07    4.96
  14   2   3   23.21    5.38
  14  -2   3   29.13    6.68
  14  -2   3   37.27    7.86
  14   2   3   17.11    4.67
  14  -2   4  118.03   12.54
  14   2   4   99.19   11.72
  14  -2   4  104.73   12.69
  14   2   4   93.31   11.19
  14  -2   5   73.50   10.01
  14   2   5   71.04    9.90
  14  -2   5   57.52    9.05
  14   2   5   69.78    9.26
  14  -2   6   75.58   10.22
  14   2   6   92.69   10.59
  14  -2   6   57.70    9.17
  14   2   6   85.63   10.80
  14   2   7   18.91    5.01
  14  -2   7   22.58    5.83
  14  -2   7   13.56    3.89
  14   2   7   17.29    4.94
  14   2   8   28.05    6.76
  14  -2   8   22.35    5.71
  14   2   8   18.91    5.59
  14  -2   9   73.00   10.04
  14   2   9   94.67   11.10
  14   2   9   93.13   10.95
  14  -2  10   56.25    9.36
  14   2  10   57.26    9.18
  14   2  11    5.66    4.05
  14  -2  11    3.12    2.43
  14   2  11    3.87    2.52
  14  -2  12   59.61    9.80
  14   2  12   53.60    8.32
  14   2  12   65.01    9.88
  14   2  13   14.86    4.91
  14  -2  13   18.32    5.17
  14  -2  14   68.61    9.99
  14   2  14   72.23   10.34
  14   2  15   23.73    6.26
  14  -2  15   17.07    4.60
  14  -2  16   51.00    9.19
  14   2  16   58.56    9.62
  14   2  17   21.05    6.35
  14  -2  17    9.59    4.49
  14   2  18    7.53    3.97
  14  -2  18    0.59    1.92
  14   2  19    9.95    2.95
  14  -2  19    4.40    2.93
  14   2  20   23.26    6.90
  14  -2  20   29.73    7.32
  14   2  21   18.56    6.44
  14  -2  21   22.92    5.79
  14   2  22    8.28    3.35
  14  -2  22    9.21    3.97
  14  -3 -21    0.21    2.32
  14  -3 -20    6.84    3.30
  14  -3 -19    3.72    4.22
  14  -3 -18   -1.10    3.01
  14  -3 -17   -1.90    2.47
  14   3 -17   -0.31    3.00
  14  -3 -16   14.30    6.36
  14   3 -16   10.80    3.67
  14  -3 -15    5.01    3.93
  14   3 -15   10.22    3.94
  14  -3 -14    8.38    3.97
  14  -3 -14    2.20    1.60
  14   3 -14    9.32    4.01
  14  -3 -13    7.47    2.98
  14  -3 -13   10.77    4.57
  14   3 -13    1.55    1.90
  14  -3 -12    4.92    3.27
  14  -3 -12    9.18    4.24
  14   3 -12    3.95    2.33
  14  -3 -11    1.78    2.09
  14  -3 -11    6.57    5.18
  14   3 -11    0.99    1.67
  14  -3 -10   47.24    8.82
  14   3 -10   52.06    7.88
  14  -3 -10   50.76    8.88
  14  -3  -9    5.88    3.09
  14  -3  -9    8.42    4.11
  14   3  -9   11.82    3.85
  14  -3  -8    0.39    2.13
  14  -3  -8   -0.22    1.79
  14   3  -8   -1.51    2.54
  14  -3  -7    2.45    2.68
  14  -3  -7    0.78    1.82
  14   3  -7   -1.75    1.58
  14   3  -7    3.49    2.04
  14  -3  -6    9.66    3.73
  14  -3  -6    5.37    1.90
  14   3  -6   10.34    3.92
  14   3  -6   12.28    3.38
  14  -3  -5   20.12    4.71
  14   3  -5   26.17    7.68
  14  -3  -5   16.20    6.05
  14   3  -5   13.81    4.14
  14   3  -5   13.39    5.58
  14   3  -4   -0.87    1.95
  14   3  -4    1.96    3.56
  14  -3  -4    5.71    4.01
  14  -3  -4    2.57    3.00
  14   3  -4    0.55    1.48
  14   3  -3   19.98    4.97
  14   3  -3   26.17    6.20
  14  -3  -3   14.94    4.50
  14  -3  -3   18.23    5.99
  14   3  -3   16.01    5.23
  14  -3  -2  127.03   13.08
  14   3  -2  134.31   13.08
  14  -3  -2  135.29   14.80
  14   3  -2  114.31   12.57
  14   3  -2  134.02   13.34
  14   3  -1   24.14    5.42
  14   3  -1   32.29    6.38
  14  -3  -1   28.91    6.17
  14  -3  -1   23.28    7.07
  14   3  -1   26.69    6.26
  14  -3   0   90.69   10.62
  14  -3   0  104.83   12.33
  14   3   0   87.72   10.61
  14   3   0  134.24   13.52
  14   3   0  140.21   13.73
  14   3   1   26.56    6.09
  14   3   1   27.59    5.68
  14  -3   1   24.22    5.45
  14  -3   1   25.79    5.84
  14   3   1   21.75    6.47
  14  -3   2  128.10   13.09
  14  -3   2  112.81   13.17
  14   3   2  138.22   13.47
  14   3   2  117.20   12.46
  14   3   3   22.32    5.67
  14   3   3   19.59    5.70
  14  -3   3   15.01    4.81
  14  -3   3   16.71    5.51
  14   3   4    3.24    1.67
  14   3   4    3.67    1.75
  14  -3   4    1.76    1.96
  14  -3   4   -0.95    2.51
  14   3   5   17.16    4.87
  14   3   5   24.61    6.00
  14  -3   5   17.77    5.40
  14  -3   5   28.98    6.17
  14   3   6   12.85    4.35
  14   3   6    3.54    3.37
  14  -3   6   10.25    4.06
  14  -3   6    9.24    4.57
  14   3   7    2.48    1.88
  14   3   7    8.62    3.97
  14  -3   7    3.31    3.27
  14  -3   7    4.23    2.90
  14   3   8   -1.32    1.58
  14   3   8    1.07    2.19
  14  -3   8    0.41    2.20
  14  -3   8    1.05    2.04
  14   3   9    0.93    1.83
  14   3   9    5.27    2.98
  14  -3   9    4.10    2.68
  14  -3   9    4.42    3.68
  14   3  10   40.67    7.65
  14   3  10   34.39    7.33
  14  -3  10   38.45    7.67
  14   3  11    2.20    2.69
  14  -3  11    5.79    2.36
  14   3  12    5.31    4.05
  14   3  12    2.64    2.40
  14  -3  12    5.14    3.89
  14   3  13    5.50    4.11
  14  -3  13    7.30    4.54
  14   3  14    7.92    2.99
  14  -3  14    8.09    4.87
  14   3  15   12.26    4.29
  14  -3  15    9.15    5.27
  14   3  16    6.98    5.28
  14  -3  16   15.41    6.28
  14   3  17    1.60    3.93
  14  -3  17   -1.19    2.26
  14   3  18    2.35    2.15
  14  -3  18    1.68    1.79
  14   3  19    2.07    2.43
  14  -3  19    6.31    4.62
  14   3  20    5.11    3.43
  14  -3  20    4.03    4.61
  14   3  21    0.79    2.67
  14  -3  21    1.82    2.19
  14  -4 -20   32.52    7.62
  14   4 -20   48.46    9.96
  14  -4 -19    1.15    2.31
  14   4 -19    0.49    2.37
  14  -4 -18   11.74    4.67
  14   4 -18    9.13    5.50
  14  -4 -17   25.39    7.20
  14   4 -17   32.96    7.33
  14  -4 -16   30.16    7.09
  14   4 -16   30.82    7.03
  14  -4 -15   13.72    6.32
  14  -4 -15   15.47    5.43
  14   4 -15   16.89    5.73
  14  -4 -14   29.17    6.96
  14  -4 -14   48.18    9.14
  14   4 -14   36.36    7.51
  14  -4 -13   13.71    4.62
  14  -4 -13    9.35    4.29
  14   4 -13    8.75    4.41
  14  -4 -12   35.56    8.12
  14  -4 -12   43.10    8.33
  14   4 -12   39.53    7.32
  14  -4 -11   38.20    7.81
  14  -4 -11   68.62   10.57
  14   4 -11   64.07    9.63
  14  -4 -10   29.47    7.14
  14  -4 -10   41.58    7.83
  14   4 -10   25.62    6.32
  14  -4  -9   53.45    9.38
  14   4  -9   67.52    9.97
  14  -4  -9   58.18    9.70
  14   4  -8   23.31    6.28
  14  -4  -8   25.29    6.21
  14  -4  -8   19.78    5.17
  14   4  -7    5.45    3.24
  14  -4  -7    8.39    4.08
  14  -4  -7   13.35    4.72
  14  -4  -6   84.92   11.12
  14  -4  -6   88.48   11.26
  14   4  -6   88.66   11.23
  14   4  -5   21.39    5.50
  14   4  -5   17.27    4.31
  14  -4  -5   21.02    6.35
  14  -4  -5   16.73    5.82
  14  -4  -4   73.64   10.43
  14  -4  -4   71.61   10.26
  14   4  -4   77.14    9.90
  14   4  -4   73.16   10.07
  14   4  -3   40.48    7.44
  14  -4  -3   59.25    9.54
  14  -4  -3   54.72    9.60
  14   4  -3   61.02    9.02
  14   4  -2    6.76    2.39
  14   4  -2   16.36    4.40
  14  -4  -2   10.82    3.63
  14  -4  -2   12.60    4.49
  14   4  -1   40.02    7.29
  14  -4  -1   20.07    6.08
  14  -4  -1   26.27    7.12
  14   4  -1   42.28    8.63
  14  -4   0  466.70   25.66
  14  -4   0  471.31   26.93
  14   4   0  449.98   24.62
  14   4   0  466.22   25.37
  14   4   1   34.01    6.80
  14   4   1   23.99    6.30
  14  -4   1   29.59    6.89
  14  -4   1   19.30    5.17
  14   4   1   26.58    6.70
  14   4   2   13.67    4.84
  14  -4   2    8.26    3.69
  14  -4   2   18.98    6.07
  14  -4   3   42.10    7.66
  14  -4   3   52.21    9.26
  14   4   3   54.70    8.60
  14   4   3   60.71    9.08
  14  -4   4   89.01   11.69
  14  -4   4   67.83   10.34
  14   4   4   66.78    9.99
  14   4   4   54.61    9.13
  14   4   5   29.01    7.02
  14   4   5   14.32    4.80
  14  -4   5   29.83    6.27
  14  -4   5   13.27    4.10
  14  -4   6   71.03   10.16
  14  -4   6   82.72   11.88
  14   4   6   74.56   10.22
  14   4   6   96.89   11.47
  14   4   7    8.57    2.89
  14   4   7   10.40    3.70
  14  -4   7   10.53    2.11
  14  -4   7   13.74    4.96
  14   4   8   21.57    5.84
  14   4   8   18.29    5.85
  14  -4   8   20.23    5.50
  14  -4   8   14.40    4.83
  14   4   9   74.91   10.31
  14  -4   9   57.32    9.55
  14  -4   9   69.90   11.03
  14   4   9   66.61   10.11
  14   4  10   32.56    7.03
  14   4  10   34.57    6.65
  14  -4  10   30.04    6.74
  14  -4  10   32.06    7.89
  14   4  11   69.01   10.05
  14   4  11   48.79    8.42
  14  -4  11   54.12    9.55
  14  -4  11   47.69    9.06
  14   4  12   46.86    8.67
  14   4  12   35.55    6.84
  14  -4  12   51.72    9.03
  14  -4  12   36.97    8.09
  14   4  13    6.29    3.92
  14   4  13   13.34    4.74
  14  -4  13   14.88    5.94
  14   4  14   39.76    7.81
  14  -4  14   26.52    7.44
  14   4  15   13.38    3.41
  14  -4  15   22.70    6.56
  14   4  16   51.90    9.50
  14  -4  16   33.03    7.73
  14   4  17   26.55    6.66
  14  -4  17   33.18    8.04
  14   4  18   10.94    5.37
  14  -4  18   -1.45    3.01
  14   4  19    2.87    1.45
  14  -4  19    5.03    4.60
  14   4  20   23.71    6.64
  14  -4  20   30.88    7.60
  14  -5 -18    1.96    1.15
  14   5 -18    1.74    3.05
  14  -5 -17    4.18    2.80
  14   5 -17    2.71    2.32
  14  -5 -16   10.31    4.95
  14   5 -16    6.29    3.26
  14  -5 -16    4.04    2.17
  14  -5 -15   -2.13    3.95
  14   5 -15    3.39    3.91
  14  -5 -15   -4.64    4.80
  14  -5 -14   -0.72    2.71
  14   5 -14    3.97    2.38
  14  -5 -13    6.48    4.11
  14  -5 -13    6.31    4.06
  14   5 -13    3.43    2.76
  14   5 -12   24.56    5.79
  14  -5 -12   19.20    4.71
  14  -5 -12    7.98    4.66
  14   5 -11   12.00    4.29
  14  -5 -11   15.62    4.39
  14  -5 -11    1.17    2.01
  14   5 -10   13.75    5.54
  14  -5 -10   12.55    4.40
  14  -5 -10    8.98    4.26
  14   5  -9    1.28    2.05
  14  -5  -9   15.42    5.49
  14  -5  -9   12.88    6.24
  14   5  -8    2.47    2.33
  14  -5  -8    0.97    1.31
  14  -5  -8    5.71    3.48
  14   5  -7    7.37    3.95
  14  -5  -7   12.16    5.31
  14  -5  -7    4.23    3.62
  14   5  -6   -0.84    1.78
  14  -5  -6   -0.59    1.49
  14  -5  -6   -1.31    3.37
  14   5  -5    4.02    3.57
  14  -5  -5   -0.99    1.97
  14  -5  -5    0.01    3.42
  14   5  -4   13.48    3.84
  14  -5  -4   15.19    5.40
  14   5  -4   15.94    4.22
  14  -5  -4   16.18    5.85
  14   5  -3    0.85    2.55
  14  -5  -3    8.22    2.83
  14   5  -3    7.41    4.06
  14  -5  -3    7.98    2.82
  14   5  -2   11.98    4.57
  14  -5  -2   16.84    4.87
  14   5  -2    7.77    4.01
  14  -5  -2    6.03    2.17
  14  -5  -1   47.44    8.83
  14   5  -1   42.88    7.89
  14   5  -1   36.29    7.07
  14  -5  -1   50.65    9.05
  14  -5   0   95.63   11.80
  14  -5   0  112.00   13.51
  14   5   0   87.87   11.42
  14   5   0   90.66   11.01
  14   5   1   48.01    8.22
  14  -5   1   45.08    7.98
  14   5   1   31.81    7.27
  14  -5   1   62.24    9.70
  14   5   2    3.63    3.30
  14  -5   2    9.93    4.22
  14   5   2    9.04    4.18
  14  -5   2    8.11    3.28
  14  -5   3    2.59    2.85
  14   5   3    7.09    3.02
  14  -5   3    5.60    2.92
  14   5   4   20.03    4.83
  14  -5   4   10.54    2.04
  14   5   4   10.05    3.35
  14  -5   4   21.20    5.99
  14   5   5    0.54    2.21
  14  -5   5   -1.81    2.69
  14   5   5    4.09    3.25
  14  -5   5    2.23    3.78
  14   5   6    0.92    1.69
  14  -5   6   -3.56    2.72
  14   5   6    2.95    3.04
  14  -5   6    1.61    3.84
  14   5   7    4.80    1.84
  14  -5   7    7.43    3.11
  14   5   7    6.23    1.71
  14  -5   7   12.09    3.87
  14   5   8    4.96    4.01
  14  -5   8    2.55    2.23
  14   5   8    2.63    1.22
  14  -5   8    7.58    4.24
  14   5   9   14.56    5.43
  14  -5   9   14.62    4.95
  14   5   9   15.27    5.36
  14  -5   9    7.36    3.84
  14   5  10   15.99    4.72
  14  -5  10   12.57    4.67
  14   5  10   18.48    5.38
  14  -5  10   18.98    6.31
  14   5  11   17.99    6.36
  14  -5  11   16.09    4.79
  14   5  11   15.88    5.36
  14  -5  11    9.81    3.88
  14   5  12    7.45    4.32
  14  -5  12   12.29    4.82
  14   5  12   23.23    6.51
  14  -5  12   11.50    3.93
  14   5  13    4.80    2.81
  14  -5  13    8.13    4.02
  14   5  13    5.27    2.57
  14  -5  13    6.23    3.12
  14  -5  14    9.41    4.60
  14   5  14    6.28    4.63
  14  -5  14    2.35    3.10
  14  -5  15   -1.75    3.04
  14   5  15    1.14    1.70
  14  -5  15   -1.10    2.00
  14  -5  16    1.42    2.91
  14   5  16   15.88    5.75
  14  -5  16   11.69    6.54
  14  -5  17   -0.49    1.86
  14   5  17    0.63    1.75
  14  -5  17    2.78    3.43
  14  -5  18   -0.57    2.43
  14   5  18    1.60    1.65
  14  -6 -16   23.35    5.97
  14  -6 -16   16.22    5.51
  14   6 -16   23.89    6.90
  14  -6 -15    3.27    3.70
  14  -6 -15    3.51    3.26
  14   6 -15   -1.08    2.36
  14   6 -14    8.04    4.73
  14  -6 -14    7.38    4.75
  14  -6 -14    1.30    2.87
  14  -6 -13    6.13    4.13
  14   6 -13   12.82    5.24
  14  -6 -13   14.63    5.94
  14  -6 -12   24.38    7.06
  14   6 -12   12.29    5.83
  14  -6 -12   19.31    6.09
  14   6 -11    6.59    4.90
  14  -6 -11   11.97    5.55
  14  -6 -11    9.92    3.59
  14  -6 -10   90.57   12.84
  14  -6 -10   80.90   11.95
  14   6 -10   62.38    9.69
  14   6  -9   33.00    7.64
  14  -6  -9   19.28    5.16
  14  -6  -9   21.44    6.81
  14   6  -8    0.64    1.77
  14  -6  -8   10.54    5.14
  14  -6  -8    6.50    3.62
  14   6  -7   19.01    5.26
  14  -6  -7   17.07    5.10
  14  -6  -7   18.51    6.22
  14  -6  -6  103.11   13.12
  14  -6  -6  109.33   13.19
  14   6  -6  104.38   12.68
  14   6  -5   -2.77    3.41
  14  -6  -5   -0.74    1.86
  14  -6  -5    1.60    1.74
  14  -6  -4   57.90    9.72
  14  -6  -4   56.70    9.62
  14   6  -4   74.65   11.29
  14   6  -3   34.77    8.05
  14  -6  -3   36.56    7.25
  14  -6  -3   26.01    6.77
  14  -6  -2   17.00    5.21
  14   6  -2   11.85    4.79
  14  -6  -2   31.60    7.39
  14   6  -2   38.94    8.62
  14   6  -1   32.16    7.01
  14  -6  -1   27.25    7.19
  14   6  -1   23.04    6.01
  14  -6  -1   42.84    8.77
  14  -6   0  204.41   17.75
  14   6   0  203.79   18.09
  14  -6   0  210.30   18.29
  14   6   1   28.52    6.87
  14  -6   1   16.42    5.38
  14   6   1   28.73    6.97
  14   6   2   15.20    5.60
  14  -6   2   18.16    5.31
  14   6   2   19.50    5.35
  14  -6   2   31.18    7.27
  14   6   3   40.55    8.34
  14   6   3   28.07    6.33
  14  -6   3   38.56    8.24
  14  -6   3   39.57    8.55
  14  -6   4   86.50   11.53
  14   6   4   49.43    8.90
  14  -6   4   65.88   10.97
  14   6   4   69.48   10.20
  14   6   5    5.97    4.49
  14  -6   5    4.78    3.81
  14   6   5    0.97    3.27
  14  -6   5    3.29    3.28
  14  -6   6   97.98   12.22
  14   6   6  109.80   12.68
  14  -6   6  105.96   14.00
  14   6   6   89.70   11.70
  14   6   7   15.54    5.56
  14  -6   7   20.09    5.66
  14   6   7   22.47    5.94
  14  -6   7   16.73    6.36
  14   6   8   13.34    4.80
  14  -6   8    0.29    2.23
  14   6   8    8.58    4.45
  14  -6   8   15.91    5.92
  14   6   9   27.86    7.00
  14  -6   9   21.85    6.29
  14   6   9   18.05    5.58
  14  -6   9   16.40    4.70
  14  -6  10   84.86   11.49
  14   6  10   93.91   11.77
  14  -6  10   83.21   12.52
  14   6  10   81.14   11.77
  14   6  11   12.39    5.47
  14  -6  11    7.03    3.14
  14   6  11   14.88    4.28
  14   6  12   25.51    6.82
  14  -6  12   23.99    6.83
  14   6  12   24.91    6.20
  14  -6  12   29.50    8.07
  14   6  13   -0.22    3.60
  14  -6  13    7.63    5.10
  14   6  13    5.25    3.82
  14  -6  14    5.81    4.97
  14   6  14   -2.52    4.09
  14  -6  14   12.01    5.05
  14  -6  15    5.80    4.66
  14   6  15    8.31    3.73
  14  -6  15    5.56    4.83
  14  -6  16   20.23    8.11
  14   6  16   23.58    5.56
  14  -6  16   37.12    8.06
  14   7 -13   -1.72    3.88
  14  -7 -13   -4.67    4.15
  14  -7 -13    7.04    4.89
  14   7 -12    7.63    3.74
  14  -7 -12    7.13    2.99
  14  -7 -12    6.60    4.53
  14  -7 -11   -2.03    3.45
  14  -7 -11   -0.07    2.04
  14  -7 -10    2.75    2.99
  14   7 -10    3.78    3.10
  14  -7 -10    1.72    2.23
  14  -7  -9    3.34    3.17
  14   7  -9   -0.14    1.57
  14  -7  -9    3.25    3.28
  14  -7  -8    4.96    2.71
  14   7  -8   15.25    5.03
  14  -7  -8   12.20    4.26
  14  -7  -7    4.36    3.16
  14   7  -7   10.76    3.84
  14  -7  -7    8.72    4.48
  14   7  -6   24.11    6.14
  14  -7  -6   25.47    6.33
  14  -7  -6   18.22    6.55
  14   7  -5   13.99    4.90
  14  -7  -5   22.98    5.70
  14  -7  -5   12.00    4.57
  14   7  -4    5.78    4.35
  14  -7  -4    3.98    2.49
  14  -7  -4    7.55    3.59
  14   7  -3   10.81    4.07
  14  -7  -3    2.24    3.46
  14  -7  -3    8.10    1.79
  14   7  -2   11.29    3.27
  14  -7  -2   25.54    7.02
  14  -7  -2   17.95    5.02
  14   7  -1   -2.47    3.63
  14  -7  -1   -4.65    3.44
  14   7  -1    0.58    3.27
  14  -7  -1    0.09    2.40
  14   7   0   21.07    5.89
  14  -7   0   24.45    6.21
  14   7   0   26.84    7.14
  14   7   1    0.90    2.35
  14  -7   1    3.78    3.26
  14   7   1   -1.10    2.63
  14  -7   1   -0.67    3.05
  14   7   2   18.34    5.20
  14  -7   2   10.02    4.56
  14   7   2    7.78    4.15
  14  -7   2   16.58    5.92
  14  -7   3    7.62    3.42
  14   7   3    6.45    3.30
  14  -7   3    6.31    3.47
  14   7   4    3.17    3.50
  14  -7   4    1.31    2.10
  14  -7   4   -0.58    3.23
  14   7   5   29.56    7.01
  14  -7   5    9.25    4.02
  14   7   5   20.20    5.84
  14  -7   5   18.45    5.28
  14   7   6   12.35    4.90
  14  -7   6   14.91    5.65
  14   7   6   14.51    4.35
  14  -7   6   29.77    8.57
  14   7   7   -0.46    2.65
  14  -7   7    6.55    3.65
  14   7   7    5.89    3.78
  14  -7   7    4.14    4.83
  14   7   8    2.81    2.19
  14  -7   8    0.69    2.98
  14   7   8    9.65    3.50
  14  -7   8    8.27    5.19
  14   7   9   -2.76    4.53
  14  -7   9   -0.15    2.12
  14   7   9    4.50    2.89
  14  -7   9    1.98    1.71
  14   7  10    0.49    2.61
  14  -7  10   -1.41    2.95
  14   7  10    2.19    3.32
  14  -7  10    6.45    3.81
  14   7  11   -0.31    3.63
  14  -7  11    0.09    2.93
  14   7  11    6.37    4.09
  14  -7  11    2.02    2.93
  14   7  12    7.37    3.99
  14  -7  12   11.82    5.28
  14   7  12    7.95    4.02
  14  -7  12    7.58    3.94
  14   7  13   -1.10    4.50
  14  -7  13    6.86    2.15
  14   7  13    8.87    4.02
  14  -7  13    3.96    5.15
  14   8  -8    8.61    3.44
  14  -8  -8   11.20    4.39
  14  -8  -8    2.00    3.07
  14  -8  -7    4.67    4.16
  14   8  -7    0.95    2.24
  14  -8  -7    5.51    2.58
  14  -8  -6   13.44    4.79
  14   8  -6   12.71    4.68
  14  -8  -6    7.75    3.16
  14  -8  -5   -1.62    2.06
  14   8  -5    2.72    3.10
  14  -8  -4   20.55    5.93
  14   8  -4   25.53    6.76
  14  -8  -4   18.33    6.33
  14  -8  -3   11.34    4.72
  14   8  -3   15.94    6.08
  14  -8  -3    5.31    3.99
  14  -8  -2    0.09    2.13
  14   8  -2    5.40    3.90
  14  -8  -2    2.39    2.70
  14  -8  -1   12.44    4.11
  14   8  -1   11.58    4.92
  14  -8  -1    7.29    4.10
  14  -8   0    1.27    2.14
  14   8   0   -0.13    3.71
  14  -8   0    1.69    2.77
  14  -8   1   12.46    4.57
  14   8   1    5.03    3.06
  14   8   1    4.06    2.10
  14  -8   1   17.63    7.28
  14   8   2   -2.02    3.54
  14  -8   2    0.86    1.71
  14   8   2    3.30    3.34
  14  -8   2    4.27    4.04
  14   8   3    7.31    4.38
  14  -8   3    9.02    3.47
  14   8   3    5.52    3.47
  14  -8   3    2.23    2.18
  14   8   4   34.13    6.62
  14  -8   4   30.75    7.75
  14  -8   4   28.25    8.04
  14   8   4   28.48    7.31
  14   8   5    1.27    2.48
  14  -8   5    2.64    4.02
  14  -8   5   -0.54    2.37
  14   8   5    0.71    2.01
  14   8   6   14.81    5.74
  14  -8   6    9.61    4.30
  14  -8   6    9.86    5.25
  14   8   6   14.51    5.53
  14   8   7    5.73    3.90
  14  -8   7    5.72    2.89
  14  -8   7    8.69    5.59
  14   8   7    6.50    4.46
  14   8   8   10.40    5.68
  14  -8   8   12.52    5.35
  14  -8   8    0.31    3.74
  14   8   8    6.29    4.13
  15   0 -19   -4.55    3.56
  15   0 -18   -2.26    2.87
  15   0 -17    8.76    5.51
  15   0 -16    1.32    1.76
  15   0 -15    0.04    2.59
  15   0 -14    1.39    2.40
  15   0 -13    3.48    3.90
  15   0 -12   -1.63    1.42
  15   0 -11    2.85    3.92
  15   0 -10    2.52    2.90
  15   0 -10   -0.53    3.23
  15   0  -9   -2.73    3.81
  15   0  -9   -2.06    2.03
  15   0  -8   -0.17    1.67
  15   0  -8   -1.35    1.81
  15   0  -7   -0.46    2.86
  15   0  -7    1.74    3.65
  15   0  -6   -1.76    1.70
  15   0  -6   -2.43    2.26
  15   0  -5   -1.04    2.39
  15   0  -5    0.80    1.81
  15   0  -4   -0.80    1.90
  15   0  -4    2.60    2.37
  15   0  -3    1.32    2.26
  15   0  -3    0.06    2.05
  15   0  -2   -1.44    2.52
  15   0  -2    2.99    2.48
  15   0  -1    0.24    2.57
  15   0  -1   -1.11    2.21
  15   0   0    0.90    2.38
  15   0   0    1.94    2.46
  15   0   1    0.49    2.28
  15   0   1   -1.02    2.18
  15   0   2    0.97    1.23
  15   0   2   -0.18    2.01
  15   0   3    2.50    2.75
  15   0   3   -0.01    1.32
  15   0   4   -0.03    2.20
  15   0   4    0.76    1.25
  15   0   5   -0.68    2.54
  15   0   5    0.83    1.12
  15   0   6   -0.29    1.95
  15   0   7    0.04    1.28
  15   0   8    0.99    2.06
  15   0   9   -0.12    2.49
  15   0  10    2.37    1.31
  15   0  11    0.54    1.82
  15   0  12    1.17    2.10
  15   0  13    1.80    2.49
  15   0  14    0.45    1.67
  15   0  15    2.15    3.35
  15   0  16    3.25    2.29
  15   0  17    4.28    3.01
  15   0  18   -0.49    2.43
  15   0  19   -1.11    3.04
  15   0  20    1.19    4.17
  15   0  21    0.94    3.43
  15  -1 -21    1.96    2.99
  15  -1 -20    2.43    2.53
  15  -1 -19    9.53    3.96
  15  -1 -18   -0.28    1.95
  15  -1 -17   24.38    5.94
  15  -1 -16   19.29    5.43
  15  -1 -15   -0.32    1.64
  15   1 -14   12.40    4.92
  15  -1 -14   14.18    5.48
  15   1 -13  158.44   16.07
  15  -1 -13  160.41   16.15
  15   1 -12   24.10    6.20
  15  -1 -12   17.36    5.87
  15  -1 -11    2.49    3.14
  15  -1 -11    2.07    3.36
  15   1 -11    4.01    1.99
  15  -1 -10   10.83    4.11
  15  -1 -10    6.99    3.38
  15   1 -10   13.09    3.70
  15  -1  -9    3.80    1.47
  15  -1  -9   11.96    5.76
  15   1  -9    7.49    4.25
  15  -1  -8   32.32    7.58
  15   1  -8   25.89    5.79
  15   1  -8   39.51    8.51
  15  -1  -8   36.92    7.66
  15   1  -8   29.84    6.26
  15  -1  -7  129.49   13.43
  15   1  -7  105.74   12.21
  15  -1  -7  111.63   13.24
  15   1  -7   93.16   11.98
  15   1  -7  104.26   12.37
  15  -1  -6    5.86    2.55
  15   1  -6   10.94    3.93
  15  -1  -6    6.01    3.82
  15   1  -6    7.02    3.85
  15   1  -6   11.48    4.06
  15  -1  -5   24.79    6.04
  15   1  -5   26.29    6.30
  15  -1  -5   32.38    7.38
  15   1  -5   31.39    7.21
  15   1  -5   21.16    5.32
  15   1  -4   46.71    7.64
  15  -1  -4   35.64    7.00
  15  -1  -4   42.47    8.28
  15   1  -4   23.90    6.49
  15   1  -4   39.37    7.91
  15  -1  -3   68.85    9.82
  15   1  -3   64.53    9.14
  15  -1  -3   69.31   10.11
  15   1  -3   71.67   10.32
  15   1  -3   75.17    9.86
  15  -1  -2    4.32    3.40
  15   1  -2    3.07    1.59
  15  -1  -2   10.28    4.42
  15   1  -2    1.67    2.48
  15   1  -2    6.77    3.07
  15  -1  -1    2.58    3.49
  15  -1  -1    1.37    2.02
  15   1  -1   -0.25    2.37
  15   1  -1    0.47    1.05
  15   1  -1    0.45    2.55
  15  -1   0   -1.69    2.08
  15  -1   0   -1.42    3.23
  15   1   0    1.69    1.77
  15   1   0   -0.08    2.32
  15   1   0   -0.54    1.88
  15  -1   1   -0.87    2.53
  15  -1   1    1.84    3.00
  15   1   1    1.93    3.03
  15   1   1    4.67    2.48
  15   1   1   -2.02    2.22
  15  -1   2    5.51    3.48
  15  -1   2    4.27    3.43
  15   1   2    5.18    3.41
  15   1   2    1.70    2.35
  15   1   2    7.21    4.19
  15  -1   3   80.76   11.05
  15   1   3   72.81    9.76
  15  -1   3   85.58   11.19
  15   1   3   75.24   10.45
  15   1   3   69.67    9.80
  15  -1   4   35.74    7.34
  15   1   4   31.93    6.91
  15  -1   4   50.36    8.88
  15   1   4   25.68    5.49
  15   1   4   40.90    7.09
  15   1   5   37.61    7.72
  15  -1   5   32.65    6.85
  15  -1   5   39.39    7.66
  15   1   5   41.01    7.67
  15   1   6   10.62    3.78
  15  -1   6   11.16    4.59
  15  -1   6    8.34    4.66
  15   1   6   10.77    3.84
  15  -1   7  106.07   12.32
  15   1   7  116.80   12.88
  15   1   7  113.68   12.58
  15   1   8   33.14    7.22
  15  -1   8   16.94    4.48
  15   1   8   28.61    6.58
  15   1   9    4.70    3.73
  15  -1   9    6.90    4.25
  15   1   9    5.20    3.53
  15   1  10   14.63    4.24
  15  -1  10   10.13    3.09
  15   1  10   17.29    5.63
  15   1  11    7.72    2.93
  15  -1  11    7.55    4.09
  15   1  11    0.26    2.42
  15   1  12   19.22    4.74
  15  -1  12   16.79    5.44
  15  -1  13  162.99   15.31
  15   1  13  139.32   14.55
  15   1  14    7.56    2.88
  15  -1  14   14.45    5.26
  15   1  15    9.65    3.67
  15  -1  15    1.11    1.38
  15   1  16   21.52    5.32
  15  -1  16   23.64    6.00
  15   1  17   39.97    8.23
  15  -1  17   29.93    7.04
  15   1  18    5.41    3.94
  15  -1  18   13.70    5.29
  15   1  19   14.27    5.02
  15  -1  19   11.17    4.96
  15   1  20    1.23    1.82
  15  -1  20    2.53    4.06
  15   1  21    2.83    4.14
  15  -1  21   -0.02    2.84
  15  -2 -20    3.41    2.56
  15  -2 -19   14.88    5.30
  15  -2 -18    6.40    3.43
  15  -2 -17   -0.12    2.27
  15  -2 -16   20.73    6.45
  15  -2 -15    8.62    3.32
  15  -2 -14    3.90    1.59
  15  -2 -13   32.02    8.10
  15   2 -13   35.16    7.72
  15  -2 -12    1.45    3.48
  15  -2 -12    1.62    1.70
  15   2 -12    2.79    4.16
  15  -2 -11   12.39    5.45
  15  -2 -11    2.15    1.71
  15   2 -11   11.92    4.66
  15  -2 -10   13.76    5.25
  15  -2 -10   14.58    4.22
  15   2 -10   13.77    4.82
  15  -2  -9    3.88    3.32
  15  -2  -9    8.41    3.32
  15   2  -9   11.15    5.56
  15   2  -9    5.85    3.46
  15  -2  -8    3.79    2.43
  15  -2  -8    6.25    3.05
  15   2  -8    2.90    2.10
  15   2  -8   10.74    4.86
  15  -2  -7   19.15    5.39
  15   2  -7   11.71    3.57
  15  -2  -7   14.02    4.87
  15   2  -7    5.77    1.31
  15   2  -7   17.31    4.86
  15  -2  -6    4.00    3.61
  15  -2  -6    3.87    2.94
  15   2  -6    6.89    3.06
  15   2  -6    6.23    3.53
  15   2  -6    3.29    1.65
  15  -2  -5   15.15    4.96
  15  -2  -5   16.27    4.48
  15   2  -5    8.51    3.57
  15   2  -5    6.96    1.94
  15   2  -5    9.33    3.86
  15  -2  -4    8.93    3.79
  15  -2  -4    9.89    4.60
  15   2  -4    5.31    2.63
  15   2  -4    3.81    2.86
  15   2  -4    5.35    3.44
  15  -2  -3    1.20    2.61
  15  -2  -3   -1.04    1.43
  15   2  -3    1.25    2.46
  15   2  -3   -0.75    1.23
  15   2  -3    2.18    3.87
  15  -2  -2    0.92    2.70
  15  -2  -2   -0.25    1.29
  15   2  -2    2.62    1.83
  15   2  -2    2.68    3.07
  15   2  -2   -0.56    2.67
  15  -2  -1    0.66    2.13
  15  -2  -1    0.31    2.03
  15   2  -1   -2.14    2.54
  15   2  -1    3.28    2.82
  15   2  -1    2.48    2.92
  15  -2   0    0.43    1.19
  15  -2   0    3.25    2.83
  15   2   0   -0.18    1.46
  15   2   0    5.82    3.26
  15   2   0    1.13    2.89
  15   2   1    2.29    2.48
  15  -2   1    0.52    3.49
  15  -2   1    2.84    2.87
  15   2   1    1.20    2.40
  15   2   1    3.09    2.66
  15   2   2   -0.20    1.81
  15  -2   2    0.17    1.33
  15  -2   2    1.42    3.80
  15   2   2   -0.01    2.75
  15   2   2    2.88    2.98
  15   2   3   -3.03    2.96
  15  -2   3    0.98    2.02
  15  -2   3    1.24    2.34
  15   2   3   -0.57    3.20
  15   2   3   -0.51    1.59
  15   2   4   13.27    5.22
  15  -2   4    7.85    4.85
  15  -2   4    7.70    5.01
  15   2   4    8.53    3.54
  15   2   5   12.28    4.56
  15  -2   5   16.13    5.48
  15  -2   5   11.98    4.59
  15   2   5   13.51    4.52
  15   2   6    7.50    2.70
  15  -2   6    1.62    3.56
  15  -2   6    3.87    2.89
  15   2   6    5.82    3.23
  15   2   7   15.77    4.97
  15  -2   7   15.37    5.34
  15  -2   7   10.44    3.28
  15   2   7    9.74    3.94
  15   2   8    4.47    3.47
  15  -2   8    4.11    2.22
  15  -2   8    3.78    3.50
  15   2   8    3.94    3.58
  15   2   9    5.66    3.02
  15  -2   9    5.04    2.54
  15   2   9    3.03    4.15
  15   2  10   11.92    4.89
  15  -2  10    8.46    2.93
  15   2  10   18.67    5.37
  15   2  11    5.44    3.41
  15  -2  11   10.10    4.79
  15   2  11    5.20    4.04
  15   2  12    5.19    5.17
  15  -2  12    4.60    4.07
  15   2  13   25.43    6.26
  15  -2  13   37.40    7.82
  15   2  14   13.80    4.78
  15  -2  14   13.14    4.70
  15   2  15   11.96    3.96
  15  -2  15    4.83    2.79
  15   2  16   23.66    6.14
  15  -2  16   19.59    6.46
  15   2  17   -3.41    3.34
  15  -2  17    0.87    1.65
  15   2  18    0.24    3.33
  15  -2  18    1.92    1.97
  15   2  19    3.58    2.18
  15  -2  19   12.65    6.17
  15   2  20   -2.63    1.98
  15  -2  20   -0.69    4.03
  15  -3 -20    6.06    2.67
  15  -3 -19    5.17    4.48
  15  -3 -18   24.01    6.55
  15  -3 -17   62.72   10.51
  15   3 -17   59.07   10.24
  15  -3 -16   12.03    5.63
  15   3 -16    0.28    1.88
  15  -3 -15   11.76    4.75
  15   3 -15    1.73    1.32
  15  -3 -14   19.38    5.55
  15   3 -14    7.57    3.73
  15  -3 -13    6.02    3.47
  15  -3 -13    6.63    4.24
  15   3 -13   10.72    3.87
  15  -3 -12   51.07   10.08
  15   3 -12   63.57    9.98
  15  -3 -12   54.19   10.14
  15  -3 -11   18.61    5.88
  15  -3 -11   12.90    4.32
  15   3 -11   15.33    3.83
  15  -3 -10    0.37    2.44
  15  -3 -10    7.34    3.82
  15   3 -10    2.37    3.00
  15  -3  -9   14.31    4.69
  15  -3  -9    6.92    4.01
  15   3  -9   13.10    5.42
  15  -3  -8   21.91    5.43
  15  -3  -8   21.56    6.22
  15   3  -8   21.09    6.32
  15  -3  -7   19.74    6.16
  15  -3  -7   14.50    5.25
  15   3  -7   13.11    4.35
  15  -3  -6   38.08    7.06
  15  -3  -6   43.13    8.49
  15   3  -6   34.72    7.00
  15   3  -6   40.58    7.79
  15  -3  -5   23.25    6.20
  15  -3  -5   21.69    5.43
  15   3  -5   23.87    6.19
  15   3  -5   30.50    6.91
  15  -3  -4   20.14    4.97
  15  -3  -4   27.12    7.07
  15   3  -4   25.88    6.69
  15   3  -4   24.00    5.61
  15   3  -4   19.11    5.49
  15  -3  -3   73.45   10.43
  15   3  -3  103.42   12.11
  15  -3  -3   99.09   12.50
  15   3  -3   60.96    9.53
  15   3  -3   78.68   10.20
  15   3  -2   23.43    6.10
  15  -3  -2   28.58    6.79
  15  -3  -2   31.28    7.57
  15   3  -2   28.30    6.55
  15   3  -2   38.47    7.75
  15   3  -1   23.46    5.92
  15   3  -1   24.31    5.93
  15  -3  -1   34.60    7.82
  15  -3  -1   29.61    7.48
  15   3  -1   19.65    5.49
  15   3   0   40.69    7.95
  15  -3   0   32.99    6.79
  15   3   0   44.64    7.64
  15  -3   0   32.70    7.82
  15   3   0   32.98    6.94
  15   3   1   32.30    6.69
  15   3   1   23.29    5.93
  15  -3   1   21.02    5.03
  15  -3   1   30.69    6.92
  15   3   1   24.02    6.33
  15   3   2   29.83    6.89
  15   3   2   32.65    6.83
  15  -3   2   26.38    6.25
  15  -3   2   27.16    7.29
  15   3   2   29.49    7.08
  15  -3   3   84.49   11.21
  15  -3   3   90.22   11.86
  15   3   3   95.82   12.10
  15   3   3   94.91   11.50
  15   3   4   10.98    3.11
  15   3   4   18.33    5.11
  15  -3   4   11.05    4.89
  15  -3   4   16.47    5.99
  15   3   5   20.62    5.46
  15   3   5   21.69    5.35
  15  -3   5   28.58    6.68
  15  -3   5   25.44    6.61
  15   3   6   25.33    6.43
  15   3   6   29.68    6.09
  15  -3   6   24.44    5.53
  15  -3   6   25.73    7.18
  15   3   7   18.47    5.77
  15   3   7   18.87    4.99
  15  -3   7   21.17    5.81
  15  -3   7   14.37    4.91
  15   3   8   29.80    6.92
  15   3   8   26.31    6.22
  15  -3   8   29.50    6.36
  15  -3   8   15.83    4.76
  15   3   9   16.85    4.79
  15   3   9   17.30    4.50
  15  -3   9   15.40    5.06
  15  -3   9    9.40    4.69
  15   3  10    4.77    3.03
  15   3  10   -2.15    3.19
  15  -3  10   -1.35    1.54
  15  -3  10    2.54    2.36
  15   3  11   21.13    6.09
  15   3  11   11.63    4.50
  15  -3  11   13.91    4.52
  15  -3  11   27.39    7.66
  15  -3  12   59.01   10.02
  15   3  12   70.88   10.19
  15   3  12   52.05    9.64
  15   3  13    7.00    3.63
  15  -3  13    9.49    4.28
  15   3  14   16.57    5.61
  15  -3  14   15.77    5.82
  15   3  15    7.31    3.20
  15  -3  15    5.61    4.16
  15   3  16    0.67    2.32
  15  -3  16    5.33    3.24
  15  -3  17   55.22    9.91
  15   3  17   55.84    9.74
  15   3  18   32.73    7.19
  15  -3  18   28.55    7.15
  15   3  19    4.90    3.57
  15  -3  19    2.71    2.90
  15   3  20    0.49    3.47
  15  -3  20    0.22    2.53
  15  -4 -18    2.71    2.77
  15   4 -18    6.08    3.58
  15  -4 -17   23.28    6.54
  15   4 -17   11.77    4.04
  15  -4 -16   14.82    6.71
  15   4 -16   12.35    5.48
  15  -4 -15    8.86    3.58
  15   4 -15    9.41    4.33
  15  -4 -14   20.42    6.32
  15  -4 -14   17.31    6.10
  15   4 -14   32.02    6.98
  15  -4 -13   20.38    6.19
  15  -4 -13   21.73    5.82
  15   4 -13   29.05    7.02
  15  -4 -12    0.14    1.87
  15  -4 -12    1.19    2.74
  15  -4 -11   33.17    7.08
  15  -4 -11   31.18    7.75
  15   4 -11   29.01    7.34
  15  -4 -10   13.43    4.76
  15  -4 -10    9.27    3.21
  15   4 -10    9.30    4.61
  15  -4  -9   20.50    6.38
  15  -4  -9   16.49    5.79
  15   4  -9   17.61    5.18
  15  -4  -8   26.35    6.42
  15  -4  -8   33.12    7.16
  15   4  -8   25.46    6.61
  15   4  -7   31.31    6.91
  15  -4  -7   54.42    9.24
  15  -4  -7   34.97    7.26
  15   4  -6   11.86    4.62
  15  -4  -6   14.33    4.99
  15  -4  -6   13.74    4.10
  15   4  -5   21.27    5.21
  15   4  -5   13.10    4.86
  15  -4  -5   30.23    7.30
  15  -4  -5   23.21    6.50
  15   4  -4    8.90    4.05
  15   4  -4    2.34    1.63
  15  -4  -4   11.88    4.22
  15  -4  -4    8.39    4.49
  15   4  -3   -0.51    1.50
  15   4  -3    5.85    1.65
  15  -4  -3    3.36    3.13
  15   4  -2    4.42    3.53
  15   4  -2    0.47    1.58
  15  -4  -2    1.09    1.83
  15  -4  -2    3.65    4.33
  15   4  -1   12.65    3.88
  15   4  -1    6.13    3.00
  15  -4  -1    6.09    3.47
  15  -4  -1    8.08    5.29
  15   4   0   18.08    6.25
  15   4   0   22.73    5.89
  15  -4   0   14.02    3.79
  15  -4   0   10.97    3.86
  15   4   1    8.15    3.87
  15   4   1   16.31    5.56
  15  -4   1   11.26    3.72
  15  -4   1    6.01    3.57
  15   4   2    1.08    1.71
  15   4   2    0.74    1.64
  15  -4   2    0.54    2.14
  15  -4   2   -0.72    1.58
  15   4   3    4.24    3.04
  15   4   3   13.22    4.83
  15  -4   3    9.91    2.79
  15  -4   3    9.15    4.15
  15   4   4   16.43    5.12
  15   4   4    3.72    3.50
  15  -4   4   11.50    5.67
  15  -4   4    4.62    3.28
  15   4   5   21.41    6.03
  15   4   5   11.99    4.29
  15  -4   5   10.72    4.38
  15   4   6   10.09    5.00
  15   4   6   14.30    4.39
  15  -4   6    6.71    3.16
  15  -4   6    6.02    3.96
  15   4   7   29.41    7.25
  15  -4   7   53.49    9.12
  15   4   7   41.62    7.73
  15  -4   7   28.24    7.64
  15   4   8   24.32    6.62
  15   4   8   20.73    5.94
  15  -4   8   26.09    6.13
  15  -4   8   35.52    7.43
  15   4   9   17.45    5.45
  15   4   9   17.53    4.80
  15  -4   9   11.91    5.04
  15  -4   9   16.21    6.17
  15   4  10   12.98    4.63
  15   4  10    0.45    2.32
  15  -4  10    1.61    1.56
  15  -4  10   13.39    5.02
  15   4  11   25.15    7.68
  15   4  11   34.19    7.39
  15  -4  11   28.91    6.77
  15  -4  11   32.87    7.69
  15   4  12    4.67    2.39
  15   4  12    9.18    4.44
  15  -4  12   -0.01    4.29
  15  -4  12   10.04    5.09
  15   4  13   12.55    4.12
  15  -4  13   28.87    7.63
  15  -4  13   16.57    6.29
  15   4  14   25.58    6.77
  15  -4  14   23.63    6.44
  15  -4  14   35.88    8.46
  15   4  15   20.41    5.63
  15  -4  15   19.42    6.06
  15   4  16   13.12    5.23
  15  -4  16   11.91    4.97
  15   4  17   14.37    5.31
  15  -4  17   11.67    5.77
  15   4  18    8.66    3.16
  15  -4  18   12.20    6.09
  15  -5 -16    8.23    5.08
  15   5 -16    4.43    4.26
  15  -5 -15   14.59    5.40
  15  -5 -15    9.31    4.45
  15   5 -15   14.96    4.44
  15  -5 -14   15.04    6.18
  15  -5 -14   14.98    5.36
  15   5 -14   11.55    5.07
  15  -5 -13   35.93    7.68
  15  -5 -13   38.25    7.76
  15   5 -13   24.40    5.41
  15  -5 -12    4.58    3.51
  15  -5 -12    9.67    4.90
  15   5 -12    3.74    1.91
  15  -5 -11    3.58    2.58
  15  -5 -11    7.56    3.83
  15   5 -11    5.10    2.60
  15   5 -10    9.14    4.38
  15  -5 -10   14.33    4.96
  15  -5 -10   17.96    5.78
  15  -5  -9   90.12   12.64
  15   5  -9   80.13   11.32
  15  -5  -9   65.64   10.08
  15   5  -8    4.53    2.89
  15  -5  -8    2.11    1.97
  15  -5  -8    3.01    4.02
  15   5  -7   20.23    5.72
  15  -5  -7   13.33    3.89
  15  -5  -7   16.15    5.30
  15   5  -6   23.00    5.98
  15  -5  -6   24.43    6.32
  15  -5  -6   11.48    4.85
  15   5  -5    4.87    4.57
  15  -5  -5    0.39    2.73
  15  -5  -5    8.30    3.72
  15   5  -4   16.65    4.20
  15  -5  -4   15.76    4.36
  15  -5  -3   59.81    9.80
  15   5  -3   43.27    8.02
  15  -5  -3   60.81    9.72
  15   5  -2    4.73    4.65
  15   5  -2    3.66    3.56
  15  -5  -2    3.42    2.81
  15  -5  -2    0.73    2.38
  15  -5  -1   59.86    9.56
  15  -5  -1   65.80   11.80
  15   5  -1   53.58    8.67
  15   5  -1   69.25   10.35
  15   5   0   39.36    8.54
  15  -5   0   51.59    8.71
  15  -5   0   47.48    9.17
  15   5   0   64.47   10.07
  15  -5   1   65.73   10.43
  15  -5   1   60.40   10.31
  15   5   1   60.35    9.44
  15   5   1   69.13    9.98
  15   5   2    2.70    3.87
  15  -5   2   -0.45    1.66
  15   5   2   -1.98    2.19
  15  -5   2    1.26    3.78
  15  -5   3   60.71    9.75
  15  -5   3   51.88   10.30
  15   5   3   59.23    9.26
  15   5   3   72.26   10.39
  15   5   4   17.62    5.25
  15  -5   4   14.54    4.01
  15   5   4   10.59    4.45
  15  -5   4   13.70    4.79
  15   5   5    2.73    2.24
  15  -5   5    0.04    2.63
  15   5   5    2.22    2.20
  15  -5   5    2.46    2.26
  15   5   6   19.89    5.62
  15  -5   6   17.94    5.80
  15   5   6   18.60    4.59
  15  -5   6   25.15    7.05
  15   5   7    8.27    4.79
  15  -5   7   11.68    4.24
  15   5   7   13.95    4.79
  15  -5   7    7.10    4.31
  15   5   8    8.98    4.64
  15  -5   8    5.24    3.31
  15   5   8    9.69    4.89
  15  -5   8    7.08    5.41
  15   5   9   67.75   10.36
  15  -5   9   74.54   11.55
  15  -5   9   63.35   10.60
  15   5   9   74.25   11.36
  15   5  10   21.14    6.88
  15  -5  10   12.83    4.59
  15   5  10   26.38    6.38
  15  -5  10   25.46    7.39
  15   5  11    7.22    3.88
  15  -5  11    3.45    3.65
  15   5  11   13.35    4.61
  15  -5  11    6.55    4.34
  15   5  12    4.85    1.86
  15  -5  12   11.04    5.22
  15   5  12    9.77    4.16
  15  -5  12    7.34    4.09
  15   5  13   34.46    7.87
  15  -5  13   32.80    7.42
  15  -5  13   35.47    8.18
  15   5  14    1.79    1.98
  15  -5  14    5.94    3.45
  15  -5  15    4.23    3.47
  15   5  15   10.86    4.08
  15  -5  15    9.95    5.94
  15  -5  16    4.35    4.16
  15   5  16    1.41    3.26
  15  -6 -14    2.14    3.27
  15  -6 -14   -1.83    3.07
  15   6 -14    2.10    2.55
  15   6 -13   -3.46    3.36
  15  -6 -13    1.35    2.51
  15  -6 -13   -3.31    2.15
  15   6 -12    1.21    3.14
  15  -6 -12    1.68    4.18
  15  -6 -12   -2.13    2.78
  15   6 -11   -1.39    2.60
  15  -6 -11    2.25    2.94
  15  -6 -11    4.35    4.12
  15   6 -10    8.82    4.28
  15  -6 -10    8.03    4.52
  15  -6 -10   20.63    6.36
  15   6  -9   -0.91    2.91
  15  -6  -9    3.43    2.86
  15  -6  -9   -3.14    2.88
  15   6  -8    0.25    2.45
  15  -6  -8    0.01    2.35
  15  -6  -8   -2.14    3.64
  15   6  -7   -1.54    2.46
  15  -6  -7   -1.84    3.11
  15  -6  -7    2.34    2.56
  15   6  -6    1.32    2.80
  15  -6  -6   10.81    4.51
  15  -6  -6    3.95    2.80
  15   6  -5    6.12    4.74
  15  -6  -5    0.70    2.87
  15  -6  -5    8.44    3.13
  15  -6  -4   22.56    5.58
  15  -6  -4   15.16    5.40
  15   6  -3   -6.22    4.77
  15  -6  -3    0.66    3.20
  15  -6  -3   -1.81    2.07
  15   6  -2   33.82    7.41
  15  -6  -2   15.00    5.62
  15  -6  -2   15.20    4.97
  15   6  -2   42.61    9.76
  15   6  -1   31.17    7.11
  15  -6  -1   29.97    7.04
  15   6  -1   21.31    5.87
  15  -6  -1   16.22    5.51
  15   6   0   41.31    8.31
  15  -6   0   30.41    7.52
  15   6   0   26.43    6.29
  15  -6   0   44.73    9.39
  15   6   1   31.29    7.84
  15  -6   1   25.11    6.35
  15   6   1   34.84    7.47
  15  -6   1   40.43    8.43
  15   6   2   14.79    5.71
  15  -6   2   20.17    5.58
  15   6   2   12.54    3.77
  15  -6   2   29.12    7.45
  15   6   3    5.44    4.78
  15  -6   3    2.52    1.53
  15   6   3    1.19    3.04
  15  -6   3    0.45    3.34
  15   6   4   19.30    5.21
  15  -6   4   29.68    7.36
  15   6   4   20.89    6.28
  15  -6   4   27.99    6.69
  15   6   5   -2.00    3.75
  15  -6   5   -0.42    2.10
  15   6   5    2.70    2.55
  15  -6   5    5.95    4.28
  15   6   6    2.34    3.35
  15  -6   6   -2.20    1.97
  15   6   6    6.78    3.80
  15  -6   6    5.58    4.33
  15   6   7   -0.28    2.38
  15  -6   7    6.98    4.57
  15   6   7   -1.45    3.67
  15  -6   7    5.08    4.48
  15   6   8    8.71    5.35
  15  -6   8    1.39    3.04
  15   6   8    4.61    3.60
  15  -6   8    0.19    2.06
  15   6   9    1.43    2.66
  15  -6   9    1.96    1.96
  15   6   9    9.22    4.55
  15  -6   9    9.17    3.63
  15   6  10   14.61    5.82
  15  -6  10    8.41    4.17
  15   6  10   12.19    4.27
  15  -6  10   17.09    6.90
  15   6  11    5.29    2.25
  15  -6  11    4.33    3.41
  15   6  11    5.15    3.95
  15  -6  11    7.45    4.98
  15   6  12    5.01    4.96
  15  -6  12    4.68    3.43
  15   6  12    1.45    3.50
  15  -6  12    0.85    2.58
  15   6  13    2.64    2.66
  15  -6  13   -1.63    3.61
  15   6  13    1.42    2.88
  15  -6  13   -1.94    3.34
  15  -6  14    0.05    3.82
  15   6  14    4.92    3.39
  15  -6  14   -0.20    3.33
  15  -7 -10   23.28    7.17
  15   7 -10   16.69    5.79
  15  -7 -10   17.23    6.45
  15  -7  -9   15.72    5.57
  15   7  -9   27.28    7.29
  15  -7  -9   27.13    7.04
  15   7  -8    4.19    4.31
  15  -7  -8    1.77    2.34
  15  -7  -8   -1.80    2.58
  15   7  -7    8.59    3.92
  15  -7  -7   17.32    5.58
  15  -7  -7   14.41    5.63
  15   7  -6    0.54    2.92
  15  -7  -6   -0.64    3.92
  15  -7  -6   -0.71    2.10
  15   7  -5    6.30    2.19
  15  -7  -5    5.84    5.04
  15  -7  -5    3.43    1.97
  15   7  -4    5.57    3.12
  15  -7  -4    9.30    5.32
  15  -7  -4   11.84    4.68
  15   7  -3   19.59    5.96
  15  -7  -3   16.90    5.98
  15  -7  -3   24.08    7.18
  15   7  -2    8.48    5.71
  15  -7  -2    2.56    2.25
  15  -7  -2    3.36    3.55
  15   7  -1   21.48    6.35
  15  -7  -1   12.71    4.03
  15  -7  -1   24.46    7.18
  15   7   0   18.59    6.13
  15  -7   0   18.39    5.37
  15   7   0   17.37    6.18
  15  -7   0   23.24    6.27
  15   7   1   26.89    5.79
  15  -7   1   20.29    6.33
  15   7   1   23.90    6.41
  15  -7   1   26.49    7.64
  15   7   2    5.97    3.95
  15  -7   2    0.74    2.41
  15   7   2    2.30    2.58
  15  -7   2    7.18    5.61
  15   7   3   16.95    6.30
  15  -7   3   22.28    5.57
  15   7   3   15.46    4.85
  15  -7   3   21.62    6.58
  15   7   4   11.07    4.40
  15  -7   4   14.71    5.11
  15   7   4    8.22    3.15
  15  -7   4   16.62    6.59
  15   7   5    6.36    2.98
  15  -7   5    5.17    3.79
  15   7   5    7.18    4.60
  15  -7   5    4.24    4.06
  15   7   6    2.34    2.22
  15  -7   6    1.13    2.92
  15   7   6    6.07    3.49
  15  -7   6    2.14    4.41
  15   7   7   24.76    6.87
  15  -7   7   23.17    6.48
  15   7   7   21.93    6.27
  15  -7   7   17.04    7.46
  15   7   8   -0.84    2.34
  15  -7   8   -2.34    3.16
  15   7   8   -0.79    2.30
  15  -7   8   -0.10    2.38
  15   7   9   11.39    6.75
  15  -7   9   19.87    5.94
  15   7   9   36.06    8.34
  15  -7   9   29.93    8.37
  15   7  10   14.90    5.98
  15  -7  10   12.69    4.80
  15   7  10   25.06    6.40
  15  -7  10   14.35    4.97
  15  -8  -2   12.91    5.18
  15   8  -2   14.34    5.12
  15  -8  -2   12.62    5.65
  15   8  -1   -0.99    2.04
  15  -8  -1   14.33    6.31
  15  -8  -1   10.53    7.15
  15   8   0   15.65    5.73
  15  -8   0    9.94    4.46
  15  -8   0   10.42    6.02
  15   8   1    6.29    4.56
  15  -8   1    7.25    5.44
  15  -8   1    9.15    4.61
  15   8   2   21.56    6.69
  15  -8   2   15.65    5.85
  15   8   2   17.85    6.24
  15  -8   2    6.94    3.94
  16   0 -18   52.65   11.21
  16   0 -17   56.06   10.05
  16   0 -16    3.65    3.25
  16   0 -15   12.50    3.89
  16   0 -14    8.70    4.04
  16   0 -13  174.58   17.50
  16   0 -12   14.98    3.85
  16   0 -11   26.99    6.82
  16   0 -10   11.92    4.76
  16   0  -9   20.69    5.86
  16   0  -9   30.68    7.31
  16   0  -8    6.58    3.67
  16   0  -8   21.34    6.20
  16   0  -7  147.28   14.96
  16   0  -7  119.76   14.11
  16   0  -6   13.02    4.58
  16   0  -6   18.05    5.60
  16   0  -5    1.82    1.95
  16   0  -5    4.46    3.85
  16   0  -4   41.48    7.91
  16   0  -4   32.03    7.57
  16   0  -3  126.38   13.67
  16   0  -3  123.23   13.72
  16   0  -2  107.95   12.24
  16   0  -2  132.77   14.94
  16   0  -1   21.34    5.31
  16   0  -1   35.63    7.42
  16   0   0    6.93    3.47
  16   0   0    7.95    4.41
  16   0   1   18.39    4.95
  16   0   1   19.41    5.33
  16   0   2  115.52   12.79
  16   0   2  152.03   15.73
  16   0   3  114.17   12.39
  16   0   3  119.17   13.81
  16   0   4   32.32    6.68
  16   0   4   37.37    7.85
  16   0   5    2.41    1.63
  16   0   5    2.88    2.74
  16   0   6   11.49    4.90
  16   0   6   16.00    4.90
  16   0   7  135.15   14.07
  16   0   8   23.74    5.80
  16   0   9   27.08    6.53
  16   0  10   16.59    5.12
  16   0  11   18.14    5.19
  16   0  12    5.74    3.77
  16   0  13  176.45   16.79
  16   0  14    6.44    4.08
  16   0  15   12.41    5.41
  16   0  16   16.80    4.88
  16   0  17   56.17    9.68
  16   0  18   30.46    7.30
  16   0  19   93.64   12.44
  16  -1 -19    2.46    3.54
  16  -1 -18   -1.11    2.21
  16  -1 -17   -3.91    4.55
  16  -1 -16    2.19    3.15
  16  -1 -15    3.94    3.61
  16  -1 -14   18.41    6.21
  16   1 -13    8.68    3.42
  16  -1 -13   10.06    4.80
  16   1 -12   -3.00    2.26
  16  -1 -12    1.17    2.96
  16  -1 -11   -2.11    4.16
  16   1 -11   -0.11    1.62
  16  -1 -10   -2.40    3.46
  16  -1 -10    1.16    1.62
  16   1 -10    0.66    1.71
  16  -1  -9    5.11    2.68
  16  -1  -9    7.26    1.90
  16   1  -9    4.56    2.97
  16  -1  -8    3.05    1.79
  16   1  -8   -2.04    2.12
  16  -1  -8    1.03    3.20
  16   1  -8    5.27    2.89
  16  -1  -7    0.69    2.97
  16   1  -7    1.57    1.41
  16  -1  -7    0.83    3.17
  16   1  -7    0.63    2.29
  16  -1  -6    6.95    4.17
  16   1  -6    2.36    1.61
  16  -1  -6    3.17    2.41
  16   1  -6   -0.85    2.51
  16   1  -6    6.59    3.99
  16  -1  -5    6.62    3.12
  16   1  -5   18.55    5.27
  16  -1  -5   17.06    5.56
  16   1  -5   19.29    6.10
  16   1  -5   25.14    6.03
  16  -1  -4    2.05    2.00
  16   1  -4    2.81    2.51
  16  -1  -4    2.32    2.00
  16   1  -4    3.31    1.41
  16   1  -4    1.35    2.73
  16  -1  -3   24.99    6.41
  16   1  -3   27.66    6.50
  16  -1  -3   22.67    6.36
  16   1  -3   23.38    7.01
  16   1  -3   20.48    5.45
  16  -1  -2    2.60    3.27
  16   1  -2   -2.66    1.69
  16  -1  -2    4.40    3.17
  16   1  -2    3.36    1.53
  16   1  -2    3.24    2.19
  16  -1  -1    2.63    1.97
  16   1  -1    9.32    4.13
  16  -1  -1    4.20    2.97
  16   1  -1   13.26    5.31
  16   1  -1    1.59    2.77
  16  -1   0    3.21    4.27
  16  -1   0    4.36    3.88
  16   1   0    3.36    3.16
  16   1   0    2.58    2.02
  16   1   0    1.43    1.69
  16  -1   1    7.65    3.37
  16  -1   1    3.05    2.49
  16   1   1    3.61    3.25
  16   1   1    3.93    4.00
  16   1   1    3.28    1.73
  16  -1   2   -0.78    2.97
  16  -1   2    4.46    3.99
  16   1   2    3.52    1.67
  16   1   2    2.78    3.59
  16   1   2   -0.49    2.01
  16  -1   3   24.37    5.97
  16  -1   3   18.77    6.30
  16   1   3   22.87    5.11
  16   1   3   31.77    6.87
  16   1   3   16.24    4.75
  16  -1   4   -0.55    3.04
  16  -1   4   -1.98    2.05
  16   1   4    0.92    1.97
  16   1   4    1.51    2.73
  16   1   4    0.53    2.34
  16  -1   5   17.37    5.09
  16  -1   5   20.07    5.76
  16   1   5   23.25    6.72
  16   1   5   19.36    5.84
  16   1   5   14.83    4.66
  16  -1   6   -0.91    2.44
  16  -1   6    8.27    3.78
  16   1   6    6.24    2.99
  16   1   6    2.32    2.57
  16  -1   7    3.72    2.24
  16  -1   7   -0.78    3.31
  16   1   7    2.33    1.56
  16   1   7   -0.20    1.28
  16  -1   8    3.77    3.50
  16   1   8   -1.14    2.75
  16   1   8   -0.35    3.13
  16  -1   9   12.26    4.82
  16   1   9    4.72    2.34
  16   1   9    4.58    4.01
  16   1  10   -0.11    1.59
  16  -1  10    2.26    2.49
  16   1  10    0.56    1.83
  16   1  11   -1.36    1.42
  16  -1  11    2.28    3.03
  16   1  12    4.83    3.35
  16  -1  12    0.51    2.39
  16   1  13   11.73    3.90
  16  -1  13   10.12    4.99
  16   1  14   25.13    7.06
  16  -1  14   11.41    3.53
  16   1  15    0.08    1.94
  16  -1  15    6.05    3.49
  16   1  16   -0.53    3.09
  16  -1  16    0.31    1.82
  16   1  17    3.39    3.46
  16  -1  17    9.03    4.51
  16   1  18   -1.41    2.80
  16  -1  18   -0.82    2.45
  16   1  19    4.58    5.57
  16  -1  19   -2.18    3.43
  16  -2 -19    4.77    1.83
  16  -2 -18   10.07    5.39
  16  -2 -17   75.90   12.09
  16  -2 -16    2.79    2.13
  16  -2 -15    1.55    3.33
  16  -2 -14   10.39    2.88
  16  -2 -13  103.98   13.56
  16  -2 -12   10.45    2.62
  16   2 -12   15.60    6.04
  16  -2 -11   11.81    3.41
  16  -2 -11   21.23    6.19
  16   2 -11   21.06    5.60
  16  -2 -10    6.74    3.54
  16  -2 -10    0.59    2.09
  16   2 -10    7.85    3.49
  16  -2  -9   14.63    5.06
  16  -2  -9   14.49    5.02
  16   2  -9   14.69    4.72
  16  -2  -8   11.24    4.30
  16  -2  -8    4.13    2.87
  16   2  -8    3.11    2.18
  16  -2  -7   65.10    9.79
  16  -2  -7   66.15   10.28
  16   2  -7   66.30   10.99
  16   2  -7   65.92    9.98
  16  -2  -6    9.31    3.96
  16   2  -6    8.29    1.38
  16  -2  -6    2.79    2.22
  16   2  -6    4.63    2.52
  16   2  -6    8.62    4.55
  16  -2  -5    2.85    1.91
  16   2  -5    6.06    3.29
  16   2  -5    5.02    3.47
  16   2  -5    5.71    3.58
  16  -2  -4    2.84    3.76
  16  -2  -4   -0.62    1.43
  16   2  -4    6.89    4.30
  16   2  -4   -1.12    3.47
  16   2  -4   11.51    4.55
  16  -2  -3   89.93   11.81
  16   2  -3   79.79   10.42
  16  -2  -3   85.24   12.03
  16   2  -3   78.69   10.61
  16   2  -3   75.88   10.30
  16  -2  -2    4.44    3.42
  16  -2  -2    8.71    4.75
  16   2  -2    1.94    3.30
  16   2  -2    9.40    2.25
  16   2  -2    9.10    4.15
  16  -2  -1   13.95    4.73
  16  -2  -1   12.00    4.98
  16   2  -1    5.99    3.24
  16   2  -1   14.36    4.25
  16   2  -1   13.30    4.75
  16  -2   0    0.54    1.21
  16  -2   0    6.15    3.31
  16   2   0   -0.20    2.07
  16   2   0    3.82    3.28
  16   2   0    2.02    1.60
  16  -2   1    3.98    2.67
  16  -2   1   10.94    5.36
  16   2   1    7.69    5.13
  16   2   1   11.85    4.35
  16   2   1    4.93    2.62
  16  -2   2   12.07    4.71
  16  -2   2    1.87    3.91
  16   2   2   10.62    3.76
  16   2   2    6.26    2.06
  16   2   2    5.70    1.22
  16  -2   3   94.08   11.78
  16   2   3   91.46   11.77
  16  -2   3  100.35   12.42
  16   2   3   73.44   10.28
  16   2   3   83.41   11.11
  16   2   4    4.86    3.89
  16  -2   4    6.57    3.90
  16  -2   4    4.75    2.58
  16   2   4    8.46    5.38
  16   2   4    0.13    1.74
  16   2   5    9.42    4.32
  16  -2   5   12.72    4.09
  16  -2   5    9.71    4.05
  16   2   5    9.93    3.62
  16   2   6    9.37    4.38
  16  -2   6    6.04    3.11
  16  -2   6    5.39    5.64
  16   2   6    5.38    3.51
  16  -2   7   66.38    9.85
  16   2   7   71.75   10.58
  16  -2   7   72.32   10.85
  16   2   7   65.47    9.56
  16   2   8   10.00    4.23
  16  -2   8   13.57    4.54
  16  -2   8    9.75    4.80
  16   2   8    8.40    3.15
  16   2   9   13.25    3.73
  16  -2   9   15.94    5.26
  16  -2   9   21.98    6.26
  16   2   9    9.70    2.81
  16   2  10    8.15    3.02
  16  -2  10   13.69    4.94
  16  -2  10   -1.22    3.16
  16   2  10    8.48    4.19
  16   2  11   14.76    4.95
  16  -2  11   18.80    5.65
  16   2  11   27.71    6.35
  16   2  12   28.81    6.52
  16  -2  12   17.64    5.24
  16  -2  13   94.70   12.63
  16   2  13   94.43   12.08
  16   2  14    6.04    3.29
  16  -2  14    1.77    2.27
  16   2  15    0.70    2.90
  16  -2  15    1.22    1.81
  16   2  16    2.47    4.84
  16  -2  16    4.20    3.68
  16  -2  17   49.49    9.52
  16   2  17   66.50   11.03
  16   2  18   10.63    4.39
  16  -2  18    6.33    3.74
  16   2  19   12.33    6.80
  16  -2  19    9.51    4.79
  16  -3 -18    0.39    3.28
  16  -3 -17    0.33    2.43
  16  -3 -16    0.57    2.33
  16   3 -16    1.18    2.61
  16  -3 -15    3.54    2.13
  16   3 -15   -0.23    2.42
  16  -3 -14   -0.37    2.22
  16   3 -14   -4.52    4.36
  16  -3 -13   -1.52    2.81
  16   3 -13    3.34    2.13
  16  -3 -12    0.57    2.06
  16  -3 -12    2.38    1.55
  16   3 -12    0.01    3.33
  16  -3 -11   10.06    5.36
  16  -3 -11    5.15    1.80
  16   3 -11   10.47    4.96
  16  -3 -10    0.97    3.55
  16  -3 -10    2.29    4.56
  16   3 -10    2.39    2.68
  16  -3  -9    3.15    1.50
  16   3  -9    1.80    2.15
  16  -3  -8    3.31    1.83
  16  -3  -8   -0.49    2.77
  16   3  -8    2.28    4.11
  16  -3  -7    5.48    3.29
  16  -3  -7    3.27    3.21
  16   3  -7    7.25    4.08
  16  -3  -6    1.22    2.89
  16  -3  -6    1.40    2.71
  16   3  -6   -0.88    3.58
  16  -3  -5    3.86    2.68
  16  -3  -5    2.11    1.78
  16   3  -5    6.80    3.63
  16   3  -5    1.33    3.36
  16  -3  -4    3.28    3.06
  16  -3  -4    3.66    3.86
  16   3  -4    5.03    3.60
  16   3  -4    4.79    2.77
  16  -3  -3   -2.01    3.55
  16  -3  -3    1.72    1.59
  16   3  -3   -6.55    3.17
  16   3  -3    0.51    2.12
  16   3  -3    1.31    3.02
  16  -3  -2    3.71    1.93
  16  -3  -2    2.92    3.85
  16   3  -2    0.22    2.94
  16   3  -2   -0.36    2.84
  16   3  -2   -0.16    2.09
  16   3  -1    4.97    4.15
  16  -3  -1    5.57    3.02
  16  -3  -1    3.98    2.54
  16   3  -1   -1.14    2.84
  16   3  -1    2.84    3.83
  16   3   0    4.61    3.49
  16  -3   0    0.99    1.30
  16  -3   0    3.48    3.95
  16   3   0   -1.18    2.42
  16   3   0   -1.16    2.53
  16   3   1    5.31    1.94
  16  -3   1    1.03    1.80
  16  -3   1    6.56    4.58
  16   3   1    3.73    3.52
  16   3   1    8.24    4.35
  16   3   2    2.06    2.68
  16  -3   2    0.24    1.70
  16  -3   2    7.10    4.14
  16   3   2    3.41    3.09
  16   3   2    2.72    1.55
  16   3   3   -0.30    1.25
  16  -3   3   -0.18    2.06
  16  -3   3   -2.49    3.00
  16   3   3    0.54    1.63
  16   3   3   -0.40    1.88
  16   3   4    2.76    4.50
  16  -3   4    2.48    3.37
  16  -3   4    2.81    2.64
  16   3   4    3.58    1.62
  16   3   5    2.91    2.30
  16  -3   5    8.07    4.66
  16  -3   5    1.79    1.70
  16   3   5    6.92    3.14
  16   3   6    2.52    3.19
  16  -3   6    0.54    3.66
  16  -3   6    0.34    2.81
  16   3   6    2.05    3.78
  16   3   7    5.35    2.77
  16  -3   7    1.71    1.35
  16  -3   7    9.02    5.62
  16   3   7    5.12    4.12
  16   3   8    6.01    3.55
  16  -3   8    5.82    2.34
  16  -3   8   -1.47    1.84
  16   3   8    4.55    4.12
  16   3   9    2.39    2.15
  16  -3   9   -0.08    2.02
  16  -3   9    7.90    3.81
  16   3   9    2.96    1.94
  16   3  10    0.88    3.47
  16  -3  10   -0.60    2.73
  16  -3  10   -0.93    1.84
  16   3  10    0.31    2.61
  16   3  11    6.51    2.99
  16  -3  11    5.76    3.51
  16  -3  11    5.32    3.26
  16   3  11    8.75    3.10
  16   3  12    0.07    2.54
  16  -3  12    2.22    2.31
  16  -3  12    0.12    1.89
  16   3  13    2.94    2.64
  16  -3  13    5.35    2.41
  16   3  14    3.89    3.83
  16  -3  14   -0.30    2.64
  16   3  15   -2.93    5.19
  16  -3  15    1.02    3.14
  16   3  16    2.61    2.86
  16  -3  16    7.54    4.57
  16   3  17    2.99    2.84
  16  -3  17    0.66    2.09
  16   3  18   -0.09    2.56
  16  -3  18   -1.97    2.99
  16  -4 -16    5.33    4.26
  16   4 -16   10.50    3.97
  16  -4 -15   15.36    4.91
  16   4 -15    5.47    3.66
  16  -4 -14   17.80    6.52
  16  -4 -14   11.27    4.41
  16   4 -14    4.23    1.50
  16  -4 -13  106.92   13.65
  16   4 -13   91.11   12.35
  16  -4 -12    5.74    3.02
  16   4 -12    8.94    2.52
  16  -4 -11   10.54    2.92
  16  -4 -11   10.81    4.91
  16   4 -11   14.22    5.05
  16  -4 -10    7.83    2.76
  16   4 -10   12.82    4.13
  16  -4  -9   44.14    8.63
  16  -4  -9   33.61    8.16
  16   4  -9   45.58    8.25
  16  -4  -8    0.47    2.77
  16  -4  -8   -0.22    2.91
  16   4  -8    3.30    2.54
  16  -4  -7   48.63    9.18
  16  -4  -7   38.78    8.24
  16   4  -7   38.47    8.03
  16  -4  -6    3.05    3.63
  16  -4  -6    1.90    2.28
  16   4  -6    2.39    2.38
  16  -4  -5   27.62    7.31
  16  -4  -5   14.51    4.41
  16   4  -5   18.27    3.74
  16   4  -4    6.62    2.65
  16   4  -4    9.47    4.50
  16  -4  -4    4.55    3.83
  16  -4  -4    4.26    3.36
  16  -4  -3   90.88   11.99
  16   4  -3   75.71   10.53
  16  -4  -3   80.99   12.11
  16   4  -3   95.18   11.64
  16   4  -2   14.96    5.24
  16   4  -2   10.79    3.12
  16  -4  -2   12.00    4.47
  16  -4  -2    3.05    2.87
  16   4  -1   14.05    5.98
  16   4  -1   13.43    5.21
  16  -4  -1   17.26    6.11
  16  -4  -1   18.31    6.51
  16   4   0    5.59    4.19
  16   4   0    2.72    2.15
  16  -4   0    1.81    2.25
  16  -4   0    1.68    2.46
  16   4   1   29.07    7.08
  16   4   1   14.52    5.14
  16  -4   1   23.67    6.25
  16  -4   1   20.93    5.01
  16   4   2   13.59    5.13
  16   4   2    4.99    4.08
  16  -4   2   10.39    4.02
  16  -4   2   21.27    6.13
  16  -4   3   81.08   11.46
  16  -4   3   79.24   11.67
  16   4   3   80.85   11.25
  16   4   3   80.02   11.44
  16   4   4    1.45    2.82
  16   4   4    6.06    3.52
  16  -4   4    1.97    1.47
  16   4   5   23.43    6.52
  16   4   5   15.84    4.90
  16  -4   5   19.68    5.73
  16  -4   5   25.64    6.80
  16   4   6   -0.61    1.82
  16  -4   6    1.38    1.60
  16  -4   6    0.98    1.71
  16  -4   7   40.12    8.07
  16  -4   7   64.68   10.28
  16   4   7   56.31    9.09
  16   4   7   45.38    8.77
  16   4   8   -1.90    2.68
  16   4   8    0.25    1.45
  16  -4   8   -2.67    2.25
  16  -4   8    0.87    3.89
  16   4   9   36.49    7.68
  16  -4   9   50.03    8.92
  16   4   9   40.18    8.37
  16  -4   9   48.02    9.31
  16   4  10   13.98    5.71
  16   4  10    8.43    4.49
  16  -4  10    9.59    4.01
  16  -4  10   19.08    6.62
  16   4  11   14.86    4.68
  16   4  11   15.90    4.57
  16  -4  11   12.18    3.79
  16  -4  11   26.93    6.79
  16   4  12   11.88    4.39
  16  -4  12   10.08    5.43
  16  -4  12    8.84    5.88
  16  -4  13   88.34   12.15
  16  -4  13   92.49   12.98
  16   4  13   81.93   11.52
  16   4  14    5.63    3.69
  16  -4  14   -1.66    1.70
  16  -4  14    4.86    2.79
  16   4  15    9.02    3.38
  16  -4  15   10.99    5.19
  16  -4  15    5.49    3.72
  16   4  16   11.46    4.29
  16  -4  16    5.04    4.12
  16  -4  16    8.37    3.08
  16  -5 -14   20.26    6.83
  16  -5 -14   27.54    6.06
  16   5 -14   25.45    7.44
  16  -5 -13    0.09    2.79
  16  -5 -13   -2.37    2.64
  16   5 -13    3.30    2.53
  16  -5 -12    6.14    4.31
  16  -5 -12    5.72    3.38
  16   5 -12    4.24    4.23
  16  -5 -11    1.27    2.29
  16  -5 -11    2.90    2.54
  16   5 -11    7.91    4.41
  16  -5 -10   20.10    5.55
  16  -5 -10   13.79    6.11
  16   5 -10   12.35    5.22
  16  -5  -9    7.28    4.59
  16  -5  -9    3.16    3.07
  16   5  -9    1.90    2.79
  16   5  -8   -3.57    3.91
  16  -5  -8   -0.61    3.10
  16  -5  -8    4.16    4.25
  16   5  -7   -1.49    1.67
  16  -5  -7    1.77    2.92
  16   5  -6    4.21    2.39
  16  -5  -6    0.01    1.88
  16  -5  -6    0.58    2.49
  16   5  -5   20.31    5.89
  16  -5  -5   17.48    6.12
  16  -5  -5   19.04    6.33
  16   5  -4    8.26    3.65
  16  -5  -4    7.37    2.89
  16  -5  -4   16.13    5.34
  16   5  -3   13.53    5.73
  16  -5  -3    5.27    2.12
  16  -5  -3    7.22    4.63
  16   5  -2    2.42    2.48
  16   5  -2    6.42    3.59
  16  -5  -2    3.99    2.87
  16  -5  -2    7.16    4.60
  16   5  -1   10.82    4.47
  16   5  -1   10.10    5.17
  16  -5  -1   11.74    5.45
  16  -5  -1   16.34    5.07
  16   5   0   -1.89    2.32
  16   5   0   -2.28    3.28
  16  -5   0    5.21    3.78
  16  -5   0   -3.09    4.14
  16   5   1    9.96    4.18
  16   5   1   17.80    4.69
  16  -5   1   18.28    5.37
  16  -5   1   14.04    5.94
  16   5   2    4.72    4.23
  16   5   2    2.95    2.16
  16  -5   2    4.19    2.81
  16  -5   2    1.61    2.09
  16   5   3   10.49    4.83
  16   5   3   13.16    5.36
  16  -5   3    9.59    4.24
  16  -5   3    7.95    2.24
  16   5   4   11.43    4.05
  16   5   4   10.26    3.38
  16  -5   4    1.41    4.13
  16  -5   4    5.71    4.29
  16   5   5   24.25    6.25
  16   5   5   17.34    5.40
  16  -5   5   15.87    4.47
  16  -5   5   16.96    6.26
  16   5   6    7.86    4.96
  16   5   6   -0.45    1.56
  16  -5   6   -1.99    3.52
  16  -5   6    2.16    3.47
  16   5   7    1.39    2.46
  16  -5   7   -0.41    2.06
  16   5   7    2.50    2.75
  16  -5   7    1.33    3.22
  16   5   8    4.15    4.17
  16  -5   8   -4.74    4.63
  16   5   8    1.47    2.11
  16  -5   8    1.67    3.35
  16   5   9    5.84    5.34
  16  -5   9   -0.59    2.31
  16   5   9    1.80    2.26
  16  -5   9    2.79    2.51
  16   5  10   15.12    5.53
  16  -5  10   12.23    5.04
  16   5  10    4.79    3.20
  16  -5  10   14.42    5.51
  16   5  11    6.73    5.35
  16  -5  11    1.36    3.25
  16   5  11    5.68    3.74
  16  -5  11    8.26    4.81
  16   5  12    5.51    6.42
  16  -5  12    9.14    3.88
  16   5  12    8.58    3.27
  16  -5  12    4.24    5.05
  16   5  13    2.02    3.80
  16  -5  13   -1.68    3.00
  16  -5  13    2.96    4.90
  16  -5  14   10.06    2.02
  16  -5  14   22.34    7.27
  16   6 -11   12.18    4.72
  16  -6 -11    9.05    4.98
  16  -6 -11   21.18    5.62
  16   6 -10   16.08    6.43
  16  -6 -10   13.74    4.46
  16  -6 -10    8.36    5.64
  16   6  -9   39.15    7.77
  16  -6  -9   34.96    7.48
  16  -6  -9   34.99    8.47
  16   6  -8    3.08    2.65
  16  -6  -8    2.96    4.15
  16  -6  -8    0.81    2.37
  16  -6  -7   48.17    9.82
  16   6  -7   60.61   10.38
  16  -6  -7   56.15    9.74
  16   6  -6    5.07    2.96
  16  -6  -6    9.23    3.50
  16  -6  -6   -0.58    1.69
  16   6  -5   -2.09    3.03
  16  -6  -5   -2.50    4.41
  16  -6  -5    3.65    2.17
  16   6  -4    4.34    2.97
  16  -6  -4   13.05    4.73
  16  -6  -4    9.45    3.78
  16   6  -3   41.42    8.95
  16  -6  -3   47.52    9.59
  16  -6  -3   53.89    9.60
  16   6  -2   41.07    8.37
  16  -6  -2   50.40    9.24
  16  -6  -2   48.77   10.43
  16   6  -1   42.20    8.51
  16  -6  -1   40.57    8.72
  16   6  -1   41.28    9.20
  16  -6  -1   38.47    8.04
  16   6   0    1.81    2.25
  16  -6   0    5.23    4.14
  16   6   0    1.26    2.56
  16  -6   0    7.83    5.55
  16   6   1   39.80    8.32
  16  -6   1   48.85    9.35
  16   6   1   37.75    8.30
  16  -6   1   33.27    8.24
  16   6   2   44.14    8.70
  16  -6   2   34.70    8.60
  16   6   2   34.77    7.42
  16  -6   2   48.63    9.82
  16  -6   3   31.32    7.99
  16   6   3   49.14    9.31
  16  -6   3   51.49    9.62
  16   6   3   68.23   10.24
  16   6   4    5.27    3.01
  16  -6   4   13.04    4.61
  16   6   4    8.64    3.57
  16  -6   4   10.08    4.37
  16   6   5    4.59    2.70
  16  -6   5   -0.73    1.52
  16   6   5    3.86    2.40
  16  -6   5    3.03    1.91
  16   6   6    4.86    4.77
  16  -6   6    5.81    3.58
  16   6   6    7.75    4.12
  16  -6   6    5.89    3.47
  16   6   7   34.10    8.78
  16  -6   7   42.72    8.28
  16  -6   7   37.13    9.13
  16   6   7   47.53    9.05
  16   6   8    1.99    2.48
  16  -6   8    2.74    3.43
  16   6   8    2.16    3.64
  16  -6   8   -0.36    4.32
  16   6   9   28.48    9.05
  16  -6   9   37.28    7.85
  16   6   9   42.44    8.44
  16  -6   9   27.92    8.17
  16   6  10    5.54    3.14
  16  -6  10    8.62    4.42
  16   6  10   16.85    5.55
  16  -6  10   11.69    6.33
  16   6  11   10.68    4.88
  16  -6  11    6.22    2.86
  16   6  11    9.98    2.34
  16  -6  11   15.36    6.28
  16   7  -6    1.52    2.79
  16  -7  -6    7.41    2.94
  16  -7  -6    4.23    2.78
  16   7  -5    8.35    4.49
  16  -7  -5   16.24    5.37
  16   7  -4    1.05    2.24
  16  -7  -4   -0.19    2.14
  16  -7  -4   -2.18    2.76
  16   7  -3    1.65    1.70
  16  -7  -3    6.06    4.56
  16   7  -2    0.65    3.51
  16  -7  -2   -2.27    3.07
  16  -7  -2    2.35    3.75
  16  -7  -1    1.39    1.99
  16  -7  -1   -2.55    2.48
  16   7   0    1.85    2.52
  16  -7   0   -1.35    2.99
  16   7   1    1.65    2.65
  16  -7   1    2.80    4.16
  16   7   1    4.56    2.15
  16  -7   1   -2.94    4.20
  16   7   2    2.08    3.36
  16  -7   2    1.44    2.48
  16   7   2    4.55    3.49
  16  -7   2    1.66    2.48
  16   7   3   10.04    3.92
  16  -7   3    2.00    3.47
  16   7   3   17.92    5.44
  16  -7   3   13.24    5.67
  16   7   4    5.27    4.49
  16  -7   4    0.69    2.60
  16   7   4    4.25    4.35
  16  -7   4    7.89    6.27
  16   7   5    9.25    5.18
  16  -7   5   17.79    5.50
  16   7   5    2.92    2.03
  16  -7   5   11.69    5.07
  16   7   6    0.94    2.51
  16  -7   6    5.12    3.90
  16   7   6    1.18    2.21
  16  -7   6    7.51    6.06
  17   0 -17    0.89    1.72
  17   0 -16   -0.71    2.29
  17   0 -15   -3.10    1.87
  17   0 -14    3.41    3.14
  17   0 -13    2.24    3.59
  17   0 -12    3.95    3.34
  17   0 -11   -1.64    3.12
  17   0 -10    1.29    3.16
  17   0  -9   -6.58    3.23
  17   0  -9    3.85    2.23
  17   0  -8    3.56    5.04
  17   0  -8    3.16    4.30
  17   0  -7   -2.63    2.89
  17   0  -7    1.21    1.44
  17   0  -6   -0.48    2.23
  17   0  -6   -1.21    3.27
  17   0  -5   -3.10    2.02
  17   0  -5    3.33    3.84
  17   0  -4    2.00    2.28
  17   0  -4    3.41    2.58
  17   0  -3    2.39    3.28
  17   0  -3    1.76    3.52
  17   0  -2    0.82    1.26
  17   0  -2    1.58    3.02
  17   0  -1    1.68    3.66
  17   0  -1    0.54    2.07
  17   0   0    3.16    3.21
  17   0   0    0.68    1.50
  17   0   1    0.32    4.83
  17   0   1    1.60    3.91
  17   0   2    1.43    3.22
  17   0   2   -0.49    1.82
  17   0   3    0.28    2.73
  17   0   3    2.36    1.82
  17   0   4    1.40    3.04
  17   0   4    0.65    2.22
  17   0   5    0.90    1.76
  17   0   5    0.41    3.28
  17   0   6   -0.76    2.86
  17   0   6   -0.09    1.56
  17   0   7   -0.36    1.99
  17   0   7    1.08    2.72
  17   0   8    0.30    3.08
  17   0   9    1.67    2.21
  17   0  10    1.22    2.95
  17   0  11   -1.04    2.32
  17   0  12   -3.71    4.26
  17   0  13    2.13    3.23
  17   0  14   -3.23    4.21
  17   0  15    3.60    3.04
  17   0  16    0.51    2.63
  17   0  17   -3.22    2.95
  17  -1 -17   53.00    9.89
  17  -1 -16   32.89    8.07
  17  -1 -15   12.81    5.24
  17  -1 -14   20.89    6.31
  17  -1 -13   13.62    5.61
  17   1 -12   37.76    9.53
  17  -1 -12   19.60    6.55
  17  -1 -11   35.62    8.38
  17   1 -11   43.17    8.64
  17  -1 -10   33.74    9.01
  17  -1 -10   31.25    8.16
  17   1 -10   10.81    3.64
  17  -1  -9   25.99    6.34
  17  -1  -9   16.86    6.11
  17   1  -9   32.91    7.90
  17  -1  -8   15.02    4.99
  17  -1  -8   24.90    6.65
  17   1  -8   19.04    5.94
  17  -1  -7    5.55    5.29
  17   1  -7    5.30    3.73
  17  -1  -7    3.43    3.06
  17   1  -7    2.24    3.87
  17  -1  -6   13.60    5.18
  17   1  -6    9.57    2.29
  17  -1  -6   12.64    3.96
  17   1  -6   18.53    5.79
  17  -1  -5   12.96    5.13
  17   1  -5    1.41    2.07
  17  -1  -5   12.58    5.60
  17   1  -5   15.67    5.98
  17  -1  -4   61.08    9.87
  17   1  -4   68.03   10.54
  17  -1  -4   70.75   11.43
  17   1  -4   60.12   10.28
  17   1  -4   63.64   10.11
  17  -1  -3   58.34    9.50
  17   1  -3   56.42    9.23
  17  -1  -3   60.94   10.16
  17   1  -3   62.65   10.52
  17   1  -3   58.75    9.29
  17  -1  -2   23.97    6.46
  17   1  -2   43.14    7.99
  17  -1  -2   32.66    8.32
  17   1  -2   42.92    8.92
  17   1  -2   46.37    8.83
  17  -1  -1   22.60    5.78
  17   1  -1   16.08    5.99
  17  -1  -1   18.66    6.60
  17   1  -1    9.26    3.34
  17   1  -1    9.93    4.25
  17  -1   0   44.57    8.20
  17   1   0   69.98   10.08
  17  -1   0   55.18    9.72
  17   1   0   72.96   11.16
  17   1   0   69.70   10.32
  17  -1   1   19.39    5.77
  17   1   1   18.43    5.17
  17  -1   1   10.09    4.44
  17   1   1   13.42    6.45
  17   1   1   19.45    5.85
  17  -1   2   36.79    7.43
  17  -1   2   42.08    8.47
  17   1   2   43.81    8.46
  17   1   2   37.54    7.47
  17   1   2   47.52    8.71
  17  -1   3   78.48   10.44
  17   1   3   62.00    9.59
  17  -1   3   72.67   11.25
  17   1   3   67.24   10.84
  17   1   3   61.64    9.54
  17  -1   4   57.99    9.25
  17   1   4   67.45   10.43
  17  -1   4   58.93    9.79
  17   1   4   65.63   10.78
  17   1   4   69.21   10.12
  17  -1   5   12.35    5.31
  17  -1   5   11.83    5.56
  17   1   5   14.78    5.08
  17   1   5   10.61    4.01
  17   1   5   12.42    4.96
  17  -1   6   14.43    4.69
  17  -1   6   18.95    6.15
  17   1   6   14.54    4.82
  17   1   6   13.74    5.18
  17   1   6   17.92    4.82
  17  -1   7    4.26    3.97
  17  -1   7    4.36    2.60
  17   1   7    5.29    3.75
  17   1   7    3.19    3.38
  17  -1   8   21.97    5.99
  17  -1   8   21.31    5.92
  17   1   8   19.82    5.15
  17   1   8   20.90    5.81
  17  -1   9   13.10    4.62
  17  -1   9   19.59    6.09
  17   1   9   32.25    7.66
  17   1   9   22.73    6.03
  17  -1  10   24.66    5.80
  17   1  10   29.81    7.04
  17  -1  11   31.96    7.79
  17   1  11   36.10    7.17
  17  -1  12   34.36    8.15
  17   1  12   19.09    5.01
  17  -1  13    8.78    4.41
  17   1  13    6.60    3.59
  17  -1  14   20.58    5.67
  17   1  14   15.53    6.11
  17  -1  15    6.71    5.28
  17   1  15    4.32    3.68
  17  -1  16   23.52    6.06
  17   1  16   29.55    7.29
  17   1  17   65.11   11.17
  17  -1  17   47.18    9.64
  17  -2 -17    3.80    2.28
  17  -2 -16   -1.70    2.63
  17  -2 -15    1.75    3.43
  17  -2 -14    5.99    3.78
  17  -2 -13    6.60    2.82
  17  -2 -12    2.00    1.55
  17  -2 -11    5.61    4.83
  17  -2 -11   -0.35    3.28
  17  -2 -10   11.27    4.26
  17  -2 -10    8.24    3.96
  17   2 -10    2.44    3.62
  17  -2  -9    8.39    5.13
  17  -2  -9   14.89    5.51
  17   2  -9    9.78    4.53
  17  -2  -8   21.96    6.20
  17  -2  -8   14.51    5.30
  17   2  -8   14.67    4.36
  17  -2  -7    8.57    5.02
  17  -2  -7   13.32    4.97
  17   2  -7   -5.26    3.02
  17   2  -7   10.74    4.80
  17  -2  -6    2.35    2.78
  17   2  -6   14.54    6.05
  17  -2  -6    3.89    2.80
  17   2  -6   11.72    5.70
  17   2  -6    7.73    4.34
  17  -2  -5    2.69    1.68
  17   2  -5   -0.23    1.65
  17  -2  -5    0.26    1.33
  17   2  -5   -0.42    3.17
  17  -2  -4    8.65    4.00
  17   2  -4   12.25    4.05
  17  -2  -4   -0.59    2.85
  17   2  -4    3.70    2.36
  17   2  -4    2.93    2.23
  17  -2  -3   -2.44    3.43
  17  -2  -3    1.98    2.15
  17   2  -3    2.51    3.88
  17   2  -3   -0.41    1.73
  17   2  -3    1.01    3.23
  17  -2  -2    1.73    1.37
  17  -2  -2    2.00    3.12
  17   2  -2    2.25    3.39
  17   2  -2    4.74    1.47
  17   2  -2    3.80    2.75
  17  -2  -1   -1.35    1.83
  17  -2  -1    4.12    4.50
  17   2  -1    0.78    4.09
  17   2  -1    3.09    3.95
  17   2  -1    6.10    4.26
  17  -2   0   -0.84    2.14
  17  -2   0    1.38    1.74
  17   2   0   -1.39    3.66
  17   2   0    1.87    3.48
  17   2   0   -1.94    2.73
  17  -2   1    0.76    1.71
  17  -2   1    0.09    2.13
  17   2   1    0.99    4.55
  17   2   1    5.70    3.92
  17   2   1   -1.08    1.73
  17  -2   2    5.12    4.21
  17  -2   2    4.65    3.64
  17   2   2    0.36    2.64
  17   2   2    2.82    4.25
  17   2   2    3.95    1.57
  17  -2   3   -0.46    1.98
  17  -2   3    0.46    2.85
  17   2   3    6.00    4.50
  17   2   3   -1.14    2.47
  17   2   3    0.79    1.86
  17  -2   4    2.74    1.17
  17  -2   4   -0.33    3.58
  17   2   4    3.35    2.86
  17   2   4    6.63    3.71
  17   2   4   11.03    3.18
  17  -2   5    2.48    1.74
  17  -2   5    2.41    2.37
  17   2   5    4.94    3.89
  17   2   5    3.72    1.56
  17   2   5    2.10    2.79
  17   2   6    5.23    3.12
  17  -2   6    5.00    2.80
  17  -2   6    7.95    4.59
  17   2   6    5.55    3.26
  17   2   7    9.15    4.53
  17  -2   7   12.20    4.87
  17  -2   7    4.15    3.28
  17   2   7   12.51    4.61
  17   2   8    5.47    3.60
  17  -2   8   13.95    4.45
  17  -2   8   21.54    6.43
  17   2   8   12.41    4.38
  17   2   9    9.68    4.47
  17  -2   9    7.19    4.23
  17  -2   9   12.12    4.17
  17   2   9   10.49    4.79
  17   2  10   -0.01    3.25
  17  -2  10    3.03    1.70
  17   2  10    1.33    3.36
  17   2  11   -0.92    1.89
  17  -2  11    5.36    3.82
  17  -2  11    1.57    2.05
  17   2  12   -1.41    3.53
  17  -2  12    2.92    1.59
  17   2  13    6.82    3.63
  17  -2  13    1.28    2.05
  17   2  14    5.35    3.69
  17  -2  14   13.22    6.75
  17   2  15    5.12    2.21
  17  -2  15    6.81    4.49
  17   2  16    5.90    3.92
  17  -2  16    3.32    2.68
  17   2  17   11.82    4.97
  17  -2  17    8.77    5.15
  17  -3 -15   24.21    6.62
  17  -3 -14   12.15    5.43
  17   3 -14    2.77    3.71
  17  -3 -13   15.85    5.86
  17   3 -13   31.61    7.77
  17  -3 -12    0.72    3.53
  17  -3 -12    1.55    2.72
  17   3 -12   -5.21    4.19
  17  -3 -11   10.09    4.77
  17  -3 -11   14.21    5.61
  17   3 -11   14.20    5.29
  17  -3 -10   28.08    6.74
  17  -3 -10   32.54    7.18
  17   3 -10   25.27    7.22
  17  -3  -9    6.42    3.53
  17  -3  -9   14.55    4.17
  17   3  -9    9.45    4.61
  17  -3  -8    2.83    1.59
  17  -3  -8    2.11    3.22
  17   3  -8   -0.76    1.41
  17  -3  -7   16.67    6.23
  17  -3  -7   23.18    7.03
  17   3  -7   10.63    4.93
  17  -3  -6   -1.89    1.49
  17  -3  -6    5.45    4.32
  17   3  -6    2.18    2.75
  17  -3  -5   53.48    8.92
  17  -3  -5   46.36    9.12
  17   3  -5   53.13    9.08
  17  -3  -4   41.98    8.26
  17   3  -4   63.43   10.25
  17  -3  -4   32.91    8.14
  17   3  -4   40.16    8.44
  17  -3  -3    1.54    2.86
  17  -3  -3    2.97    2.13
  17   3  -3    2.98    1.56
  17   3  -3    2.37    2.25
  17  -3  -2   42.18    8.68
  17   3  -2   44.76    8.62
  17  -3  -2   58.72   10.56
  17   3  -2   62.99   10.31
  17  -3  -1  115.75   13.75
  17   3  -1  142.75   14.45
  17  -3  -1   88.92   12.25
  17   3  -1  126.94   15.03
  17   3  -1  115.21   13.52
  17  -3   0    4.56    3.95
  17  -3   0    1.64    2.04
  17   3   0    0.50    2.13
  17   3   0    3.31    3.61
  17   3   0   -1.16    1.49
  17  -3   1  102.82   13.21
  17   3   1   89.82   11.76
  17  -3   1   92.43   12.96
  17   3   1   98.18   13.01
  17   3   1  113.33   13.23
  17  -3   2   42.70    8.08
  17   3   2   66.42   10.35
  17   3   2   55.14    9.85
  17  -3   2   39.35    7.96
  17   3   2   49.11    8.96
  17   3   3    3.50    2.26
  17  -3   3    3.98    2.25
  17  -3   3    3.49    3.99
  17   3   3    2.28    3.50
  17   3   3    6.04    2.21
  17   3   4   35.39    7.60
  17  -3   4   56.55    9.98
  17  -3   4   49.00    9.64
  17   3   4   42.54    9.39
  17   3   4   46.22    9.57
  17  -3   5   45.94    8.36
  17   3   5   40.51    8.03
  17  -3   5   49.49    9.28
  17   3   5   57.52   10.07
  17   3   5   38.53    8.10
  17   3   6   -2.62    1.94
  17  -3   6    0.22    1.51
  17   3   6    1.06    2.27
  17   3   7   26.09    6.32
  17  -3   7   11.94    3.93
  17  -3   7   19.22    6.26
  17   3   7   22.85    6.53
  17   3   8    0.44    1.46
  17  -3   8    1.60    1.65
  17  -3   8    3.09    4.28
  17   3   9   19.11    5.37
  17  -3   9   16.19    6.03
  17  -3   9   11.16    5.71
  17   3   9   19.82    6.71
  17   3  10   48.36    8.20
  17  -3  10   38.88    8.87
  17  -3  10   30.70    7.20
  17   3  10   24.30    8.37
  17   3  11   14.48    3.52
  17  -3  11   17.04    5.67
  17  -3  11    6.05    2.24
  17   3  12    0.01    2.46
  17  -3  12   -0.42    3.49
  17  -3  12    1.58    3.40
  17   3  13   13.88    4.95
  17  -3  13   11.06    5.58
  17  -3  13   16.71    6.54
  17   3  14    1.30    2.49
  17  -3  14    4.08    1.92
  17  -3  14    8.67    4.64
  17   3  15   27.59    6.79
  17  -3  15   34.41    8.06
  17  -4 -14   19.67    6.35
  17   4 -14   11.31    4.51
  17  -4 -13   18.65    6.28
  17   4 -13   23.72    6.33
  17  -4 -12   19.60    6.71
  17  -4 -12   -0.40    3.48
  17   4 -12   18.42    5.75
  17  -4 -11    6.48    3.38
  17  -4 -11    7.47    3.75
  17   4 -11   15.95    4.47
  17  -4 -10    7.35    3.91
  17  -4 -10    2.38    2.52
  17   4 -10    3.29    2.87
  17  -4  -9    3.87    3.49
  17  -4  -9   -0.94    2.33
  17   4  -9   -1.62    1.99
  17  -4  -8   12.14    5.48
  17  -4  -8    7.16    5.98
  17   4  -8   10.09    3.91
  17  -4  -7    2.40    2.82
  17  -4  -7   -2.46    2.36
  17   4  -7    5.39    3.87
  17  -4  -6   15.11    4.81
  17  -4  -6   14.82    4.53
  17   4  -6   24.31    6.00
  17  -4  -5   28.55    7.67
  17  -4  -5   20.30    5.86
  17   4  -5   19.69    5.72
  17  -4  -4    2.54    1.71
  17  -4  -4    9.64    4.67
  17   4  -4    8.13    3.51
  17  -4  -3    7.48    3.28
  17  -4  -3    0.25    3.45
  17   4  -3    1.59    1.80
  17   4  -3    5.71    3.13
  17   4  -2   14.63    6.39
  17  -4  -2   16.64    5.23
  17  -4  -2   14.77    6.59
  17   4  -2    7.45    3.07
  17   4  -1   13.18    3.98
  17  -4  -1   25.42    7.36
  17  -4  -1   18.49    6.69
  17   4  -1   18.51    6.31
  17   4   0   12.24    4.76
  17   4   0   12.21    4.53
  17  -4   0   12.61    5.03
  17  -4   0   15.71    6.86
  17   4   1   20.76    6.10
  17   4   1   22.99    6.30
  17  -4   1   10.66    4.64
  17  -4   1   22.37    5.30
  17   4   2   12.83    5.12
  17   4   2   22.85    6.09
  17  -4   2   13.17    5.00
  17  -4   2   22.48    5.76
  17   4   3    2.20    1.98
  17   4   3   -0.15    2.41
  17  -4   3    8.47    4.12
  17  -4   3    7.97    4.42
  17   4   4    0.22    3.55
  17   4   4    3.92    4.50
  17  -4   4    5.22    3.12
  17  -4   4    5.16    4.08
  17   4   5   18.54    6.13
  17  -4   5    9.20    4.00
  17  -4   5   23.96    7.02
  17   4   6   18.15    5.75
  17   4   6   22.49    6.24
  17  -4   6   11.01    4.89
  17  -4   6   13.43    5.38
  17   4   7    2.80    2.90
  17   4   7    4.02    2.52
  17  -4   7   -0.78    3.28
  17  -4   7    0.20    2.38
  17   4   8    6.27    3.73
  17   4   8    5.86    2.63
  17  -4   8    1.51    2.52
  17  -4   8    3.57    3.51
  17   4   9    5.76    4.31
  17   4   9    1.31    3.35
  17  -4   9   -1.15    2.53
  17  -4   9    5.06    5.54
  17   4  10    4.55    4.16
  17   4  10    7.72    3.42
  17  -4  10    6.30    3.40
  17  -4  10    3.09    3.10
  17   4  11   14.17    6.12
  17   4  11    5.00    1.36
  17  -4  11   10.31    4.49
  17  -4  11   12.29    6.53
  17  -4  12    4.68    3.86
  17  -4  12    7.83    4.31
  17   4  13   30.70    6.16
  17  -4  13   33.41    8.57
  17  -4  13   22.72    5.91
  17   4  14   14.45    5.61
  17  -4  14    8.59    4.35
  17  -4  14   20.60    5.98
  17  -5 -11    9.69    4.75
  17  -5 -11   10.92    3.89
  17   5 -11   12.39    4.94
  17  -5 -10   39.98    8.32
  17   5 -10   47.65    8.60
  17  -5  -9    1.18    3.04
  17  -5  -9    2.65    4.11
  17   5  -9    6.76    4.69
  17  -5  -8    6.42    2.44
  17  -5  -8   10.50    4.27
  17   5  -8    6.78    4.43
  17  -5  -7   37.92    8.07
  17  -5  -7   22.98    6.94
  17   5  -7   34.97    7.93
  17   5  -6   41.09    8.09
  17  -5  -6   25.92    6.75
  17  -5  -6   44.22    9.33
  17   5  -5    6.50    5.38
  17  -5  -5   18.94    5.38
  17  -5  -5   11.01    4.69
  17   5  -4    7.77    5.24
  17  -5  -4    4.58    2.99
  17  -5  -4    2.11    3.76
  17   5  -3   13.75    6.45
  17  -5  -3   11.03    5.54
  17  -5  -3   18.40    6.64
  17   5  -2    7.11    4.75
  17   5  -2   14.12    5.75
  17  -5  -2   14.48    6.38
  17  -5  -2    7.64    4.06
  17   5  -1   10.44    3.92
  17   5  -1   24.25    5.53
  17  -5  -1   20.09    7.13
  17  -5  -1   27.81    7.18
  17   5   0   15.12    6.46
  17   5   0   34.74    8.21
  17  -5   0   17.67    6.01
  17  -5   0   37.12    8.81
  17   5   1   15.18    6.00
  17   5   1   18.18    5.22
  17  -5   1   19.82    6.43
  17  -5   1   11.33    4.42
  17   5   2    7.49    4.35
  17   5   2    8.18    3.80
  17  -5   2   15.92    4.88
  17  -5   2    6.50    4.26
  17   5   3    5.34    3.57
  17   5   3    8.83    4.01
  17  -5   3   14.55    4.65
  17  -5   3    8.62    3.20
  17   5   4    4.14    2.36
  17   5   4   10.70    4.60
  17  -5   4    7.52    5.35
  17  -5   4    3.45    1.82
  17   5   5    7.99    2.86
  17   5   5   12.36    3.99
  17  -5   5   14.37    4.84
  17  -5   5   10.91    5.73
  17   5   6   44.92    8.37
  17  -5   6   42.31    8.40
  17  -5   6   27.21    7.23
  17   5   6   55.90    9.32
  17   5   7   15.13    4.18
  17   5   7   30.34    6.94
  17  -5   7   20.22    6.07
  17  -5   7   24.08    7.65
  17   5   8    3.51    1.57
  17   5   8    3.53    2.76
  17  -5   8    7.77    4.41
  17  -5   8    6.05    4.82
  17   5   9   -4.86    4.19
  17   5   9    5.39    3.10
  17  -5   9    7.27    3.74
  17  -5   9    8.13    3.66
  17   5  10   36.91    8.85
  17   5  10   41.76    7.98
  17  -5  10   42.33    8.94
  17  -5  10   52.22    9.58
  17   5  11   10.45    4.03
  17   5  11   10.98    4.43
  17  -5  11    9.07    4.56
  17  -5  11   15.17    6.03
  17   6  -7    5.40    3.56
  17  -6  -7    1.00    1.57
  17  -6  -7    6.04    4.91
  17   6  -6    0.71    1.68
  17  -6  -6    3.33    3.76
  17  -6  -6    9.39    5.04
  17   6  -5    0.17    2.88
  17  -6  -5    4.16    3.94
  17  -6  -5    7.48    3.66
  17   6  -4    4.09    3.49
  17  -6  -4    5.81    4.06
  17  -6  -4    0.25    2.71
  17   6  -3    5.64    1.90
  17  -6  -3    5.30    3.73
  17   6  -2    4.35    2.06
  17  -6  -2    0.22    2.86
  17  -6  -2    1.18    2.63
  17   6  -1    0.49    2.93
  17  -6  -1    3.35    3.54
  17  -6  -1    3.60    3.33
  17   6   0    3.90    3.62
  17   6   0    1.86    2.58
  17  -6   0    5.67    5.17
  17  -6   0    4.28    3.27
  17   6   1   -0.88    2.93
  17  -6   1   -1.78    3.61
  17   6   1    2.68    2.78
  17  -6   1   -0.14    2.08
  17   6   2   -2.82    4.71
  17  -6   2    1.16    2.00
  17  -6   2    3.02    3.27
  17   6   3    4.53    3.60
  17  -6   3    6.05    3.72
  17   6   3    8.58    4.66
  17  -6   3   -5.35    5.60
  17   6   4    2.68    4.23
  17  -6   4    4.21    3.30
  17   6   4    6.70    2.20
  17  -6   4    2.70    3.54
  17   6   5    5.65    3.44
  17  -6   5    0.02    4.40
  17   6   5   -0.84    4.00
  17  -6   5   -0.57    2.79
  17   6   6    6.07    5.05
  17  -6   6    9.20    5.21
  17   6   6    4.70    4.43
  17  -6   6    6.23    3.83
  17   6   7    4.13    3.99
  17  -6   7   -4.33    3.41
  17   6   7    4.21    4.39
  17  -6   7    5.23    5.04
  18   0 -15  340.40   26.47
  18   0 -14   -0.73    2.04
  18   0 -13   20.66    6.22
  18   0 -12   46.09    9.96
  18   0 -11  255.98   21.99
  18   0 -10   39.10    8.35
  18   0  -9   26.44    5.89
  18   0  -8   26.87    9.45
  18   0  -8   14.10    5.98
  18   0  -7   10.69    4.11
  18   0  -7    7.99    5.38
  18   0  -6    4.68    3.37
  18   0  -6    4.28    3.71
  18   0  -5   98.60   12.16
  18   0  -5  106.06   13.72
  18   0  -4  119.08   14.03
  18   0  -4  116.68   14.25
  18   0  -3  118.20   14.10
  18   0  -3   88.99   12.12
  18   0  -2   37.33    7.79
  18   0  -2   17.34    6.24
  18   0  -1   61.80    9.59
  18   0  -1   57.53   10.02
  18   0   0   36.66    7.43
  18   0   0   38.44    8.67
  18   0   1   55.91    9.59
  18   0   1   46.38    8.59
  18   0   2   30.96    7.38
  18   0   2   33.32    8.00
  18   0   3  120.40   13.78
  18   0   3  104.24   13.20
  18   0   4  107.43   13.03
  18   0   4  113.65   13.66
  18   0   5  105.75   13.24
  18   0   5  117.49   14.35
  18   0   6    2.08    1.67
  18   0   6    1.83    1.82
  18   0   7    5.27    3.62
  18   0   7   13.15    5.02
  18   0   8    9.02    3.49
  18   0   8   14.27    5.14
  18   0   9   50.63    9.02
  18   0   9   47.91    8.89
  18   0  10   25.05    6.38
  18   0  11  335.44   23.43
  18   0  12   34.65    7.74
  18   0  13   41.80    8.79
  18   0  14    2.62    4.32
  18   0  15  362.65   25.09
  18  -1 -15   31.19    7.62
  18  -1 -14    1.14    3.94
  18  -1 -13    3.02    4.76
  18  -1 -12   -2.16    3.64
  18  -1 -11    3.69    3.58
  18  -1 -10   36.71    9.05
  18   1 -10   33.42    8.43
  18  -1  -9    2.52    2.82
  18  -1  -9    4.30    2.34
  18   1  -9    4.53    4.52
  18  -1  -8    1.61    3.60
  18  -1  -8    7.58    3.65
  18   1  -8    2.86    3.76
  18  -1  -7    3.59    1.94
  18   1  -7   -4.24    2.64
  18  -1  -7    2.34    1.88
  18   1  -7    5.10    4.02
  18  -1  -6   19.53    5.05
  18   1  -6   18.58    5.78
  18  -1  -6   33.04    8.44
  18   1  -6   37.52    7.72
  18  -1  -5   -2.13    3.95
  18   1  -5    1.75    2.62
  18  -1  -5    4.11    2.96
  18   1  -5   -0.84    4.08
  18  -1  -4    0.14    3.14
  18   1  -4    0.29    2.62
  18  -1  -4   -3.51    4.53
  18   1  -4    2.46    2.92
  18  -1  -3    2.98    3.07
  18   1  -3   -0.74    3.61
  18  -1  -3    2.75    3.11
  18   1  -3   -1.36    1.62
  18  -1  -2   -3.56    3.70
  18   1  -2    1.93    3.67
  18  -1  -2   -1.48    3.18
  18   1  -2   -2.74    4.52
  18  -1  -1    2.92    3.00
  18   1  -1    4.03    2.89
  18  -1  -1    1.96    1.42
  18   1  -1    2.57    2.52
  18  -1   0    1.82    5.13
  18   1   0    3.04    3.24
  18  -1   0    0.67    3.07
  18   1   0   -0.26    2.17
  18  -1   1    1.09    2.01
  18   1   1    1.46    2.00
  18  -1   1    5.32    3.27
  18   1   1    3.07    2.04
  18  -1   2   -0.14    2.45
  18   1   2   -0.71    2.30
  18  -1   2    0.28    2.33
  18   1   2   -1.61    2.20
  18   1   2   -2.82    4.02
  18  -1   3    0.30    2.46
  18   1   3   -0.11    2.23
  18  -1   3    6.07    5.43
  18   1   3   -0.31    2.63
  18   1   3    3.96    3.73
  18  -1   4   -2.40    3.11
  18  -1   4   -2.93    4.02
  18   1   4    2.60    3.10
  18   1   4   -0.55    2.83
  18   1   4   -0.40    3.33
  18  -1   5    3.44    1.43
  18  -1   5    0.09    2.17
  18   1   5    3.88    3.69
  18   1   5    4.03    3.45
  18  -1   6   23.59    6.44
  18  -1   6   39.41    8.33
  18   1   6   21.42    6.20
  18   1   6   25.09    6.28
  18  -1   7    4.29    4.23
  18  -1   7   10.05    4.00
  18   1   7    6.03    3.57
  18   1   7    4.49    1.44
  18  -1   8    3.15    1.98
  18  -1   8    5.80    4.11
  18   1   8    2.98    2.17
  18   1   8    4.15    3.06
  18  -1   9    0.39    1.93
  18  -1   9   -1.90    1.72
  18  -1  10   31.13    7.28
  18  -1  10   48.25    9.26
  18   1  10   44.45    8.02
  18  -1  11   -5.01    5.20
  18  -1  11   -2.55    5.11
  18   1  11    0.45    2.58
  18  -1  12    0.43    3.51
  18   1  12   -0.59    2.96
  18  -1  13    1.39    1.48
  18   1  13    5.34    3.80
  18  -1  14   -4.88    4.77
  18   1  14    1.85    3.91
  18  -1  15   38.42    8.36
  18   1  15   28.70    7.47
  18  -2 -14   15.93    5.34
  18  -2 -13    7.40    3.50
  18  -2 -12    0.20    2.67
  18  -2 -11   38.10    7.93
  18  -2 -10   23.62    6.95
  18  -2 -10   30.53    7.85
  18  -2  -9    0.09    2.14
  18   2  -9   -2.16    1.41
  18  -2  -8    1.34    3.17
  18  -2  -8   -0.73    2.82
  18   2  -8    0.27    2.63
  18  -2  -7    0.56    3.92
  18  -2  -7    0.82    1.50
  18   2  -7    3.98    3.01
  18  -2  -6   27.29    6.96
  18  -2  -6   30.83    7.72
  18   2  -6   31.61    7.10
  18  -2  -5   59.74   10.12
  18   2  -5   62.01   11.93
  18   2  -5   45.71    8.92
  18  -2  -5   44.28    9.21
  18   2  -5   27.06    6.38
  18  -2  -4   31.01    6.96
  18   2  -4   30.46    7.03
  18  -2  -4   16.82    5.11
  18   2  -4   41.54    7.97
  18   2  -4   50.49    9.07
  18  -2  -3   13.27    5.12
  18   2  -3   11.70    4.24
  18  -2  -3    8.76    4.24
  18   2  -3    9.30    4.96
  18   2  -3    2.20    2.48
  18  -2  -2   17.55    5.28
  18   2  -2   27.34    6.81
  18  -2  -2   19.44    6.09
  18   2  -2   15.20    6.46
  18   2  -2   13.57    5.18
  18  -2  -1   67.06   10.54
  18   2  -1   72.51   10.82
  18  -2  -1   61.72   11.16
  18   2  -1   72.54   12.37
  18   2  -1   66.08   10.75
  18  -2   0   63.44   10.17
  18   2   0   68.01   10.25
  18  -2   0   54.29    9.95
  18   2   0   54.58    9.55
  18   2   0   56.34    9.50
  18  -2   1   65.78   10.59
  18   2   1   70.35   10.55
  18  -2   1   62.63   11.18
  18   2   1   73.85   11.15
  18   2   1   69.67   10.84
  18  -2   2    9.73    3.75
  18  -2   2   18.07    5.50
  18   2   2   27.64    7.53
  18   2   2   16.27    5.20
  18   2   2   19.62    6.01
  18  -2   3    9.52    5.40
  18  -2   3    6.11    4.17
  18   2   3   14.57    5.24
  18   2   3   17.67    5.01
  18   2   3   12.19    4.16
  18  -2   4   37.34    8.23
  18  -2   4   29.72    6.95
  18   2   4   43.03    9.24
  18   2   4   37.10    7.50
  18   2   4   35.40    7.32
  18  -2   5   60.02    9.85
  18   2   5   53.42    9.56
  18  -2   5   55.39   10.26
  18   2   5   53.43    9.88
  18   2   5   72.07   10.74
  18  -2   6   31.12    7.04
  18  -2   6   29.11    5.75
  18   2   6   33.28    7.98
  18   2   6   27.71    7.18
  18   2   6   29.14    7.17
  18  -2   7    3.17    3.82
  18  -2   7    4.68    3.17
  18   2   7   -1.02    2.53
  18   2   7    6.19    2.24
  18   2   7    0.30    2.08
  18  -2   8   -1.34    3.93
  18  -2   8   -0.50    3.26
  18   2   8   -1.73    2.51
  18   2   8   -0.07    1.47
  18   2   9   -4.32    4.13
  18  -2   9    0.34    4.61
  18  -2   9    2.88    1.56
  18   2   9    4.63    3.71
  18   2  10   31.73    7.45
  18  -2  10   22.40    6.40
  18  -2  11   35.97    7.51
  18   2  11   48.02    9.63
  18  -2  11   25.06    6.93
  18   2  12    3.81    3.44
  18  -2  12    2.21    2.51
  18  -2  12   -4.54    4.86
  18   2  13    9.92    3.43
  18  -2  13    6.55    4.62
  18  -2  13    8.18    5.99
  18   2  14    4.68    2.09
  18  -2  14   -2.46    4.11
  18  -3 -13   14.07    5.73
  18   3 -13   14.29    5.13
  18  -3 -12   31.82    8.70
  18   3 -12   27.96    6.91
  18  -3 -11    6.54    5.54
  18  -3 -11   -2.71    3.96
  18   3 -11    3.79    2.02
  18  -3 -10    0.79    3.58
  18   3 -10    3.65    3.10
  18  -3  -9   -1.85    3.09
  18  -3  -9    4.06    3.98
  18   3  -9   10.10    5.49
  18  -3  -8    1.33    2.97
  18  -3  -8   -1.04    2.61
  18   3  -8    2.24    2.83
  18  -3  -7   -0.15    2.07
  18  -3  -7    2.75    3.44
  18   3  -7   -0.59    1.67
  18  -3  -6   40.36    8.09
  18  -3  -6   42.62    8.86
  18   3  -6   45.64    8.98
  18  -3  -5    0.19    1.46
  18  -3  -5   -0.38    2.65
  18  -3  -4   15.46    5.42
  18  -3  -4   10.50    4.11
  18   3  -4   12.49    5.47
  18   3  -4   13.79    4.09
  18  -3  -3    0.57    1.32
  18  -3  -3   -1.23    1.62
  18   3  -3    0.26    2.21
  18   3  -3    0.34    2.27
  18  -3  -2    2.37    1.58
  18  -3  -2    1.70    3.84
  18   3  -2    4.03    3.09
  18   3  -2   -1.88    3.79
  18  -3  -1    1.81    2.15
  18  -3  -1    0.27    3.48
  18   3  -1    0.25    1.56
  18   3  -1   -2.39    2.45
  18  -3   0    6.75    4.99
  18  -3   0   10.50    4.58
  18   3   0    7.01    3.95
  18   3   0    8.96    3.44
  18  -3   1    1.00    2.87
  18  -3   1    0.18    3.66
  18   3   1   -0.93    2.02
  18   3   1    1.11    3.35
  18  -3   2   -2.36    1.49
  18  -3   2    0.85    3.64
  18   3   2    2.11    3.05
  18   3   2   -1.64    3.24
  18   3   2   -0.80    2.47
  18   3   3   -0.10    1.44
  18  -3   3   -2.40    2.80
  18  -3   3    0.55    3.54
  18   3   3    3.03    2.50
  18   3   3   -1.93    2.98
  18   3   4   15.45    4.92
  18  -3   4   19.93    6.26
  18  -3   4   12.07    5.34
  18   3   4   22.87    6.12
  18   3   4    6.73    2.50
  18   3   5    3.46    3.25
  18  -3   5    5.01    4.31
  18  -3   5   -0.09    3.72
  18   3   5    1.76    2.07
  18   3   5   -0.69    1.88
  18   3   6   40.73    7.93
  18  -3   6   45.25    9.01
  18  -3   6   43.96    8.88
  18   3   6   27.91    7.37
  18   3   6   34.46    7.98
  18   3   7    1.30    2.78
  18  -3   7    4.40    4.12
  18  -3   7    2.21    3.64
  18   3   7    2.79    3.72
  18   3   8   -0.18    1.99
  18  -3   8    2.88    2.22
  18  -3   8    3.89    3.03
  18   3   8   -0.97    3.34
  18   3   9    2.13    2.64
  18  -3   9    0.12    1.28
  18  -3   9    4.52    2.54
  18   3   9    7.02    4.79
  18   3  10    0.07    1.67
  18  -3  10    6.04    3.46
  18  -3  10    3.93    3.03
  18   3  10    6.98    4.76
  18   3  11   -1.93    2.61
  18  -3  11   -2.95    4.18
  18   3  12   11.63    5.00
  18  -3  12   24.57    6.69
  18  -3  12   22.76    7.02
  18   3  13   17.76    5.69
  18  -3  13   26.98    7.74
  18  -3  13   20.00    7.07
  18  -4 -11   27.53    7.35
  18  -4 -11   12.04    4.88
  18   4 -11   22.03    6.16
  18  -4 -10   31.02    7.49
  18  -4 -10   33.91    8.83
  18   4 -10   19.40    6.31
  18  -4  -9    1.34    2.79
  18  -4  -9   10.14    3.84
  18  -4  -8    5.17    3.67
  18  -4  -8    6.26    5.35
  18   4  -8   10.76    5.36
  18  -4  -7   33.76    8.33
  18  -4  -7   39.84    8.74
  18   4  -7   29.46    7.16
  18  -4  -6   54.86   10.12
  18  -4  -6   63.26   10.62
  18   4  -6   65.13   10.02
  18  -4  -5   62.15   10.25
  18  -4  -5   56.42   10.61
  18   4  -5   55.33    9.88
  18  -4  -4    5.89    3.54
  18  -4  -4    2.83    2.16
  18   4  -4   -2.97    4.12
  18  -4  -3    4.51    3.79
  18  -4  -3   -2.24    3.72
  18   4  -3   -0.64    1.73
  18  -4  -2    1.48    3.25
  18  -4  -2    4.07    4.04
  18   4  -2    3.03    3.48
  18   4  -2    5.10    3.76
  18  -4  -1   55.82    9.33
  18   4  -1   50.13    9.20
  18  -4  -1   57.74    9.72
  18   4  -1   68.96   11.30
  18  -4   0   37.89    7.50
  18   4   0   54.55    9.60
  18  -4   0   48.94    9.32
  18   4   0   52.36    8.96
  18   4   1   39.99    8.16
  18  -4   1   68.59   10.57
  18  -4   1   41.96    9.15
  18   4   1   56.68   10.20
  18   4   2    2.49    3.05
  18  -4   2   -3.63    3.51
  18  -4   2    4.81    2.11
  18   4   2    2.83    2.84
  18   4   3   -0.34    2.71
  18  -4   3    0.30    3.25
  18  -4   3    1.92    4.10
  18   4   3   -0.88    1.55
  18   4   4   -0.18    3.94
  18  -4   4    1.65    1.56
  18  -4   4    0.02    3.29
  18   4   4    2.97    4.59
  18  -4   5   53.39    9.91
  18   4   5   45.60    8.53
  18  -4   5   66.07   12.00
  18   4   5   55.19    9.80
  18  -4   6   87.46   12.40
  18   4   6   73.55   10.66
  18  -4   6   59.47   11.02
  18   4   6   57.27   10.71
  18   4   7   39.63    8.62
  18  -4   7   32.06    8.48
  18  -4   7   37.28    8.21
  18   4   7   40.65    8.97
  18   4   8    2.07    2.88
  18  -4   8    7.33    5.09
  18  -4   8    4.51    4.77
  18   4   8    3.12    2.44
  18   4   9   10.50    4.36
  18  -4   9    5.31    3.33
  18  -4   9    8.96    4.06
  18   4   9    4.14    2.53
  18   4  10   43.07    8.52
  18  -4  10   24.14    6.97
  18  -4  10   32.39    8.25
  18   4  10   24.91    7.40
  18   4  11   38.19    8.56
  18  -4  11   32.34    6.85
  18  -4  11   17.79    6.66
  18  -5  -7   -1.26    2.03
  18  -5  -7    3.60    3.95
  18   5  -7    1.64    3.29
  18  -5  -6    4.40    2.57
  18  -5  -6    4.68    2.80
  18   5  -6    3.68    2.74
  18  -5  -5    0.05    2.29
  18  -5  -5    0.43    3.14
  18   5  -5   -1.50    2.24
  18  -5  -4    6.03    4.84
  18  -5  -4    4.11    2.61
  18   5  -4    5.11    4.11
  18  -5  -3    0.66    2.54
  18  -5  -3   -1.29    2.58
  18   5  -3    0.09    2.84
  18   5  -2    5.70    1.83
  18  -5  -2    3.02    4.27
  18  -5  -2   -0.77    3.14
  18   5  -1    4.70    3.81
  18   5  -1   10.05    4.09
  18  -5  -1    7.73    4.46
  18  -5  -1    2.83    3.46
  18   5   0    0.13    2.44
  18   5   0   -0.63    2.57
  18  -5   0    2.71    3.20
  18  -5   0    1.73    3.70
  18   5   1    1.48    3.17
  18   5   1    3.63    3.39
  18  -5   1   12.24    5.16
  18  -5   1    6.15    3.25
  18   5   2    0.56    3.25
  18   5   2    4.00    3.20
  18  -5   2   -4.86    2.89
  18  -5   2   -0.31    3.23
  18   5   3   -0.41    3.90
  18   5   3    1.25    3.01
  18  -5   3   -2.28    3.70
  18  -5   3    0.29    4.24
  18   5   4    6.67    4.55
  18   5   4    0.12    1.69
  18  -5   4    2.51    2.07
  18  -5   4    2.68    2.50
  18   5   5    2.10    4.31
  18   5   5    0.90    1.80
  18  -5   5   -4.07    4.45
  18  -5   5   -3.78    2.75
  18   5   6    1.98    3.87
  18   5   6    7.87    4.63
  18  -5   6    1.48    4.19
  18  -5   6    8.16    3.86
  18   5   7    1.60    2.08
  18   5   7    2.55    3.68
  18  -5   7    0.81    1.81
  18  -5   7    1.70    2.97
  19   0 -12   -1.86    3.80
  19   0 -11    0.20    3.07
  19   0 -10   -2.81    4.18
  19   0  -9    1.13    1.63
  19   0  -8   -1.01    2.14
  19   0  -7   -0.24    2.38
  19   0  -7    1.19    4.36
  19   0  -6    0.57    2.22
  19   0  -6    3.45    1.88
  19   0  -5   -0.84    1.85
  19   0  -5   -2.24    3.38
  19   0  -4    2.14    1.69
  19   0  -4    2.13    1.78
  19   0  -3   -1.61    3.37
  19   0  -3    3.00    3.46
  19   0  -2    2.97    3.56
  19   0  -2   -2.22    3.84
  19   0  -1    4.94    3.02
  19   0  -1   -0.03    3.34
  19   0   0    0.28    1.54
  19   0   0    0.17    2.97
  19   0   1    0.48    2.57
  19   0   1    0.69    3.61
  19   0   2    2.28    3.41
  19   0   2    3.01    3.67
  19   0   3    0.30    2.52
  19   0   3   -1.35    2.79
  19   0   4    0.37    2.74
  19   0   4   -2.13    3.05
  19   0   5    0.72    1.84
  19   0   5    0.56    2.95
  19   0   6    0.74    1.69
  19   0   6    0.08    2.12
  19   0   7   -1.78    1.88
  19   0   7    1.77    2.96
  19   0   8   -0.07    2.50
  19   0   8    1.44    2.61
  19   0   9   -1.66    3.03
  19   0   9    1.03    2.02
  19   0  10    2.12    2.72
  19   0  10   -1.96    3.58
  19   0  11   -2.03    3.55
  19   0  11    1.05    1.75
  19   0  12    3.16    2.28
  19  -1 -12   -2.10    3.84
  19  -1 -11   41.39    7.96
  19  -1 -10   74.69   11.99
  19  -1  -9   11.44    5.71
  19   1  -9   10.40    5.85
  19  -1  -8   18.31    5.67
  19  -1  -8   12.24    5.05
  19   1  -8   15.09    2.47
  19  -1  -7   25.49    7.00
  19  -1  -7   12.57    6.07
  19   1  -7   14.69    4.69
  19   1  -6   45.01   11.05
  19  -1  -6   28.55    7.05
  19  -1  -6   30.56    7.94
  19   1  -6   27.72    6.76
  19  -1  -5   35.87    8.17
  19   1  -5   44.80    9.16
  19  -1  -5   46.91    9.79
  19   1  -5   40.53    9.13
  19  -1  -4   21.96    6.49
  19   1  -4   28.70    7.66
  19  -1  -4   17.75    6.23
  19   1  -4   12.23    6.99
  19  -1  -3   11.24    2.97
  19   1  -3   12.77    3.84
  19  -1  -3    8.73    4.15
  19   1  -3   10.25    4.59
  19  -1  -2   54.63    9.98
  19   1  -2   62.73   10.33
  19  -1  -2   56.64   10.46
  19   1  -2   66.79   11.55
  19  -1  -1   46.98    8.48
  19   1  -1   31.44    7.93
  19  -1  -1   49.70    9.35
  19   1  -1   45.99   10.03
  19  -1   0    4.78    3.87
  19   1   0    6.93    2.03
  19  -1   0    9.26    3.00
  19   1   0    8.72    4.41
  19  -1   1   40.91    8.12
  19   1   1   40.47    8.30
  19  -1   1   27.34    6.69
  19   1   1   44.37    9.60
  19  -1   2   56.85    9.58
  19   1   2   51.69    9.69
  19  -1   2   57.53   10.83
  19   1   2   63.21   11.03
  19  -1   3   13.73    5.52
  19   1   3    3.94    2.62
  19  -1   3   14.06    6.00
  19   1   3   16.21    5.50
  19  -1   4   29.26    8.15
  19   1   4   20.12    6.16
  19  -1   4   24.72    6.96
  19   1   4   29.41    7.74
  19  -1   5   44.50    8.85
  19   1   5   36.82    7.20
  19  -1   5   43.17    8.98
  19   1   5   44.56    8.53
  19  -1   6   35.20    7.52
  19   1   6   41.33    8.13
  19  -1   6   34.12    7.84
  19   1   6   27.71    8.15
  19  -1   7   11.21    4.25
  19  -1   7   29.33    8.29
  19   1   7   27.92    7.64
  19   1   7   27.97    7.05
  19  -1   8   11.54    5.06
  19  -1   8    7.34    3.02
  19   1   8   13.86    6.32
  19   1   8   16.56    5.71
  19  -1   9   11.49    3.80
  19  -1   9    9.98    5.15
  19   1   9   11.83    6.44
  19   1   9   20.17    5.78
  19  -1  10   70.64   11.10
  19   1  10   63.25   10.97
  19  -1  10   54.71    9.67
  19  -1  11   41.06    8.32
  19  -1  11   35.44    9.31
  19   1  11   42.49    8.74
  19  -1  12    3.47    2.92
  19  -1  12    3.83    4.79
  19   1  12    0.15    4.08
  19  -2 -11    4.48    3.43
  19  -2 -10    5.38    2.96
  19  -2  -9    0.46    1.82
  19  -2  -9   -0.22    3.04
  19  -2  -8    5.26    4.70
  19  -2  -8    2.94    3.50
  19  -2  -7   10.99    4.11
  19  -2  -7    4.41    1.77
  19  -2  -6    6.08    2.77
  19   2  -6   16.63    5.07
  19  -2  -5   16.24    5.91
  19   2  -5   19.52    5.42
  19  -2  -4    7.31    4.02
  19   2  -4   12.26    5.83
  19  -2  -4    5.21    2.11
  19   2  -4   17.30    5.90
  19  -2  -3    4.34    4.23
  19   2  -3   13.01    4.81
  19  -2  -3    9.70    5.13
  19   2  -3    2.76    3.28
  19   2  -3    9.17    4.00
  19  -2  -2   -3.11    4.03
  19   2  -2   -0.64    3.24
  19  -2  -2    6.90    4.08
  19   2  -2    6.14    5.38
  19   2  -2    8.55    4.69
  19  -2  -1    6.92    4.32
  19   2  -1   11.44    5.40
  19  -2  -1    9.61    3.64
  19   2  -1    3.51    3.43
  19   2  -1    1.53    2.33
  19  -2   0    2.96    3.26
  19  -2   0    6.74    2.37
  19   2   0    8.18    3.84
  19   2   0    6.62    2.77
  19  -2   1    3.86    3.99
  19   2   1    7.68    4.11
  19   2   1    4.54    4.15
  19   2   1   -0.17    2.61
  19  -2   2    3.76    2.43
  19  -2   2    6.64    5.06
  19   2   2   -0.21    3.28
  19   2   2    0.34    1.77
  19   2   2    4.24    3.33
  19  -2   3    4.18    3.55
  19  -2   3    4.58    3.35
  19   2   3   13.44    5.96
  19   2   3    8.80    4.07
  19   2   3   12.24    6.14
  19  -2   4   12.77    4.45
  19  -2   4    1.60    3.18
  19   2   4    5.95    4.28
  19   2   4    6.28    2.69
  19   2   4    9.19    3.28
  19  -2   5   26.55    7.30
  19  -2   5   24.56    7.74
  19   2   5   29.61    7.76
  19   2   5   22.06    6.14
  19   2   5   10.43    5.81
  19  -2   6   24.60    7.54
  19  -2   6   13.55    5.22
  19   2   6   26.27    7.48
  19   2   6   14.11    4.75
  19   2   6   11.45    4.54
  19  -2   7    6.29    3.94
  19  -2   7    0.97    2.65
  19   2   7   11.25    4.69
  19   2   7    9.14    3.90
  19   2   7    8.97    5.20
  19  -2   8    2.65    3.48
  19   2   8   -0.79    3.41
  19   2   8   -4.20    2.24
  19   2   8    4.83    3.10
  19  -2   9    2.69    3.32
  19  -2   9    5.18    5.05
  19   2   9    0.49    2.55
  19  -2  10    1.15    2.63
  19   2  10    1.94    1.92
  19  -2  11    8.45    2.21
  19  -2  11    5.42    4.56
  19   2  11    7.11    3.70
  19  -3  -9   13.98    4.81
  19  -3  -9   11.37    4.87
  19   3  -9    7.88    2.73
  19  -3  -8   20.38    5.81
  19  -3  -8   20.22    6.07
  19   3  -8   26.59    7.00
  19  -3  -7    3.31    2.53
  19  -3  -7    5.28    2.30
  19   3  -7    3.83    3.40
  19  -3  -6    4.32    3.26
  19  -3  -6    7.84    4.05
  19   3  -6    9.78    5.72
  19  -3  -5    8.86    3.19
  19  -3  -5    9.68    4.42
  19   3  -5   15.49    5.64
  19  -3  -4    5.17    3.43
  19  -3  -4    6.06    3.34
  19   3  -4    4.97    1.60
  19  -3  -3    3.38    3.41
  19  -3  -3   10.50    4.25
  19   3  -3    3.33    3.38
  19   3  -3    7.25    4.78
  19  -3  -2    6.44    4.84
  19  -3  -2   14.17    5.23
  19   3  -2   26.79    7.17
  19   3  -2   14.97    6.06
  19  -3  -1    1.08    2.84
  19  -3  -1   11.37    5.40
  19   3  -1    7.57    4.71
  19   3  -1    2.42    4.13
  19  -3   0   -0.35    2.30
  19  -3   0    1.63    3.06
  19   3   0    3.09    2.68
  19   3   0    3.99    3.83
  19  -3   1   10.07    4.47
  19  -3   1   10.84    5.20
  19   3   1    5.61    3.24
  19   3   1   11.63    5.06
  19  -3   2   10.12    4.32
  19  -3   2   23.97    6.38
  19   3   2   21.11    6.12
  19   3   2    7.49    3.51
  19  -3   3    6.13    2.56
  19  -3   3    4.16    3.00
  19   3   3   14.65    7.62
  19   3   3    7.89    4.47
  19   3   3   10.07    4.26
  19  -3   4    5.28    3.47
  19  -3   4    0.56    2.37
  19   3   4    1.16    3.81
  19   3   4    6.58    4.05
  19   3   4    2.59    2.36
  19  -3   5   12.42    4.80
  19  -3   5    6.77    3.93
  19   3   5   13.04    4.47
  19   3   5   19.12    5.63
  19   3   5    9.21    3.35
  19  -3   6    8.13    2.61
  19  -3   6   13.45    5.28
  19   3   6   -1.17    4.58
  19   3   6    5.49    3.00
  19   3   6    1.91    2.39
  19   3   7    5.84    4.06
  19  -3   7   12.33    6.26
  19  -3   7    8.32    4.98
  19   3   7    9.38    3.41
  19   3   7    0.28    2.03
  19   3   8   26.57    6.63
  19  -3   8   19.49    6.80
  19  -3   8   27.62    7.40
  19   3   8    9.93    4.50
  19   3   8   19.18    5.44
  19   3   9   11.57    4.52
  19  -3   9   15.10    6.18
  19  -3   9   14.92    5.80
  19   3   9   14.04    6.81
  19  -4  -6    0.56    2.81
  19  -4  -6   -0.76    2.93
  19   4  -6    6.18    4.93
  19  -4  -5    2.10    2.04
  19  -4  -5   -2.17    2.61
  19   4  -5   -2.34    2.46
  19  -4  -4    8.60    3.45
  19  -4  -4   13.39    5.67
  19   4  -4   12.16    5.14
  19  -4  -3    6.06    4.48
  19  -4  -3    3.90    2.25
  19   4  -3    1.78    4.27
  19  -4  -2    6.06    4.31
  19  -4  -2    8.11    4.76
  19   4  -2    3.66    4.82
  19   4  -2    0.43    1.29
  19  -4  -1    4.25    3.41
  19  -4  -1    0.94    5.03
  19   4  -1   -0.14    2.45
  19   4  -1   -0.78    3.17
  19  -4   0   13.11    4.47
  19  -4   0    2.46    3.64
  19   4   0    6.12    3.47
  19   4   0    3.94    2.24
  19  -4   1   -2.33    1.39
  19  -4   1    1.86    3.44
  19   4   1    3.10    2.26
  19   4   1   -5.44    4.94
  19   4   2   10.45    4.83
  19  -4   2    1.29    2.63
  19  -4   2    2.01    2.61
  19   4   2    2.29    2.27
  19   4   3    3.20    3.76
  19  -4   3   10.64    5.07
  19  -4   3    1.96    3.35
  19   4   3    1.07    3.35
  19   4   4    2.79    2.64
  19  -4   4    4.33    2.80
  19  -4   4    6.74    4.56
  19   4   4   13.25    5.86
  19   4   5    0.07    1.66
  19  -4   5   -2.78    2.80
  19  -4   5    0.23    3.09
  19   4   5    5.78    5.29
  19   4   6    0.34    1.38
  19  -4   6    0.02    2.31
  19  -4   6    0.85    3.27
  19   4   6   -1.41    2.65
  20   0  -8  136.19   16.35
  20   0  -7    3.88    2.91
  20   0  -6   -0.32    2.58
  20   0  -6   -1.93    2.20
  20   0  -5   66.03   10.76
  20   0  -5   63.90   10.74
  20   0  -4  187.11   18.44
  20   0  -4  224.39   20.86
  20   0  -3    0.72    1.70
  20   0  -3   -2.58    5.07
  20   0  -2  223.99   20.42
  20   0  -2  231.85   21.73
  20   0  -1   28.27    6.55
  20   0  -1   24.88    6.70
  20   0   0    0.15    2.31
  20   0   0   -1.40    2.86
  20   0   1   16.18    4.96
  20   0   1   12.37    5.00
  20   0   2  208.21   19.20
  20   0   2  227.58   21.90
  20   0   3   -0.74    3.16
  20   0   3    1.74    2.22
  20   0   4  197.46   18.87
  20   0   4  181.68   19.34
  20   0   5   71.40   11.03
  20   0   5   50.76   10.34
  20   0   6   -1.12    2.84
  20   0   6   -0.28    3.25
  20   0   7    6.06    3.38
  20   0   7    2.49    2.27
  20   0   8  174.48   17.02
  20   0   8  181.84   18.24
  20  -1  -7    3.92    2.58
  20  -1  -7   -1.24    1.75
  20  -1  -6   -0.24    3.28
  20  -1  -6   -0.56    2.15
  20   1  -6    0.69    3.95
  20  -1  -5    0.50    2.85
  20   1  -5    4.13    3.28
  20  -1  -5    8.39    3.42
  20   1  -5    6.98    3.84
  20  -1  -4   -2.26    3.21
  20   1  -4    0.64    2.43
  20  -1  -4   -3.47    3.48
  20   1  -4    4.07    2.95
  20   1  -3   10.47    4.29
  20  -1  -3   10.64    3.07
  20   1  -3   19.30    6.37
  20  -1  -2   10.87    3.88
  20   1  -2    4.65    3.16
  20  -1  -2    9.34    5.12
  20   1  -2    7.57    4.03
  20  -1  -1    9.92    4.37
  20   1  -1    8.05    2.21
  20  -1  -1    3.71    2.29
  20   1  -1   10.79    4.80
  20  -1   0   -1.02    4.04
  20   1   0    7.15    5.37
  20  -1   0    0.34    2.50
  20   1   0    0.53    4.30
  20  -1   1    4.77    3.35
  20   1   1    1.40    1.16
  20  -1   1   -0.80    4.05
  20   1   1    4.00    4.08
  20  -1   2    3.19    4.58
  20   1   2    5.88    3.54
  20  -1   2    5.59    3.94
  20   1   2    5.44    4.66
  20  -1   3   17.35    6.48
  20   1   3   15.59    5.20
  20  -1   3   12.08    5.87
  20   1   3   19.14    6.25
  20  -1   4    0.75    1.43
  20   1   4    0.73    2.80
  20  -1   4   -1.32    4.25
  20   1   4    0.28    4.29
  20  -1   5   11.48    4.37
  20   1   5    9.49    3.29
  20  -1   5    6.41    4.83
  20   1   5   12.72    5.64
  20  -1   6    3.34    3.26
  20   1   6    2.19    3.14
  20  -1   6   -5.80    5.60
  20   1   6    1.60    3.82
  20  -1   7   -2.21    3.46
  20   1   7   -0.65    2.26
  20  -1   7    3.96    3.54
  20   1   7    5.72    5.83
  20  -2  -5    5.63    2.13
  20  -2  -5   -2.19    4.66
  20  -2  -4   18.28    5.60
  20  -2  -4   31.47    7.37
  20  -2  -3    1.46    2.06
  20   2  -3    7.52    4.58
  20  -2  -3    5.46    5.53
  20   2  -3    7.20    2.91
  20  -2  -2   66.09   10.88
  20   2  -2   82.77   12.46
  20  -2  -2   71.65   12.49
  20   2  -2  100.89   12.91
  20  -2  -1   -0.14    3.05
  20   2  -1    6.02    2.75
  20  -2  -1    5.05    4.79
  20   2  -1    2.31    4.89
  20   2  -1    7.96    4.04
  20  -2   0    4.35    4.01
  20   2   0    2.84    3.87
  20  -2   0   -1.22    3.02
  20   2   0   -1.99    3.08
  20   2   0   -0.88    2.77
  20  -2   1    7.19    4.61
  20   2   1    8.66    4.17
  20  -2   1    1.01    1.54
  20   2   1    4.76    2.71
  20   2   1    4.43    3.83
  20  -2   2   99.31   13.50
  20   2   2   69.70   10.74
  20  -2   2   99.26   13.60
  20   2   2   71.62   11.09
  20   2   2   87.10   12.50
  20  -2   3   -0.07    2.92
  20  -2   3   -0.78    1.91
  20   2   3   -0.67    2.28
  20   2   3    4.11    3.58
  20   2   3    2.61    3.55
  20  -2   4   17.11    5.18
  20  -2   4   20.48    5.70
  20   2   4   13.02    4.91
  20   2   4   20.98    5.46
  20   2   4   22.26    6.63
  20  -2   5    3.83    3.15
  20  -2   5   -2.53    2.82
  20   2   5    3.66    3.55
  20   2   5    0.40    2.90
  20   2   5    3.88    3.15
  20  -3   0   -2.45    2.92
  20  -3   0    5.89    4.82
  20   3   0    2.38    2.49
  20   3   0   -3.67    3.81
   0   0   0    0.00    0.00
TITL 008_240K_SulfamerazineF1_ in Pna2(1)
REM Pna2(1) (#33, found as Pbn2(1) in ba-c setting)
CELL 0.68890  14.485221   8.201991  21.900222  90.0000  90.0000  90.0000
ZERR    8.00   0.000138   0.000084   0.000301   0.0000   0.0000   0.0000
LATT -1
SYMM -x,-y, z+1/2
SYMM  x+1/2,-y+1/2, z
SYMM -x+1/2, y+1/2, z+1/2
SFAC C H N O S
UNIT 88.00 96.00 32.00 16.00 8.00
TREF
HKLF 4
END
_computing_structure_solution     'SHELXT 2014/5 (Sheldrick, 2014)'
;
_shelx_hkl_checksum              92368
loop_
_space_group_symop_operation_xyz
'x, y, z'
'-x, -y, z+1/2'
'x+1/2, -y+1/2, z'
'-x+1/2, y+1/2, z+1/2'
loop_
_atom_site_label
_atom_site_type_symbol
_atom_site_fract_x
_atom_site_fract_y
_atom_site_fract_z
_atom_site_U_iso_or_equiv
_atom_site_adp_type
_atom_site_occupancy
_atom_site_site_symmetry_order
_atom_site_calc_flag
_atom_site_refinement_flags_posn
_atom_site_refinement_flags_adp
_atom_site_refinement_flags_occupancy
_atom_site_disorder_assembly
_atom_site_disorder_group
S1 S 0.64592(5) 0.49539(9) 0.34416(5) 0.03225(19) Uani 1 1 d . . . . .
S2 S 0.57779(6) 0.49602(9) 0.65262(5) 0.03139(19) Uani 1 1 d . . . . .
O1 O 0.68918(18) 0.3709(3) 0.30872(13) 0.0422(6) Uani 1 1 d . . . . .
O2 O 0.54884(17) 0.5223(3) 0.33757(14) 0.0417(6) Uani 1 1 d . . . . .
O3 O 0.67526(16) 0.4684(3) 0.65896(14) 0.0403(6) Uani 1 1 d . . . . .
O4 O 0.53551(18) 0.6231(3) 0.68742(13) 0.0414(6) Uani 1 1 d . . . . .
N1 N 0.8422(2) 1.1165(4) 0.31230(19) 0.0484(9) Uani 1 1 d . . . . .
N2 N 0.6551(2) 0.4487(4) 0.41708(16) 0.0370(7) Uani 1 1 d . . . . .
N3 N 0.8145(2) 0.4091(4) 0.41746(15) 0.0380(7) Uani 1 1 d . . . . .
N4 N 0.7280(2) 0.4292(5) 0.50951(16) 0.0519(9) Uani 1 1 d . . . . .
N5 N 0.3802(3) -0.1197(4) 0.6954(2) 0.0612(11) Uani 1 1 d . . . . .
H5A H 0.3237 -0.1182 0.7074 0.080 Uiso 1 1 calc R U . . .
H5B H 0.4076 -0.2113 0.6891 0.080 Uiso 1 1 calc R U . . .
N6 N 0.5682(2) 0.5384(4) 0.57939(16) 0.0393(7) Uani 1 1 d . . . . .
N7 N 0.4098(2) 0.5857(4) 0.57989(15) 0.0387(7) Uani 1 1 d . . . . .
N8 N 0.4960(2) 0.5660(5) 0.48762(17) 0.0513(9) Uani 1 1 d . . . . .
C1 C 0.7046(2) 0.6777(4) 0.33417(18) 0.0309(7) Uani 1 1 d . . . . .
C2 C 0.7946(2) 0.6796(4) 0.31059(16) 0.0314(7) Uani 1 1 d . . . . .
H2 H 0.8236 0.5826 0.2997 0.041 Uiso 1 1 calc R U . . .
C3 C 0.8398(2) 0.8255(4) 0.30360(18) 0.0325(7) Uani 1 1 d . . . . .
H3 H 0.8998 0.8264 0.2884 0.042 Uiso 1 1 calc R U . . .
C4 C 0.7973(2) 0.9727(4) 0.31888(17) 0.0333(7) Uani 1 1 d . . . . .
C5 C 0.7067(2) 0.9694(4) 0.3426(2) 0.0372(8) Uani 1 1 d . . . . .
H5 H 0.6775 1.0663 0.3533 0.048 Uiso 1 1 calc R U . . .
C6 C 0.6613(2) 0.8229(4) 0.35001(19) 0.0372(8) Uani 1 1 d . . . . .
H6 H 0.6016 0.8212 0.3657 0.048 Uiso 1 1 calc R U . . .
C7 C 0.7370(2) 0.4287(4) 0.44924(17) 0.0350(8) Uani 1 1 d . . . . .
C8 C 0.8065(3) 0.4045(8) 0.5406(2) 0.0716(16) Uani 1 1 d . . . . .
H8 H 0.8042 0.4024 0.5831 0.093 Uiso 1 1 calc R U . . .
C9 C 0.8896(3) 0.3825(7) 0.5125(2) 0.0661(14) Uani 1 1 d . . . . .
H9 H 0.9429 0.3640 0.5351 0.086 Uiso 1 1 calc R U . . .
C10 C 0.8922(3) 0.3885(5) 0.4499(2) 0.0468(10) Uani 1 1 d . . . . .
C11 C 0.9790(3) 0.3695(6) 0.4141(2) 0.0625(12) Uani 1 1 d . . . . .
H11A H 0.9819 0.2614 0.3974 0.081 Uiso 1 1 calc R U . . .
H11B H 1.0312 0.3873 0.4403 0.081 Uiso 1 1 calc R U . . .
H11C H 0.9799 0.4476 0.3814 0.081 Uiso 1 1 calc R U . . .
C12 C 0.5189(2) 0.3160(4) 0.66585(16) 0.0303(7) Uani 1 1 d . . . . .
C13 C 0.5634(2) 0.1680(4) 0.6556(2) 0.0404(9) Uani 1 1 d . . . . .
H13 H 0.6241 0.1671 0.6418 0.053 Uiso 1 1 calc R U . . .
C14 C 0.5181(3) 0.0236(4) 0.6657(2) 0.0459(10) Uani 1 1 d . . . . .
H14 H 0.5485 -0.0746 0.6588 0.060 Uiso 1 1 calc R U . . .
C15 C 0.4265(3) 0.0231(4) 0.68633(19) 0.0396(8) Uani 1 1 d . . . . .
C16 C 0.3822(2) 0.1724(4) 0.69654(17) 0.0340(7) Uani 1 1 d . . . . .
H16 H 0.3213 0.1739 0.7101 0.044 Uiso 1 1 calc R U . . .
C17 C 0.4282(2) 0.3175(4) 0.68663(18) 0.0322(8) Uani 1 1 d . . . . .
H17 H 0.3985 0.4161 0.6939 0.042 Uiso 1 1 calc R U . . .
C18 C 0.4866(2) 0.5651(4) 0.54828(17) 0.0355(7) Uani 1 1 d . . . . .
C19 C 0.4183(3) 0.5975(8) 0.4570(2) 0.0699(16) Uani 1 1 d . . . . .
H19 H 0.4207 0.6008 0.4146 0.091 Uiso 1 1 calc R U . . .
C20 C 0.3356(3) 0.6251(7) 0.4850(2) 0.0693(15) Uani 1 1 d . . . . .
H20 H 0.2831 0.6501 0.4624 0.090 Uiso 1 1 calc R U . . .
C21 C 0.3323(3) 0.6149(5) 0.5478(2) 0.0471(9) Uani 1 1 d . . . . .
C22 C 0.2457(3) 0.6354(7) 0.5837(3) 0.0669(13) Uani 1 1 d . . . . .
H22A H 0.2476 0.7371 0.6053 0.087 Uiso 1 1 calc R U . . .
H22B H 0.2398 0.5474 0.6123 0.087 Uiso 1 1 calc R U . . .
H22C H 0.1937 0.6350 0.5565 0.087 Uiso 1 1 calc R U . . .
H1N1 H 0.891(3) 1.121(5) 0.292(2) 0.055(13) Uiso 1 1 d . . . . .
H2N1 H 0.812(3) 1.200(6) 0.315(2) 0.060(14) Uiso 1 1 d . . . . .
H1N2 H 0.618(3) 0.480(4) 0.438(2) 0.031(11) Uiso 1 1 d . . . . .
H1N6 H 0.617(4) 0.501(6) 0.561(3) 0.076(18) Uiso 1 1 d . . . . .
loop_
_atom_site_aniso_label
_atom_site_aniso_U_11
_atom_site_aniso_U_22
_atom_site_aniso_U_33
_atom_site_aniso_U_23
_atom_site_aniso_U_13
_atom_site_aniso_U_12
S1 0.0302(4) 0.0346(4) 0.0319(4) 0.0029(3) -0.0017(3) -0.0021(3)
S2 0.0292(3) 0.0343(4) 0.0307(5) 0.0035(3) -0.0010(3) -0.0019(3)
O1 0.0483(14) 0.0347(12) 0.0435(16) -0.0047(11) 0.0014(12) -0.0018(11)
O2 0.0318(12) 0.0519(14) 0.0414(16) 0.0077(13) -0.0062(13) -0.0053(10)
O3 0.0307(12) 0.0509(14) 0.0392(15) 0.0067(12) -0.0055(12) -0.0029(10)
O4 0.0454(15) 0.0346(12) 0.0440(16) -0.0038(11) -0.0007(12) -0.0021(10)
N1 0.0434(18) 0.0352(16) 0.067(2) -0.0085(16) 0.0197(18) -0.0061(13)
N2 0.0272(14) 0.0493(17) 0.0345(18) 0.0079(14) 0.0007(13) 0.0001(12)
N3 0.0305(14) 0.0412(15) 0.0422(19) 0.0038(13) -0.0003(13) 0.0030(12)
N4 0.0367(16) 0.084(3) 0.035(2) 0.0073(18) -0.0014(15) 0.0125(17)
N5 0.053(2) 0.0361(16) 0.094(3) -0.0041(18) 0.018(2) -0.0087(14)
N6 0.0288(14) 0.0562(18) 0.0329(18) 0.0111(15) 0.0016(13) 0.0023(13)
N7 0.0304(14) 0.0440(16) 0.0417(19) 0.0020(14) 0.0024(13) 0.0043(12)
N8 0.0385(16) 0.077(2) 0.038(2) 0.0069(17) -0.0029(15) 0.0130(16)
C1 0.0293(15) 0.0347(14) 0.0286(18) 0.0021(13) -0.0005(13) 0.0008(11)
C2 0.0305(15) 0.0345(15) 0.0292(18) 0.0009(13) 0.0019(14) 0.0039(11)
C3 0.0285(15) 0.0382(17) 0.031(2) -0.0011(14) 0.0043(14) 0.0000(12)
C4 0.0326(16) 0.0355(16) 0.0317(18) -0.0037(13) 0.0010(14) -0.0023(12)
C5 0.0346(17) 0.0349(15) 0.042(2) -0.0025(16) 0.0049(18) 0.0042(12)
C6 0.0312(15) 0.0396(16) 0.041(2) -0.0009(16) 0.0073(15) 0.0032(12)
C7 0.0294(16) 0.0369(16) 0.039(2) 0.0074(14) -0.0015(15) 0.0022(12)
C8 0.049(3) 0.126(5) 0.040(3) 0.003(3) -0.007(2) 0.025(3)
C9 0.038(2) 0.108(4) 0.052(3) -0.002(3) -0.012(2) 0.020(2)
C10 0.0334(18) 0.049(2) 0.058(3) 0.0015(19) 0.0004(18) 0.0075(15)
C11 0.036(2) 0.076(3) 0.076(3) -0.005(3) 0.005(2) 0.0093(19)
C12 0.0283(14) 0.0311(14) 0.0316(18) -0.0002(12) 0.0023(13) -0.0004(11)
C13 0.0323(17) 0.0343(16) 0.055(3) 0.0005(17) 0.0082(18) 0.0045(12)
C14 0.0408(19) 0.0333(16) 0.064(3) -0.0023(17) 0.0088(19) 0.0053(13)
C15 0.043(2) 0.0341(16) 0.042(2) -0.0016(14) 0.0031(17) -0.0025(13)
C16 0.0332(16) 0.0378(16) 0.0309(19) -0.0037(14) 0.0054(14) -0.0015(12)
C17 0.0312(16) 0.0315(15) 0.034(2) -0.0019(13) 0.0020(14) 0.0015(12)
C18 0.0325(16) 0.0414(17) 0.033(2) 0.0038(15) -0.0001(14) 0.0018(13)
C19 0.048(3) 0.124(5) 0.038(3) 0.003(3) -0.008(2) 0.026(3)
C20 0.041(2) 0.112(4) 0.055(3) -0.004(3) -0.012(2) 0.028(2)
C21 0.0347(18) 0.057(2) 0.050(3) -0.0054(19) -0.0033(17) 0.0098(16)
C22 0.035(2) 0.089(3) 0.077(3) -0.004(3) 0.004(2) 0.012(2)
loop_
_atom_type_symbol
_atom_type_description
_atom_type_scat_dispersion_real
_atom_type_scat_dispersion_imag
_atom_type_scat_source
C C 0.0033 0.0016 'International Tables Vol C Tables 4.2.6.8 and 6.1.1.4'
H H 0.0000 0.0000 'International Tables Vol C Tables 4.2.6.8 and 6.1.1.4'
N N 0.0061 0.0033 'International Tables Vol C Tables 4.2.6.8 and 6.1.1.4'
O O 0.0106 0.0060 'International Tables Vol C Tables 4.2.6.8 and 6.1.1.4'
S S 0.1246 0.1234 'International Tables Vol C Tables 4.2.6.8 and 6.1.1.4'
loop_
_geom_angle_atom_site_label_1
_geom_angle_atom_site_label_2
_geom_angle_atom_site_label_3
_geom_angle
_geom_angle_site_symmetry_1
_geom_angle_site_symmetry_3
O1 S1 O2 119.15(17) . .
O1 S1 N2 108.97(18) . .
O2 S1 N2 102.32(17) . .
O1 S1 C1 109.45(17) . .
O2 S1 C1 109.63(15) . .
N2 S1 C1 106.43(18) . .
O4 S2 O3 118.98(17) . .
O4 S2 N6 109.24(17) . .
O3 S2 N6 102.13(17) . .
O4 S2 C12 108.78(17) . .
O3 S2 C12 109.50(15) . .
N6 S2 C12 107.55(18) . .
C4 N1 H1N1 120(3) . .
C4 N1 H2N1 118(3) . .
H1N1 N1 H2N1 117(4) . .
C7 N2 S1 126.0(3) . .
C7 N2 H1N2 111(3) . .
S1 N2 H1N2 116(3) . .
C7 N3 C10 116.5(3) . .
C7 N4 C8 115.0(4) . .
C15 N5 H5A 120.0 . .
C15 N5 H5B 120.0 . .
H5A N5 H5B 120.0 . .
C18 N6 S2 125.8(3) . .
C18 N6 H1N6 122(4) . .
S2 N6 H1N6 107(4) . .
C18 N7 C21 116.9(3) . .
C19 N8 C18 114.5(4) . .
C6 C1 C2 120.1(3) . .
C6 C1 S1 119.1(3) . .
C2 C1 S1 120.8(2) . .
C3 C2 C1 119.6(3) . .
C3 C2 H2 120.2 . .
C1 C2 H2 120.2 . .
C2 C3 C4 121.2(3) . .
C2 C3 H3 119.4 . .
C4 C3 H3 119.4 . .
N1 C4 C3 121.0(3) . .
N1 C4 C5 120.2(3) . .
C3 C4 C5 118.8(3) . .
C6 C5 C4 120.2(3) . .
C6 C5 H5 119.9 . .
C4 C5 H5 119.9 . .
C5 C6 C1 120.2(3) . .
C5 C6 H6 119.9 . .
C1 C6 H6 119.9 . .
N4 C7 N3 127.2(3) . .
N4 C7 N2 114.8(3) . .
N3 C7 N2 118.0(3) . .
N4 C8 C9 122.6(5) . .
N4 C8 H8 118.7 . .
C9 C8 H8 118.7 . .
C8 C9 C10 118.1(4) . .
C8 C9 H9 121.0 . .
C10 C9 H9 121.0 . .
N3 C10 C9 120.7(4) . .
N3 C10 C11 116.3(4) . .
C9 C10 C11 123.0(4) . .
C10 C11 H11A 109.5 . .
C10 C11 H11B 109.5 . .
H11A C11 H11B 109.5 . .
C10 C11 H11C 109.5 . .
H11A C11 H11C 109.5 . .
H11B C11 H11C 109.5 . .
C17 C12 C13 119.8(3) . .
C17 C12 S2 120.9(2) . .
C13 C12 S2 119.3(2) . .
C14 C13 C12 120.4(3) . .
C14 C13 H13 119.8 . .
C12 C13 H13 119.8 . .
C13 C14 C15 120.4(3) . .
C13 C14 H14 119.8 . .
C15 C14 H14 119.8 . .
N5 C15 C16 120.1(3) . .
N5 C15 C14 121.0(3) . .
C16 C15 C14 118.9(3) . .
C17 C16 C15 120.4(3) . .
C17 C16 H16 119.8 . .
C15 C16 H16 119.8 . .
C16 C17 C12 120.0(3) . .
C16 C17 H17 120.0 . .
C12 C17 H17 120.0 . .
N7 C18 N8 127.4(3) . .
N7 C18 N6 118.8(3) . .
N8 C18 N6 113.8(3) . .
N8 C19 C20 123.1(5) . .
N8 C19 H19 118.5 . .
C20 C19 H19 118.5 . .
C19 C20 C21 117.9(4) . .
C19 C20 H20 121.1 . .
C21 C20 H20 121.1 . .
N7 C21 C20 120.2(4) . .
N7 C21 C22 116.6(4) . .
C20 C21 C22 123.2(4) . .
C21 C22 H22A 109.5 . .
C21 C22 H22B 109.5 . .
H22A C22 H22B 109.5 . .
C21 C22 H22C 109.5 . .
H22A C22 H22C 109.5 . .
H22B C22 H22C 109.5 . .
loop_
_geom_bond_atom_site_label_1
_geom_bond_atom_site_label_2
_geom_bond_distance
_geom_bond_site_symmetry_2
S1 O1 1.427(3) .
S1 O2 1.431(2) .
S1 N2 1.648(4) .
S1 C1 1.733(3) .
S2 O4 1.429(3) .
S2 O3 1.437(2) .
S2 N6 1.647(4) .
S2 C12 1.729(3) .
N1 C4 1.354(4) .
N1 H1N1 0.83(5) .
N1 H2N1 0.82(5) .
N2 C7 1.389(4) .
N2 H1N2 0.75(4) .
N3 C7 1.330(4) .
N3 C10 1.341(5) .
N4 C7 1.326(5) .
N4 C8 1.341(5) .
N5 C15 1.365(5) .
N5 H5A 0.8600 .
N5 H5B 0.8600 .
N6 C18 1.382(5) .
N6 H1N6 0.87(6) .
N7 C18 1.321(4) .
N7 C21 1.345(5) .
N8 C19 1.335(5) .
N8 C18 1.335(5) .
C1 C6 1.390(5) .
C1 C2 1.403(4) .
C2 C3 1.373(5) .
C2 H2 0.9300 .
C3 C4 1.396(5) .
C3 H3 0.9300 .
C4 C5 1.411(5) .
C5 C6 1.380(5) .
C5 H5 0.9300 .
C6 H6 0.9300 .
C8 C9 1.364(6) .
C8 H8 0.9300 .
C9 C10 1.373(7) .
C9 H9 0.9300 .
C10 C11 1.490(6) .
C11 H11A 0.9600 .
C11 H11B 0.9600 .
C11 H11C 0.9600 .
C12 C17 1.391(4) .
C12 C13 1.392(4) .
C13 C14 1.371(5) .
C13 H13 0.9300 .
C14 C15 1.402(5) .
C14 H14 0.9300 .
C15 C16 1.400(5) .
C16 C17 1.381(5) .
C16 H16 0.9300 .
C17 H17 0.9300 .
C19 C20 1.365(7) .
C19 H19 0.9300 .
C20 C21 1.380(7) .
C20 H20 0.9300 .
C21 C22 1.490(6) .
C22 H22A 0.9600 .
C22 H22B 0.9600 .
C22 H22C 0.9600 .
loop_
_geom_hbond_atom_site_label_D
_geom_hbond_atom_site_label_H
_geom_hbond_atom_site_label_A
_geom_hbond_distance_DH
_geom_hbond_distance_HA
_geom_hbond_distance_DA
_geom_hbond_angle_DHA
_geom_hbond_site_symmetry_A
N5 H5B O4 0.86 2.30 3.089(5) 152.9 1_545
N1 H1N1 O4 0.83(5) 2.53(5) 3.259(5) 148(4) 4_654
N1 H2N1 O1 0.82(5) 2.26(5) 3.045(4) 160(4) 1_565
N2 H1N2 N8 0.75(4) 2.19(4) 2.937(5) 173(4) .
N6 H1N6 N4 0.87(6) 2.05(6) 2.916(5) 173(6) .
loop_
_geom_torsion_atom_site_label_1
_geom_torsion_atom_site_label_2
_geom_torsion_atom_site_label_3
_geom_torsion_atom_site_label_4
_geom_torsion
_geom_torsion_site_symmetry_1
_geom_torsion_site_symmetry_2
_geom_torsion_site_symmetry_3
_geom_torsion_site_symmetry_4
O1 S1 N2 C7 60.7(4) . . . .
O2 S1 N2 C7 -172.3(3) . . . .
C1 S1 N2 C7 -57.3(4) . . . .
O4 S2 N6 C18 -57.4(4) . . . .
O3 S2 N6 C18 175.8(3) . . . .
C12 S2 N6 C18 60.5(4) . . . .
O1 S1 C1 C6 162.3(3) . . . .
O2 S1 C1 C6 29.8(4) . . . .
N2 S1 C1 C6 -80.1(3) . . . .
O1 S1 C1 C2 -17.9(4) . . . .
O2 S1 C1 C2 -150.3(3) . . . .
N2 S1 C1 C2 99.7(3) . . . .
C6 C1 C2 C3 0.4(5) . . . .
S1 C1 C2 C3 -179.5(3) . . . .
C1 C2 C3 C4 -0.8(5) . . . .
C2 C3 C4 N1 179.6(4) . . . .
C2 C3 C4 C5 0.8(6) . . . .
N1 C4 C5 C6 -179.2(4) . . . .
C3 C4 C5 C6 -0.4(6) . . . .
C4 C5 C6 C1 0.0(6) . . . .
C2 C1 C6 C5 0.0(6) . . . .
S1 C1 C6 C5 179.9(3) . . . .
C8 N4 C7 N3 -1.0(6) . . . .
C8 N4 C7 N2 177.9(4) . . . .
C10 N3 C7 N4 -0.4(6) . . . .
C10 N3 C7 N2 -179.4(3) . . . .
S1 N2 C7 N4 164.9(3) . . . .
S1 N2 C7 N3 -16.0(5) . . . .
C7 N4 C8 C9 0.7(8) . . . .
N4 C8 C9 C10 1.0(9) . . . .
C7 N3 C10 C9 2.3(6) . . . .
C7 N3 C10 C11 -178.9(4) . . . .
C8 C9 C10 N3 -2.5(8) . . . .
C8 C9 C10 C11 178.8(5) . . . .
O4 S2 C12 C17 22.4(4) . . . .
O3 S2 C12 C17 154.0(3) . . . .
N6 S2 C12 C17 -95.8(3) . . . .
O4 S2 C12 C13 -157.4(3) . . . .
O3 S2 C12 C13 -25.9(4) . . . .
N6 S2 C12 C13 84.4(3) . . . .
C17 C12 C13 C14 0.2(6) . . . .
S2 C12 C13 C14 -179.9(4) . . . .
C12 C13 C14 C15 0.1(7) . . . .
C13 C14 C15 N5 178.7(4) . . . .
C13 C14 C15 C16 -0.1(6) . . . .
N5 C15 C16 C17 -179.1(4) . . . .
C14 C15 C16 C17 -0.2(6) . . . .
C15 C16 C17 C12 0.6(6) . . . .
C13 C12 C17 C16 -0.6(5) . . . .
S2 C12 C17 C16 179.6(3) . . . .
C21 N7 C18 N8 -1.8(6) . . . .
C21 N7 C18 N6 178.6(4) . . . .
C19 N8 C18 N7 2.6(7) . . . .
C19 N8 C18 N6 -177.7(4) . . . .
S2 N6 C18 N7 11.9(5) . . . .
S2 N6 C18 N8 -167.8(3) . . . .
C18 N8 C19 C20 -0.6(8) . . . .
N8 C19 C20 C21 -2.0(10) . . . .
C18 N7 C21 C20 -1.2(6) . . . .
C18 N7 C21 C22 179.0(4) . . . .
C19 C20 C21 N7 2.9(8) . . . .
C19 C20 C21 C22 -177.3(5) . . . .
