#------------------------------------------------------------------------------
#$Date: 2017-11-07 03:20:42 +0200 (Tue, 07 Nov 2017) $
#$Revision: 202822 $
#$URL: file:///home/coder/svn-repositories/cod/cif/1/54/76/1547639.cif $
#------------------------------------------------------------------------------
#
# This file is available in the Crystallography Open Database (COD),
# http://www.crystallography.net/
#
# All data on this site have been placed in the public domain by the
# contributors.
#
data_1547639
loop_
_publ_author_name
'Qian, Xue-Wei'
'Xue, Ze-Jian'
'Zhao, Qian'
'Cui, Zhe'
'Chen, Ya-Jing'
'Feng, Chen-Guo'
'Lin, Guo-Qiang'
_publ_section_title
;
 Enantioselective Rhodium-Catalyzed Alkenylation of Aliphatic Imines.
;
_journal_issue                   20
_journal_name_full               'Organic letters'
_journal_page_first              5601
_journal_page_last               5604
_journal_paper_doi               10.1021/acs.orglett.7b02737
_journal_volume                  19
_journal_year                    2017
_chemical_absolute_configuration ad
_chemical_formula_sum            'C17 H18 N2 O4 S'
_chemical_formula_weight         346.39
_chemical_name_systematic
; 
 ? 
;
_space_group_crystal_system      orthorhombic
_space_group_IT_number           19
_space_group_name_Hall           'P 2ac 2ab'
_space_group_name_H-M_alt        'P 21 21 21'
_symmetry_space_group_name_Hall  'P 2ac 2ab'
_symmetry_space_group_name_H-M   'P 21 21 21'
_atom_sites_solution_hydrogens   mixed
_audit_creation_method           SHELXL-2013
_cell_angle_alpha                90
_cell_angle_beta                 90
_cell_angle_gamma                90
_cell_formula_units_Z            4
_cell_length_a                   7.4260(17)
_cell_length_b                   11.292(3)
_cell_length_c                   20.718(5)
_cell_measurement_reflns_used    3344
_cell_measurement_temperature    293(2)
_cell_measurement_theta_max      44.123
_cell_measurement_theta_min      5.337
_cell_volume                     1737.3(7)
_computing_cell_refinement       'Bruker SMART'
_computing_data_collection       'Bruker SMART'
_computing_data_reduction        'Bruker SHELXTL'
_computing_molecular_graphics    'Bruker SHELXTL'
_computing_publication_material  'Bruker SHELXTL'
_computing_structure_refinement  'SHELXL-2013 (Sheldrick, 2013)'
_computing_structure_solution    'Bruker SHELXTL'
_diffrn_ambient_temperature      293(2)
_diffrn_measured_fraction_theta_full 0.999
_diffrn_measured_fraction_theta_max 0.999
_diffrn_measurement_device_type  'CCD area detector'
_diffrn_measurement_method       'phi and omega scans'
_diffrn_radiation_type           MoK\a
_diffrn_radiation_wavelength     0.71073
_diffrn_reflns_av_R_equivalents  0.0373
_diffrn_reflns_av_unetI/netI     0.0365
_diffrn_reflns_Laue_measured_fraction_full 0.999
_diffrn_reflns_Laue_measured_fraction_max 0.999
_diffrn_reflns_limit_h_max       8
_diffrn_reflns_limit_h_min       -8
_diffrn_reflns_limit_k_max       11
_diffrn_reflns_limit_k_min       -13
_diffrn_reflns_limit_l_max       25
_diffrn_reflns_limit_l_min       -25
_diffrn_reflns_number            9979
_diffrn_reflns_point_group_measured_fraction_full 1.000
_diffrn_reflns_point_group_measured_fraction_max 1.000
_diffrn_reflns_theta_full        25.242
_diffrn_reflns_theta_max         25.498
_diffrn_reflns_theta_min         2.054
_exptl_absorpt_coefficient_mu    0.209
_exptl_absorpt_correction_T_max  0.7456
_exptl_absorpt_correction_T_min  0.6348
_exptl_absorpt_correction_type   multi-scan
_exptl_absorpt_process_details   sadabs
_exptl_crystal_colour            green
_exptl_crystal_density_diffrn    1.324
_exptl_crystal_description       prismatic
_exptl_crystal_F_000             728
_exptl_crystal_size_max          0.220
_exptl_crystal_size_mid          0.160
_exptl_crystal_size_min          0.110
_refine_diff_density_max         0.237
_refine_diff_density_min         -0.164
_refine_diff_density_rms         0.039
_refine_ls_abs_structure_details
; 
 Flack x determined using 1129 quotients [(I+)-(I-)]/[(I+)+(I-)] 
 (Parsons and Flack (2004), Acta Cryst. A60, s61). 
;
_refine_ls_abs_structure_Flack   0.04(4)
_refine_ls_extinction_method     none
_refine_ls_goodness_of_fit_ref   1.011
_refine_ls_hydrogen_treatment    mixed
_refine_ls_matrix_type           full
_refine_ls_number_parameters     222
_refine_ls_number_reflns         3218
_refine_ls_number_restraints     0
_refine_ls_restrained_S_all      1.011
_refine_ls_R_factor_all          0.0462
_refine_ls_R_factor_gt           0.0408
_refine_ls_shift/su_max          0.000
_refine_ls_shift/su_mean         0.000
_refine_ls_structure_factor_coef Fsqd
_refine_ls_weighting_details
'w=1/[\s^2^(Fo^2^)+(0.0608P)^2^+0.1153P] where P=(Fo^2^+2Fc^2^)/3'
_refine_ls_weighting_scheme      calc
_refine_ls_wR_factor_gt          0.0981
_refine_ls_wR_factor_ref         0.1013
_reflns_Friedel_coverage         0.725
_reflns_Friedel_fraction_full    1.000
_reflns_Friedel_fraction_max     1.000
_reflns_number_gt                2889
_reflns_number_total             3218
_reflns_threshold_expression     'I > 2\s(I)'
_cod_data_source_file            ol7b02737_si_002.cif
_cod_data_source_block           cd16539
_cod_depositor_comments          'Adding full bibliography for 1547639.cif.'
_cod_database_code               1547639
_shelx_space_group_comment
; 
The symmetry employed for this shelxl refinement is uniquely defined 
by the following loop, which should always be used as a source of 
symmetry information in preference to the above space-group names. 
They are only intended as comments. 
;
_shelx_estimated_absorpt_t_min   0.955
_shelx_estimated_absorpt_t_max   0.977
_shelxl_version_number           2013-4
_shelx_res_file
; 
TITL cd16539 in P2(1)2(1)2(1) 
CELL 0.71073   7.4260  11.2917  20.7182  90.000  90.000  90.000 
ZERR    4.00   0.0017   0.0025   0.0047   0.000   0.000   0.000 
LATT -1 
SYMM 0.5-X, -Y, 0.5+Z 
SYMM -X, 0.5+Y, 0.5-Z 
SYMM 0.5+X, 0.5-Y, -Z 
SFAC C  H  N  O  S 
UNIT 68 72 8 16 4 
OMIT 0   0   2 
OMIT  -3.00  51.00 
L.S. 10 
ACTA 
BOND  $H 
FMAP 2 
PLAN 20 
wpdb -1 
size 0.22 0.16 0.11 
mpla c12 > c17 
mpla c6 > c11 
htab 
conf 
WGHT    0.060800    0.115300 
FVAR       0.17976 
MOLE 1 
S1    5    0.124805    0.373240    0.019929    11.00000    0.04265    0.05434 = 
         0.04506    0.00486   -0.00787   -0.00800 
N1    3    0.325811    0.415193    0.004774    11.00000    0.04703    0.03997 = 
         0.04538   -0.00071   -0.00058    0.00053 
N2    3    0.089826    0.231516    0.297133    11.00000    0.07041    0.09921 = 
         0.05637    0.01259    0.00474   -0.02259 
O1    4    0.008909    0.471646    0.011904    11.00000    0.04616    0.08320 = 
         0.07383    0.02592   -0.00813    0.00902 
O2    4    0.098587    0.268696   -0.017847    11.00000    0.07893    0.07346 = 
         0.05415   -0.00406   -0.00962   -0.03211 
O3    4    0.178343    0.147790    0.314296    11.00000    0.12527    0.12013 = 
         0.07608    0.04481   -0.00047    0.00413 
O4    4   -0.007986    0.288354    0.332032    11.00000    0.12360    0.16347 = 
         0.06097    0.00560    0.02318    0.00974 
C1    1    0.647374    0.674175    0.007363    11.00000    0.06889    0.06928 = 
         0.14722    0.01584    0.00436   -0.02345 
AFIX 137 
H1A   2    0.559328    0.736246    0.004777    11.00000   -1.50000 
H1B   2    0.744414    0.690790   -0.021881    11.00000   -1.50000 
H1C   2    0.693243    0.669567    0.050612    11.00000   -1.50000 
AFIX   0 
C2    1    0.561895    0.558762   -0.010425    11.00000    0.05359    0.05933 = 
         0.07701    0.00893    0.00175   -0.00995 
AFIX  23 
H2A   2    0.652571    0.497034   -0.008457    11.00000   -1.20000 
H2B   2    0.519862    0.563527   -0.054677    11.00000   -1.20000 
AFIX   0 
C3    1    0.404882    0.523741    0.032527    11.00000    0.04277    0.03718 = 
         0.05392    0.00167   -0.00458    0.00016 
AFIX  13 
H3A   2    0.314385    0.586856    0.031114    11.00000   -1.20000 
AFIX   0 
C4    1    0.457226    0.503201    0.101315    11.00000    0.04183    0.04752 = 
         0.06129   -0.00729   -0.00845    0.00249 
AFIX  43 
H4    2    0.550856    0.450431    0.109158    11.00000   -1.20000 
AFIX   0 
C5    1    0.381534    0.553727    0.151505    11.00000    0.04711    0.04555 = 
         0.06130   -0.00843   -0.00552   -0.00031 
AFIX  43 
H5    2    0.300666    0.614486    0.142661    11.00000   -1.20000 
AFIX   0 
C6    1    0.409485    0.525631    0.219954    11.00000    0.04746    0.05746 = 
         0.05535   -0.01230   -0.00462   -0.00683 
C7    1    0.507624    0.428271    0.240941    11.00000    0.08607    0.06282 = 
         0.05762   -0.00995   -0.00173    0.00505 
AFIX  43 
H7    2    0.564591    0.380209    0.210744    11.00000   -1.20000 
AFIX   0 
C8    1    0.522278    0.401462    0.305611    11.00000    0.11760    0.07005 = 
         0.06674    0.00041   -0.01151    0.00842 
AFIX  43 
H8    2    0.588152    0.335626    0.318648    11.00000   -1.20000 
AFIX   0 
C9    1    0.439847    0.471746    0.350745    11.00000    0.12304    0.09622 = 
         0.05105   -0.00151    0.00215   -0.01101 
AFIX  43 
H9    2    0.449046    0.453702    0.394419    11.00000   -1.20000 
AFIX   0 
C10   1    0.343933    0.568654    0.331022    11.00000    0.10166    0.10374 = 
         0.06109   -0.02323    0.00986    0.00088 
AFIX  43 
H10   2    0.288592    0.616912    0.361513    11.00000   -1.20000 
AFIX   0 
C11   1    0.328696    0.595256    0.266590    11.00000    0.06628    0.07588 = 
         0.06698   -0.01610    0.00232    0.00677 
AFIX  43 
H11   2    0.262747    0.661398    0.254072    11.00000   -1.20000 
AFIX   0 
C12   1    0.108268    0.328436    0.102040    11.00000    0.04063    0.04699 = 
         0.04962    0.00433   -0.00004   -0.00779 
C13   1    0.203948    0.230830    0.122634    11.00000    0.05487    0.05400 = 
         0.05460    0.00536    0.00978    0.00478 
AFIX  43 
H13   2    0.271927    0.186971    0.093481    11.00000   -1.20000 
AFIX   0 
C14   1    0.197935    0.198716    0.187045    11.00000    0.05828    0.05861 = 
         0.06257    0.01595   -0.00019    0.00348 
AFIX  43 
H14   2    0.261568    0.133388    0.202113    11.00000   -1.20000 
AFIX   0 
C15   1    0.095460    0.266037    0.227919    11.00000    0.04931    0.06473 = 
         0.05084    0.00960    0.00439   -0.01637 
C16   1   -0.000687    0.362796    0.208132    11.00000    0.05826    0.06283 = 
         0.05793   -0.00407    0.01732   -0.00453 
AFIX  43 
H16   2   -0.068545    0.406541    0.237372    11.00000   -1.20000 
AFIX   0 
C17   1    0.005401    0.394006    0.143666    11.00000    0.04824    0.05170 = 
         0.06623    0.00505    0.00625    0.00229 
AFIX  43 
H17   2   -0.059645    0.458824    0.128719    11.00000   -1.20000 
AFIX   0 
H1    2    0.392860    0.359918    0.000083    11.00000    0.04838 
HKLF 4 
  
REM  cd16539 in P2(1)2(1)2(1) 
REM R1 =  0.0408 for    2889 Fo > 4sig(Fo)  and  0.0462 for all    3218 data 
REM    222 parameters refined using      0 restraints 
  
END 
  
WGHT      0.0603      0.0703 
  
REM Instructions for potential hydrogen bonds 
EQIV $1 -x, y+1/2, -z+1/2 
HTAB C17 O3_$1 
EQIV $2 x+1/2, -y+1/2, -z 
HTAB N1 O2_$2 
  
REM Highest difference peak  0.237,  deepest hole -0.164,  1-sigma level  0.039 
Q1    1   0.1047  0.3443  0.0623  11.00000  0.05    0.24 
Q2    1   0.0259  0.3221  0.0010  11.00000  0.05    0.18 
Q3    1   0.1007  0.3289 -0.0210  11.00000  0.05    0.18 
Q4    1  -0.0115  0.2580  0.3315  11.00000  0.05    0.17 
Q5    1   0.2418  0.3959  0.0254  11.00000  0.05    0.17 
Q6    1   0.0941  0.4678  0.0267  11.00000  0.05    0.16 
Q7    1   0.0755  0.4392  0.0463  11.00000  0.05    0.16 
Q8    1   0.0538  0.4220 -0.0101  11.00000  0.05    0.15 
Q9    1   0.0109  0.4071 -0.0011  11.00000  0.05    0.15 
Q10   1   0.5661  0.7295 -0.0255  11.00000  0.05    0.13 
Q11   1   0.1153  0.2748  0.0972  11.00000  0.05    0.13 
Q12   1   0.5796  0.6075 -0.0536  11.00000  0.05    0.13 
Q13   1   0.4810  0.3803  0.2744  11.00000  0.05    0.13 
Q14   1   0.5613  0.5312 -0.0220  11.00000  0.05    0.13 
Q15   1  -0.0619  0.3752  0.2247  11.00000  0.05    0.12 
Q16   1   0.6082  0.5973  0.0214  11.00000  0.05    0.12 
Q17   1   0.0242  0.4198  0.1876  11.00000  0.05    0.12 
Q18   1   0.5178  0.4521  0.3188  11.00000  0.05    0.12 
Q19   1   0.0023  0.4581  0.1346  11.00000  0.05    0.12 
Q20   1   0.0452  0.5172 -0.0200  11.00000  0.05    0.12 
;
_shelx_res_checksum              8656
_shelx_hkl_file
; 
   1   0   0   -0.62    0.03 
   2   0   0  494.98   16.72 
   3   0   0    0.03    0.04 
   4   0   0   41.38    1.54 
   5   0   0   -0.05    0.06 
   6   0   0    2.01    0.24 
   7   0   0    0.22    0.14 
  -8   0   0    5.33    0.42 
  -9   0   0    0.09    0.15 
  -9   1   0    0.34    0.17 
   8  -1   0    3.40    0.37 
   7  -1   0    2.27    0.30 
   6  -1   0    6.64    0.43 
   5  -1   0    8.05    0.44 
   4  -1   0    0.11    0.08 
   3  -1   0  127.47    4.41 
   2  -1   0  627.08   21.17 
   1  -1   0  262.18    9.81 
   1  -1   0  297.81    9.75 
  -1   1   0  304.37   10.24 
   0  -1   0   -0.04    0.01 
   0  -1   0   -0.01    0.01 
  -1  -1   0  317.23   10.50 
  -1  -1   0  301.33   10.54 
   3   1   0  127.64    4.39 
   4   1   0    0.18    0.07 
   5   1   0    7.86    0.41 
   6   1   0    6.88    0.41 
  -7  -1   0    2.72    0.29 
  -8  -1   0    3.54    0.35 
  -9  -1   0    0.48    0.19 
   9  -2   0    3.52    0.43 
   8  -2   0   -0.16    0.14 
   7  -2   0    8.11    0.53 
   6  -2   0    1.70    0.24 
  -6   2   0    1.73    0.20 
   5  -2   0   20.95    0.92 
  -5   2   0   21.52    0.89 
   4  -2   0    8.67    0.44 
  -4   2   0    7.80    0.38 
   3  -2   0    2.51    0.20 
  -3   2   0    2.87    0.17 
   2  -2   0  129.63    4.54 
   2  -2   0  134.04    4.53 
  -2   2   0  131.35    4.66 
   1  -2   0  364.99   12.65 
   1  -2   0  378.63   12.57 
   0  -2   0   34.35    1.21 
   0  -2   0   34.66    1.20 
  -1  -2   0  342.68   12.27 
  -1  -2   0  383.12   12.37 
  -2  -2   0  138.04    4.65 
  -2  -2   0  135.23    4.72 
  -3  -2   0    2.51    0.16 
  -4  -2   0    7.86    0.38 
  -5  -2   0   21.73    0.89 
  -6  -2   0    1.97    0.21 
  -7  -2   0    7.81    0.47 
  -7  -2   0    7.71    0.49 
  -8  -2   0    0.11    0.12 
  -9  -2   0    3.11    0.38 
   9  -3   0    0.79    0.26 
   8  -3   0    0.60    0.22 
   7  -3   0    3.63    0.37 
   6  -3   0    7.71    0.49 
   5  -3   0    5.77    0.39 
  -5   3   0    6.42    0.33 
   4  -3   0    0.90    0.15 
  -4   3   0    0.99    0.10 
   3  -3   0    0.22    0.09 
   3  -3   0    0.36    0.08 
  -3   3   0    0.42    0.06 
   2  -3   0    1.59    0.14 
   2  -3   0    1.19    0.11 
  -2   3   0    1.12    0.07 
   1  -3   0   58.62    2.06 
   1  -3   0   59.09    2.05 
   0  -3   0   -0.03    0.02 
   0  -3   0   -0.04    0.02 
  -1  -3   0   59.97    2.15 
  -1  -3   0   62.35    2.09 
  -2  -3   0    1.10    0.08 
  -2  -3   0    1.15    0.12 
  -3  -3   0    0.47    0.07 
  -3  -3   0    0.35    0.09 
  -4  -3   0    0.80    0.11 
  -4  -3   0    0.94    0.15 
  -5  -3   0    6.54    0.36 
  -5  -3   0    6.79    0.40 
  -6  -3   0    8.78    0.50 
  -6  -3   0    8.14    0.44 
  -7  -3   0    3.68    0.35 
  -7  -3   0    3.41    0.28 
  -8  -3   0    0.83    0.20 
  -9  -3   0    0.36    0.18 
   9  -4   0    0.04    0.20 
   8  -4   0    3.63    0.42 
   7  -4   0    1.06    0.24 
   6  -4   0   14.20    0.74 
   5  -4   0    0.03    0.10 
  -5   4   0   -0.01    0.05 
   4  -4   0    2.64    0.26 
   4  -4   0    2.93    0.22 
  -4   4   0    2.64    0.16 
   3  -4   0    9.01    0.42 
   3  -4   0    8.81    0.45 
  -3   4   0    9.03    0.36 
   2  -4   0   39.75    1.49 
   2  -4   0   41.07    1.46 
   1  -4   0    0.06    0.04 
   1  -4   0    0.12    0.05 
   0  -4   0    0.26    0.05 
   0  -4   0    0.17    0.05 
  -1  -4   0    0.17    0.04 
  -1  -4   0    0.12    0.05 
  -2  -4   0   44.04    1.60 
  -2  -4   0   43.57    1.51 
  -3  -4   0    9.02    0.45 
  -3  -4   0    9.59    0.38 
  -4  -4   0    2.54    0.24 
  -4  -4   0    2.77    0.17 
  -5  -4   0    0.00    0.08 
  -5  -4   0    0.04    0.06 
  -6  -4   0   14.66    0.73 
  -6  -4   0   14.28    0.63 
  -7  -4   0    0.92    0.21 
  -8  -4   0    3.23    0.36 
  -9  -4   0    0.32    0.16 
   9  -5   0    0.04    0.20 
   8  -5   0    1.11    0.27 
   7  -5   0   -0.09    0.12 
   6  -5   0    0.22    0.16 
   5  -5   0   27.54    1.17 
   5  -5   0   25.88    1.10 
   4  -5   0    1.62    0.18 
   4  -5   0    1.19    0.19 
  -4   5   0    1.47    0.10 
   3  -5   0   21.97    0.92 
   3  -5   0   22.26    0.88 
   2  -5   0    2.64    0.18 
   2  -5   0    2.93    0.21 
   1  -5   0   56.62    2.01 
   1  -5   0   57.19    2.03 
   0  -5   0   -0.01    0.03 
   0  -5   0    0.05    0.04 
  -1  -5   0   62.04    2.18 
  -1  -5   0   60.26    2.11 
  -2  -5   0    3.21    0.15 
  -2  -5   0    2.90    0.21 
  -3  -5   0   23.33    0.95 
  -3  -5   0   23.11    0.83 
  -4  -5   0    1.49    0.12 
  -4  -5   0    1.61    0.20 
  -5  -5   0   28.25    1.19 
  -6  -5   0    0.16    0.14 
  -7  -5   0    0.02    0.13 
  -8  -5   0    0.60    0.19 
  -9  -5   0    0.46    0.19 
   9  -6   0    0.38    0.26 
   8  -6   0   -0.09    0.15 
   7  -6   0    2.14    0.34 
   6  -6   0    0.49    0.19 
   5  -6   0    1.64    0.21 
   5  -6   0    1.26    0.24 
   4  -6   0    0.24    0.10 
   4  -6   0   -0.03    0.08 
   3  -6   0    8.15    0.40 
   3  -6   0    7.27    0.42 
   2  -6   0   -0.02    0.04 
   2  -6   0   -0.06    0.05 
   1  -6   0    4.83    0.27 
   1  -6   0    4.61    0.25 
   0  -6   0   16.19    0.65 
   0  -6   0   15.47    0.63 
  -1  -6   0    4.96    0.23 
  -1  -6   0    4.81    0.27 
  -2  -6   0    0.04    0.04 
  -2  -6   0   -0.03    0.06 
  -3  -6   0    7.97    0.43 
  -3  -6   0    8.43    0.33 
  -4  -6   0   -0.09    0.07 
  -5  -6   0    1.48    0.23 
  -6  -6   0    0.50    0.16 
  -7  -6   0    2.09    0.29 
  -8  -6   0    0.21    0.14 
  -9  -6   0    0.08    0.17 
   8  -7   0   -0.11    0.17 
   7  -7   0    0.20    0.18 
   6  -7   0    0.82    0.20 
   5  -7   0    1.51    0.22 
   5  -7   0    1.42    0.24 
   4  -7   0    0.14    0.08 
   4  -7   0   -0.04    0.09 
   3  -7   0   10.13    0.48 
   3  -7   0    8.99    0.51 
   2  -7   0    6.28    0.36 
   2  -7   0    6.12    0.33 
   1  -7   0    1.66    0.17 
   1  -7   0    1.39    0.15 
   0  -7   0    0.08    0.06 
   0  -7   0    0.01    0.06 
  -1  -7   0    1.84    0.14 
  -1  -7   0    1.58    0.17 
  -2  -7   0    6.31    0.28 
  -2  -7   0    6.55    0.36 
  -3  -7   0   10.12    0.51 
  -4  -7   0    0.09    0.11 
  -5  -7   0    1.43    0.22 
  -6  -7   0    0.61    0.16 
  -7  -7   0    0.35    0.16 
  -8  -7   0    0.16    0.15 
   8  -8   0    1.63    0.35 
   7  -8   0    0.35    0.19 
   6  -8   0    0.19    0.15 
   6  -8   0    0.39    0.17 
   5  -8   0    0.07    0.11 
   5  -8   0    0.14    0.13 
   4  -8   0    1.68    0.25 
   4  -8   0    1.84    0.23 
   3  -8   0    1.56    0.19 
   3  -8   0    1.18    0.20 
   2  -8   0    2.79    0.26 
   2  -8   0    2.71    0.21 
   1  -8   0    8.29    0.41 
   1  -8   0    8.61    0.43 
   0  -8   0   13.12    0.58 
   0  -8   0   12.78    0.57 
  -1  -8   0    8.08    0.37 
  -1  -8   0    7.25    0.40 
  -2  -8   0    3.48    0.20 
  -2  -8   0    3.33    0.26 
  -3  -8   0    1.23    0.20 
  -4  -8   0    1.82    0.24 
  -5  -8   0    0.07    0.12 
  -6  -8   0    0.32    0.15 
  -7  -8   0    0.17    0.13 
  -8  -8   0    1.37    0.28 
   7  -9   0   -0.15    0.16 
   6  -9   0    3.37    0.40 
   5  -9   0    0.06    0.14 
   5  -9   0    0.36    0.16 
   4  -9   0    0.24    0.13 
   4  -9   0    0.25    0.13 
   3  -9   0    5.03    0.35 
   3  -9   0    5.22    0.37 
   2  -9   0   19.39    0.82 
   2  -9   0   18.29    0.84 
   1  -9   0    1.56    0.19 
   1  -9   0    1.56    0.19 
   0  -9   0   -0.01    0.09 
   0  -9   0    0.03    0.07 
  -1  -9   0    1.34    0.19 
  -1  -9   0    1.53    0.16 
  -2  -9   0   19.96    0.87 
  -3  -9   0    5.40    0.37 
  -4  -9   0    0.32    0.13 
  -5  -9   0    0.01    0.12 
  -6  -9   0    3.20    0.36 
  -7  -9   0    0.41    0.18 
   7 -10   0    0.50    0.23 
   6 -10   0    0.77    0.21 
   5 -10   0    0.69    0.20 
   5 -10   0    0.91    0.22 
   4 -10   0    2.08    0.26 
   4 -10   0    1.82    0.28 
   3 -10   0    0.01    0.10 
   3 -10   0   -0.05    0.09 
   2 -10   0    0.03    0.11 
   2 -10   0   -0.06    0.09 
   1 -10   0   12.03    0.58 
   1 -10   0   11.43    0.58 
   0 -10   0    0.13    0.09 
   0 -10   0   -0.07    0.09 
  -1 -10   0   12.70    0.62 
  -2 -10   0    0.04    0.10 
  -3 -10   0    0.23    0.13 
  -4 -10   0    1.58    0.25 
  -5 -10   0    0.71    0.18 
  -6 -10   0    0.49    0.18 
  -7 -10   0    0.52    0.21 
   6 -11   0   -0.19    0.12 
   5 -11   0    1.40    0.27 
   4 -11   0   -0.07    0.12 
   4 -11   0    0.04    0.11 
   3 -11   0    1.46    0.25 
   3 -11   0    1.67    0.24 
   2 -11   0    2.33    0.26 
   2 -11   0    1.89    0.26 
   1 -11   0    0.15    0.13 
   1 -11   0    0.18    0.10 
   0 -11   0    0.01    0.10 
  -1 -11   0    0.22    0.12 
  -2 -11   0    2.47    0.28 
  -3 -11   0    1.87    0.27 
  -4 -11   0    0.12    0.15 
  -5 -11   0    1.20    0.24 
  -6 -11   0    0.18    0.17 
   5 -12   0    0.26    0.17 
   4 -12   0    0.69    0.21 
   4 -12   0    0.64    0.19 
   3 -12   0    0.09    0.13 
   3 -12   0   -0.08    0.13 
   2 -12   0    0.12    0.12 
   2 -12   0    0.16    0.14 
   1 -12   0    0.16    0.14 
   0 -12   0    0.29    0.14 
  -1 -12   0    0.14    0.14 
  -2 -12   0   -0.10    0.12 
  -3 -12   0    0.12    0.15 
  -4 -12   0    0.58    0.21 
  -5 -12   0    0.00    0.16 
   4 -13   0    1.26    0.27 
   3 -13   0   -0.04    0.15 
   3 -13   0   -0.05    0.16 
   2 -13   0    0.25    0.17 
   1 -13   0    0.04    0.13 
   0 -13   0   -0.03    0.11 
  -1 -13   0    0.18    0.15 
  -2 -13   0    0.36    0.18 
  -3 -13   0    0.00    0.16 
  -4 -13   0    0.96    0.26 
   3 -14   0    0.74    0.24 
   2 -14   0   -0.19    0.14 
   1 -14   0    0.09    0.16 
   0 -14   0    0.15    0.15 
  -1 -14   0    0.11    0.15 
  -2 -14   0   -0.03    0.15 
  -3 -14   0    0.35    0.20 
   0 -15   0   -0.16    0.16 
   0 -15   1    0.00    0.17 
  -3 -14   1    0.41    0.21 
  -2 -14   1   -0.11    0.15 
  -1 -14   1    0.14    0.16 
   0 -14   1   -0.05    0.13 
   1 -14   1    0.21    0.17 
   2 -14   1    0.14    0.17 
  -4 -13   1    0.31    0.21 
  -3 -13   1    0.03    0.16 
  -2 -13   1    0.01    0.14 
  -1 -13   1    0.70    0.19 
   0 -13   1    0.38    0.16 
   1 -13   1    0.38    0.16 
   2 -13   1    0.08    0.15 
   3 -13   1    0.08    0.17 
   3 -13   1   -0.08    0.12 
   4 -13   1    0.61    0.20 
  -5 -12   1    0.67    0.22 
  -4 -12   1    0.10    0.16 
  -3 -12   1    0.50    0.18 
  -2 -12   1    1.25    0.22 
  -1 -12   1    0.15    0.13 
   0 -12   1   -0.06    0.11 
   1 -12   1    0.29    0.14 
   2 -12   1    1.65    0.24 
   2 -12   1    1.65    0.25 
   3 -12   1    0.85    0.21 
   3 -12   1    0.64    0.18 
   4 -12   1   -0.03    0.14 
   5 -12   1    0.93    0.24 
  -6 -11   1    0.57    0.21 
  -5 -11   1    0.32    0.19 
  -4 -11   1    0.18    0.15 
  -3 -11   1    1.68    0.26 
  -2 -11   1    0.04    0.12 
  -1 -11   1    2.16    0.25 
   0 -11   1    0.73    0.17 
   1 -11   1    2.47    0.26 
   1 -11   1    2.40    0.26 
   2 -11   1    0.41    0.15 
   2 -11   1    0.22    0.13 
   3 -11   1    1.71    0.27 
   3 -11   1    2.03    0.25 
   4 -11   1    0.00    0.13 
   4 -11   1    0.15    0.13 
   5 -11   1    0.10    0.14 
   6 -11   1    0.29    0.19 
  -7 -10   1    0.92    0.25 
  -6 -10   1    0.13    0.15 
  -5 -10   1    0.47    0.17 
  -4 -10   1    0.13    0.13 
  -3 -10   1    0.98    0.20 
  -2 -10   1    0.79    0.17 
  -1 -10   1    0.50    0.14 
   0 -10   1    0.21    0.12 
   0 -10   1    0.22    0.10 
   1 -10   1    0.33    0.12 
   1 -10   1    0.33    0.13 
   2 -10   1    1.35    0.20 
   2 -10   1    1.01    0.20 
   3 -10   1    0.93    0.20 
   3 -10   1    1.32    0.21 
   4 -10   1    0.01    0.12 
   4 -10   1    0.07    0.12 
   5 -10   1    0.69    0.19 
   6 -10   1    0.22    0.17 
   7 -10   1    0.60    0.23 
  -7  -9   1    0.36    0.18 
  -6  -9   1    0.61    0.18 
  -5  -9   1    1.80    0.27 
  -4  -9   1    0.58    0.18 
  -3  -9   1    0.52    0.17 
  -2  -9   1    0.82    0.17 
  -1  -9   1    5.36    0.30 
  -1  -9   1    5.08    0.34 
   0  -9   1    1.64    0.18 
   0  -9   1    1.52    0.18 
   1  -9   1    4.45    0.31 
   1  -9   1    5.04    0.31 
   2  -9   1    0.74    0.15 
   2  -9   1    0.71    0.16 
   3  -9   1    0.31    0.13 
   3  -9   1    0.56    0.14 
   4  -9   1    0.74    0.17 
   4  -9   1    0.48    0.16 
   5  -9   1    2.10    0.31 
   5  -9   1    1.52    0.25 
   6  -9   1    0.64    0.21 
   7  -9   1    0.34    0.19 
  -8  -8   1    0.09    0.16 
  -7  -8   1    0.44    0.17 
  -6  -8   1    4.78    0.39 
  -5  -8   1    0.38    0.15 
  -4  -8   1    1.62    0.23 
  -3  -8   1    3.13    0.29 
  -2  -8   1   10.32    0.52 
  -2  -8   1   10.68    0.45 
  -1  -8   1    5.10    0.31 
  -1  -8   1    4.88    0.27 
   0  -8   1    0.47    0.11 
   0  -8   1    0.76    0.12 
   1  -8   1    4.62    0.30 
   1  -8   1    4.93    0.28 
   2  -8   1    8.68    0.47 
   2  -8   1    8.83    0.44 
   3  -8   1    2.88    0.24 
   3  -8   1    2.83    0.28 
   4  -8   1    1.42    0.24 
   4  -8   1    1.49    0.20 
   5  -8   1    0.28    0.14 
   5  -8   1    0.40    0.15 
   6  -8   1    3.71    0.42 
   7  -8   1    0.27    0.18 
   8  -8   1    0.26    0.23 
  -8  -7   1    0.58    0.18 
  -7  -7   1    2.03    0.30 
  -6  -7   1    0.61    0.18 
  -5  -7   1    0.27    0.12 
  -4  -7   1   17.61    0.82 
  -3  -7   1   10.59    0.54 
  -3  -7   1   11.00    0.44 
  -2  -7   1    2.38    0.15 
  -2  -7   1    1.90    0.20 
  -1  -7   1    8.09    0.37 
  -1  -7   1    8.46    0.41 
   0  -7   1   50.03    1.82 
   0  -7   1   50.10    1.81 
   1  -7   1    8.23    0.41 
   1  -7   1    8.10    0.39 
   2  -7   1    1.95    0.21 
   2  -7   1    2.29    0.18 
   3  -7   1    8.25    0.48 
   3  -7   1    9.55    0.45 
   4  -7   1   16.92    0.73 
   4  -7   1   15.45    0.77 
   5  -7   1   -0.01    0.11 
   5  -7   1    0.06    0.11 
   6  -7   1    0.71    0.20 
   7  -7   1    1.85    0.33 
   8  -7   1    0.52    0.23 
  -9  -6   1    0.38    0.20 
  -8  -6   1    0.76    0.20 
  -7  -6   1    3.12    0.35 
  -6  -6   1    0.72    0.19 
  -5  -6   1    7.41    0.47 
  -4  -6   1    7.30    0.32 
  -4  -6   1    6.94    0.43 
  -3  -6   1    6.25    0.27 
  -3  -6   1    5.84    0.36 
  -2  -6   1    0.33    0.06 
  -2  -6   1    0.21    0.08 
  -1  -6   1   23.40    0.90 
  -1  -6   1   22.80    0.86 
   0  -6   1   15.98    0.66 
   0  -6   1   16.98    0.66 
   1  -6   1   22.81    0.86 
   1  -6   1   22.10    0.88 
   2  -6   1    0.23    0.08 
   2  -6   1    0.22    0.07 
   3  -6   1    5.43    0.35 
   3  -6   1    5.43    0.31 
   4  -6   1    6.44    0.42 
   4  -6   1    7.04    0.39 
   5  -6   1    7.33    0.49 
   5  -6   1    7.87    0.44 
   6  -6   1    0.83    0.21 
   7  -6   1    3.10    0.39 
   8  -6   1    0.86    0.26 
   9  -6   1    0.22    0.25 
  -9  -5   1    0.88    0.24 
  -8  -5   1    1.20    0.23 
  -7  -5   1    0.51    0.16 
  -6  -5   1    5.11    0.39 
  -5  -5   1    3.59    0.32 
  -5  -5   1    3.34    0.22 
  -4  -5   1   17.37    0.78 
  -4  -5   1   17.23    0.67 
  -3  -5   1    3.04    0.17 
  -3  -5   1    3.22    0.24 
  -2  -5   1   16.88    0.62 
  -2  -5   1   16.21    0.69 
  -1  -5   1   23.38    0.88 
  -1  -5   1   22.16    0.83 
   0  -5   1   11.20    0.47 
   0  -5   1   11.81    0.47 
   1  -5   1   20.96    0.79 
   1  -5   1   20.90    0.82 
   2  -5   1   16.07    0.63 
   2  -5   1   15.65    0.67 
   3  -5   1    3.30    0.25 
   3  -5   1    2.84    0.20 
  -4   5  -1   16.25    0.63 
   4  -5   1   16.67    0.71 
   4  -5   1   15.56    0.74 
   5  -5   1    2.27    0.28 
   6  -5   1    4.04    0.39 
   7  -5   1    0.33    0.17 
   8  -5   1    1.39    0.29 
   9  -5   1    0.82    0.27 
  -9  -4   1    0.29    0.16 
  -8  -4   1    0.26    0.15 
  -7  -4   1    3.63    0.36 
  -6  -4   1   11.10    0.52 
  -6  -4   1   11.30    0.61 
  -5  -4   1    0.85    0.13 
  -5  -4   1    0.77    0.16 
  -4  -4   1   17.34    0.78 
  -4  -4   1   17.67    0.69 
  -3  -4   1   24.31    0.89 
  -3  -4   1   24.16    0.98 
  -2  -4   1   12.84    0.57 
  -2  -4   1   14.02    0.51 
  -1  -4   1    6.55    0.27 
  -1  -4   1    6.27    0.30 
   0  -4   1    1.00    0.09 
   0  -4   1    1.12    0.10 
   1  -4   1    6.32    0.27 
   1  -4   1    5.92    0.29 
   2  -4   1   13.69    0.58 
   2  -4   1   13.46    0.54 
  -3   4  -1   22.97    0.87 
   3  -4   1   22.24    0.94 
   3  -4   1   24.29    0.91 
  -4   4  -1   17.15    0.67 
   4  -4   1   15.79    0.75 
   4  -4   1   17.35    0.72 
  -5   4  -1    0.66    0.10 
   5  -4   1    0.75    0.17 
   6  -4   1   10.07    0.59 
   7  -4   1    4.30    0.42 
   8  -4   1    0.06    0.17 
   9  -4   1    0.31    0.23 
  -9  -3   1    1.09    0.25 
  -8  -3   1    1.84    0.28 
  -7  -3   1    0.13    0.12 
  -7  -3   1    0.30    0.13 
  -6  -3   1    8.16    0.51 
  -6  -3   1    9.09    0.46 
  -5  -3   1   28.84    1.17 
  -5  -3   1   27.22    1.08 
  -4  -3   1   26.34    1.04 
  -4  -3   1   23.94    0.95 
  -3  -3   1   32.73    1.25 
  -3  -3   1   32.14    1.17 
  -2  -3   1   15.33    0.63 
  -2  -3   1   15.39    0.57 
  -1  -3   1  213.79    7.47 
  -1  -3   1  222.72    7.38 
   0  -3   1    9.62    0.38 
   0  -3   1    9.81    0.38 
   1  -3   1  211.44    7.18 
   1  -3   1  210.77    7.21 
  -2   3  -1   15.27    0.57 
   2  -3   1   14.34    0.57 
   2  -3   1   15.22    0.61 
  -3   3  -1   31.92    1.20 
   3  -3   1   32.88    1.21 
   3  -3   1   32.90    1.25 
  -4   3  -1   23.72    0.94 
   4  -3   1   25.25    1.01 
  -5   3  -1   26.58    1.00 
   5  -3   1   23.22    1.06 
  -6   3  -1    8.64    0.44 
   6  -3   1    8.91    0.54 
   7  -3   1    0.21    0.14 
   8  -3   1    2.63    0.36 
   9  -3   1    0.99    0.26 
  -9  -2   1    0.97    0.23 
  -8  -2   1    1.90    0.27 
  -8  -2   1    2.08    0.30 
  -7  -2   1    1.93    0.24 
  -6  -2   1    1.42    0.20 
  -5  -2   1   14.69    0.66 
  -4  -2   1   25.88    1.00 
  -3  -2   1   61.95    2.18 
  -2  -2   1  475.80   15.88 
  -2  -2   1  455.30   15.71 
  -1  -2   1  808.47   25.89 
  -1  -2   1  714.08   25.64 
   0  -2   1    6.71    0.26 
   0  -2   1    6.39    0.26 
  -1   2  -1  788.17   27.98 
   1  -2   1  802.89   26.81 
  -2   2  -1  450.41   16.04 
   2  -2   1  461.41   15.42 
  -3   2  -1   59.41    2.15 
   3  -2   1   58.87    2.13 
  -4   2  -1   24.47    0.98 
   4  -2   1   25.40    1.01 
  -5   2  -1   14.22    0.65 
   5  -2   1   14.84    0.69 
  -6   2  -1    1.47    0.18 
   6  -2   1    1.18    0.21 
   7  -2   1    1.61    0.26 
   8  -2   1    2.25    0.33 
   9  -2   1    1.51    0.32 
  -8  -1   1    1.78    0.27 
  -7  -1   1    7.46    0.47 
  -6  -1   1    0.10    0.10 
  -5  -1   1    0.13    0.08 
   4   1  -1   20.91    0.83 
  -3  -1   1   13.46    0.56 
  -2  -1   1  175.99    5.99 
  -1  -1   1  104.53    3.56 
   0  -1   1  110.94    3.81 
  -1   1  -1  105.20    3.76 
   1  -1   1  106.51    3.62 
  -2   1  -1  174.35    6.12 
   2  -1   1  171.03    5.89 
   3  -1   1   13.98    0.59 
   4  -1   1   21.87    0.89 
   5  -1   1    0.06    0.08 
   6  -1   1    0.09    0.11 
  -7   1  -1    8.07    0.49 
   7  -1   1    7.59    0.50 
   8  -1   1    2.33    0.32 
   9  -1   1    2.76    0.38 
  -9   0   1    1.02    0.24 
  -8   0   1    0.14    0.13 
  -7   0   1    0.17    0.12 
   6   0  -1    8.05    0.46 
   5   0  -1    2.56    0.24 
   4   0  -1    3.31    0.24 
   3   0  -1    0.19    0.06 
   2   0  -1  224.37    7.62 
   1   0  -1    3.18    0.15 
   0   0  -1    0.00    0.00 
   0   0  -1    0.00    0.00 
   0   0   1    0.00    0.00 
   1   0   1    3.22    0.14 
   2   0   1  222.06    7.54 
   3   0   1    0.15    0.06 
   4   0   1    3.90    0.25 
   5   0   1    2.97    0.23 
   6   0   1    8.72    0.48 
   7   0   1    0.04    0.11 
   8   0   1    0.27    0.15 
  -9   0  -1    0.82    0.23 
  -9   1   1    2.63    0.36 
   8  -1  -1    1.86    0.31 
   7  -1  -1    7.45    0.49 
   6  -1  -1    0.25    0.14 
   5  -1  -1    0.31    0.11 
   4  -1  -1   21.20    0.87 
   3  -1  -1   13.12    0.56 
   2  -1  -1  171.63    5.86 
   1  -1  -1  105.24    3.69 
   1  -1  -1  109.59    3.67 
   0  -1  -1  191.02    6.41 
   0  -1  -1  184.18    6.42 
  -1  -1  -1  105.83    3.79 
   1   1   1  115.02    3.78 
   3   1   1   13.64    0.55 
   4   1   1   20.70    0.82 
   5   1   1    0.27    0.09 
   6   1   1    0.12    0.09 
   7   1   1    8.57    0.50 
  -8  -1  -1    1.91    0.27 
  -8  -1  -1    1.86    0.27 
  -9  -1  -1    2.89    0.36 
  -9   2   1    0.95    0.24 
   8  -2  -1    2.11    0.33 
   7  -2  -1    2.04    0.29 
   6  -2  -1    1.41    0.23 
   5  -2  -1   15.11    0.71 
   4  -2  -1   25.31    1.03 
   3  -2  -1   58.15    2.11 
   3  -2  -1   59.41    2.12 
   2  -2  -1  380.64   15.01 
   2  -2  -1  472.87   14.95 
  -2   2   1  471.08   15.59 
   1  -2  -1  763.55   26.17 
   1  -2  -1  777.19   25.97 
   0  -2  -1    6.74    0.26 
   0  -2  -1    6.53    0.26 
  -1  -2  -1  624.57   24.58 
  -1  -2  -1  804.65   24.40 
  -2  -2  -1  465.87   16.27 
  -2  -2  -1  489.69   16.14 
  -3  -2  -1   58.75    2.12 
   3   2   1   59.17    2.06 
  -4  -2  -1   27.19    1.08 
  -5  -2  -1   15.89    0.72 
  -6  -2  -1    1.60    0.20 
  -6  -2  -1    1.17    0.20 
  -7  -2  -1    2.47    0.28 
  -7  -2  -1    2.18    0.26 
  -8  -2  -1    1.79    0.27 
  -9  -2  -1    0.89    0.23 
   9  -3  -1    1.06    0.29 
   8  -3  -1    1.90    0.33 
   7  -3  -1   -0.02    0.13 
   6  -3  -1    8.86    0.54 
   5  -3  -1   27.17    1.14 
  -5   3   1   26.70    1.05 
   4  -3  -1   24.48    1.02 
  -4   3   1   25.06    0.95 
   3  -3  -1   31.61    1.21 
   3  -3  -1   29.96    1.18 
  -3   3   1   32.06    1.14 
   2  -3  -1   15.92    0.63 
   2  -3  -1   14.79    0.60 
  -2   3   1   15.07    0.55 
   1  -3  -1  215.07    7.27 
   1  -3  -1  210.24    7.23 
   0  -3  -1    9.06    0.37 
   0  -3  -1    9.45    0.36 
  -1  -3  -1  215.90    7.33 
  -1  -3  -1  212.45    7.27 
  -2  -3  -1   15.98    0.57 
  -2  -3  -1   15.71    0.63 
  -3  -3  -1   33.61    1.19 
  -3  -3  -1   33.48    1.27 
  -4  -3  -1   25.97    0.98 
  -4  -3  -1   26.29    1.05 
  -5  -3  -1   27.32    1.14 
  -5  -3  -1   28.28    1.08 
  -6  -3  -1    9.40    0.52 
  -6  -3  -1    8.54    0.45 
  -7  -3  -1    0.26    0.14 
  -8  -3  -1    2.39    0.31 
  -9  -3  -1    1.28    0.27 
   9  -4  -1   -0.04    0.17 
   8  -4  -1    0.00    0.17 
   7  -4  -1    3.54    0.39 
   6  -4  -1   10.56    0.61 
   5  -4  -1    0.70    0.17 
   4  -4  -1   15.27    0.74 
   4  -4  -1   17.59    0.73 
  -4   4   1   16.42    0.63 
   3  -4  -1   23.16    0.91 
   3  -4  -1   23.05    0.94 
  -3   4   1   22.88    0.84 
   2  -4  -1   13.89    0.58 
   2  -4  -1   13.07    0.55 
   1  -4  -1    5.86    0.28 
   1  -4  -1    6.62    0.30 
   0  -4  -1    1.08    0.09 
   0  -4  -1    0.94    0.09 
  -1  -4  -1    6.33    0.30 
  -1  -4  -1    6.77    0.26 
  -2  -4  -1   14.18    0.51 
  -2  -4  -1   14.21    0.59 
  -3  -4  -1   23.89    0.84 
  -3  -4  -1   22.82    0.93 
  -4  -4  -1   16.41    0.64 
  -4  -4  -1   17.12    0.74 
  -5  -4  -1    0.94    0.12 
  -5  -4  -1    0.93    0.17 
  -6  -4  -1   11.81    0.62 
  -7  -4  -1    3.44    0.34 
  -8  -4  -1    0.23    0.14 
  -9  -4  -1    0.10    0.14 
   9  -5  -1    0.51    0.25 
   8  -5  -1    1.58    0.32 
   7  -5  -1    0.54    0.20 
   6  -5  -1    4.73    0.42 
   5  -5  -1    2.65    0.30 
   5  -5  -1    3.13    0.28 
   4  -5  -1   17.29    0.74 
   4  -5  -1   15.88    0.76 
   3  -5  -1    3.16    0.22 
   3  -5  -1    2.58    0.24 
   2  -5  -1   15.22    0.62 
   2  -5  -1   15.12    0.65 
   1  -5  -1   21.41    0.84 
   1  -5  -1   22.20    0.83 
   0  -5  -1   11.35    0.47 
   0  -5  -1   11.21    0.46 
  -1  -5  -1   21.23    0.83 
  -1  -5  -1   21.95    0.78 
  -2  -5  -1   16.26    0.58 
  -2  -5  -1   16.31    0.68 
  -3  -5  -1    3.10    0.23 
  -3  -5  -1    3.27    0.15 
  -4  -5  -1   17.12    0.76 
  -4  -5  -1   17.39    0.65 
  -5  -5  -1    3.15    0.29 
  -6  -5  -1    4.58    0.36 
  -7  -5  -1    0.30    0.15 
  -8  -5  -1    1.17    0.24 
  -9  -5  -1    0.38    0.18 
   9  -6  -1    0.36    0.25 
   8  -6  -1    0.61    0.23 
   7  -6  -1    2.70    0.37 
   6  -6  -1    1.00    0.22 
   5  -6  -1    7.53    0.48 
   5  -6  -1    6.97    0.44 
   4  -6  -1    6.91    0.40 
   4  -6  -1    6.74    0.42 
   3  -6  -1    5.40    0.31 
   3  -6  -1    5.39    0.35 
   2  -6  -1    0.27    0.08 
   2  -6  -1    0.32    0.09 
   1  -6  -1   22.09    0.89 
   1  -6  -1   23.25    0.88 
   0  -6  -1   16.14    0.64 
   0  -6  -1   16.19    0.66 
  -1  -6  -1   23.31    0.90 
  -1  -6  -1   22.95    0.85 
  -2  -6  -1    0.23    0.08 
  -2  -6  -1    0.26    0.05 
  -3  -6  -1    5.73    0.24 
  -3  -6  -1    5.69    0.34 
  -4  -6  -1    7.57    0.43 
  -5  -6  -1    8.53    0.50 
  -6  -6  -1    0.68    0.17 
  -7  -6  -1    2.83    0.32 
  -8  -6  -1    0.76    0.20 
  -9  -6  -1    0.16    0.17 
   8  -7  -1    0.27    0.21 
   7  -7  -1    2.18    0.35 
   6  -7  -1    0.73    0.20 
   6  -7  -1    0.91    0.22 
   5  -7  -1    0.23    0.12 
   5  -7  -1    0.31    0.15 
   4  -7  -1   15.55    0.72 
   4  -7  -1   15.43    0.76 
   3  -7  -1    9.20    0.50 
   3  -7  -1    9.41    0.47 
   2  -7  -1    1.95    0.19 
   2  -7  -1    2.57    0.23 
   1  -7  -1    8.35    0.41 
   1  -7  -1    7.85    0.39 
   0  -7  -1   50.93    1.81 
   0  -7  -1   47.94    1.77 
  -1  -7  -1    8.40    0.41 
  -1  -7  -1    8.47    0.37 
  -2  -7  -1    2.08    0.13 
  -2  -7  -1    2.26    0.20 
  -3  -7  -1   10.95    0.54 
  -4  -7  -1   16.66    0.77 
  -5  -7  -1    0.25    0.13 
  -6  -7  -1    0.91    0.19 
  -7  -7  -1    2.11    0.30 
  -8  -7  -1    0.37    0.18 
   8  -8  -1    0.02    0.20 
   7  -8  -1    0.50    0.18 
   6  -8  -1    4.60    0.45 
   6  -8  -1    4.38    0.40 
   5  -8  -1    0.65    0.18 
   5  -8  -1    0.28    0.14 
   4  -8  -1    1.37    0.23 
   4  -8  -1    2.03    0.24 
   3  -8  -1    3.19    0.29 
   3  -8  -1    3.03    0.25 
   2  -8  -1    9.43    0.47 
   2  -8  -1    9.27    0.49 
   1  -8  -1    4.74    0.29 
   1  -8  -1    4.44    0.28 
   0  -8  -1    0.46    0.11 
   0  -8  -1    0.64    0.11 
  -1  -8  -1    4.41    0.29 
  -1  -8  -1    4.68    0.25 
  -2  -8  -1    8.88    0.46 
  -3  -8  -1    3.40    0.27 
  -4  -8  -1    1.42    0.21 
  -5  -8  -1    0.25    0.13 
  -6  -8  -1    4.43    0.40 
  -7  -8  -1    0.33    0.16 
  -8  -8  -1    0.12    0.16 
   7  -9  -1    0.11    0.18 
   6  -9  -1    0.47    0.20 
   6  -9  -1    0.28    0.16 
   5  -9  -1    1.73    0.28 
   5  -9  -1    1.97    0.28 
   4  -9  -1    0.56    0.17 
   4  -9  -1    0.43    0.14 
   3  -9  -1    0.69    0.16 
   3  -9  -1    0.56    0.16 
   2  -9  -1    0.62    0.15 
   2  -9  -1    0.92    0.17 
   1  -9  -1    4.44    0.30 
   1  -9  -1    4.38    0.30 
   0  -9  -1    1.37    0.17 
   0  -9  -1    1.36    0.18 
  -1  -9  -1    4.84    0.32 
  -2  -9  -1    0.56    0.14 
  -3  -9  -1    0.53    0.16 
  -4  -9  -1    0.66    0.16 
  -5  -9  -1    1.59    0.24 
  -6  -9  -1    0.41    0.17 
  -7  -9  -1    0.27    0.18 
   7 -10  -1    0.83    0.25 
   6 -10  -1    0.35    0.17 
   5 -10  -1    0.57    0.19 
   5 -10  -1    0.18    0.15 
   4 -10  -1    0.10    0.11 
   4 -10  -1    0.08    0.14 
   3 -10  -1    1.08    0.21 
   3 -10  -1    0.98    0.19 
   2 -10  -1    0.92    0.18 
   2 -10  -1    0.90    0.18 
   1 -10  -1    0.57    0.15 
   1 -10  -1    0.48    0.13 
   0 -10  -1    0.14    0.09 
   0 -10  -1    0.14    0.11 
  -1 -10  -1    0.43    0.15 
  -2 -10  -1    1.32    0.21 
  -3 -10  -1    0.87    0.19 
  -4 -10  -1    0.10    0.13 
  -5 -10  -1    0.41    0.17 
  -6 -10  -1    0.39    0.17 
  -7 -10  -1    0.71    0.23 
   6 -11  -1    0.45    0.19 
   5 -11  -1    0.20    0.16 
   5 -11  -1    0.31    0.19 
   4 -11  -1    0.11    0.11 
   4 -11  -1    0.11    0.14 
   3 -11  -1    1.89    0.26 
   3 -11  -1    1.72    0.26 
   2 -11  -1    0.46    0.15 
   2 -11  -1    0.37    0.14 
   1 -11  -1    2.07    0.24 
   1 -11  -1    2.29    0.26 
   0 -11  -1    0.91    0.18 
  -1 -11  -1    2.44    0.26 
  -2 -11  -1    0.26    0.14 
  -3 -11  -1    1.88    0.26 
  -4 -11  -1    0.12    0.14 
  -5 -11  -1    0.18    0.14 
  -6 -11  -1    0.11    0.15 
   5 -12  -1    0.17    0.17 
   4 -12  -1   -0.08    0.15 
   4 -12  -1    0.08    0.14 
   3 -12  -1    0.63    0.19 
   3 -12  -1    0.65    0.19 
   2 -12  -1    1.64    0.26 
   2 -12  -1    1.64    0.25 
   1 -12  -1    0.23    0.14 
   0 -12  -1    0.17    0.13 
  -1 -12  -1    0.19    0.14 
  -2 -12  -1    1.59    0.25 
  -3 -12  -1    0.90    0.21 
  -4 -12  -1   -0.10    0.15 
  -5 -12  -1    0.69    0.21 
   4 -13  -1    0.55    0.21 
   4 -13  -1    0.40    0.22 
   3 -13  -1    0.14    0.16 
   2 -13  -1   -0.13    0.13 
   1 -13  -1    0.43    0.17 
   0 -13  -1    0.57    0.18 
  -1 -13  -1    0.61    0.19 
  -2 -13  -1    0.07    0.15 
  -3 -13  -1    0.03    0.15 
  -4 -13  -1    0.33    0.20 
   3 -14  -1    0.88    0.24 
   2 -14  -1    0.03    0.16 
   1 -14  -1    0.25    0.18 
   0 -14  -1    0.23    0.16 
  -1 -14  -1    0.30    0.17 
  -2 -14  -1    0.15    0.17 
  -3 -14  -1    0.34    0.20 
   0 -15  -1    0.09    0.18 
   0 -15   2    0.10    0.17 
  -3 -14   2    1.02    0.27 
  -2 -14   2   -0.15    0.13 
  -1 -14   2    0.34    0.20 
   0 -14   2    0.10    0.15 
   1 -14   2    0.35    0.18 
   2 -14   2    0.03    0.16 
  -4 -13   2    0.54    0.23 
  -3 -13   2    0.19    0.17 
  -2 -13   2    0.86    0.23 
  -1 -13   2    0.32    0.16 
   0 -13   2    0.02    0.13 
   1 -13   2    0.20    0.15 
   2 -13   2    0.95    0.22 
   3 -13   2    0.45    0.17 
   4 -13   2    0.68    0.23 
  -5 -12   2    0.18    0.18 
  -4 -12   2    0.72    0.21 
  -3 -12   2    0.13    0.14 
  -2 -12   2    0.50    0.19 
  -1 -12   2    0.02    0.13 
   0 -12   2    0.49    0.16 
   1 -12   2    0.20    0.13 
   2 -12   2    0.53    0.15 
   2 -12   2    0.69    0.18 
   3 -12   2    0.06    0.13 
   3 -12   2    0.12    0.13 
   4 -12   2    0.76    0.20 
   5 -12   2    0.69    0.22 
  -6 -11   2    0.07    0.15 
  -5 -11   2    0.79    0.23 
  -4 -11   2    0.60    0.19 
  -3 -11   2    0.49    0.18 
  -2 -11   2    3.07    0.31 
  -1 -11   2    1.87    0.24 
   0 -11   2    0.03    0.10 
   0 -11   2   -0.02    0.11 
   1 -11   2    1.55    0.23 
   1 -11   2    1.98    0.23 
   2 -11   2    2.89    0.31 
   2 -11   2    2.39    0.26 
   3 -11   2    0.70    0.19 
   3 -11   2    0.45    0.16 
   4 -11   2    0.84    0.21 
   5 -11   2    0.64    0.21 
   6 -11   2    0.42    0.20 
  -7 -10   2    0.61    0.23 
  -6 -10   2    0.43    0.18 
  -5 -10   2    1.76    0.30 
  -4 -10   2    0.19    0.15 
  -3 -10   2    4.49    0.35 
  -2 -10   2    0.39    0.14 
  -1 -10   2    2.69    0.26 
   0 -10   2    0.26    0.10 
   0 -10   2   -0.02    0.10 
   1 -10   2    2.60    0.24 
   1 -10   2    2.37    0.25 
   2 -10   2    0.48    0.15 
   2 -10   2    0.61    0.15 
   3 -10   2    3.93    0.31 
   3 -10   2    4.11    0.37 
   4 -10   2    0.20    0.14 
   4 -10   2    0.26    0.14 
   5 -10   2    1.44    0.26 
   6 -10   2    0.11    0.16 
   7 -10   2    0.35    0.22 
  -7  -9   2    0.15    0.15 
  -6  -9   2    0.91    0.22 
  -5  -9   2    0.37    0.15 
  -4  -9   2    1.70    0.25 
  -3  -9   2    5.54    0.38 
  -2  -9   2   14.41    0.68 
  -1  -9   2    6.62    0.36 
  -1  -9   2    6.91    0.39 
   0  -9   2    0.04    0.07 
   0  -9   2    0.13    0.10 
   1  -9   2    6.05    0.35 
   1  -9   2    6.83    0.39 
   2  -9   2   13.91    0.64 
   2  -9   2   11.52    0.57 
   3  -9   2    4.42    0.35 
   3  -9   2    4.72    0.33 
   4  -9   2    1.72    0.22 
   4  -9   2    1.50    0.25 
   5  -9   2    0.15    0.13 
   6  -9   2    0.46    0.18 
   7  -9   2    0.46    0.19 
  -8  -8   2    1.81    0.32 
  -7  -8   2    0.54    0.19 
  -6  -8   2    0.13    0.13 
  -5  -8   2    0.97    0.21 
  -4  -8   2    5.41    0.40 
  -3  -8   2    3.51    0.31 
  -2  -8   2    7.68    0.36 
  -2  -8   2    8.01    0.44 
  -1  -8   2    1.36    0.17 
  -1  -8   2    1.31    0.14 
   0  -8   2    4.52    0.28 
   0  -8   2    4.56    0.28 
   1  -8   2    1.38    0.15 
   1  -8   2    1.21    0.17 
   2  -8   2    7.66    0.39 
   2  -8   2    7.30    0.43 
   3  -8   2    2.86    0.23 
   3  -8   2    3.26    0.30 
   4  -8   2    4.39    0.31 
   4  -8   2    4.71    0.37 
   5  -8   2    1.12    0.23 
   5  -8   2    0.96    0.19 
   6  -8   2    0.06    0.12 
   7  -8   2    0.58    0.20 
   8  -8   2    1.45    0.35 
  -8  -7   2    0.04    0.14 
  -7  -7   2    0.89    0.22 
  -6  -7   2    2.45    0.31 
  -5  -7   2    3.55    0.34 
  -4  -7   2    0.66    0.16 
  -3  -7   2    7.87    0.35 
  -3  -7   2    7.66    0.44 
  -2  -7   2    4.58    0.30 
  -2  -7   2    4.65    0.24 
  -1  -7   2    4.01    0.23 
  -1  -7   2    3.94    0.25 
   0  -7   2   33.66    1.29 
   0  -7   2   35.61    1.30 
   1  -7   2    4.15    0.25 
   1  -7   2    4.63    0.28 
   2  -7   2    3.89    0.28 
   2  -7   2    4.15    0.25 
   3  -7   2    6.45    0.40 
   3  -7   2    6.59    0.35 
   4  -7   2    0.64    0.14 
   4  -7   2    0.27    0.13 
   5  -7   2    3.81    0.29 
   5  -7   2    3.72    0.36 
   6  -7   2    1.78    0.30 
   7  -7   2    0.73    0.23 
   8  -7   2    0.10    0.18 
  -9  -6   2   -0.04    0.15 
  -8  -6   2    0.68    0.20 
  -7  -6   2    1.01    0.23 
  -6  -6   2    0.38    0.14 
  -5  -6   2    6.65    0.45 
  -4  -6   2    6.35    0.40 
  -4  -6   2    6.39    0.30 
  -3  -6   2   25.27    0.93 
  -3  -6   2   25.33    1.04 
  -2  -6   2    8.58    0.42 
  -2  -6   2    8.17    0.36 
  -1  -6   2    3.77    0.24 
  -1  -6   2    4.19    0.22 
   0  -6   2   13.03    0.53 
   0  -6   2   12.16    0.52 
   1  -6   2    3.17    0.19 
   1  -6   2    3.26    0.22 
   2  -6   2    7.74    0.36 
   2  -6   2    8.02    0.42 
   3  -6   2   23.27    0.98 
   3  -6   2   23.60    0.92 
   4  -6   2    5.71    0.33 
   4  -6   2    5.55    0.38 
   5  -6   2    6.31    0.38 
   5  -6   2    6.31    0.43 
   6  -6   2    0.28    0.16 
   7  -6   2    1.31    0.28 
   8  -6   2    0.66    0.26 
   9  -6   2    0.38    0.25 
  -9  -5   2    0.23    0.18 
  -8  -5   2    0.14    0.13 
  -7  -5   2    1.80    0.28 
  -6  -5   2    3.19    0.33 
  -5  -5   2    4.98    0.37 
  -5  -5   2    4.73    0.28 
  -4  -5   2    4.01    0.30 
  -4  -5   2    4.48    0.24 
  -3  -5   2    2.54    0.16 
  -3  -5   2    2.43    0.23 
  -2  -5   2   26.90    1.06 
  -2  -5   2   27.50    0.98 
  -1  -5   2    7.41    0.31 
  -1  -5   2    6.77    0.34 
   0  -5   2    3.56    0.20 
   0  -5   2    3.84    0.20 
   1  -5   2    7.02    0.34 
   1  -5   2    6.80    0.31 
   2  -5   2   25.80    1.03 
   2  -5   2   26.56    0.98 
   3  -5   2    2.73    0.22 
   3  -5   2    2.34    0.17 
  -4   5  -2    4.11    0.21 
   4  -5   2    3.34    0.28 
   4  -5   2    3.55    0.25 
   5  -5   2    4.05    0.36 
   6  -5   2    3.01    0.34 
   7  -5   2    1.15    0.26 
   8  -5   2    0.00    0.14 
   9  -5   2    0.13    0.23 
  -9  -4   2   -0.05    0.13 
  -8  -4   2    0.72    0.20 
  -7  -4   2    1.42    0.24 
  -6  -4   2    2.66    0.22 
  -6  -4   2    3.06    0.31 
  -5  -4   2    1.39    0.15 
  -5  -4   2    1.45    0.21 
  -4  -4   2   50.49    1.88 
  -4  -4   2   48.13    1.76 
  -3  -4   2  127.65    4.47 
  -3  -4   2  134.08    4.60 
  -2  -4   2   19.55    0.70 
  -2  -4   2   18.26    0.76 
  -1  -4   2   10.62    0.41 
  -1  -4   2   10.30    0.44 
   0  -4   2    0.24    0.05 
   0  -4   2    0.22    0.05 
   1  -4   2    9.72    0.42 
   1  -4   2    9.38    0.38 
   2  -4   2   18.11    0.74 
  -3   4  -2  125.86    4.54 
   3  -4   2  129.48    4.46 
  -4   4  -2   47.40    1.71 
   4  -4   2   45.13    1.76 
  -5   4  -2    1.47    0.14 
   5  -4   2    1.32    0.21 
   6  -4   2    3.21    0.34 
   7  -4   2    1.59    0.29 
   8  -4   2    0.95    0.25 
   9  -4   2    0.05    0.20 
  -9  -3   2    0.23    0.16 
  -8  -3   2    1.64    0.27 
  -7  -3   2    3.73    0.37 
  -7  -3   2    4.08    0.31 
  -6  -3   2    6.04    0.43 
  -6  -3   2    6.64    0.39 
  -5  -3   2    5.72    0.33 
  -4  -3   2    9.43    0.43 
  -3  -3   2   55.20    1.96 
  -3  -3   2   56.50    2.05 
  -2  -3   2    4.11    0.19 
  -2  -3   2    3.91    0.24 
  -1  -3   2  159.61    5.42 
  -1  -3   2  159.95    5.50 
   0  -3   2   -0.01    0.02 
   0  -3   2    0.00    0.03 
   1  -3   2  155.83    5.32 
  -2   3  -2    4.16    0.19 
   2  -3   2    3.69    0.23 
  -3   3  -2   53.36    1.94 
   3  -3   2   53.36    1.95 
  -4   3  -2    8.36    0.39 
   4  -3   2    8.73    0.46 
  -5   3  -2    5.52    0.31 
   5  -3   2    4.44    0.35 
  -6   3  -2    5.95    0.35 
   6  -3   2    5.75    0.42 
   7  -3   2    4.11    0.39 
   8  -3   2    1.90    0.32 
   9  -3   2    0.43    0.22 
  -9  -2   2    1.53    0.28 
  -8  -2   2    0.36    0.15 
  -7  -2   2    1.32    0.22 
  -6  -2   2    3.37    0.27 
  -5  -2   2   11.58    0.56 
  -4  -2   2   14.12    0.61 
  -3  -2   2   23.36    0.88 
  -2  -2   2   51.85    1.81 
  -1  -2   2  151.03    5.03 
  -1  -2   2  145.60    5.10 
   0  -2   2   55.84    1.99 
   0  -2   2   59.53    1.99 
  -1   2  -2  146.73    5.14 
   1  -2   2  142.09    4.96 
   1  -2   2  146.80    4.95 
  -2   2  -2   53.16    1.96 
   2  -2   2   54.98    1.92 
   2  -2   2   54.56    1.90 
  -3   2  -2   22.60    0.87 
   3  -2   2   22.24    0.89 
  -4   2  -2   12.58    0.57 
   4  -2   2   13.61    0.60 
  -5   2  -2   11.13    0.55 
   5  -2   2   12.16    0.59 
  -6   2  -2    2.89    0.24 
   6  -2   2    2.53    0.28 
  -7   2  -2    1.35    0.21 
   7  -2   2    1.32    0.24 
   8  -2   2    0.41    0.19 
   9  -2   2    1.87    0.33 
  -9  -1   2    1.26    0.27 
  -8  -1   2    1.47    0.24 
  -7  -1   2    0.26    0.13 
  -6  -1   2    7.66    0.45 
  -5  -1   2    2.35    0.23 
  -4  -1   2    8.69    0.43 
  -3  -1   2   10.07    0.45 
  -2  -1   2   57.52    2.02 
  -1  -1   2   36.67    1.28 
   0  -1   2  110.13    3.74 
  -1   1  -2   38.99    1.42 
   1  -1   2   39.61    1.37 
   1  -1   2   38.85    1.36 
  -2   1  -2   53.51    1.92 
   2  -1   2   51.84    1.85 
  -3   1  -2    9.88    0.44 
   3  -1   2    9.31    0.43 
  -4   1  -2    8.65    0.43 
   4  -1   2    8.62    0.44 
  -5   1  -2    2.36    0.23 
   5  -1   2    2.32    0.23 
  -6   1  -2    7.62    0.45 
   6  -1   2    7.71    0.46 
  -7   1  -2    0.69    0.16 
   7  -1   2    0.42    0.16 
   8  -1   2    1.19    0.25 
   9  -1   2    1.70    0.32 
  -9   0   2    0.10    0.15 
  -8   0   2    2.25    0.32 
  -7   0   2    1.00    0.20 
  -6   0   2    0.23    0.11 
   5   0  -2    0.62    0.13 
   4   0  -2   59.28    2.15 
   3   0  -2    9.17    0.41 
   2   0  -2    3.66    0.20 
  -1   0   2   55.84    1.93 
   0   0  -2   -0.12    0.05 
   0   0  -2   -0.26    0.05 
   0   0   2   -0.19    0.05 
  -1   0  -2   53.70    1.91 
  -1   0  -2   52.14    1.83 
   1   0   2   53.18    1.82 
   2   0   2    3.83    0.19 
   3   0   2    8.98    0.40 
   4   0   2   60.09    2.17 
   5   0   2    0.61    0.13 
   6   0   2    0.07    0.09 
   7   0   2    0.89    0.19 
  -8   0  -2    2.74    0.33 
   8   0   2    2.21    0.31 
  -9   1   2    1.48    0.30 
  -8   1   2    0.82    0.20 
   7  -1  -2    0.58    0.20 
   6  -1  -2    8.02    0.48 
   5  -1  -2    2.00    0.22 
   4  -1  -2    8.16    0.42 
   3  -1  -2    8.97    0.42 
   2  -1  -2   50.63    1.84 
   2  -1  -2   52.87    1.84 
   1  -1  -2   39.65    1.41 
   1  -1  -2   39.93    1.40 
   0  -1  -2  109.62    3.75 
  -1  -1  -2   40.00    1.41 
   1   1   2   40.64    1.39 
  -2  -1  -2   51.52    1.87 
   2   1   2   54.79    1.85 
   4   1   2    8.48    0.40 
   5   1   2    2.15    0.20 
   6   1   2    7.72    0.43 
  -7  -1  -2    0.68    0.16 
   7   1   2    0.64    0.17 
  -8  -1  -2    1.18    0.23 
  -8  -1  -2    1.51    0.24 
  -9  -1  -2    1.61    0.32 
  -9   2   2    1.36    0.28 
   8  -2  -2    0.41    0.19 
   7  -2  -2    1.85    0.29 
   6  -2  -2    2.79    0.31 
   5  -2  -2   11.52    0.58 
   4  -2  -2   12.91    0.60 
   3  -2  -2   23.26    0.90 
   3  -2  -2   22.41    0.91 
   2  -2  -2   54.74    1.90 
   2  -2  -2   51.86    1.90 
   1  -2  -2  145.46    4.95 
   1  -2  -2  144.73    4.98 
   0  -2  -2   58.01    1.98 
   0  -2  -2   57.02    1.99 
  -1  -2  -2  144.69    4.96 
  -2  -2  -2   54.62    1.95 
   2   2   2   55.76    1.90 
  -3  -2  -2   22.15    0.88 
   3   2   2   23.55    0.84 
  -4  -2  -2   13.97    0.60 
   4   2   2   13.22    0.56 
  -6  -2  -2    3.28    0.27 
   6   2   2    2.95    0.24 
  -7  -2  -2    1.40    0.20 
  -7  -2  -2    1.54    0.23 
  -8  -2  -2    0.59    0.17 
  -9  -2  -2    1.80    0.30 
  -9   3   2    0.40    0.18 
   8  -3  -2    1.88    0.31 
   7  -3  -2    3.88    0.39 
   6  -3  -2    5.19    0.40 
   5  -3  -2    5.96    0.40 
  -5   3   2    5.25    0.29 
   4  -3  -2    9.12    0.47 
  -4   3   2    8.76    0.38 
   3  -3  -2   56.20    2.00 
   3  -3  -2   54.53    1.99 
  -3   3   2   53.73    1.96 
   2  -3  -2    3.81    0.23 
   2  -3  -2    4.08    0.23 
   1  -3  -2  152.72    5.26 
   1  -3  -2  153.39    5.23 
   0  -3  -2   -0.03    0.02 
   0  -3  -2    0.05    0.03 
  -1  -3  -2  157.54    5.41 
  -2  -3  -2    3.92    0.22 
  -2  -3  -2    3.74    0.15 
  -3  -3  -2   55.37    2.00 
  -3  -3  -2   55.34    1.92 
  -4  -3  -2    9.26    0.46 
  -4  -3  -2    9.61    0.41 
  -5  -3  -2    5.46    0.30 
  -5  -3  -2    5.06    0.34 
  -6  -3  -2    5.38    0.33 
  -6  -3  -2    5.93    0.38 
  -7  -3  -2    4.01    0.33 
  -8  -3  -2    1.74    0.27 
  -9  -3  -2    0.57    0.20 
   9  -4  -2    0.31    0.21 
   8  -4  -2    0.64    0.22 
   7  -4  -2    1.36    0.27 
   6  -4  -2    3.24    0.35 
   5  -4  -2    1.56    0.23 
   4  -4  -2   47.94    1.79 
   4  -4  -2   47.45    1.81 
  -4   4   2   46.97    1.70 
   3  -4  -2  130.82    4.54 
   3  -4  -2  128.58    4.54 
   2  -4  -2   18.56    0.75 
   2  -4  -2   18.56    0.73 
   1  -4  -2   10.03    0.43 
   1  -4  -2    9.76    0.41 
   0  -4  -2    0.29    0.05 
   0  -4  -2    0.12    0.04 
  -1  -4  -2    9.83    0.41 
  -1  -4  -2    9.79    0.36 
  -2  -4  -2   19.27    0.76 
  -3  -4  -2  135.40    4.59 
  -3  -4  -2  135.08    4.72 
  -4  -4  -2   46.62    1.66 
  -4  -4  -2   48.03    1.77 
  -5  -4  -2    1.56    0.21 
  -5  -4  -2    1.70    0.15 
  -6  -4  -2    3.00    0.29 
  -7  -4  -2    1.24    0.22 
  -8  -4  -2    1.17    0.23 
  -9  -4  -2    0.44    0.19 
   9  -5  -2    0.17    0.21 
   8  -5  -2    0.23    0.18 
   7  -5  -2    1.90    0.31 
   6  -5  -2    3.40    0.37 
   5  -5  -2    4.44    0.36 
   5  -5  -2    4.25    0.33 
   4  -5  -2    3.75    0.28 
   4  -5  -2    3.63    0.30 
   3  -5  -2    2.50    0.20 
   3  -5  -2    2.63    0.24 
   2  -5  -2   25.66    1.01 
   2  -5  -2   26.86    1.04 
   1  -5  -2    6.55    0.31 
   1  -5  -2    6.78    0.33 
   0  -5  -2    3.35    0.20 
   0  -5  -2    3.62    0.19 
  -1  -5  -2    6.66    0.26 
  -1  -5  -2    6.21    0.31 
  -2  -5  -2   29.12    1.11 
  -3  -5  -2    2.69    0.12 
  -3  -5  -2    2.64    0.21 
  -4  -5  -2    4.46    0.20 
  -4  -5  -2    4.23    0.30 
  -5  -5  -2    4.75    0.34 
  -6  -5  -2    3.63    0.33 
  -7  -5  -2    1.31    0.22 
  -8  -5  -2    0.09    0.14 
  -9  -5  -2    0.22    0.16 
   9  -6  -2    0.00    0.24 
   8  -6  -2    0.74    0.25 
   7  -6  -2    0.86    0.24 
   6  -6  -2    0.14    0.13 
   5  -6  -2    6.62    0.45 
   5  -6  -2    6.94    0.45 
   4  -6  -2    6.06    0.37 
   4  -6  -2    5.80    0.39 
   3  -6  -2   22.52    0.96 
   3  -6  -2   22.93    0.93 
   2  -6  -2    8.16    0.39 
   2  -6  -2    7.99    0.41 
   1  -6  -2    3.30    0.21 
   1  -6  -2    3.27    0.22 
   0  -6  -2   12.02    0.52 
   0  -6  -2   12.19    0.50 
  -1  -6  -2    3.69    0.23 
  -1  -6  -2    3.67    0.18 
  -2  -6  -2    7.91    0.30 
  -2  -6  -2    8.04    0.40 
  -3  -6  -2   24.57    0.99 
  -4  -6  -2    6.65    0.39 
  -5  -6  -2    6.68    0.42 
  -6  -6  -2    0.54    0.16 
  -7  -6  -2    1.05    0.21 
  -8  -6  -2    0.71    0.20 
  -9  -6  -2    0.45    0.20 
   8  -7  -2    0.33    0.21 
   7  -7  -2    1.08    0.25 
   6  -7  -2    2.37    0.33 
   6  -7  -2    2.67    0.32 
   5  -7  -2    3.72    0.34 
   5  -7  -2    3.36    0.35 
   4  -7  -2    0.71    0.17 
   4  -7  -2    0.66    0.17 
   3  -7  -2    7.11    0.39 
   3  -7  -2    6.60    0.41 
   2  -7  -2    4.61    0.29 
   2  -7  -2    3.44    0.24 
   1  -7  -2    3.87    0.24 
   1  -7  -2    3.62    0.24 
   0  -7  -2   32.94    1.24 
   0  -7  -2   34.07    1.27 
  -1  -7  -2    4.26    0.26 
  -1  -7  -2    4.27    0.22 
  -2  -7  -2    4.21    0.19 
  -2  -7  -2    4.67    0.29 
  -3  -7  -2    8.14    0.44 
  -4  -7  -2    0.77    0.17 
  -5  -7  -2    4.05    0.33 
  -6  -7  -2    2.29    0.28 
  -7  -7  -2    0.76    0.19 
  -8  -7  -2    0.17    0.14 
   8  -8  -2    0.96    0.26 
   7  -8  -2    0.80    0.23 
   6  -8  -2    0.01    0.12 
   6  -8  -2    0.30    0.17 
   5  -8  -2    1.09    0.22 
   5  -8  -2    1.14    0.22 
   4  -8  -2    4.63    0.36 
   4  -8  -2    4.30    0.34 
   3  -8  -2    3.42    0.27 
   3  -8  -2    3.21    0.30 
   2  -8  -2    5.67    0.35 
   2  -8  -2    6.94    0.39 
   1  -8  -2    1.32    0.16 
   1  -8  -2    1.73    0.18 
   0  -8  -2    3.98    0.27 
   0  -8  -2    4.17    0.25 
  -1  -8  -2    1.49    0.18 
  -1  -8  -2    1.44    0.13 
  -2  -8  -2    7.98    0.43 
  -3  -8  -2    3.64    0.28 
  -4  -8  -2    5.01    0.36 
  -5  -8  -2    1.06    0.20 
  -6  -8  -2    0.13    0.13 
  -7  -8  -2    0.63    0.20 
  -8  -8  -2    1.37    0.27 
   7  -9  -2    0.41    0.18 
   6  -9  -2    0.82    0.21 
   6  -9  -2    0.68    0.23 
   5  -9  -2    0.46    0.19 
   5  -9  -2    0.10    0.12 
   4  -9  -2    1.78    0.26 
   4  -9  -2    1.57    0.24 
   3  -9  -2    4.11    0.32 
   3  -9  -2    4.36    0.34 
   2  -9  -2   11.74    0.62 
   2  -9  -2   13.51    0.62 
   1  -9  -2    6.64    0.39 
   1  -9  -2    6.71    0.38 
   0  -9  -2    0.36    0.11 
   0  -9  -2    0.15    0.11 
  -1  -9  -2    6.57    0.38 
  -2  -9  -2   15.53    0.72 
  -3  -9  -2    4.76    0.33 
  -4  -9  -2    1.80    0.24 
  -5  -9  -2    0.05    0.13 
  -6  -9  -2    0.94    0.21 
  -7  -9  -2    0.45    0.18 
   7 -10  -2    0.56    0.22 
   6 -10  -2    0.24    0.15 
   6 -10  -2   -0.02    0.18 
   5 -10  -2    1.26    0.26 
   5 -10  -2    1.90    0.29 
   4 -10  -2    0.38    0.15 
   4 -10  -2    0.17    0.15 
   3 -10  -2    3.59    0.33 
   3 -10  -2    4.29    0.34 
   2 -10  -2    0.58    0.16 
   2 -10  -2    0.88    0.18 
   1 -10  -2    2.54    0.24 
   1 -10  -2    2.00    0.23 
   0 -10  -2    0.11    0.11 
  -1 -10  -2    1.86    0.22 
  -2 -10  -2    0.47    0.14 
  -3 -10  -2    4.18    0.34 
  -4 -10  -2    0.12    0.12 
  -5 -10  -2    1.12    0.22 
  -6 -10  -2    0.01    0.14 
  -7 -10  -2    0.81    0.23 
   6 -11  -2    0.21    0.16 
   5 -11  -2    1.39    0.27 
   5 -11  -2    0.74    0.24 
   4 -11  -2    0.81    0.20 
   4 -11  -2    0.74    0.20 
   3 -11  -2    0.54    0.17 
   3 -11  -2    0.64    0.18 
   2 -11  -2    2.59    0.29 
   2 -11  -2    2.91    0.30 
   1 -11  -2    1.54    0.22 
   0 -11  -2    0.02    0.11 
  -1 -11  -2    1.79    0.24 
  -2 -11  -2    2.83    0.29 
  -3 -11  -2    0.60    0.17 
  -4 -11  -2    0.76    0.19 
  -5 -11  -2    0.90    0.21 
  -6 -11  -2    0.44    0.18 
   5 -12  -2    0.36    0.17 
   5 -12  -2    0.27    0.22 
   4 -12  -2    0.34    0.18 
   4 -12  -2    0.46    0.17 
   3 -12  -2    0.31    0.16 
   3 -12  -2    0.04    0.11 
   2 -12  -2    0.59    0.18 
   1 -12  -2    0.03    0.12 
   0 -12  -2    0.38    0.15 
  -1 -12  -2    0.09    0.13 
  -2 -12  -2    0.40    0.17 
  -3 -12  -2    0.35    0.16 
  -4 -12  -2    0.36    0.18 
  -5 -12  -2    0.62    0.20 
   4 -13  -2    0.52    0.22 
   4 -13  -2    0.52    0.20 
   3 -13  -2    0.34    0.19 
   2 -13  -2    0.75    0.21 
   1 -13  -2    0.16    0.14 
   0 -13  -2    0.04    0.14 
  -1 -13  -2   -0.10    0.12 
  -2 -13  -2    0.74    0.19 
  -3 -13  -2    0.14    0.15 
  -4 -13  -2    0.60    0.22 
   3 -14  -2    0.88    0.25 
   2 -14  -2   -0.04    0.17 
   1 -14  -2    0.37    0.19 
   0 -14  -2    0.12    0.16 
  -1 -14  -2    0.09    0.15 
  -2 -14  -2    0.07    0.17 
  -3 -14  -2    0.82    0.24 
   0 -15  -2    0.12    0.18 
  -3 -14   3    1.40    0.28 
  -2 -14   3    0.14    0.18 
  -1 -14   3    0.55    0.20 
   0 -14   3    0.18    0.17 
   1 -14   3    0.80    0.21 
  -4 -13   3    1.50    0.30 
  -3 -13   3    0.72    0.23 
  -2 -13   3    0.52    0.19 
  -1 -13   3    0.20    0.16 
   0 -13   3    0.83    0.20 
   1 -13   3    0.10    0.15 
   2 -13   3    0.72    0.20 
   2 -13   3    0.60    0.20 
   3 -13   3    1.09    0.24 
   4 -13   3    1.29    0.28 
  -5 -12   3    0.06    0.17 
  -4 -12   3   -0.14    0.14 
  -3 -12   3    0.46    0.19 
  -2 -12   3    3.32    0.34 
  -1 -12   3   -0.05    0.12 
   0 -12   3    1.70    0.24 
   1 -12   3    0.14    0.11 
   1 -12   3    0.23    0.15 
   2 -12   3    3.51    0.32 
   2 -12   3    3.41    0.35 
   3 -12   3    0.31    0.14 
   4 -12   3    0.05    0.13 
   5 -12   3    0.13    0.16 
  -6 -11   3    0.12    0.19 
  -5 -11   3    0.49    0.20 
  -4 -11   3    0.22    0.17 
  -3 -11   3    4.59    0.38 
  -2 -11   3    0.74    0.19 
  -1 -11   3    3.14    0.29 
   0 -11   3    1.02    0.19 
   0 -11   3    1.03    0.18 
   1 -11   3    3.30    0.31 
   1 -11   3    2.83    0.26 
   2 -11   3    0.63    0.17 
   2 -11   3    0.67    0.18 
   3 -11   3    3.86    0.38 
   3 -11   3    3.19    0.31 
   4 -11   3    0.13    0.14 
   5 -11   3    0.50    0.21 
   6 -11   3    0.18    0.17 
  -7 -10   3    0.69    0.24 
  -6 -10   3    0.00    0.15 
  -5 -10   3    0.27    0.18 
  -4 -10   3    0.81    0.21 
  -3 -10   3    1.93    0.26 
  -2 -10   3    3.62    0.30 
  -1 -10   3    1.42    0.19 
  -1 -10   3    1.83    0.22 
   0 -10   3    0.14    0.11 
   0 -10   3   -0.01    0.08 
   1 -10   3    1.24    0.20 
   1 -10   3    1.34    0.18 
   2 -10   3    2.90    0.30 
   2 -10   3    3.17    0.27 
   3 -10   3    1.29    0.19 
   3 -10   3    1.36    0.22 
   4 -10   3    0.82    0.20 
   5 -10   3    0.20    0.14 
   6 -10   3    0.28    0.17 
   7 -10   3    0.69    0.24 
  -7  -9   3    0.17    0.17 
  -6  -9   3    0.38    0.16 
  -5  -9   3    0.64    0.20 
  -4  -9   3    2.39    0.29 
  -3  -9   3    2.74    0.29 
  -2  -9   3    0.19    0.10 
  -2  -9   3    0.14    0.12 
  -1  -9   3    2.22    0.23 
  -1  -9   3    2.34    0.21 
   0  -9   3   11.72    0.54 
   0  -9   3   10.22    0.52 
   1  -9   3    2.57    0.25 
   1  -9   3    2.61    0.22 
   2  -9   3    0.20    0.12 
   2  -9   3    0.14    0.08 
   3  -9   3    2.70    0.24 
   3  -9   3    2.49    0.29 
   4  -9   3    2.70    0.32 
   4  -9   3    2.19    0.24 
   5  -9   3    0.57    0.19 
   6  -9   3    0.36    0.18 
   7  -9   3   -0.08    0.15 
  -8  -8   3    0.27    0.17 
  -7  -8   3   -0.08    0.13 
  -6  -8   3    1.22    0.24 
  -5  -8   3    0.18    0.14 
  -4  -8   3    0.84    0.19 
  -3  -8   3    4.59    0.34 
  -3  -8   3    4.22    0.25 
  -2  -8   3   11.45    0.56 
  -2  -8   3   10.85    0.49 
  -1  -8   3    3.24    0.22 
  -1  -8   3    2.90    0.23 
   0  -8   3    2.87    0.21 
   0  -8   3    3.03    0.22 
   1  -8   3    2.86    0.23 
   1  -8   3    2.66    0.20 
   2  -8   3    9.55    0.44 
   2  -8   3    8.41    0.48 
   3  -8   3    3.71    0.30 
   3  -8   3    3.82    0.26 
   4  -8   3    1.08    0.17 
   4  -8   3    1.14    0.23 
   5  -8   3    0.04    0.11 
   6  -8   3    1.23    0.25 
   7  -8   3    0.13    0.18 
   8  -8   3   -0.03    0.21 
  -8  -7   3   -0.02    0.15 
  -7  -7   3    1.63    0.29 
  -6  -7   3    1.62    0.27 
  -5  -7   3    0.97    0.20 
  -4  -7   3   14.19    0.71 
  -3  -7   3    3.14    0.28 
  -3  -7   3    3.24    0.20 
  -2  -7   3    6.37    0.37 
  -2  -7   3    6.72    0.32 
  -1  -7   3    1.70    0.15 
  -1  -7   3    1.26    0.15 
   0  -7   3    9.67    0.44 
   0  -7   3    9.14    0.43 
   1  -7   3    1.32    0.16 
   1  -7   3    1.44    0.14 
   2  -7   3    5.95    0.31 
   2  -7   3    5.63    0.35 
   3  -7   3    2.94    0.21 
   3  -7   3    3.02    0.28 
   4  -7   3   14.33    0.73 
   5  -7   3    1.25    0.23 
   6  -7   3    1.20    0.27 
   7  -7   3    1.52    0.31 
   8  -7   3    0.20    0.21 
  -9  -6   3    0.87    0.25 
  -8  -6   3    1.65    0.30 
  -7  -6   3    1.83    0.29 
  -6  -6   3    0.79    0.20 
  -5  -6   3   13.61    0.71 
  -4  -6   3   17.36    0.81 
  -4  -6   3   17.70    0.70 
  -3  -6   3    4.16    0.23 
  -3  -6   3    4.48    0.30 
  -2  -6   3    3.58    0.25 
  -2  -6   3    3.89    0.21 
  -1  -6   3    1.83    0.14 
  -1  -6   3    1.80    0.16 
   0  -6   3    5.38    0.28 
   0  -6   3    5.60    0.29 
   1  -6   3    1.57    0.16 
   1  -6   3    1.49    0.13 
   2  -6   3    3.58    0.21 
   2  -6   3    3.76    0.26 
   3  -6   3    3.58    0.28 
   4  -6   3   16.80    0.79 
   5  -6   3    9.19    0.50 
   5  -6   3   12.04    0.62 
   6  -6   3    0.23    0.17 
   7  -6   3    2.33    0.35 
   8  -6   3    2.22    0.38 
   9  -6   3    1.08    0.32 
  -9  -5   3    0.70    0.23 
  -8  -5   3   -0.15    0.12 
  -7  -5   3    2.25    0.31 
  -6  -5   3    0.57    0.18 
  -5  -5   3   32.32    1.24 
  -5  -5   3   33.49    1.37 
  -4  -5   3    6.87    0.34 
  -4  -5   3    7.36    0.43 
  -3  -5   3   34.15    1.32 
  -3  -5   3   32.94    1.21 
  -2  -5   3   28.16    1.08 
  -2  -5   3   26.76    1.00 
  -1  -5   3   32.70    1.22 
  -1  -5   3   32.45    1.18 
   0  -5   3    1.81    0.13 
   0  -5   3    1.69    0.13 
   1  -5   3   30.28    1.11 
   1  -5   3   31.11    1.16 
   2  -5   3   25.27    1.00 
  -3   5  -3   30.93    1.11 
   3  -5   3   31.30    1.18 
   3  -5   3   25.96    1.09 
  -4   5  -3    6.52    0.30 
   4  -5   3    6.08    0.33 
   4  -5   3    5.51    0.38 
   5  -5   3   29.65    1.26 
   6  -5   3    0.51    0.20 
   7  -5   3    2.07    0.33 
   8  -5   3    0.10    0.17 
   9  -5   3    0.33    0.23 
  -9  -4   3    0.19    0.17 
  -8  -4   3    0.66    0.19 
  -7  -4   3    0.34    0.14 
  -6  -4   3    3.88    0.27 
  -6  -4   3    3.49    0.35 
  -5  -4   3    9.34    0.45 
  -5  -4   3    9.39    0.53 
  -4  -4   3    4.29    0.31 
  -4  -4   3    4.26    0.25 
  -3  -4   3    9.89    0.41 
  -3  -4   3    9.26    0.48 
  -2  -4   3   10.25    0.42 
  -2  -4   3   10.66    0.48 
  -1  -4   3   66.14    2.35 
  -1  -4   3   66.59    2.30 
   0  -4   3    0.19    0.05 
   0  -4   3    0.03    0.03 
   1  -4   3   64.17    2.26 
  -2   4  -3   10.57    0.44 
   2  -4   3   10.64    0.43 
   2  -4   3   10.51    0.48 
  -3   4  -3   10.04    0.42 
   3  -4   3    9.01    0.47 
   3  -4   3    9.99    0.43 
  -4   4  -3    3.78    0.22 
   4  -4   3    3.13    0.26 
  -5   4  -3    8.18    0.40 
   5  -4   3    8.61    0.49 
   6  -4   3    3.39    0.35 
   7  -4   3    0.27    0.17 
   8  -4   3    0.47    0.20 
   9  -4   3   -0.07    0.17 
  -9  -3   3   -0.12    0.13 
  -8  -3   3    0.87    0.23 
  -7  -3   3    0.98    0.18 
  -7  -3   3    1.25    0.22 
  -6  -3   3    1.45    0.19 
  -5  -3   3    8.16    0.42 
  -4  -3   3    9.49    0.43 
  -3  -3   3   37.28    1.35 
  -2  -3   3   99.04    3.43 
  -2  -3   3   95.92    3.34 
  -1  -3   3   20.27    0.78 
  -1  -3   3   20.63    0.74 
   0  -3   3   10.98    0.43 
   0  -3   3   10.85    0.42 
   1  -3   3   20.98    0.79 
   1  -3   3   20.82    0.75 
  -2   3  -3   95.95    3.42 
   2  -3   3   95.90    3.30 
   2  -3   3   95.54    3.34 
  -3   3  -3   36.36    1.35 
   3  -3   3   36.16    1.36 
   3  -3   3   35.59    1.31 
  -4   3  -3    8.94    0.42 
   4  -3   3    9.42    0.48 
  -5   3  -3    7.88    0.40 
   5  -3   3    7.40    0.45 
  -6   3  -3    1.45    0.18 
   6  -3   3    1.06    0.21 
   7  -3   3    0.77    0.21 
   8  -3   3    0.76    0.23 
   9  -3   3   -0.07    0.18 
  -9  -2   3    0.46    0.21 
  -8  -2   3    0.43    0.16 
  -7  -2   3    1.21    0.20 
  -6  -2   3    3.18    0.28 
  -5  -2   3    6.16    0.37 
  -4  -2   3   19.83    0.81 
  -3  -2   3   28.57    1.06 
  -2  -2   3   38.98    1.39 
  -1  -2   3  122.73    4.18 
   0  -2   3   34.36    1.21 
  -1   2  -3  119.15    4.11 
   1  -2   3  115.61    3.96 
   1  -2   3  112.25    3.95 
  -2   2  -3   39.81    1.45 
   2  -2   3   37.77    1.42 
   2  -2   3   40.02    1.38 
  -3   2  -3   27.71    1.04 
   3  -2   3   26.25    1.04 
  -4   2  -3   17.74    0.76 
   4  -2   3   18.69    0.78 
  -5   2  -3    6.32    0.36 
   5  -2   3    5.63    0.37 
  -6   2  -3    2.87    0.27 
   6  -2   3    2.80    0.30 
  -7   2  -3    1.32    0.21 
   7  -2   3    1.29    0.24 
   8  -2   3    0.37    0.19 
   9  -2   3    0.64    0.25 
  -9  -1   3    2.15    0.32 
  -8  -1   3    1.77    0.27 
  -7  -1   3    1.94    0.26 
  -6  -1   3    4.20    0.32 
  -5  -1   3    7.41    0.42 
  -4  -1   3   31.97    1.24 
  -3  -1   3    7.53    0.37 
  -2  -1   3   44.68    1.59 
  -1  -1   3   43.72    1.52 
   0   1  -3  105.37    3.79 
   0  -1   3  108.51    3.64 
  -1   1  -3   42.60    1.52 
   1  -1   3   40.86    1.46 
  -2   1  -3   42.63    1.58 
   2  -1   3   42.94    1.52 
  -3   1  -3    6.93    0.34 
   3  -1   3    6.61    0.33 
  -4   1  -3   30.15    1.24 
   4  -1   3   32.81    1.22 
  -5   1  -3    7.00    0.40 
   5  -1   3    6.66    0.39 
  -6   1  -3    4.31    0.31 
   6  -1   3    3.26    0.31 
  -7   1  -3    1.90    0.25 
   7  -1   3    1.65    0.26 
  -8   1  -3    2.15    0.30 
   8  -1   3    1.63    0.28 
   9  -1   3    1.86    0.32 
  -9   0   3    0.58    0.19 
  -8   0   3    0.18    0.13 
  -7   0   3    1.41    0.23 
  -6   0   3   16.52    0.79 
  -5   0   3    1.07    0.17 
  -4   0   3   38.14    1.46 
  -3   0   3    0.41    0.09 
  -2   0   3  154.91    5.31 
  -1   0   3    0.92    0.08 
   0   0  -3   -1.23    0.03 
   0   0  -3   -1.09    0.04 
   0   0   3   -1.00    0.04 
  -1   0  -3    0.63    0.07 
  -1   0  -3    0.79    0.05 
   1   0   3    0.77    0.06 
  -2   0  -3  155.48    5.50 
   2   0   3  152.63    5.25 
   3   0   3    0.47    0.08 
   4   0   3   40.04    1.49 
   5   0   3    1.16    0.16 
   6   0   3   15.89    0.73 
  -7   0  -3    1.50    0.25 
   7   0   3    1.63    0.24 
  -8   0  -3    0.24    0.14 
  -8   0  -3   -0.05    0.11 
   8   0   3    0.23    0.16 
  -9   1   3    2.22    0.34 
  -8   1   3    1.53    0.26 
  -7   1   3    1.42    0.24 
   6  -1  -3    3.61    0.33 
   5  -1  -3    6.76    0.40 
   4  -1  -3   30.86    1.21 
   3  -1  -3    7.04    0.35 
   2  -1  -3   41.22    1.52 
   2  -1  -3   42.69    1.51 
   1  -1  -3   42.85    1.49 
  -1   1   3   41.24    1.48 
   0  -1  -3  103.79    3.77 
   0  -1  -3  108.92    3.65 
  -1  -1  -3   43.40    1.54 
   1   1   3   45.05    1.52 
  -2  -1  -3   42.80    1.54 
   2   1   3   44.68    1.53 
  -4  -1  -3   31.52    1.20 
   4   1   3   31.44    1.18 
  -5  -1  -3    7.12    0.40 
   5   1   3    7.60    0.39 
  -6  -1  -3    4.05    0.29 
   6   1   3    3.85    0.29 
  -7  -1  -3    1.67    0.23 
   7   1   3    1.64    0.23 
  -8  -1  -3    2.19    0.28 
  -8  -1  -3    1.58    0.28 
  -9  -1  -3    1.70    0.32 
  -9   2   3    0.62    0.22 
  -8   2   3    0.23    0.15 
   7  -2  -3    1.23    0.24 
   6  -2  -3    3.50    0.34 
   5  -2  -3    6.04    0.39 
   4  -2  -3   20.29    0.86 
   3  -2  -3   27.03    1.07 
   3  -2  -3   28.31    1.08 
   2  -2  -3   40.45    1.50 
   2  -2  -3   41.88    1.50 
   1  -2  -3  114.81    3.98 
   1  -2  -3  118.56    4.11 
   1  -2  -3  113.18    3.96 
   0  -2  -3   32.15    1.03 
   0   2   3   25.51    1.01 
  -1  -2  -3  115.23    3.96 
  -2  -2  -3   41.37    1.51 
   2   2   3   43.20    1.47 
  -3  -2  -3   28.96    1.09 
   3   2   3   29.19    1.05 
  -4  -2  -3   19.20    0.79 
   4   2   3   19.72    0.76 
  -5  -2  -3    5.50    0.32 
   5   2   3    4.36    0.27 
  -6  -2  -3    2.97    0.27 
  -7  -2  -3    1.55    0.22 
   7   2   3    0.90    0.19 
  -8  -2  -3    0.15    0.12 
  -9  -2  -3    0.70    0.25 
  -9   3   3    0.21    0.15 
   8  -3  -3    1.09    0.27 
   7  -3  -3    1.26    0.25 
   6  -3  -3    1.24    0.23 
   5  -3  -3    8.69    0.50 
   4  -3  -3    9.02    0.48 
   4  -3  -3    9.53    0.48 
   3  -3  -3   39.12    1.46 
   3  -3  -3   38.25    1.46 
   2  -3  -3   95.95    3.38 
   2  -3  -3   96.99    3.37 
   1  -3  -3   18.82    0.74 
   1  -3  -3   19.37    0.74 
   1  -3  -3   20.45    0.72 
   0  -3  -3   10.64    0.42 
   0  -3  -3   10.77    0.41 
  -1  -3  -3   21.23    0.79 
  -2  -3  -3   96.89    3.37 
  -3  -3  -3   37.11    1.31 
  -3  -3  -3   37.09    1.38 
  -4  -3  -3    9.22    0.45 
  -5  -3  -3    8.09    0.43 
  -5  -3  -3    7.73    0.39 
  -6  -3  -3    1.43    0.20 
  -6  -3  -3    1.30    0.17 
  -7  -3  -3    1.00    0.19 
  -8  -3  -3    0.95    0.22 
  -9   4   3    0.21    0.17 
   8  -4  -3    0.37    0.20 
   7  -4  -3    0.49    0.20 
   6  -4  -3    3.60    0.37 
   5  -4  -3    8.23    0.49 
   4  -4  -3    3.81    0.28 
   4  -4  -3    4.23    0.31 
   3  -4  -3    9.98    0.50 
   3  -4  -3   10.16    0.49 
   2  -4  -3   10.39    0.46 
   2  -4  -3    9.30    0.44 
   1  -4  -3   63.98    2.24 
   1  -4  -3   63.60    2.25 
   0  -4  -3    0.02    0.03 
   0  -4  -3    0.02    0.03 
  -1  -4  -3   65.57    2.27 
  -1  -4  -3   67.03    2.34 
  -2  -4  -3   11.07    0.48 
  -3  -4  -3   10.50    0.39 
  -3  -4  -3   10.75    0.48 
  -4  -4  -3    4.19    0.20 
  -4  -4  -3    3.71    0.27 
  -5  -4  -3    9.30    0.49 
  -5  -4  -3    9.27    0.41 
  -6  -4  -3    3.37    0.30 
  -7  -4  -3    0.13    0.12 
  -8  -4  -3    0.47    0.17 
  -9  -4  -3    0.26    0.17 
   9  -5  -3    0.70    0.27 
   8  -5  -3    0.07    0.18 
   7  -5  -3    2.45    0.36 
   6  -5  -3    0.29    0.16 
   5  -5  -3   31.57    1.30 
   5  -5  -3   30.64    1.31 
   4  -5  -3    6.05    0.36 
   4  -5  -3    5.48    0.37 
   3  -5  -3   32.09    1.26 
   3  -5  -3   31.98    1.25 
   2  -5  -3   24.83    0.98 
   2  -5  -3   24.59    0.96 
   1  -5  -3   31.09    1.16 
   1  -5  -3   31.21    1.16 
   0  -5  -3    1.50    0.13 
   0  -5  -3    1.67    0.12 
  -1  -5  -3   32.42    1.19 
  -1  -5  -3   31.18    1.11 
  -2  -5  -3   26.83    1.03 
  -3  -5  -3   32.95    1.26 
  -4  -5  -3    6.80    0.38 
  -5  -5  -3   33.99    1.36 
  -6  -5  -3    0.69    0.16 
  -7  -5  -3    2.09    0.27 
  -8  -5  -3    0.04    0.12 
  -9  -5  -3    0.99    0.24 
   9  -6  -3    0.50    0.27 
   8  -6  -3    1.59    0.32 
   7  -6  -3    1.99    0.34 
   6  -6  -3    0.37    0.15 
   5  -6  -3   13.61    0.70 
   5  -6  -3   14.41    0.73 
   4  -6  -3   16.31    0.76 
   4  -6  -3   16.55    0.78 
   3  -6  -3    3.86    0.29 
   3  -6  -3    4.24    0.28 
   2  -6  -3    3.56    0.25 
   2  -6  -3    3.37    0.23 
   1  -6  -3    1.92    0.17 
   1  -6  -3    1.41    0.14 
   0  -6  -3    5.07    0.28 
   0  -6  -3    4.98    0.25 
  -1  -6  -3    1.72    0.16 
  -1  -6  -3    1.69    0.11 
  -2  -6  -3    3.91    0.24 
  -3  -6  -3    4.13    0.28 
  -4  -6  -3   17.66    0.78 
  -5  -6  -3   14.06    0.69 
  -6  -6  -3    0.64    0.16 
  -7  -6  -3    1.90    0.27 
  -8  -6  -3    1.76    0.28 
  -9  -6  -3    0.71    0.22 
   8  -7  -3   -0.10    0.18 
   7  -7  -3    0.91    0.24 
   6  -7  -3    1.51    0.27 
   6  -7  -3    1.29    0.25 
   5  -7  -3    1.22    0.23 
   5  -7  -3    1.47    0.24 
   4  -7  -3   14.12    0.72 
   4  -7  -3   14.32    0.70 
   3  -7  -3    3.49    0.28 
   3  -7  -3    2.95    0.26 
   2  -7  -3    5.80    0.34 
   2  -7  -3    5.92    0.35 
   1  -7  -3    1.15    0.14 
   1  -7  -3    1.40    0.16 
   0  -7  -3    9.03    0.41 
   0  -7  -3    9.18    0.44 
  -1  -7  -3    1.40    0.16 
  -1  -7  -3    1.34    0.11 
  -2  -7  -3    6.39    0.35 
  -3  -7  -3    2.83    0.23 
  -4  -7  -3   16.05    0.74 
  -5  -7  -3    1.21    0.21 
  -6  -7  -3    1.40    0.24 
  -7  -7  -3    1.13    0.23 
  -8  -7  -3    0.38    0.17 
   8  -8  -3    0.07    0.19 
   7  -8  -3    0.09    0.14 
   6  -8  -3    1.43    0.27 
   6  -8  -3    1.35    0.26 
   5  -8  -3    0.08    0.14 
   5  -8  -3   -0.09    0.08 
   4  -8  -3    0.93    0.20 
   4  -8  -3    1.10    0.21 
   3  -8  -3    3.90    0.31 
   3  -8  -3    3.91    0.30 
   2  -8  -3    9.98    0.50 
   2  -8  -3    9.69    0.51 
   1  -8  -3    2.69    0.24 
   1  -8  -3    3.43    0.24 
   0  -8  -3    2.61    0.21 
   0  -8  -3    2.61    0.20 
  -1  -8  -3    3.49    0.20 
  -1  -8  -3    3.53    0.25 
  -2  -8  -3   10.90    0.53 
  -3  -8  -3    4.03    0.30 
  -4  -8  -3    1.03    0.19 
  -5  -8  -3    0.00    0.10 
  -6  -8  -3    1.47    0.24 
  -7  -8  -3    0.14    0.13 
  -8  -8  -3    0.12    0.14 
   7  -9  -3    0.11    0.14 
   6  -9  -3    0.58    0.21 
   6  -9  -3    0.52    0.17 
   5  -9  -3    0.77    0.21 
   5  -9  -3    0.45    0.16 
   4  -9  -3    2.40    0.29 
   4  -9  -3    2.81    0.31 
   3  -9  -3    2.96    0.29 
   3  -9  -3    2.55    0.28 
   2  -9  -3    0.07    0.10 
   2  -9  -3    0.14    0.11 
   1  -9  -3    2.38    0.22 
   1  -9  -3    2.19    0.23 
   0  -9  -3   11.28    0.51 
   0  -9  -3   11.17    0.54 
  -1  -9  -3    1.86    0.21 
  -2  -9  -3    0.12    0.11 
  -3  -9  -3    2.52    0.26 
  -4  -9  -3    2.93    0.29 
  -5  -9  -3    0.58    0.17 
  -6  -9  -3    0.19    0.15 
  -7  -9  -3   -0.08    0.13 
   7 -10  -3    0.71    0.23 
   6 -10  -3    0.36    0.20 
   6 -10  -3    0.02    0.14 
   5 -10  -3    0.32    0.17 
   5 -10  -3    0.09    0.16 
   4 -10  -3    0.65    0.18 
   4 -10  -3    0.88    0.21 
   3 -10  -3    1.24    0.22 
   3 -10  -3    1.33    0.22 
   2 -10  -3    3.42    0.31 
   2 -10  -3    3.37    0.30 
   1 -10  -3    1.50    0.19 
   1 -10  -3    1.45    0.21 
   0 -10  -3    0.09    0.11 
  -1 -10  -3    1.00    0.18 
  -2 -10  -3    3.18    0.29 
  -3 -10  -3    1.50    0.22 
  -4 -10  -3    1.10    0.21 
  -5 -10  -3    0.27    0.14 
  -6 -10  -3    0.14    0.15 
  -7 -10  -3    0.77    0.24 
   6 -11  -3    0.21    0.16 
   6 -11  -3    0.29    0.24 
   5 -11  -3    0.29    0.16 
   5 -11  -3   -0.02    0.18 
   4 -11  -3    0.34    0.15 
   4 -11  -3    0.27    0.17 
   3 -11  -3    3.71    0.35 
   3 -11  -3    3.89    0.36 
   2 -11  -3    0.52    0.15 
   2 -11  -3    1.00    0.20 
   1 -11  -3    3.10    0.30 
   0 -11  -3    1.29    0.21 
  -1 -11  -3    2.91    0.29 
  -2 -11  -3    0.78    0.19 
  -3 -11  -3    3.28    0.33 
  -4 -11  -3    0.06    0.13 
  -5 -11  -3    0.39    0.17 
  -6 -11  -3    0.22    0.17 
   5 -12  -3   -0.01    0.19 
   5 -12  -3    0.26    0.17 
   4 -12  -3   -0.05    0.11 
   4 -12  -3   -0.14    0.16 
   3 -12  -3    0.21    0.16 
   3 -12  -3    0.42    0.16 
   2 -12  -3    3.15    0.34 
   1 -12  -3    0.33    0.14 
   0 -12  -3    1.52    0.24 
  -1 -12  -3    0.20    0.14 
  -2 -12  -3    2.66    0.30 
  -3 -12  -3    0.37    0.17 
  -4 -12  -3   -0.10    0.12 
  -5 -12  -3    0.22    0.16 
   4 -13  -3    1.28    0.28 
   4 -13  -3    1.79    0.32 
   3 -13  -3    1.06    0.26 
   2 -13  -3    0.53    0.20 
   1 -13  -3    0.33    0.17 
   0 -13  -3    1.15    0.23 
  -1 -13  -3    0.32    0.16 
  -2 -13  -3    0.56    0.18 
  -3 -13  -3    0.72    0.21 
  -4 -13  -3    1.53    0.27 
   3 -14  -3    1.65    0.32 
   2 -14  -3    0.15    0.17 
   1 -14  -3    0.45    0.21 
   0 -14  -3    0.32    0.18 
  -1 -14  -3    0.69    0.21 
  -2 -14  -3   -0.08    0.14 
  -3 -14  -3    1.32    0.27 
  -3 -14   4   -0.02    0.19 
  -2 -14   4    0.22    0.19 
  -1 -14   4    0.05    0.16 
   0 -14   4    0.07    0.16 
   1 -14   4    0.22    0.17 
   3 -14   4    0.22    0.20 
  -4 -13   4    0.66    0.23 
  -3 -13   4    0.61    0.21 
  -2 -13   4   -0.06    0.13 
  -1 -13   4    0.10    0.14 
   0 -13   4    0.52    0.19 
   1 -13   4    0.02    0.15 
   2 -13   4    0.05    0.13 
   3 -13   4    0.39    0.18 
   4 -13   4    0.63    0.21 
  -5 -12   4    0.28    0.20 
  -4 -12   4    0.35    0.19 
  -3 -12   4    0.27    0.18 
  -2 -12   4    1.52    0.25 
  -1 -12   4    0.07    0.14 
   0 -12   4    0.88    0.19 
   1 -12   4    0.05    0.13 
   1 -12   4   -0.04    0.12 
   2 -12   4    1.15    0.21 
   2 -12   4    1.42    0.25 
   3 -12   4    0.19    0.14 
   4 -12   4    0.15    0.15 
   5 -12   4    0.30    0.19 
  -6 -11   4    0.54    0.24 
  -5 -11   4    1.23    0.28 
  -4 -11   4    0.03    0.15 
  -3 -11   4    1.54    0.26 
  -2 -11   4    6.01    0.42 
  -1 -11   4    1.51    0.22 
   0 -11   4    2.89    0.28 
   0 -11   4    2.75    0.28 
   1 -11   4    1.30    0.20 
   1 -11   4    1.28    0.22 
   2 -11   4    5.98    0.38 
   2 -11   4    5.23    0.40 
   3 -11   4    1.68    0.28 
   4 -11   4    0.35    0.16 
   5 -11   4    0.69    0.21 
   6 -11   4    0.13    0.18 
  -7 -10   4    0.25    0.20 
  -6 -10   4    0.37    0.21 
  -5 -10   4    1.80    0.30 
  -4 -10   4    0.72    0.20 
  -3 -10   4    2.57    0.30 
  -2 -10   4    2.28    0.26 
  -1 -10   4   15.60    0.69 
  -1 -10   4   15.03    0.71 
   0 -10   4    0.67    0.15 
   0 -10   4    0.45    0.13 
   1 -10   4   14.86    0.66 
   1 -10   4   14.10    0.70 
   2 -10   4    2.21    0.27 
   2 -10   4    2.29    0.23 
   3 -10   4    1.98    0.23 
   3 -10   4    2.41    0.29 
   4 -10   4    0.21    0.14 
   5 -10   4    2.10    0.32 
   6 -10   4    0.28    0.16 
   7 -10   4    0.39    0.19 
  -7  -9   4    1.02    0.26 
  -6  -9   4    2.08    0.33 
  -5  -9   4    1.14    0.24 
  -4  -9   4    0.19    0.15 
  -3  -9   4    7.44    0.46 
  -2  -9   4   17.74    0.80 
  -2  -9   4   17.96    0.75 
  -1  -9   4   12.97    0.60 
  -1  -9   4   11.91    0.56 
   0  -9   4    1.63    0.19 
   0  -9   4    1.94    0.21 
   1  -9   4   10.79    0.57 
   1  -9   4   11.85    0.53 
   2  -9   4   16.49    0.70 
   2  -9   4   15.88    0.76 
   3  -9   4    6.71    0.43 
   3  -9   4    6.08    0.36 
   4  -9   4    0.25    0.13 
   5  -9   4    1.27    0.25 
   6  -9   4    2.79    0.38 
   7  -9   4    0.82    0.24 
  -8  -8   4    2.39    0.36 
  -7  -8   4    1.47    0.29 
  -6  -8   4    0.64    0.20 
  -5  -8   4    1.41    0.25 
  -4  -8   4   18.90    0.90 
  -3  -8   4    3.21    0.22 
  -3  -8   4    2.92    0.29 
  -2  -8   4    0.21    0.09 
  -2  -8   4    0.25    0.12 
  -1  -8   4    9.57    0.46 
  -1  -8   4   10.32    0.49 
   0  -8   4    7.73    0.39 
   0  -8   4    6.97    0.37 
   1  -8   4    8.13    0.44 
   1  -8   4    8.24    0.40 
   2  -8   4    0.14    0.10 
   2  -8   4    0.24    0.08 
   3  -8   4    1.74    0.18 
   3  -8   4    2.38    0.26 
   4  -8   4   12.51    0.62 
   4  -8   4   16.89    0.77 
   5  -8   4    1.52    0.26 
   6  -8   4    1.11    0.23 
   7  -8   4    0.95    0.27 
   8  -8   4    2.88    0.46 
  -8  -7   4    0.38    0.19 
  -7  -7   4    2.21    0.32 
  -6  -7   4    7.36    0.52 
  -5  -7   4    1.43    0.25 
  -4  -7   4    4.23    0.26 
  -4  -7   4    4.44    0.36 
  -3  -7   4    7.88    0.37 
  -3  -7   4    8.17    0.47 
  -2  -7   4   17.85    0.73 
  -2  -7   4   19.04    0.80 
  -1  -7   4    0.26    0.09 
  -1  -7   4    0.31    0.08 
   0  -7   4    0.57    0.11 
   0  -7   4    0.40    0.10 
   1  -7   4    0.34    0.11 
   1  -7   4    0.34    0.08 
   2  -7   4   17.27    0.76 
   2  -7   4   16.97    0.69 
   3  -7   4    7.15    0.43 
   4  -7   4    3.52    0.33 
   4  -7   4    4.17    0.27 
   5  -7   4    1.07    0.21 
   6  -7   4    7.47    0.53 
   7  -7   4    1.81    0.33 
   8  -7   4    0.09    0.19 
  -8  -6   4    0.81    0.23 
  -7  -6   4    4.03    0.42 
  -6  -6   4    3.59    0.37 
  -5  -6   4    2.56    0.21 
  -5  -6   4    2.46    0.30 
  -4  -6   4    5.92    0.31 
  -4  -6   4    5.58    0.39 
  -3  -6   4   15.27    0.72 
  -3  -6   4   16.21    0.64 
  -2  -6   4    8.22    0.37 
  -2  -6   4    8.42    0.43 
  -1  -6   4    3.27    0.20 
  -1  -6   4    3.25    0.22 
   0  -6   4   17.70    0.71 
   0  -6   4   18.67    0.73 
   1  -6   4    3.46    0.23 
   1  -6   4    3.16    0.19 
   2  -6   4    8.16    0.43 
   3  -6   4   15.65    0.65 
   3  -6   4   16.11    0.73 
  -4   6  -4    5.35    0.27 
   4  -6   4    4.77    0.29 
   4  -6   4    4.41    0.34 
   5  -6   4    2.03    0.28 
   6  -6   4    3.15    0.36 
   7  -6   4    3.58    0.42 
   8  -6   4    0.34    0.22 
  -9  -5   4    0.52    0.22 
  -8  -5   4    0.56    0.19 
  -7  -5   4   -0.06    0.11 
  -6  -5   4    1.16    0.17 
  -6  -5   4    1.01    0.22 
  -5  -5   4   14.72    0.64 
  -5  -5   4   15.26    0.75 
  -4  -5   4   15.68    0.74 
  -4  -5   4   15.06    0.63 
  -3  -5   4   17.94    0.79 
  -3  -5   4   18.07    0.70 
  -2  -5   4    4.36    0.28 
  -2  -5   4    4.62    0.23 
  -1  -5   4   16.60    0.64 
  -1  -5   4   15.74    0.66 
   0  -5   4    1.15    0.11 
   0  -5   4    1.26    0.12 
   1  -5   4   15.36    0.64 
   2  -5   4    4.73    0.29 
   2  -5   4    4.79    0.23 
  -3   5  -4   17.52    0.70 
   3  -5   4   17.47    0.69 
   3  -5   4   16.77    0.76 
  -4   5  -4   14.39    0.61 
   4  -5   4   14.52    0.70 
   4  -5   4   15.20    0.63 
  -5   5  -4   13.61    0.60 
   5  -5   4   13.89    0.71 
   6  -5   4    0.97    0.22 
   7  -5   4    0.08    0.14 
   8  -5   4    0.51    0.22 
   9  -5   4    0.83    0.27 
  -9  -4   4    0.17    0.16 
  -8  -4   4    0.23    0.15 
  -7  -4   4    2.00    0.30 
  -7  -4   4    2.06    0.24 
  -6  -4   4    3.27    0.35 
  -6  -4   4    3.93    0.28 
  -5  -4   4    8.74    0.52 
  -5  -4   4    9.06    0.44 
  -4  -4   4    3.29    0.27 
  -4  -4   4    3.27    0.22 
  -3  -4   4   14.19    0.66 
  -3  -4   4   14.71    0.59 
  -2  -4   4   21.59    0.87 
  -2  -4   4   21.43    0.80 
  -1  -4   4   27.72    1.03 
  -1  -4   4   26.80    0.99 
   0  -4   4   23.14    0.89 
   0  -4   4   24.73    0.89 
   1  -4   4   26.70    1.00 
   1  -4   4   26.27    0.95 
  -2   4  -4   21.85    0.83 
   2  -4   4   21.65    0.79 
   2  -4   4   20.75    0.85 
  -3   4  -4   13.34    0.56 
   3  -4   4   14.13    0.55 
   3  -4   4   12.95    0.61 
  -4   4  -4    2.77    0.19 
   4  -4   4    2.61    0.25 
  -5   4  -4    7.69    0.40 
   5  -4   4    8.61    0.50 
  -6   4  -4    3.40    0.24 
   6  -4   4    3.11    0.34 
   7  -4   4    2.09    0.31 
   8  -4   4    0.08    0.15 
   9  -4   4    0.29    0.22 
  -9  -3   4    0.47    0.19 
  -8  -3   4    0.09    0.14 
  -7  -3   4    0.13    0.11 
  -6  -3   4    1.21    0.18 
  -5  -3   4    1.43    0.17 
  -4  -3   4    9.68    0.45 
  -3  -3   4   62.76    2.22 
  -2  -3   4    7.12    0.32 
  -1  -3   4   26.91    1.01 
  -1  -3   4   27.02    0.97 
   0  -3   4    0.41    0.07 
   0  -3   4    0.26    0.05 
  -1   3  -4   26.21    1.02 
   1  -3   4   27.36    0.95 
   1  -3   4   27.64    1.00 
  -2   3  -4    7.30    0.32 
   2  -3   4    6.47    0.33 
   2  -3   4    6.66    0.28 
  -3   3  -4   57.45    2.11 
   3  -3   4   57.60    2.09 
  -4   3  -4    9.53    0.45 
   4  -3   4    9.86    0.49 
  -5   3  -4    1.11    0.15 
   5  -3   4    1.19    0.21 
  -6   3  -4    0.68    0.13 
   6  -3   4    1.30    0.23 
   7  -3   4    0.01    0.13 
   8  -3   4    0.01    0.14 
   9  -3   4    0.60    0.24 
  -8  -2   4    0.00    0.11 
  -7  -2   4    1.59    0.24 
  -6  -2   4    3.98    0.31 
  -5  -2   4    8.41    0.45 
  -4  -2   4   16.10    0.68 
  -3  -2   4   14.04    0.58 
  -2  -2   4   11.64    0.47 
  -1  -2   4   35.27    1.25 
   0  -2   4    5.06    0.22 
  -1   2  -4   34.64    1.29 
   1  -2   4   34.78    1.25 
   1  -2   4   35.26    1.21 
  -2   2  -4   11.19    0.46 
   2  -2   4   10.27    0.46 
  -3   2  -4   13.88    0.58 
   3  -2   4   13.68    0.59 
  -4   2  -4   15.45    0.67 
   4  -2   4   15.61    0.69 
  -5   2  -4    7.95    0.42 
   5  -2   4    7.26    0.43 
  -6   2  -4    3.70    0.28 
   6  -2   4    3.76    0.34 
  -7   2  -4    1.06    0.18 
   7  -2   4    0.95    0.22 
   8  -2   4    0.10    0.16 
   9  -2   4    0.30    0.21 
  -9  -1   4    0.13    0.16 
  -8  -1   4    0.20    0.13 
  -7  -1   4    1.22    0.21 
  -6  -1   4    6.04    0.40 
  -5  -1   4   12.79    0.62 
  -4  -1   4   17.49    0.75 
  -3  -1   4   13.64    0.58 
  -2  -1   4   15.37    0.60 
  -1  -1   4   31.81    1.13 
   0   1  -4   74.78    2.66 
   0  -1   4   73.89    2.55 
  -1   1  -4   31.05    1.18 
   1  -1   4   32.51    1.13 
  -2   1  -4   15.94    0.66 
   2  -1   4   17.21    0.65 
  -3   1  -4   12.87    0.56 
   3  -1   4   12.51    0.54 
  -4   1  -4   15.73    0.70 
   4  -1   4   15.51    0.67 
  -5   1  -4   12.68    0.62 
   5  -1   4   12.43    0.60 
  -6   1  -4    6.06    0.39 
   6  -1   4    5.79    0.39 
  -7   1  -4    1.23    0.21 
   7  -1   4    1.29    0.23 
  -8   1  -4    0.11    0.14 
   8  -1   4    0.38    0.17 
   9  -1   4    0.22    0.20 
  -9   0   4    0.12    0.16 
  -8   0   4    1.44    0.26 
  -7   0   4    0.33    0.13 
  -6   0   4    0.10    0.10 
  -5   0   4    2.80    0.27 
  -4   0   4   50.56    1.89 
  -3   0   4   16.60    0.70 
  -2   0   4   19.23    0.75 
  -1   0   4   70.38    2.43 
   0   0  -4  733.60   25.39 
   0   0  -4  702.51   24.56 
   0   0   4  729.80   24.34 
  -1   0  -4   72.94    2.67 
  -1   0  -4   74.56    2.55 
   1   0   4   75.22    2.55 
  -2   0  -4   18.19    0.66 
  -2   0  -4   17.90    0.74 
   2   0   4   18.66    0.69 
  -3   0  -4   15.95    0.62 
  -3   0  -4   15.43    0.69 
   3   0   4   16.31    0.64 
  -4   0  -4   50.79    1.97 
   4   0   4   51.41    1.86 
  -5   0  -4    2.47    0.26 
   5   0   4    2.75    0.22 
  -6   0  -4    0.18    0.12 
   6   0   4    0.21    0.10 
  -7   0  -4    0.18    0.11 
  -7   0  -4    0.43    0.15 
   7   0   4    0.18    0.14 
  -8   0  -4    1.64    0.27 
   8   0   4    1.93    0.29 
  -9   1   4    0.13    0.14 
  -8   1   4    0.23    0.15 
  -7   1   4    1.40    0.25 
  -6   1   4    6.13    0.42 
  -5   1   4   13.03    0.65 
   4  -1  -4   15.78    0.71 
  -4   1   4   16.67    0.73 
  -3   1   4   13.81    0.61 
   2  -1  -4   16.01    0.65 
  -2   1   4   16.53    0.66 
   1  -1  -4   32.05    1.17 
  -1   1   4   32.34    1.16 
   0  -1  -4   75.51    2.56 
   0  -1  -4   75.42    2.66 
   0   1   4   71.66    2.54 
  -1  -1  -4   33.07    1.14 
  -1  -1  -4   31.58    1.22 
   1   1   4   32.33    1.12 
  -2  -1  -4   17.60    0.64 
   2   1   4   16.88    0.64 
  -3  -1  -4   12.53    0.51 
  -4  -1  -4   15.37    0.58 
   4   1   4   11.02    0.54 
  -5  -1  -4   12.35    0.57 
   5   1   4   12.89    0.58 
  -6  -1  -4    5.21    0.34 
   6   1   4    5.69    0.35 
  -7  -1  -4    1.21    0.24 
  -7  -1  -4    1.21    0.20 
   7   1   4    1.11    0.21 
  -8  -1  -4    0.08    0.14 
  -9  -1  -4    0.12    0.17 
  -9   2   4    0.27    0.17 
  -8   2   4    0.06    0.13 
  -7   2   4    1.40    0.25 
   6  -2  -4    3.75    0.35 
   5  -2  -4    7.51    0.45 
   4  -2  -4   15.07    0.68 
   3  -2  -4   13.76    0.60 
   3  -2  -4   13.15    0.59 
   2  -2  -4   10.69    0.47 
   2  -2  -4   11.25    0.48 
   1  -2  -4   34.66    1.26 
   1  -2  -4   35.37    1.25 
  -1   2   4   33.90    1.25 
   0  -2  -4    4.87    0.20 
   0  -2  -4    3.66    0.20 
  -1  -2  -4   35.59    1.24 
   1   2   4   34.05    1.20 
  -2  -2  -4   11.00    0.45 
   2   2   4   11.34    0.42 
  -3  -2  -4   14.93    0.60 
   3   2   4   14.58    0.57 
  -4  -2  -4   16.26    0.68 
   4   2   4   16.06    0.65 
  -5  -2  -4    8.05    0.42 
   5   2   4    8.19    0.40 
   6   2   4    1.24    0.16 
  -7  -2  -4    1.16    0.19 
  -8  -2  -4    0.13    0.12 
  -9  -2  -4    0.20    0.18 
  -9   3   4    0.56    0.23 
  -8   3   4    0.31    0.17 
   7  -3  -4    0.03    0.13 
   6  -3  -4    0.61    0.20 
   5  -3  -4    1.18    0.21 
   4  -3  -4    9.71    0.51 
   4  -3  -4   10.19    0.51 
   3  -3  -4   60.31    2.21 
   3  -3  -4   61.35    2.22 
   2  -3  -4    6.75    0.33 
   2  -3  -4    6.49    0.33 
   1  -3  -4   25.83    0.99 
   1  -3  -4   27.73    0.98 
   1  -3  -4   26.72    1.00 
   0  -3  -4    0.33    0.06 
   0   3   4    0.30    0.05 
  -1  -3  -4   27.57    1.00 
   1   3   4   27.34    0.95 
  -2  -3  -4    6.71    0.31 
  -3  -3  -4   61.95    2.19 
   3   3   4   60.49    2.11 
  -4  -3  -4   10.32    0.48 
   4   3   4   10.01    0.42 
  -5  -3  -4    1.31    0.17 
   5   3   4    1.20    0.13 
  -6  -3  -4    0.88    0.16 
  -7  -3  -4    0.07    0.09 
  -8  -3  -4    0.13    0.12 
  -9  -3  -4    0.52    0.21 
  -9   4   4    0.33    0.18 
   8  -4  -4    0.21    0.20 
   7  -4  -4    2.29    0.33 
   6  -4  -4    3.69    0.37 
   5  -4  -4    7.34    0.47 
   4  -4  -4    2.69    0.25 
   4  -4  -4    2.80    0.26 
   3  -4  -4   14.23    0.64 
   3  -4  -4   14.44    0.65 
   2  -4  -4   21.67    0.85 
   2  -4  -4   21.18    0.85 
   1  -4  -4   28.62    1.00 
   1  -4  -4   26.23    1.01 
   1  -4  -4   25.87    1.00 
   0  -4  -4   23.13    0.85 
   0  -4  -4   23.50    0.87 
  -1  -4  -4   27.98    1.02 
   1   4   4   27.09    0.95 
  -2  -4  -4   21.46    0.83 
  -3  -4  -4   14.40    0.61 
  -4  -4  -4    2.53    0.21 
  -4  -4  -4    3.00    0.16 
  -5  -4  -4    8.70    0.46 
  -6  -4  -4    4.14    0.31 
  -7  -4  -4    1.48    0.23 
  -8  -4  -4    0.36    0.14 
  -9   5   4    0.86    0.26 
   8  -5  -4    0.62    0.23 
   7  -5  -4   -0.04    0.14 
   6  -5  -4    1.24    0.25 
   5  -5  -4   13.65    0.70 
   5  -5  -4   13.37    0.69 
   4  -5  -4   13.85    0.67 
   4  -5  -4   14.04    0.68 
   3  -5  -4   16.53    0.75 
   3  -5  -4   17.32    0.74 
   2  -5  -4    4.18    0.27 
   2  -5  -4    4.14    0.26 
   1  -5  -4   14.78    0.62 
   1  -5  -4   15.14    0.61 
   0  -5  -4    0.91    0.11 
   0  -5  -4    1.14    0.10 
  -1  -5  -4   15.65    0.63 
  -2  -5  -4    5.14    0.28 
  -3  -5  -4   18.18    0.76 
  -4  -5  -4   16.20    0.71 
  -5  -5  -4   14.31    0.67 
  -6  -5  -4    0.92    0.18 
  -7  -5  -4    0.18    0.11 
  -8  -5  -4    0.42    0.16 
  -9  -5  -4    0.49    0.20 
   8  -6  -4    0.52    0.23 
   7  -6  -4    3.56    0.43 
   6  -6  -4    3.04    0.35 
   5  -6  -4    2.65    0.31 
   5  -6  -4    2.08    0.27 
   4  -6  -4    4.85    0.36 
   4  -6  -4    6.17    0.39 
   3  -6  -4   14.70    0.67 
   3  -6  -4   15.00    0.69 
   2  -6  -4    7.62    0.39 
   2  -6  -4    7.42    0.40 
   1  -6  -4    2.99    0.21 
   1  -6  -4    3.13    0.21 
   0  -6  -4   16.47    0.66 
   0  -6  -4   17.60    0.70 
  -1  -6  -4    3.28    0.16 
  -1  -6  -4    3.36    0.22 
  -2  -6  -4    8.66    0.42 
  -3  -6  -4   15.51    0.68 
  -4  -6  -4    5.36    0.34 
  -5  -6  -4    2.09    0.24 
  -6  -6  -4    3.80    0.31 
  -7  -6  -4    3.73    0.35 
  -8  -6  -4    0.78    0.20 
   8  -7  -4    0.36    0.21 
   7  -7  -4    1.93    0.33 
   6  -7  -4    7.50    0.51 
   6  -7  -4    7.11    0.51 
   5  -7  -4    1.49    0.25 
   5  -7  -4    1.43    0.25 
   4  -7  -4    4.22    0.34 
   4  -7  -4    4.30    0.34 
   3  -7  -4    7.23    0.42 
   3  -7  -4    6.82    0.42 
   2  -7  -4   16.37    0.73 
   2  -7  -4   17.16    0.73 
   1  -7  -4    0.31    0.09 
   1  -7  -4    0.17    0.08 
   0  -7  -4    0.57    0.11 
   0  -7  -4    0.52    0.09 
  -1  -7  -4    0.44    0.07 
  -1  -7  -4    0.36    0.10 
  -2  -7  -4   16.10    0.70 
  -3  -7  -4    8.27    0.44 
  -4  -7  -4    4.45    0.32 
  -5  -7  -4    1.65    0.23 
  -6  -7  -4    7.10    0.46 
  -7  -7  -4    1.69    0.26 
  -8  -7  -4    0.33    0.16 
   8  -8  -4    2.28    0.39 
   7  -8  -4    1.18    0.26 
   6  -8  -4    0.87    0.21 
   6  -8  -4    0.83    0.23 
   5  -8  -4    1.66    0.27 
   5  -8  -4    1.69    0.26 
   4  -8  -4   17.09    0.82 
   4  -8  -4   16.93    0.82 
   3  -8  -4    2.36    0.25 
   3  -8  -4    2.43    0.26 
   2  -8  -4    0.39    0.12 
   2  -8  -4    0.24    0.10 
   1  -8  -4    8.74    0.44 
   1  -8  -4    8.50    0.44 
   0  -8  -4    7.07    0.38 
   0  -8  -4    6.89    0.35 
  -1  -8  -4    7.81    0.41 
  -2  -8  -4    0.28    0.11 
  -3  -8  -4    2.43    0.25 
  -4  -8  -4   18.35    0.83 
  -5  -8  -4    1.88    0.25 
  -6  -8  -4    0.61    0.18 
  -7  -8  -4    0.52    0.19 
  -8  -8  -4    2.32    0.33 
   7  -9  -4    0.84    0.24 
   6  -9  -4    2.20    0.34 
   6  -9  -4    3.09    0.38 
   5  -9  -4    1.04    0.22 
   5  -9  -4    1.32    0.26 
   4  -9  -4    0.29    0.12 
   4  -9  -4   -0.03    0.12 
   3  -9  -4    6.00    0.41 
   3  -9  -4    6.45    0.41 
   2  -9  -4   15.02    0.72 
   2  -9  -4   15.63    0.72 
   1  -9  -4   10.96    0.57 
   1  -9  -4   12.33    0.56 
   0  -9  -4    1.47    0.16 
   0  -9  -4    1.57    0.20 
  -1  -9  -4   11.38    0.56 
  -2  -9  -4   18.22    0.81 
  -3  -9  -4    6.91    0.42 
  -4  -9  -4    0.37    0.13 
  -5  -9  -4    0.98    0.20 
  -6  -9  -4    2.58    0.32 
  -7  -9  -4    1.22    0.25 
   7 -10  -4    0.27    0.21 
   6 -10  -4    0.53    0.23 
   6 -10  -4    0.30    0.16 
   5 -10  -4    1.75    0.30 
   5 -10  -4    1.92    0.30 
   4 -10  -4    0.67    0.18 
   4 -10  -4    0.49    0.18 
   3 -10  -4    2.38    0.28 
   3 -10  -4    2.42    0.29 
   2 -10  -4    2.22    0.25 
   2 -10  -4    2.27    0.27 
   1 -10  -4   15.23    0.71 
   1 -10  -4   14.20    0.67 
   0 -10  -4    0.33    0.14 
  -1 -10  -4   14.16    0.67 
  -2 -10  -4    1.99    0.25 
  -3 -10  -4    2.19    0.26 
  -4 -10  -4    0.53    0.15 
  -5 -10  -4    2.14    0.28 
  -6 -10  -4    0.33    0.16 
  -7 -10  -4    0.05    0.17 
   6 -11  -4    0.16    0.14 
   6 -11  -4    0.40    0.24 
   5 -11  -4    0.94    0.26 
   5 -11  -4    0.74    0.20 
   4 -11  -4    0.21    0.15 
   4 -11  -4    0.18    0.17 
   3 -11  -4    1.61    0.26 
   3 -11  -4    1.50    0.24 
   2 -11  -4    5.94    0.41 
   2 -11  -4    5.08    0.37 
   1 -11  -4    1.56    0.23 
   0 -11  -4    2.69    0.28 
  -1 -11  -4    1.11    0.20 
  -2 -11  -4    6.13    0.41 
  -3 -11  -4    1.67    0.25 
  -4 -11  -4    0.14    0.12 
  -5 -11  -4    0.79    0.20 
  -6 -11  -4    0.46    0.19 
   5 -12  -4    0.46    0.18 
   5 -12  -4    0.39    0.23 
   4 -12  -4    0.61    0.20 
   4 -12  -4    0.39    0.20 
   3 -12  -4   -0.12    0.11 
   3 -12  -4    0.21    0.16 
   2 -12  -4    1.18    0.23 
   1 -12  -4    0.07    0.14 
   0 -12  -4    0.97    0.20 
  -1 -12  -4    0.19    0.14 
  -2 -12  -4    1.17    0.22 
  -3 -12  -4    0.21    0.14 
  -4 -12  -4    0.40    0.17 
  -5 -12  -4    0.52    0.18 
   4 -13  -4    0.41    0.22 
   3 -13  -4    0.25    0.18 
   2 -13  -4    0.21    0.18 
   1 -13  -4    0.14    0.17 
   0 -13  -4    0.55    0.18 
  -1 -13  -4    0.22    0.15 
  -2 -13  -4    0.10    0.14 
  -3 -13  -4    0.36    0.18 
  -4 -13  -4    0.58    0.20 
   3 -14  -4    0.14    0.20 
   2 -14  -4    0.18    0.19 
   1 -14  -4    0.24    0.18 
   0 -14  -4   -0.08    0.13 
  -1 -14  -4    0.08    0.15 
  -2 -14  -4    0.01    0.15 
  -3 -14  -4    0.08    0.17 
  -3 -14   5    0.74    0.25 
  -2 -14   5    0.63    0.22 
  -1 -14   5    0.24    0.18 
   0 -14   5    1.17    0.24 
   3 -14   5    0.25    0.22 
  -4 -13   5    0.38    0.21 
  -3 -13   5    0.50    0.21 
  -2 -13   5    0.34    0.19 
  -1 -13   5    1.08    0.22 
   0 -13   5    1.84    0.27 
   1 -13   5    0.75    0.19 
   2 -13   5    0.07    0.13 
   3 -13   5    0.74    0.23 
   4 -13   5    0.51    0.21 
  -5 -12   5    0.06    0.19 
  -4 -12   5    0.03    0.15 
  -3 -12   5    1.31    0.25 
  -2 -12   5    1.67    0.26 
  -1 -12   5    2.29    0.28 
   0 -12   5    4.12    0.33 
   1 -12   5    2.12    0.25 
   1 -12   5    2.23    0.29 
   2 -12   5    1.53    0.25 
   3 -12   5    0.79    0.21 
   4 -12   5    0.31    0.17 
   5 -12   5    0.25    0.17 
  -6 -11   5    0.54    0.26 
  -5 -11   5    0.05    0.17 
  -4 -11   5    0.22    0.18 
  -3 -11   5    3.62    0.36 
  -2 -11   5    1.93    0.26 
  -1 -11   5    2.51    0.27 
   0 -11   5    1.03    0.20 
   0 -11   5    1.26    0.20 
   1 -11   5    2.68    0.29 
   1 -11   5    2.05    0.23 
   2 -11   5    1.47    0.24 
   2 -11   5    1.73    0.22 
   3 -11   5    3.70    0.38 
   4 -11   5   -0.05    0.12 
   5 -11   5   -0.07    0.12 
   6 -11   5    0.21    0.19 
  -7 -10   5    0.80    0.25 
  -6 -10   5    0.20    0.19 
  -5 -10   5    0.27    0.19 
  -4 -10   5    0.37    0.18 
  -3 -10   5    1.86    0.26 
  -2 -10   5    1.21    0.21 
  -1 -10   5    3.25    0.26 
  -1 -10   5    2.95    0.28 
   0 -10   5    0.12    0.11 
   0 -10   5    0.07    0.10 
   1 -10   5    3.06    0.25 
   1 -10   5    3.38    0.31 
   2 -10   5    1.22    0.18 
   2 -10   5    0.81    0.19 
   3 -10   5    1.47    0.24 
   4 -10   5    0.39    0.17 
   5 -10   5    0.23    0.15 
   6 -10   5    0.43    0.18 
   7 -10   5    0.70    0.26 
  -7  -9   5    0.18    0.17 
  -6  -9   5    0.43    0.20 
  -5  -9   5    3.16    0.37 
  -4  -9   5    0.29    0.16 
  -3  -9   5    0.74    0.18 
  -2  -9   5    4.72    0.30 
  -2  -9   5    4.56    0.34 
  -1  -9   5   16.04    0.70 
  -1  -9   5   15.32    0.70 
   0  -9   5    0.82    0.15 
   0  -9   5    0.67    0.14 
   1  -9   5   15.74    0.68 
   1  -9   5   16.18    0.74 
   2  -9   5    3.86    0.31 
   2  -9   5    4.37    0.27 
   3  -9   5    0.84    0.19 
   4  -9   5    0.32    0.13 
   5  -9   5    2.49    0.34 
   6  -9   5    0.07    0.14 
   7  -9   5    0.04    0.15 
  -8  -8   5    0.15    0.19 
  -7  -8   5    0.72    0.24 
  -6  -8   5    4.31    0.43 
  -5  -8   5    0.17    0.16 
  -4  -8   5    0.83    0.19 
  -3  -8   5    3.94    0.33 
  -3  -8   5    4.33    0.27 
  -2  -8   5    6.16    0.34 
  -2  -8   5    6.42    0.40 
  -1  -8   5    5.13    0.31 
  -1  -8   5    4.91    0.30 
   0  -8   5    0.02    0.06 
   0  -8   5    0.13    0.08 
   1  -8   5    4.73    0.27 
   1  -8   5    4.77    0.32 
   2  -8   5    5.85    0.36 
   2  -8   5    4.82    0.28 
   3  -8   5    4.17    0.26 
   3  -8   5    3.58    0.33 
   4  -8   5    0.74    0.18 
   5  -8   5    0.21    0.14 
   6  -8   5    3.88    0.43 
   7  -8   5    1.06    0.29 
   8  -8   5    0.29    0.26 
  -8  -7   5    0.99    0.25 
  -7  -7   5    2.01    0.32 
  -6  -7   5    1.78    0.29 
  -5  -7   5    2.17    0.30 
  -4  -7   5   27.73    1.19 
  -4  -7   5   27.39    1.06 
  -3  -7   5    5.14    0.35 
  -3  -7   5    5.02    0.28 
  -2  -7   5    1.39    0.18 
  -2  -7   5    1.35    0.15 
  -1  -7   5    9.60    0.44 
  -1  -7   5    9.02    0.45 
   0  -7   5   23.64    0.93 
   0  -7   5   24.10    0.95 
   1  -7   5    9.55    0.41 
   1  -7   5    8.26    0.44 
   2  -7   5    1.19    0.18 
   3  -7   5    4.43    0.26 
   3  -7   5    3.96    0.31 
   4  -7   5   24.56    1.08 
   4  -7   5   24.52    0.98 
   5  -7   5    2.05    0.29 
   6  -7   5    1.61    0.30 
   7  -7   5    2.46    0.38 
   8  -7   5    0.75    0.27 
  -8  -6   5    1.99    0.33 
  -7  -6   5    1.86    0.29 
  -6  -6   5    4.20    0.40 
  -5  -6   5   13.02    0.58 
  -5  -6   5   12.38    0.69 
  -4  -6   5    8.75    0.43 
  -4  -6   5   10.26    0.56 
  -3  -6   5    3.03    0.20 
  -3  -6   5    2.95    0.27 
  -2  -6   5    1.57    0.18 
  -2  -6   5    1.53    0.14 
  -1  -6   5    8.80    0.39 
  -1  -6   5    8.09    0.40 
   0  -6   5    4.35    0.25 
   0  -6   5    4.07    0.23 
   1  -6   5    8.34    0.42 
   2  -6   5    1.84    0.20 
   2  -6   5    1.62    0.13 
   3  -6   5    2.48    0.26 
   3  -6   5    3.28    0.20 
  -4   6  -5    8.62    0.42 
   4  -6   5    8.40    0.50 
   4  -6   5    9.14    0.43 
   5  -6   5    9.72    0.58 
   6  -6   5    3.67    0.39 
   7  -6   5    2.21    0.36 
   8  -6   5    2.01    0.36 
  -9  -5   5    1.22    0.29 
  -8  -5   5    0.55    0.19 
  -7  -5   5    0.64    0.19 
  -6  -5   5    4.41    0.29 
  -6  -5   5    4.46    0.37 
  -5  -5   5    3.45    0.24 
  -5  -5   5    2.67    0.30 
  -4  -5   5    3.39    0.22 
  -4  -5   5    2.90    0.29 
  -3  -5   5   12.04    0.60 
  -3  -5   5   12.70    0.53 
  -2  -5   5    5.08    0.26 
  -2  -5   5    5.29    0.31 
  -1  -5   5    6.83    0.34 
  -1  -5   5    6.96    0.33 
   0  -5   5    0.17    0.06 
   0  -5   5    0.21    0.07 
   1  -5   5    5.63    0.27 
   1  -5   5    6.46    0.32 
   2  -5   5    4.96    0.23 
   2  -5   5    4.98    0.30 
  -3   5  -5   10.76    0.49 
   3  -5   5   11.84    0.56 
   3  -5   5   11.85    0.48 
  -4   5  -5    2.86    0.20 
   4  -5   5    2.93    0.20 
   4  -5   5    2.58    0.26 
  -5   5  -5    3.11    0.23 
   5  -5   5    2.75    0.31 
   6  -5   5    4.22    0.40 
   7  -5   5    1.20    0.27 
   8  -5   5    0.83    0.27 
   9  -5   5    0.70    0.28 
  -9  -4   5    0.80    0.24 
  -8  -4   5    0.63    0.20 
  -7  -4   5    0.95    0.22 
  -7  -4   5    1.06    0.19 
  -6  -4   5    8.07    0.44 
  -6  -4   5    7.40    0.50 
  -5  -4   5    5.66    0.41 
  -5  -4   5    6.30    0.35 
  -4  -4   5    0.76    0.16 
  -4  -4   5    0.68    0.12 
  -3  -4   5    8.32    0.45 
  -3  -4   5    8.50    0.39 
  -2  -4   5    9.68    0.41 
  -2  -4   5    9.07    0.45 
  -1  -4   5    2.69    0.16 
  -1  -4   5    2.34    0.17 
   0  -4   5    4.74    0.24 
   0  -4   5    4.46    0.22 
   1  -4   5    2.23    0.12 
   1  -4   5    2.33    0.17 
  -2   4  -5    9.22    0.40 
   2  -4   5    8.48    0.42 
   2  -4   5    8.90    0.35 
  -3   4  -5    8.12    0.38 
   3  -4   5    8.57    0.35 
   3  -4   5    7.22    0.41 
  -4   4  -5    0.72    0.11 
   4  -4   5    0.60    0.14 
  -5   4  -5    6.08    0.33 
   5  -4   5    5.65    0.40 
  -6   4  -5    8.03    0.43 
   6  -4   5    7.51    0.50 
   7  -4   5    1.33    0.26 
   8  -4   5    0.67    0.22 
   9  -4   5    0.40    0.23 
  -9  -3   5    0.10    0.16 
  -8  -3   5    1.87    0.26 
  -7  -3   5    1.18    0.20 
  -6  -3   5    6.69    0.40 
  -5  -3   5   12.05    0.57 
  -4  -3   5    1.13    0.14 
  -3  -3   5   13.25    0.56 
  -2  -3   5   20.32    0.77 
  -1  -3   5   18.08    0.69 
  -1  -3   5   18.26    0.72 
   0  -3   5   60.49    2.11 
  -1   3  -5   17.23    0.71 
   1  -3   5   18.96    0.71 
   1  -3   5   18.20    0.65 
  -2   3  -5   19.42    0.78 
   2  -3   5   20.14    0.71 
   2  -3   5   19.27    0.78 
  -3   3  -5   11.57    0.52 
   3  -3   5   12.60    0.56 
  -4   3  -5    1.09    0.14 
   4  -3   5    1.16    0.17 
  -5   3  -5   11.49    0.55 
   5  -3   5   11.65    0.60 
  -6   3  -5    5.94    0.35 
   6  -3   5    5.01    0.39 
   7  -3   5    0.99    0.22 
   8  -3   5    1.37    0.28 
   9  -3   5    0.05    0.18 
  -8  -2   5    1.28    0.23 
  -7  -2   5    0.19    0.11 
  -6  -2   5    2.00    0.23 
  -5  -2   5   12.19    0.58 
  -4  -2   5   12.21    0.55 
  -3  -2   5   19.36    0.77 
  -2  -2   5    7.83    0.35 
  -1  -2   5  205.91    6.99 
   0  -2   5   31.49    1.12 
   0  -2   5   31.22    1.12 
  -1   2  -5  198.58    7.11 
   1  -2   5  202.94    6.83 
   1  -2   5  200.92    6.88 
  -2   2  -5    7.96    0.37 
   2  -2   5    7.99    0.37 
  -3   2  -5   17.90    0.74 
   3  -2   5   17.91    0.74 
  -4   2  -5   12.34    0.54 
   4  -2   5   10.39    0.53 
  -5   2  -5   11.02    0.57 
   5  -2   5   13.27    0.61 
  -6   2  -5    2.65    0.26 
   6  -2   5    2.37    0.28 
  -7   2  -5    0.35    0.14 
   7  -2   5    0.17    0.15 
   8  -2   5    1.07    0.24 
   9  -2   5    0.58    0.23 
  -9  -1   5    1.34    0.27 
  -8  -1   5    1.10    0.23 
  -7  -1   5    6.31    0.44 
  -6  -1   5    2.49    0.27 
  -5  -1   5    5.67    0.36 
  -4  -1   5    4.70    0.30 
  -3  -1   5   24.97    0.97 
  -2  -1   5   16.32    0.64 
  -1  -1   5   37.19    1.32 
   0   1  -5    0.07    0.04 
   0  -1   5    0.13    0.04 
  -1   1  -5   36.59    1.36 
   1  -1   5   36.62    1.30 
  -2   1  -5   15.94    0.67 
  -2   1  -5   16.18    0.59 
   2  -1   5   17.54    0.65 
  -3   1  -5   22.75    0.93 
   3  -1   5   23.78    0.90 
  -4   1  -5    3.99    0.28 
   4  -1   5    4.31    0.27 
  -5   1  -5    6.18    0.38 
   5  -1   5    5.27    0.34 
  -6   1  -5    2.17    0.25 
   6  -1   5    2.57    0.27 
  -7   1  -5    5.80    0.42 
   7  -1   5    5.85    0.42 
  -8   1  -5    0.93    0.21 
   8  -1   5    1.11    0.24 
   9  -1   5    0.99    0.29 
  -9   0   5    0.06    0.16 
  -8   0   5    1.56    0.28 
  -7   0   5    0.87    0.20 
  -6   0   5    1.44    0.22 
  -5   0   5   20.48    0.91 
  -4   0   5    4.12    0.29 
  -3   0   5    3.16    0.22 
  -2   0   5   20.55    0.80 
  -1   0   5    3.21    0.17 
  -1   0  -5    3.48    0.19 
  -1   0  -5    3.70    0.14 
   1   0   5    3.44    0.17 
  -2   0  -5   19.71    0.70 
  -2   0  -5   19.60    0.80 
   2   0   5   19.78    0.74 
  -3   0  -5    2.97    0.22 
  -3   0  -5    3.00    0.17 
   3   0   5    3.27    0.19 
  -4   0  -5    4.03    0.29 
  -4   0  -5    4.36    0.24 
   4   0   5    3.94    0.26 
  -5   0  -5   20.46    0.93 
  -5   0  -5   20.54    0.83 
   5   0   5   20.27    0.86 
  -6   0  -5    1.45    0.17 
  -6   0  -5    1.18    0.21 
   6   0   5    1.16    0.18 
  -7   0  -5    1.00    0.22 
  -7   0  -5    1.18    0.19 
   7   0   5    1.06    0.21 
  -8   0  -5    1.64    0.28 
   8   0   5    1.51    0.27 
  -9   1   5    0.92    0.26 
  -8   1   5    1.02    0.23 
  -7   1   5    5.76    0.44 
  -6   1   5    2.38    0.28 
  -5   1   5    5.21    0.37 
  -4   1   5    4.92    0.33 
  -3   1   5   23.21    0.94 
   2  -1  -5   15.87    0.67 
  -2   1   5   17.44    0.68 
   1  -1  -5   36.21    1.30 
  -1   1   5   35.69    1.29 
   0  -1  -5    0.27    0.05 
   0  -1  -5    0.17    0.04 
   0   1   5    0.11    0.03 
  -1  -1  -5   36.28    1.25 
  -1  -1  -5   35.39    1.35 
  -2  -1  -5   16.71    0.72 
  -2  -1  -5   17.04    0.63 
   2   1   5   17.19    0.63 
  -3  -1  -5   24.47    0.91 
  -3  -1  -5   24.41    1.02 
  -4  -1  -5    4.48    0.25 
  -5  -1  -5    5.51    0.31 
   5   1   5    4.98    0.31 
  -6  -1  -5    2.86    0.31 
  -6  -1  -5    2.79    0.24 
   6   1   5    2.54    0.24 
  -7  -1  -5    5.46    0.36 
  -7  -1  -5    5.57    0.44 
   7   1   5    6.07    0.40 
  -8  -1  -5    1.17    0.25 
  -9  -1  -5    1.09    0.27 
  -9   2   5    0.66    0.22 
  -8   2   5    1.09    0.24 
  -7   2   5    0.08    0.12 
  -6   2   5    2.00    0.27 
  -5   2   5   11.28    0.61 
   4  -2  -5   11.87    0.58 
   3  -2  -5   19.18    0.77 
   3  -2  -5   18.17    0.77 
  -3   2   5   17.42    0.77 
   2  -2  -5    8.65    0.40 
  -2   2   5    7.75    0.39 
   1  -2  -5  196.65    6.84 
   1  -2  -5  203.42    7.04 
  -1   2   5  198.34    6.80 
   0  -2  -5   31.16    1.13 
   0  -2  -5   31.57    1.17 
  -1  -2  -5  196.50    7.02 
  -1  -2  -5  196.24    6.74 
   1   2   5  199.26    6.68 
  -2  -2  -5    8.26    0.35 
   2   2   5    8.55    0.33 
  -3  -2  -5   18.61    0.73 
   3   2   5   19.08    0.71 
  -4  -2  -5   12.13    0.52 
   4   2   5   11.91    0.51 
  -5  -2  -5   11.38    0.53 
   5   2   5   11.37    0.52 
  -6  -2  -5    2.48    0.23 
   6   2   5    2.66    0.23 
  -7  -2  -5    0.12    0.11 
  -8  -2  -5    0.97    0.22 
  -9  -2  -5    0.77    0.24 
  -9   3   5    0.39    0.19 
  -8   3   5    1.25    0.27 
  -7   3   5    1.24    0.24 
   6  -3  -5    6.38    0.45 
   5  -3  -5   11.56    0.61 
   4  -3  -5    1.03    0.17 
   4  -3  -5    1.16    0.18 
   3  -3  -5   12.96    0.58 
   3  -3  -5   12.28    0.58 
   2  -3  -5   19.48    0.78 
   2  -3  -5   19.16    0.78 
   1  -3  -5   17.34    0.70 
   1  -3  -5   18.83    0.68 
  -1   3   5   17.89    0.71 
   0  -3  -5   56.83    2.03 
   0   3   5   58.31    2.00 
  -1  -3  -5   17.70    0.69 
   1   3   5   18.73    0.64 
  -2  -3  -5   19.39    0.77 
   2   3   5   21.01    0.71 
  -3  -3  -5   12.60    0.53 
   3   3   5   12.52    0.47 
  -4  -3  -5    1.29    0.15 
   4   3   5    1.17    0.11 
  -5  -3  -5   11.78    0.55 
   5   3   5   11.58    0.50 
  -6  -3  -5    6.12    0.38 
  -7  -3  -5    1.34    0.21 
  -8  -3  -5    1.65    0.25 
  -9  -3  -5   -0.10    0.14 
  -9   4   5    0.41    0.20 
  -8   4   5    0.60    0.21 
   7  -4  -5    1.19    0.25 
   6  -4  -5    7.41    0.50 
   5  -4  -5    5.90    0.40 
   4  -4  -5    0.54    0.14 
   4  -4  -5    0.99    0.17 
   3  -4  -5    7.74    0.42 
   3  -4  -5    7.70    0.42 
   2  -4  -5    8.55    0.43 
   2  -4  -5   10.06    0.45 
   1  -4  -5    2.35    0.13 
   1  -4  -5    2.26    0.16 
   1  -4  -5    1.90    0.15 
   0  -4  -5    4.90    0.24 
   0   4   5    4.51    0.22 
  -1  -4  -5    2.21    0.15 
   1   4   5    2.39    0.11 
  -2  -4  -5    9.46    0.42 
  -3  -4  -5    8.24    0.39 
  -4  -4  -5    0.70    0.08 
  -4  -4  -5    0.93    0.14 
  -5  -4  -5    6.09    0.36 
  -6  -4  -5    8.47    0.47 
  -7  -4  -5    1.01    0.19 
  -8  -4  -5    0.65    0.18 
  -9  -4  -5    0.33    0.21 
  -9   5   5    0.97    0.26 
   8  -5  -5    0.74    0.25 
  -8   5   5    1.15    0.25 
   7  -5  -5    0.74    0.22 
   6  -5  -5    4.92    0.40 
   5  -5  -5    3.42    0.33 
   5  -5  -5    2.50    0.30 
   4  -5  -5    2.87    0.28 
   4  -5  -5    2.89    0.28 
   3  -5  -5   12.08    0.57 
   3  -5  -5   11.38    0.56 
   2  -5  -5    4.46    0.29 
   2  -5  -5    5.47    0.30 
   1  -5  -5    6.87    0.30 
   1  -5  -5    6.58    0.33 
   1  -5  -5    6.14    0.33 
   0  -5  -5    0.14    0.05 
   0  -5  -5    0.06    0.05 
  -1  -5  -5    6.75    0.32 
   1   5   5    6.32    0.25 
  -2  -5  -5    4.99    0.28 
  -3  -5  -5   11.99    0.54 
  -4  -5  -5    2.67    0.23 
  -5  -5  -5    3.20    0.26 
  -6  -5  -5    4.87    0.34 
  -7  -5  -5    0.88    0.19 
  -8  -5  -5    0.40    0.15 
   8  -6  -5    2.21    0.37 
   7  -6  -5    1.64    0.30 
   6  -6  -5    3.26    0.37 
   5  -6  -5   11.04    0.64 
   5  -6  -5   12.61    0.67 
   4  -6  -5    7.85    0.48 
   4  -6  -5    8.47    0.49 
   3  -6  -5    2.63    0.25 
   3  -6  -5    2.92    0.26 
   2  -6  -5    1.43    0.17 
   2  -6  -5    1.57    0.17 
   1  -6  -5    7.24    0.37 
   1  -6  -5    6.97    0.35 
   0  -6  -5    4.00    0.22 
   0  -6  -5    4.17    0.25 
  -1  -6  -5    7.11    0.36 
   1   6   5    7.58    0.30 
  -2  -6  -5    1.53    0.16 
  -3  -6  -5    3.49    0.24 
  -4  -6  -5    9.56    0.49 
  -5  -6  -5   11.27    0.57 
  -6  -6  -5    3.53    0.32 
  -7  -6  -5    1.81    0.26 
  -8  -6  -5    1.75    0.27 
   8  -7  -5    0.61    0.25 
   7  -7  -5    2.15    0.34 
   6  -7  -5    1.98    0.30 
   6  -7  -5    1.10    0.25 
   5  -7  -5    2.46    0.31 
   5  -7  -5    1.45    0.23 
   4  -7  -5   24.01    1.06 
   4  -7  -5   24.34    1.07 
   3  -7  -5    3.54    0.29 
   3  -7  -5    4.06    0.30 
   2  -7  -5    1.08    0.16 
   2  -7  -5    1.44    0.18 
   1  -7  -5    9.11    0.43 
   1  -7  -5    8.42    0.43 
   0  -7  -5   21.84    0.84 
   0  -7  -5   22.13    0.89 
  -1  -7  -5    8.14    0.41 
  -2  -7  -5    0.96    0.15 
  -3  -7  -5    4.28    0.29 
  -4  -7  -5   25.46    1.05 
  -5  -7  -5    2.23    0.25 
  -6  -7  -5    1.82    0.25 
  -7  -7  -5    2.10    0.29 
  -8  -7  -5    0.90    0.22 
   8  -8  -5    0.19    0.17 
   7  -8  -5    0.49    0.20 
   6  -8  -5    4.70    0.46 
   6  -8  -5    4.25    0.43 
   5  -8  -5    0.09    0.12 
   5  -8  -5    0.35    0.17 
   4  -8  -5    1.00    0.21 
   4  -8  -5    0.88    0.21 
   3  -8  -5    3.72    0.30 
   3  -8  -5    4.37    0.32 
   2  -8  -5    5.02    0.33 
   2  -8  -5    4.89    0.32 
   1  -8  -5    4.36    0.30 
   1  -8  -5    4.79    0.29 
   0  -8  -5    0.01    0.06 
   0  -8  -5   -0.08    0.07 
  -1  -8  -5    4.73    0.30 
  -2  -8  -5    5.50    0.34 
  -3  -8  -5    4.54    0.32 
  -4  -8  -5    0.72    0.16 
  -5  -8  -5    0.06    0.11 
  -6  -8  -5    4.02    0.37 
  -7  -8  -5    0.52    0.19 
  -8  -8  -5    0.35    0.19 
   7  -9  -5    0.11    0.15 
   6  -9  -5    0.04    0.17 
   6  -9  -5    0.26    0.16 
   5  -9  -5    2.68    0.33 
   5  -9  -5    2.30    0.33 
   4  -9  -5    0.48    0.17 
   4  -9  -5    0.11    0.10 
   3  -9  -5    0.61    0.16 
   3  -9  -5    0.70    0.18 
   2  -9  -5    4.00    0.31 
   2  -9  -5    4.62    0.34 
   1  -9  -5   15.39    0.70 
   1  -9  -5   13.92    0.65 
   0  -9  -5    0.83    0.16 
  -1  -9  -5   15.02    0.69 
  -2  -9  -5    4.44    0.32 
  -3  -9  -5    0.88    0.18 
  -4  -9  -5    0.31    0.14 
  -5  -9  -5    2.28    0.28 
  -6  -9  -5    0.11    0.14 
  -7  -9  -5    0.23    0.17 
   7 -10  -5    1.09    0.32 
   7 -10  -5    0.79    0.24 
   6 -10  -5    0.77    0.22 
   6 -10  -5    0.56    0.24 
   5 -10  -5    0.17    0.13 
   5 -10  -5    0.09    0.16 
   4 -10  -5    0.35    0.15 
   4 -10  -5    0.47    0.18 
   3 -10  -5    1.82    0.26 
   3 -10  -5    1.85    0.25 
   2 -10  -5    1.25    0.22 
   2 -10  -5    1.28    0.20 
   1 -10  -5    2.63    0.25 
   1 -10  -5    2.72    0.28 
   0 -10  -5    0.30    0.12 
  -1 -10  -5    2.96    0.28 
  -2 -10  -5    1.13    0.20 
  -3 -10  -5    2.20    0.26 
  -4 -10  -5    0.50    0.16 
  -5 -10  -5    0.09    0.13 
  -6 -10  -5    0.61    0.18 
  -7 -10  -5    0.80    0.23 
   6 -11  -5    0.60    0.25 
   6 -11  -5    0.41    0.18 
   5 -11  -5    0.18    0.19 
   5 -11  -5    0.29    0.16 
   4 -11  -5    0.24    0.17 
   4 -11  -5    0.04    0.11 
   3 -11  -5    3.05    0.34 
   3 -11  -5    3.48    0.35 
   2 -11  -5    1.61    0.23 
   2 -11  -5    2.43    0.29 
   1 -11  -5    2.72    0.30 
   0 -11  -5    0.98    0.19 
  -1 -11  -5    2.33    0.27 
  -2 -11  -5    1.25    0.21 
  -3 -11  -5    3.91    0.35 
  -4 -11  -5   -0.02    0.13 
  -5 -11  -5   -0.02    0.12 
  -6 -11  -5    0.22    0.17 
   5 -12  -5    0.20    0.22 
   5 -12  -5    0.13    0.17 
   4 -12  -5    0.41    0.17 
   4 -12  -5    0.31    0.20 
   3 -12  -5    1.06    0.23 
   2 -12  -5    1.79    0.28 
   1 -12  -5    2.04    0.28 
   0 -12  -5    4.60    0.37 
  -1 -12  -5    2.05    0.27 
  -2 -12  -5    1.73    0.26 
  -3 -12  -5    1.16    0.22 
  -4 -12  -5    0.38    0.17 
  -5 -12  -5    0.23    0.15 
   4 -13  -5    0.58    0.24 
   3 -13  -5    0.61    0.23 
   2 -13  -5    0.06    0.16 
   1 -13  -5    0.79    0.22 
   0 -13  -5    1.55    0.26 
  -1 -13  -5    0.76    0.20 
  -2 -13  -5    0.22    0.14 
  -3 -13  -5    0.48    0.19 
  -4 -13  -5    0.30    0.16 
   3 -14  -5    0.94    0.28 
   2 -14  -5    0.46    0.23 
   1 -14  -5    0.19    0.18 
   0 -14  -5    1.63    0.28 
  -1 -14  -5   -0.09    0.15 
  -2 -14  -5    0.10    0.17 
  -3 -14  -5    0.74    0.25 
  -2 -14   6    0.42    0.21 
  -1 -14   6    1.07    0.24 
   0 -14   6    0.13    0.18 
  -4 -13   6    0.99    0.26 
  -3 -13   6    0.69    0.23 
  -2 -13   6    1.77    0.28 
  -1 -13   6   -0.22    0.12 
   0 -13   6    0.06    0.14 
   2 -13   6    2.22    0.32 
   3 -13   6    0.61    0.21 
   4 -13   6    1.31    0.28 
  -5 -12   6    0.09    0.21 
  -4 -12   6    0.66    0.23 
  -3 -12   6    1.36    0.26 
  -2 -12   6    0.71    0.20 
  -1 -12   6    1.79    0.25 
   0 -12   6    2.68    0.30 
   0 -12   6    2.63    0.28 
   1 -12   6    1.75    0.23 
   1 -12   6    2.20    0.29 
   2 -12   6    0.80    0.19 
   3 -12   6    1.29    0.25 
   4 -12   6    0.69    0.22 
   5 -12   6    0.16    0.19 
  -6 -11   6    0.14    0.21 
  -5 -11   6    1.22    0.28 
  -4 -11   6    0.04    0.17 
  -3 -11   6    1.99    0.30 
  -2 -11   6    1.24    0.22 
  -1 -11   6    4.12    0.31 
  -1 -11   6    3.96    0.32 
   0 -11   6    6.82    0.44 
   0 -11   6    7.09    0.42 
   1 -11   6    4.26    0.31 
   1 -11   6    4.30    0.35 
   2 -11   6    1.01    0.22 
   3 -11   6    2.23    0.32 
   4 -11   6    0.31    0.15 
   5 -11   6    1.26    0.27 
   6 -11   6   -0.07    0.15 
  -7 -10   6    0.17    0.24 
  -6 -10   6    1.11    0.28 
  -5 -10   6    0.06    0.17 
  -4 -10   6    0.55    0.20 
  -3 -10   6    1.98    0.28 
  -2 -10   6   11.94    0.61 
  -2 -10   6   11.05    0.56 
  -1 -10   6    1.72    0.21 
  -1 -10   6    1.64    0.22 
   0 -10   6    0.68    0.15 
   0 -10   6    1.02    0.18 
   1 -10   6    1.80    0.25 
   1 -10   6    1.69    0.20 
   2 -10   6    9.94    0.50 
   2 -10   6   10.69    0.59 
   3 -10   6    2.10    0.30 
   4 -10   6    0.55    0.18 
   5 -10   6    0.19    0.15 
   6 -10   6    1.16    0.26 
   7 -10   6    0.34    0.21 
  -7  -9   6    0.95    0.25 
  -6  -9   6    1.96    0.32 
  -5  -9   6    1.38    0.28 
  -4  -9   6    3.98    0.38 
  -3  -9   6    0.85    0.19 
  -2  -9   6    5.77    0.34 
  -2  -9   6    6.02    0.40 
  -1  -9   6    5.86    0.36 
  -1  -9   6    5.71    0.35 
   0  -9   6    3.03    0.26 
   0  -9   6    2.54    0.23 
   1  -9   6    5.62    0.37 
   1  -9   6    5.80    0.32 
   2  -9   6    2.94    0.21 
   3  -9   6    0.98    0.20 
   4  -9   6    4.11    0.39 
   5  -9   6    1.79    0.29 
   6  -9   6    2.00    0.34 
   7  -9   6    0.42    0.23 
  -8  -8   6    1.76    0.34 
  -7  -8   6    1.94    0.32 
  -6  -8   6    0.13    0.17 
  -5  -8   6    2.43    0.33 
  -4  -8   6    0.75    0.20 
  -3  -8   6    6.65    0.35 
  -3  -8   6    6.02    0.42 
  -2  -8   6    1.75    0.22 
  -2  -8   6    1.69    0.18 
  -1  -8   6    1.07    0.15 
  -1  -8   6    1.13    0.16 
   0  -8   6    0.21    0.08 
   0  -8   6    0.31    0.10 
   1  -8   6    0.72    0.12 
   1  -8   6    0.85    0.16 
   2  -8   6    1.10    0.19 
   2  -8   6    0.68    0.10 
   3  -8   6    5.71    0.32 
   3  -8   6    6.32    0.42 
   4  -8   6    1.04    0.21 
   5  -8   6    1.86    0.29 
   6  -8   6    0.24    0.16 
   7  -8   6    2.04    0.38 
   8  -8   6    0.99    0.34 
  -8  -7   6    0.50    0.22 
  -7  -7   6    1.07    0.24 
  -6  -7   6    1.40    0.27 
  -5  -7   6    1.57    0.26 
  -4  -7   6    4.80    0.29 
  -4  -7   6    4.89    0.39 
  -3  -7   6    0.43    0.10 
  -3  -7   6    0.38    0.14 
  -2  -7   6    4.16    0.29 
  -2  -7   6    4.15    0.25 
  -1  -7   6    0.54    0.11 
  -1  -7   6    0.51    0.11 
   0  -7   6   17.96    0.75 
   0  -7   6   17.54    0.72 
   1  -7   6    0.31    0.07 
   1  -7   6    0.56    0.13 
   2  -7   6    3.65    0.28 
   2  -7   6    3.73    0.22 
   3  -7   6    0.23    0.12 
   3  -7   6    0.48    0.09 
   4  -7   6    4.08    0.34 
   5  -7   6    1.51    0.27 
   6  -7   6    1.81    0.32 
   7  -7   6    1.32    0.29 
   8  -7   6    0.97    0.31 
  -8  -6   6    0.19    0.15 
  -7  -6   6    0.48    0.18 
  -6  -6   6    2.63    0.33 
  -5  -6   6    1.79    0.19 
  -5  -6   6    1.90    0.28 
  -4  -6   6    1.74    0.26 
  -4  -6   6    2.17    0.19 
  -3  -6   6    7.46    0.35 
  -3  -6   6    6.08    0.40 
  -2  -6   6    4.09    0.24 
  -2  -6   6    3.80    0.27 
  -1  -6   6    6.20    0.32 
  -1  -6   6    5.94    0.32 
   0  -6   6    4.53    0.25 
   0  -6   6    4.45    0.27 
   1  -6   6    5.41    0.29 
   1  -6   6    3.71    0.21 
   2  -6   6    3.81    0.27 
   2  -6   6    3.91    0.20 
   3  -6   6    6.44    0.31 
   3  -6   6    6.85    0.41 
  -4   6  -6    1.86    0.18 
   4  -6   6    1.53    0.23 
   5  -6   6    1.40    0.25 
   6  -6   6    2.32    0.34 
   7  -6   6    0.50    0.22 
   8  -6   6   -0.08    0.17 
  -9  -5   6    0.13    0.17 
  -8  -5   6    0.11    0.13 
  -7  -5   6    0.66    0.19 
  -6  -5   6    0.09    0.13 
  -6  -5   6    0.25    0.10 
  -5  -5   6    3.89    0.37 
  -5  -5   6    3.55    0.25 
  -4  -5   6    2.87    0.29 
  -4  -5   6    2.43    0.19 
  -3  -5   6    3.61    0.28 
  -3  -5   6    3.65    0.22 
  -2  -5   6    6.29    0.31 
  -2  -5   6    6.27    0.36 
  -1  -5   6   41.78    1.53 
  -1  -5   6   40.88    1.50 
   0  -5   6    2.58    0.17 
   0  -5   6    2.74    0.19 
   1  -5   6   40.28    1.49 
   1  -5   6   40.17    1.43 
   2  -5   6    6.24    0.35 
   2  -5   6    6.22    0.27 
  -3   5  -6    3.08    0.21 
   3  -5   6    3.38    0.19 
   3  -5   6    3.29    0.26 
  -4   5  -6    2.21    0.18 
   4  -5   6    2.24    0.25 
  -5   5  -6    3.07    0.23 
   5  -5   6    2.87    0.31 
   6  -5   6    0.18    0.14 
   7  -5   6    1.08    0.26 
   8  -5   6    0.47    0.21 
   9  -5   6    0.46    0.25 
  -9  -4   6    1.42    0.30 
  -8  -4   6    1.16    0.26 
  -7  -4   6    0.38    0.12 
  -7  -4   6    0.31    0.15 
  -6  -4   6    0.64    0.14 
  -5  -4   6    0.86    0.15 
  -4  -4   6    8.66    0.42 
  -3  -4   6    1.42    0.20 
  -3  -4   6    1.66    0.16 
  -2  -4   6    5.55    0.28 
  -2  -4   6    5.56    0.32 
  -1  -4   6   16.37    0.68 
  -1  -4   6   16.92    0.65 
   0  -4   6   10.37    0.45 
   1  -4   6   16.81    0.62 
   1  -4   6   16.83    0.68 
  -2   4  -6    5.56    0.28 
   2  -4   6    5.48    0.31 
   2  -4   6    5.31    0.23 
  -3   4  -6    1.41    0.15 
   3  -4   6    1.65    0.19 
   3  -4   6    1.45    0.11 
  -4   4  -6    8.65    0.42 
   4  -4   6    7.71    0.45 
  -5   4  -6    1.21    0.16 
   5  -4   6    1.11    0.21 
  -6   4  -6    0.64    0.13 
   6  -4   6    0.57    0.18 
   7  -4   6    0.35    0.18 
   8  -4   6    1.01    0.26 
   9  -4   6    1.60    0.33 
  -9  -3   6    0.79    0.23 
  -8  -3   6    0.30    0.14 
  -7  -3   6    0.15    0.11 
  -6  -3   6    6.47    0.40 
  -5  -3   6    4.66    0.31 
  -4  -3   6    1.69    0.18 
  -3  -3   6    1.26    0.14 
  -2  -3   6    4.21    0.23 
  -1  -3   6   30.53    1.11 
   0  -3   6    0.97    0.09 
   0  -3   6    1.39    0.12 
  -1   3  -6   30.40    1.16 
   1  -3   6   30.98    1.07 
   1  -3   6   29.84    1.13 
  -2   3  -6    4.10    0.23 
   2  -3   6    3.92    0.16 
   2  -3   6    3.72    0.23 
  -3   3  -6    1.61    0.15 
   3  -3   6    1.06    0.15 
  -4   3  -6    1.91    0.18 
   4  -3   6    1.59    0.19 
  -5   3  -6    4.52    0.30 
   5  -3   6    4.40    0.34 
  -6   3  -6    6.27    0.38 
   6  -3   6    5.75    0.42 
  -7   3  -6    0.22    0.11 
   7  -3   6    0.05    0.13 
   8  -3   6    0.32    0.18 
   9  -3   6    0.50    0.23 
  -9  -2   6    1.69    0.29 
  -8  -2   6    0.55    0.18 
  -7  -2   6    5.15    0.38 
  -6  -2   6    3.89    0.31 
  -5  -2   6    3.66    0.27 
  -4  -2   6    1.33    0.16 
  -3  -2   6   37.05    1.38 
  -2  -2   6   11.22    0.47 
  -1  -2   6   94.38    3.25 
   0  -2   6    0.02    0.03 
  -1   2  -6   94.22    3.47 
   1  -2   6   99.02    3.32 
   1  -2   6   96.02    3.33 
  -2   2  -6   10.57    0.48 
   2  -2   6   10.95    0.47 
  -3   2  -6   35.38    1.37 
   3  -2   6   35.65    1.34 
  -4   2  -6    1.46    0.17 
   4  -2   6    1.60    0.18 
  -5   2  -6    3.03    0.24 
   5  -2   6    2.25    0.24 
  -6   2  -6    2.89    0.28 
   6  -2   6    3.17    0.31 
  -7   2  -6    4.90    0.37 
   7  -2   6    5.01    0.39 
   8  -2   6    0.34    0.18 
   9  -2   6    1.14    0.28 
  -9  -1   6    0.59    0.21 
  -8  -1   6    1.01    0.23 
  -7  -1   6    2.28    0.29 
  -6  -1   6    1.58    0.23 
  -5  -1   6    6.75    0.41 
  -4  -1   6    8.61    0.45 
  -3  -1   6    5.56    0.30 
  -2  -1   6    9.53    0.42 
  -1  -1   6   16.00    0.62 
   0   1  -6   50.12    1.88 
   0  -1   6   53.25    1.81 
  -1   1  -6   15.68    0.62 
   1  -1   6   14.72    0.58 
  -2   1  -6    9.00    0.41 
   2  -1   6    8.65    0.38 
  -3   1  -6    5.88    0.31 
  -3   1  -6    5.27    0.23 
   3  -1   6    5.25    0.29 
  -4   1  -6    9.24    0.47 
  -4   1  -6    8.79    0.39 
   4  -1   6    9.80    0.46 
  -5   1  -6    5.98    0.38 
   5  -1   6    6.01    0.37 
  -6   1  -6    1.86    0.19 
  -6   1  -6    1.98    0.25 
   6  -1   6    1.72    0.24 
  -7   1  -6    1.90    0.26 
   7  -1   6    2.02    0.28 
  -8   1  -6    1.30    0.24 
   8  -1   6    1.24    0.25 
  -9   0   6   -0.04    0.13 
  -8   0   6    2.45    0.34 
  -7   0   6    2.53    0.32 
  -6   0   6    6.19    0.43 
  -5   0   6   -0.05    0.08 
  -4   0   6   10.59    0.53 
  -3   0   6   18.36    0.76 
  -2   0   6    9.11    0.41 
  -1   0   6    0.14    0.05 
   0   0  -6 1000.00   34.64 
   0   0  -6  969.01   33.50 
   0   0   6  990.12   33.21 
  -1   0  -6    0.22    0.03 
  -1   0  -6    0.14    0.05 
   1   0   6    0.18    0.04 
  -2   0  -6    8.46    0.42 
  -2   0  -6    9.11    0.33 
   2   0   6    8.77    0.37 
  -3   0  -6   17.48    0.65 
  -3   0  -6   17.02    0.76 
   3   0   6   18.00    0.70 
  -4   0  -6    9.51    0.41 
  -4   0  -6    9.83    0.51 
   4   0   6    9.74    0.46 
  -5   0  -6    0.10    0.08 
  -5   0  -6    0.01    0.08 
   5   0   6    0.01    0.07 
  -6   0  -6    5.72    0.41 
  -6   0  -6    5.82    0.34 
   6   0   6    5.24    0.36 
  -7   0  -6    2.26    0.30 
   7   0   6    2.26    0.27 
  -8   0  -6    2.15    0.31 
   8   0   6    2.21    0.31 
  -9   0  -6    0.18    0.19 
  -9   1   6    0.73    0.23 
  -8   1   6    1.28    0.27 
  -7   1   6    1.84    0.27 
  -6   1   6    1.77    0.26 
  -5   1   6    5.68    0.39 
  -4   1   6   10.13    0.53 
  -3   1   6    5.44    0.32 
   2  -1  -6    9.71    0.44 
  -2   1   6    9.32    0.43 
   1  -1  -6   15.41    0.56 
   1  -1  -6   12.16    0.53 
  -1   1   6   13.46    0.54 
   0  -1  -6   51.98    1.89 
   0  -1  -6   52.17    1.82 
   0   1   6   51.73    1.80 
  -1  -1  -6   14.78    0.54 
  -1  -1  -6   14.33    0.61 
  -2  -1  -6    8.91    0.44 
  -2  -1  -6    9.49    0.36 
   2   1   6    8.59    0.36 
  -3  -1  -6    5.45    0.25 
  -3  -1  -6    5.22    0.33 
  -4  -1  -6    9.91    0.53 
  -4  -1  -6    9.48    0.42 
  -5  -1  -6    6.00    0.32 
  -5  -1  -6    6.21    0.41 
   5   1   6    5.50    0.33 
  -6  -1  -6    1.87    0.27 
  -6  -1  -6    1.86    0.20 
   6   1   6    1.84    0.21 
  -7  -1  -6    2.11    0.30 
   7   1   6    1.84    0.25 
  -8  -1  -6    1.18    0.27 
  -9  -1  -6    0.72    0.23 
  -9   2   6    1.91    0.34 
  -8   2   6    0.34    0.18 
  -7   2   6    4.91    0.44 
  -6   2   6    3.27    0.35 
  -5   2   6    3.91    0.32 
  -4   2   6    1.45    0.20 
   3  -2  -6   35.28    1.35 
  -3   2   6   34.60    1.36 
   2  -2  -6   11.34    0.49 
  -2   2   6    9.91    0.48 
   1  -2  -6   94.44    3.37 
   1  -2  -6   94.95    3.30 
  -1   2   6   94.15    3.27 
   0  -2  -6   -0.03    0.02 
   0  -2  -6    0.03    0.03 
   0   2   6    0.00    0.02 
  -1  -2  -6   91.10    3.40 
  -1  -2  -6   93.91    3.24 
   1   2   6   96.61    3.20 
  -2  -2  -6   10.98    0.52 
  -2  -2  -6   10.97    0.44 
   2   2   6   11.17    0.42 
  -3  -2  -6   38.10    1.49 
  -3  -2  -6   36.70    1.34 
   3   2   6   36.39    1.32 
  -4  -2  -6    1.62    0.15 
   4   2   6    1.87    0.15 
  -5  -2  -6    3.59    0.24 
   5   2   6    3.75    0.24 
  -6  -2  -6    2.95    0.23 
  -6  -2  -6    2.86    0.33 
   6   2   6    2.82    0.23 
  -7  -2  -6    5.62    0.45 
  -7  -2  -6    5.37    0.36 
  -8  -2  -6    0.27    0.16 
  -9  -2  -6    1.54    0.32 
  -9   3   6    0.86    0.25 
  -8   3   6    0.25    0.16 
  -7   3   6    0.00    0.12 
  -6   3   6    5.86    0.44 
  -5   3   6    3.43    0.33 
   4  -3  -6    1.47    0.20 
   4  -3  -6    1.48    0.20 
   3  -3  -6    1.36    0.17 
   3  -3  -6    1.43    0.17 
  -3   3   6    1.32    0.18 
   2  -3  -6    3.78    0.24 
  -2   3   6    3.86    0.25 
   1  -3  -6   30.35    1.09 
   1  -3  -6   29.27    1.11 
  -1   3   6   28.80    1.10 
   0  -3  -6    1.15    0.10 
   0  -3  -6    1.25    0.10 
   0   3   6    0.82    0.08 
  -1  -3  -6   28.22    1.07 
  -1  -3  -6   29.45    1.16 
   1   3   6   30.41    1.03 
  -2  -3  -6    4.00    0.22 
   2   3   6    4.28    0.18 
  -3  -3  -6    1.37    0.13 
   3   3   6    1.47    0.10 
  -4  -3  -6    1.99    0.16 
   4   3   6    1.51    0.13 
  -5  -3  -6    4.95    0.30 
   5   3   6    4.60    0.26 
  -6  -3  -6    6.62    0.39 
  -7  -3  -6    0.29    0.12 
  -8  -3  -6    0.40    0.18 
  -9  -3  -6    0.78    0.24 
  -9   4   6    1.51    0.32 
  -8   4   6    0.95    0.25 
  -7   4   6    0.40    0.16 
   6  -4  -6    0.33    0.18 
   5  -4  -6    0.54    0.16 
   4  -4  -6    7.13    0.44 
   4  -4  -6    8.78    0.47 
   3  -4  -6    1.28    0.17 
   3  -4  -6    1.20    0.17 
   2  -4  -6    5.54    0.31 
   2  -4  -6    5.75    0.32 
   1  -4  -6   16.10    0.63 
   1  -4  -6   15.63    0.65 
  -1   4   6   16.74    0.66 
   0  -4  -6    9.11    0.40 
   0   4   6    9.17    0.38 
  -1  -4  -6   15.49    0.62 
   1   4   6   16.07    0.57 
  -2  -4  -6    5.93    0.30 
  -3  -4  -6    1.25    0.14 
  -4  -4  -6    8.94    0.44 
  -5  -4  -6    0.83    0.15 
  -6  -4  -6    0.40    0.13 
  -7  -4  -6    0.19    0.12 
  -9  -4  -6    0.80    0.27 
  -9   5   6    0.12    0.16 
  -8   5   6    0.34    0.19 
   7  -5  -6    0.89    0.23 
   6  -5  -6    0.01    0.11 
   5  -5  -6    3.15    0.33 
   5  -5  -6    3.37    0.34 
   4  -5  -6    2.26    0.26 
   4  -5  -6    2.56    0.27 
   3  -5  -6    2.91    0.24 
   3  -5  -6    3.33    0.26 
   2  -5  -6    5.82    0.32 
   2  -5  -6    4.90    0.30 
   1  -5  -6   41.47    1.45 
   1  -5  -6   37.96    1.46 
   1  -5  -6   38.41    1.44 
   0  -5  -6    2.86    0.19 
   0   5   6    2.74    0.17 
  -1  -5  -6   38.91    1.44 
   1   5   6   39.91    1.37 
  -2  -5  -6    6.63    0.34 
  -3  -5  -6    3.24    0.22 
  -4  -5  -6    2.08    0.20 
  -5  -5  -6    3.17    0.27 
  -6  -5  -6    0.31    0.12 
  -7  -5  -6    0.95    0.18 
  -8  -5  -6    0.09    0.12 
  -9  -5  -6    0.07    0.20 
  -8   6   6    0.21    0.17 
   7  -6  -6    0.45    0.17 
   6  -6  -6    2.78    0.35 
   5  -6  -6    1.74    0.27 
   5  -6  -6    1.64    0.26 
   4  -6  -6    1.90    0.25 
   4  -6  -6    1.80    0.24 
   3  -6  -6    6.30    0.39 
   3  -6  -6    6.23    0.39 
   2  -6  -6    3.23    0.24 
   2  -6  -6    4.10    0.27 
   1  -6  -6    5.81    0.31 
   1  -6  -6    5.60    0.32 
   1  -6  -6    6.07    0.29 
   0  -6  -6    3.87    0.24 
   0   6   6    3.76    0.22 
  -1  -6  -6    5.93    0.31 
   1   6   6    5.78    0.24 
  -2  -6  -6    3.96    0.25 
  -3  -6  -6    6.59    0.36 
  -4  -6  -6    1.54    0.19 
  -5  -6  -6    1.59    0.21 
  -6  -6  -6    2.53    0.27 
  -7  -6  -6    0.32    0.14 
  -8  -6  -6    0.16    0.13 
   8  -7  -6    0.60    0.22 
  -8   7   6    0.46    0.24 
   7  -7  -6    1.20    0.27 
   6  -7  -6    1.77    0.31 
   6  -7  -6    1.62    0.28 
   5  -7  -6    2.35    0.31 
   5  -7  -6    2.19    0.30 
   4  -7  -6    4.40    0.36 
   4  -7  -6    4.60    0.37 
   3  -7  -6    0.36    0.12 
   3  -7  -6    0.54    0.15 
   2  -7  -6    3.53    0.27 
   2  -7  -6    3.57    0.26 
   1  -7  -6    0.37    0.10 
   1  -7  -6    0.45    0.09 
   1  -7  -6    0.44    0.11 
   0  -7  -6   16.08    0.70 
   0  -7  -6   16.35    0.65 
  -1  -7  -6    0.44    0.11 
   1   7   6    0.45    0.07 
  -2  -7  -6    3.82    0.26 
  -3  -7  -6    0.52    0.13 
  -4  -7  -6    4.43    0.31 
  -5  -7  -6    1.89    0.23 
  -6  -7  -6    1.79    0.25 
  -7  -7  -6    0.80    0.20 
  -8  -7  -6    0.68    0.20 
   8  -8  -6    2.16    0.37 
   7  -8  -6    1.96    0.33 
   6  -8  -6   -0.01    0.16 
   6  -8  -6    0.12    0.13 
   5  -8  -6    2.03    0.30 
   5  -8  -6    1.94    0.30 
   4  -8  -6    0.95    0.21 
   4  -8  -6    0.99    0.20 
   3  -8  -6    5.54    0.39 
   3  -8  -6    6.43    0.40 
   2  -8  -6    1.26    0.20 
   2  -8  -6    1.55    0.20 
   1  -8  -6    0.93    0.14 
   1  -8  -6    0.96    0.16 
   0  -8  -6    0.34    0.09 
   0  -8  -6    0.33    0.11 
  -1  -8  -6    0.57    0.13 
  -2  -8  -6    1.71    0.20 
  -3  -8  -6    5.94    0.37 
  -4  -8  -6    1.01    0.18 
  -5  -8  -6    2.32    0.26 
  -6  -8  -6    0.11    0.14 
  -7  -8  -6    2.40    0.31 
  -8  -8  -6    1.22    0.26 
   7  -9  -6    0.82    0.24 
   6  -9  -6    2.12    0.33 
   6  -9  -6    2.24    0.35 
   5  -9  -6    1.19    0.26 
   5  -9  -6    0.93    0.22 
   4  -9  -6    4.01    0.37 
   4  -9  -6    3.49    0.36 
   3  -9  -6    0.82    0.18 
   3  -9  -6    0.79    0.19 
   2  -9  -6    4.48    0.33 
   2  -9  -6    4.86    0.35 
   1  -9  -6    5.10    0.36 
   1  -9  -6    5.63    0.34 
   0  -9  -6    3.04    0.27 
  -1  -9  -6    5.54    0.35 
  -2  -9  -6    5.22    0.35 
  -3  -9  -6    0.86    0.17 
  -4  -9  -6    4.10    0.32 
  -5  -9  -6    1.11    0.21 
  -6  -9  -6    1.95    0.26 
  -7  -9  -6    0.97    0.23 
   7 -10  -6    0.11    0.17 
   7 -10  -6    0.35    0.27 
   6 -10  -6    1.16    0.30 
   6 -10  -6    1.28    0.27 
   5 -10  -6    0.08    0.16 
   5 -10  -6    0.19    0.15 
   4 -10  -6    0.73    0.21 
   4 -10  -6    0.66    0.17 
   3 -10  -6    1.39    0.23 
   3 -10  -6    1.84    0.27 
   2 -10  -6   10.28    0.55 
   2 -10  -6   10.31    0.57 
   1 -10  -6    1.80    0.24 
   0 -10  -6    0.55    0.16 
  -1 -10  -6    1.70    0.23 
  -2 -10  -6   10.83    0.57 
  -3 -10  -6    1.33    0.21 
  -4 -10  -6    0.77    0.19 
  -5 -10  -6    0.12    0.14 
  -6 -10  -6    1.32    0.24 
  -7 -10  -6    0.28    0.18 
   6 -11  -6    0.08    0.21 
   6 -11  -6    0.10    0.16 
   5 -11  -6    1.36    0.28 
   5 -11  -6    0.98    0.27 
   4 -11  -6    0.12    0.13 
   4 -11  -6    0.26    0.17 
   3 -11  -6    1.99    0.27 
   3 -11  -6    2.08    0.30 
   2 -11  -6    1.45    0.25 
   1 -11  -6    3.53    0.34 
   0 -11  -6    6.72    0.44 
  -1 -11  -6    4.12    0.34 
  -2 -11  -6    1.15    0.21 
  -3 -11  -6    2.44    0.29 
  -4 -11  -6    0.08    0.12 
  -5 -11  -6    1.20    0.24 
  -6 -11  -6    0.11    0.15 
   5 -12  -6   -0.11    0.20 
   5 -12  -6   -0.01    0.14 
   4 -12  -6    0.81    0.21 
   4 -12  -6    0.69    0.25 
   3 -12  -6    1.09    0.25 
   2 -12  -6    1.12    0.24 
   1 -12  -6    2.30    0.30 
   0 -12  -6    2.42    0.30 
  -1 -12  -6    1.56    0.25 
  -2 -12  -6    0.89    0.20 
  -3 -12  -6    0.96    0.21 
  -4 -12  -6    0.58    0.19 
  -5 -12  -6    0.06    0.15 
   4 -13  -6    0.56    0.25 
   3 -13  -6    0.54    0.23 
   2 -13  -6    2.23    0.33 
   1 -13  -6    0.15    0.16 
   0 -13  -6    0.13    0.15 
  -1 -13  -6    0.14    0.14 
  -2 -13  -6    2.09    0.29 
  -3 -13  -6    0.47    0.19 
  -4 -13  -6    0.71    0.20 
   2 -14  -6    0.33    0.22 
   1 -14  -6    1.30    0.27 
   0 -14  -6    0.05    0.16 
  -1 -14  -6    0.92    0.23 
  -2 -14  -6    0.45    0.19 
  -2 -14   7    0.18    0.20 
  -1 -14   7    0.30    0.20 
  -4 -13   7    0.66    0.25 
  -3 -13   7    0.79    0.24 
  -2 -13   7    0.71    0.21 
  -1 -13   7    1.00    0.22 
   0 -13   7    0.34    0.17 
   1 -13   7    1.11    0.23 
   2 -13   7    0.88    0.23 
   3 -13   7    0.37    0.18 
   4 -13   7    0.41    0.22 
  -5 -12   7    0.63    0.27 
  -4 -12   7    0.13    0.17 
  -3 -12   7    1.89    0.29 
  -2 -12   7    1.53    0.25 
  -1 -12   7    0.36    0.16 
   0 -12   7    0.16    0.13 
   0 -12   7    0.35    0.15 
   1 -12   7    0.48    0.16 
   2 -12   7    1.70    0.27 
   3 -12   7    1.82    0.30 
   4 -12   7    0.08    0.14 
   5 -12   7    0.27    0.18 
  -6 -11   7    0.62    0.26 
  -5 -11   7    0.65    0.24 
  -4 -11   7    1.22    0.27 
  -3 -11   7    2.52    0.32 
  -2 -11   7    1.48    0.23 
  -1 -11   7    1.25    0.21 
  -1 -11   7    1.10    0.20 
   0 -11   7    3.25    0.28 
   0 -11   7    2.68    0.30 
   1 -11   7    1.18    0.18 
   1 -11   7    1.17    0.22 
   2 -11   7    1.62    0.27 
   3 -11   7    1.76    0.28 
   4 -11   7    1.11    0.24 
   5 -11   7    0.40    0.19 
   6 -11   7    0.48    0.22 
  -6 -10   7    0.21    0.19 
  -5 -10   7    0.17    0.16 
  -4 -10   7    0.74    0.21 
  -3 -10   7    1.36    0.24 
  -2 -10   7    0.65    0.18 
  -2 -10   7    0.57    0.14 
  -1 -10   7    0.50    0.15 
  -1 -10   7    0.29    0.13 
   0 -10   7    5.34    0.37 
   0 -10   7    5.53    0.35 
   1 -10   7    0.28    0.13 
   1 -10   7    0.37    0.13 
   2 -10   7    0.51    0.16 
   3 -10   7    1.53    0.26 
   4 -10   7    0.84    0.22 
   5 -10   7    0.15    0.15 
   6 -10   7    0.60    0.24 
  -7  -9   7    0.34    0.23 
  -6  -9   7    0.20    0.18 
  -5  -9   7    1.07    0.24 
  -4  -9   7    1.60    0.27 
  -3  -9   7    0.99    0.17 
  -3  -9   7    0.72    0.19 
  -2  -9   7    5.44    0.35 
  -2  -9   7    5.63    0.38 
  -1  -9   7    2.32    0.23 
  -1  -9   7    2.34    0.23 
   0  -9   7    2.79    0.26 
   0  -9   7    2.82    0.22 
   1  -9   7    1.95    0.24 
   1  -9   7    2.01    0.18 
   2  -9   7    4.88    0.36 
   2  -9   7    4.37    0.27 
   3  -9   7    0.37    0.14 
   4  -9   7    1.15    0.24 
   5  -9   7    0.88    0.21 
   6  -9   7    0.13    0.15 
   7  -9   7    0.34    0.24 
  -8  -8   7    0.30    0.18 
  -7  -8   7    0.72    0.23 
  -6  -8   7    0.55    0.22 
  -5  -8   7    2.65    0.34 
  -4  -8   7    0.45    0.12 
  -4  -8   7    0.33    0.16 
  -3  -8   7    2.32    0.21 
  -3  -8   7    1.89    0.25 
  -2  -8   7    9.58    0.51 
  -2  -8   7    9.20    0.46 
  -1  -8   7    4.37    0.29 
  -1  -8   7    4.35    0.29 
   0  -8   7    1.34    0.18 
   0  -8   7    1.40    0.16 
   1  -8   7    3.26    0.22 
   1  -8   7    4.31    0.29 
   2  -8   7    9.12    0.50 
   2  -8   7    8.11    0.39 
   3  -8   7    1.67    0.24 
   4  -8   7    0.43    0.15 
   5  -8   7    1.90    0.29 
   6  -8   7    0.69    0.23 
   7  -8   7    0.66    0.26 
  -8  -7   7    0.35    0.20 
  -7  -7   7    1.35    0.28 
  -6  -7   7    0.61    0.19 
  -5  -7   7    2.35    0.32 
  -5  -7   7    2.29    0.22 
  -4  -7   7    3.59    0.35 
  -4  -7   7    3.43    0.25 
  -3  -7   7   11.00    0.50 
  -3  -7   7   10.29    0.57 
  -2  -7   7   11.30    0.55 
  -2  -7   7   10.62    0.50 
  -1  -7   7   10.44    0.49 
  -1  -7   7   10.06    0.48 
   0  -7   7   21.30    0.88 
   0  -7   7   21.43    0.84 
   1  -7   7    4.97    0.26 
   2  -7   7    9.08    0.41 
   2  -7   7   10.23    0.52 
   3  -7   7    8.98    0.42 
   3  -7   7    9.85    0.53 
   4  -7   7    3.05    0.32 
   5  -7   7    2.10    0.30 
   6  -7   7    0.40    0.18 
   7  -7   7    1.39    0.30 
   8  -7   7    0.39    0.24 
  -8  -6   7    2.45    0.37 
  -7  -6   7    0.91    0.23 
  -6  -6   7    0.29    0.17 
  -6  -6   7    0.73    0.15 
  -5  -6   7    4.12    0.39 
  -5  -6   7    3.29    0.26 
  -4  -6   7   18.01    0.85 
  -4  -6   7   17.39    0.74 
  -3  -6   7    3.15    0.29 
  -3  -6   7    3.27    0.22 
  -2  -6   7    3.35    0.22 
  -2  -6   7    3.47    0.26 
  -1  -6   7    3.86    0.24 
  -1  -6   7    3.64    0.24 
   0  -6   7   38.48    1.40 
   0  -6   7   37.54    1.42 
   1  -6   7    3.53    0.26 
   1  -6   7    4.13    0.21 
   2  -6   7    3.51    0.19 
   2  -6   7    3.16    0.25 
   3  -6   7    3.03    0.18 
   3  -6   7    2.89    0.27 
  -4   6  -7   16.58    0.74 
   4  -6   7   18.11    0.83 
  -5   6  -7    3.59    0.26 
   5  -6   7    3.74    0.37 
   6  -6   7    0.58    0.21 
   7  -6   7    1.03    0.26 
   8  -6   7    1.24    0.30 
  -8  -5   7    1.61    0.30 
  -7  -5   7    1.08    0.24 
  -6  -5   7    4.31    0.41 
  -6  -5   7    4.40    0.31 
  -5  -5   7    5.07    0.32 
  -5  -5   7    4.81    0.39 
  -4  -5   7    5.60    0.32 
  -4  -5   7    5.80    0.41 
  -3  -5   7    3.38    0.27 
  -3  -5   7    3.60    0.23 
  -2  -5   7   24.24    0.93 
  -2  -5   7   23.86    0.98 
  -1  -5   7   39.12    1.44 
  -1  -5   7   37.98    1.41 
   0  -5   7    0.41    0.07 
   0  -5   7    0.91    0.12 
   1  -5   7   38.62    1.42 
   1  -5   7   37.09    1.35 
   2  -5   7   23.17    0.94 
   2  -5   7   23.06    0.84 
  -3   5  -7    3.71    0.24 
   3  -5   7    3.60    0.19 
   3  -5   7    3.49    0.27 
  -4   5  -7    4.80    0.29 
   4  -5   7    5.40    0.37 
  -5   5  -7    5.47    0.32 
   5  -5   7    5.08    0.39 
   6  -5   7    4.00    0.40 
   7  -5   7    0.91    0.24 
   8  -5   7    1.15    0.29 
  -9  -4   7    1.08    0.28 
  -8  -4   7    0.06    0.14 
  -7  -4   7    0.75    0.17 
  -6  -4   7    4.50    0.33 
  -5  -4   7    7.27    0.40 
  -4  -4   7    2.59    0.21 
  -3  -4   7   40.17    1.48 
  -2  -4   7    2.34    0.16 
  -2  -4   7    1.80    0.19 
  -1  -4   7    4.02    0.24 
  -1  -4   7    4.17    0.23 
   0  -4   7    4.55    0.25 
   1  -4   7    4.30    0.19 
   1  -4   7    3.95    0.24 
  -2   4  -7    2.48    0.18 
   2  -4   7    2.20    0.20 
   2  -4   7    2.22    0.12 
  -3   4  -7   37.75    1.45 
   3  -4   7   37.87    1.46 
  -4   4  -7    2.57    0.20 
   4  -4   7    1.95    0.24 
  -5   4  -7    6.90    0.39 
   5  -4   7    7.14    0.45 
  -6   4  -7    3.76    0.28 
   6  -4   7    4.33    0.39 
   7  -4   7    0.60    0.20 
   8  -4   7    0.23    0.17 
   9  -4   7    1.09    0.31 
  -8  -3   7    0.71    0.18 
  -7  -3   7    0.86    0.18 
  -6  -3   7    7.99    0.46 
  -5  -3   7    4.52    0.31 
  -4  -3   7    0.08    0.08 
  -3  -3   7   13.44    0.58 
  -2  -3   7    0.45    0.09 
  -1  -3   7   60.20    2.12 
   0  -3   7   10.07    0.43 
   0  -3   7   11.09    0.45 
  -1   3  -7   57.75    2.19 
   1  -3   7   58.94    2.11 
   1  -3   7   61.39    2.05 
  -2   3  -7    0.56    0.10 
   2  -3   7    0.59    0.11 
  -3   3  -7   13.60    0.59 
   3  -3   7   12.76    0.59 
  -4   3  -7    0.30    0.09 
   4  -3   7    0.09    0.08 
  -5   3  -7    4.04    0.28 
   5  -3   7    3.54    0.31 
  -6   3  -7    8.00    0.45 
   6  -3   7    7.13    0.48 
  -7   3  -7    0.65    0.16 
   7  -3   7    0.75    0.20 
   8  -3   7    1.14    0.27 
   9  -3   7   -0.07    0.19 
  -9  -2   7    0.51    0.19 
  -8  -2   7    1.17    0.23 
  -7  -2   7    0.15    0.11 
  -6  -2   7    1.15    0.19 
  -5  -2   7    2.66    0.25 
  -4  -2   7    7.62    0.40 
  -3  -2   7    9.41    0.45 
  -2  -2   7    8.90    0.40 
  -1  -2   7   30.38    1.11 
   0  -2   7    0.92    0.10 
  -1   2  -7   30.35    1.15 
   1  -2   7   30.88    1.05 
   1  -2   7   28.60    1.10 
  -2   2  -7    8.55    0.41 
   2  -2   7    8.81    0.40 
  -3   2  -7    8.08    0.41 
   3  -2   7    8.17    0.41 
  -4   2  -7    8.20    0.43 
   4  -2   7    7.97    0.43 
  -5   2  -7    2.69    0.23 
   5  -2   7    2.69    0.26 
  -6   2  -7    1.24    0.20 
   6  -2   7    1.00    0.20 
  -7   2  -7    0.11    0.11 
   7  -2   7   -0.01    0.13 
   8  -2   7    0.82    0.23 
   9  -2   7    0.45    0.24 
  -9  -1   7    1.28    0.26 
  -8  -1   7    0.64    0.19 
  -7  -1   7    1.02    0.21 
  -6  -1   7    0.35    0.14 
  -5  -1   7    4.22    0.31 
  -4  -1   7    6.00    0.36 
  -3  -1   7   25.16    0.99 
  -2  -1   7    3.38    0.21 
  -1  -1   7   20.63    0.78 
   0   1  -7   17.60    0.71 
   0  -1   7   18.41    0.68 
  -1   1  -7   20.72    0.83 
   1  -1   7   20.85    0.78 
  -2   1  -7    3.40    0.21 
   2  -1   7    3.28    0.20 
  -3   1  -7   25.90    1.07 
  -3   1  -7   26.80    0.94 
   3  -1   7   27.17    1.03 
  -4   1  -7    5.49    0.34 
  -4   1  -7    5.49    0.26 
   4  -1   7    5.77    0.33 
  -5   1  -7    4.21    0.24 
  -5   1  -7    4.63    0.32 
   5  -1   7    4.40    0.30 
  -6   1  -7    0.40    0.13 
   6  -1   7    0.41    0.15 
  -7   1  -7    1.21    0.22 
   7  -1   7    0.58    0.19 
  -8   1  -7    0.83    0.20 
   8  -1   7    1.19    0.25 
  -9   0   7   -0.16    0.15 
  -8   0   7    0.06    0.13 
  -7   0   7    1.84    0.28 
  -6   0   7    0.30    0.14 
  -5   0   7    9.64    0.53 
  -4   0   7   22.09    0.93 
  -3   0   7   11.43    0.53 
  -2   0   7   77.45    2.73 
  -1   0   7   59.05    2.08 
   0   0  -7    0.01    0.03 
   0   0  -7    0.00    0.03 
   0   0   7   -0.02    0.03 
  -1   0  -7   58.73    2.00 
  -1   0  -7   55.83    2.12 
   1   0   7   58.32    2.01 
  -2   0  -7   76.01    2.57 
  -2   0  -7   73.08    2.75 
   2   0   7   75.46    2.61 
  -3   0  -7   11.80    0.57 
  -3   0  -7   12.09    0.46 
   3   0   7   12.13    0.51 
  -4   0  -7   20.00    0.76 
  -4   0  -7   19.80    0.89 
   4   0   7   20.15    0.82 
  -5   0  -7    9.10    0.42 
  -5   0  -7    8.91    0.52 
   5   0   7    9.59    0.48 
  -6   0  -7    0.41    0.10 
  -6   0  -7    0.44    0.15 
   6   0   7    0.53    0.14 
  -7   0  -7    2.16    0.31 
   7   0   7    2.38    0.28 
  -8   0  -7    0.13    0.15 
  -9   0  -7    0.09    0.18 
  -9   1   7    1.38    0.31 
  -8   1   7    0.77    0.22 
  -7   1   7    0.94    0.21 
  -6   1   7    0.10    0.12 
  -5   1   7    3.96    0.32 
  -4   1   7    6.01    0.38 
  -3   1   7   26.64    1.06 
   2  -1  -7    3.22    0.22 
  -2   1   7    3.38    0.22 
   1  -1  -7   19.94    0.76 
   1  -1  -7   20.12    0.77 
  -1   1   7   19.15    0.75 
   0  -1  -7   18.45    0.68 
   0  -1  -7   17.99    0.71 
   0   1   7   17.46    0.67 
  -1  -1  -7   19.97    0.77 
  -1  -1  -7   19.79    0.69 
   1   1   7   16.78    0.68 
  -2  -1  -7    3.68    0.17 
  -2  -1  -7    3.12    0.23 
  -3  -1  -7   27.29    1.13 
  -3  -1  -7   27.21    0.99 
  -4  -1  -7    5.53    0.37 
  -4  -1  -7    5.61    0.28 
  -5  -1  -7    4.32    0.26 
  -5  -1  -7    4.46    0.34 
  -6  -1  -7    0.16    0.12 
  -6  -1  -7    0.22    0.10 
   6   1   7    0.35    0.11 
  -7  -1  -7    1.05    0.23 
   7   1   7    0.78    0.20 
  -8  -1  -7    0.91    0.23 
  -9  -1  -7    1.34    0.30 
  -9   2   7    0.40    0.19 
  -8   2   7    1.13    0.25 
  -7   2   7    0.01    0.10 
  -6   2   7    0.94    0.20 
  -5   2   7    2.57    0.28 
  -4   2   7    8.61    0.48 
   3  -2  -7    9.04    0.46 
  -3   2   7    8.29    0.45 
   2  -2  -7    9.08    0.43 
  -2   2   7    8.67    0.43 
   1  -2  -7   30.18    1.10 
  -1   2   7   28.42    1.08 
   0  -2  -7    0.81    0.09 
   0  -2  -7    0.79    0.09 
   0   2   7    0.51    0.07 
  -1  -2  -7   28.74    1.05 
  -1  -2  -7   27.90    1.13 
   1   2   7   30.42    1.03 
  -2  -2  -7    8.84    0.36 
  -2  -2  -7    8.51    0.44 
   2   2   7    8.54    0.35 
  -3  -2  -7    9.30    0.39 
  -3  -2  -7    8.68    0.48 
   3   2   7    8.84    0.38 
  -4  -2  -7    8.73    0.50 
  -4  -2  -7    8.53    0.39 
   4   2   7    8.62    0.39 
  -5  -2  -7    2.60    0.20 
  -5  -2  -7    2.95    0.31 
   5   2   7    2.38    0.20 
  -6  -2  -7    1.23    0.23 
  -6  -2  -7    0.96    0.15 
   6   2   7    1.07    0.16 
  -7  -2  -7    0.00    0.12 
  -8  -2  -7    0.70    0.22 
  -9  -2  -7    0.50    0.23 
  -9   3   7    0.00    0.16 
  -8   3   7    0.89    0.24 
  -7   3   7    0.57    0.18 
  -6   3   7    7.99    0.54 
  -5   3   7    4.20    0.35 
   4  -3  -7    0.09    0.09 
  -4   3   7    0.03    0.07 
   3  -3  -7   12.92    0.63 
  -3   3   7   14.54    0.65 
   2  -3  -7    0.45    0.10 
  -2   3   7    0.53    0.11 
   1  -3  -7   55.59    2.06 
   1  -3  -7   57.42    2.08 
  -1   3   7   59.17    2.05 
   0  -3  -7   10.43    0.45 
   0  -3  -7   10.31    0.44 
  -1  -3  -7   58.81    2.17 
  -1  -3  -7   57.21    2.04 
   1   3   7   58.02    1.99 
  -2  -3  -7    0.58    0.12 
  -2  -3  -7    0.54    0.08 
   2   3   7    0.41    0.05 
  -3  -3  -7   14.64    0.59 
   3   3   7   14.05    0.54 
  -4  -3  -7    0.18    0.07 
   4   3   7    0.20    0.07 
  -5  -3  -7    4.39    0.28 
  -6  -3  -7    7.28    0.41 
  -6  -3  -7    7.61    0.53 
  -7  -3  -7    0.58    0.15 
  -7  -3  -7    0.42    0.19 
  -8  -3  -7    1.16    0.26 
  -9  -3  -7    0.03    0.17 
  -9   4   7    1.28    0.30 
  -8   4   7    0.08    0.12 
  -7   4   7    0.65    0.20 
  -6   4   7    4.36    0.41 
  -5   4   7    7.41    0.50 
   4  -4  -7    2.35    0.26 
  -4   4   7    1.90    0.25 
   3  -4  -7   36.88    1.46 
  -3   4   7   38.23    1.47 
   2  -4  -7    2.04    0.20 
  -2   4   7    2.58    0.20 
   1  -4  -7    3.89    0.24 
   1  -4  -7    4.11    0.20 
  -1   4   7    3.92    0.24 
   0  -4  -7    3.18    0.22 
   0  -4  -7    4.83    0.24 
   0   4   7    4.47    0.22 
  -1  -4  -7    4.32    0.23 
  -1  -4  -7    3.86    0.26 
   1   4   7    3.95    0.18 
  -2  -4  -7    2.47    0.17 
  -3  -4  -7   37.90    1.40 
  -4  -4  -7    2.59    0.21 
  -5  -4  -7    7.23    0.39 
  -6  -4  -7    4.11    0.29 
  -7  -4  -7    0.39    0.14 
  -8  -4  -7    0.10    0.16 
  -9  -4  -7    1.65    0.34 
  -9   5   7    1.03    0.28 
  -8   5   7    1.59    0.31 
  -7   5   7    1.30    0.27 
  -6   5   7    3.97    0.41 
   5  -5  -7    5.25    0.41 
   5  -5  -7    5.00    0.38 
   4  -5  -7    5.16    0.38 
   4  -5  -7    5.15    0.36 
   3  -5  -7    2.84    0.27 
   3  -5  -7    3.49    0.26 
   2  -5  -7   20.95    0.89 
   2  -5  -7   21.11    0.88 
   2  -5  -7   22.13    0.79 
   1  -5  -7   34.19    1.35 
   1  -5  -7   37.16    1.34 
  -1   5   7   36.07    1.34 
   0  -5  -7    0.79    0.11 
   0   5   7    0.93    0.10 
  -1  -5  -7   35.11    1.34 
   1   5   7   36.90    1.26 
  -2  -5  -7   22.03    0.87 
  -3  -5  -7    3.51    0.24 
  -4  -5  -7    5.25    0.31 
  -5  -5  -7    5.52    0.34 
  -6  -5  -7    4.62    0.33 
  -7  -5  -7    1.03    0.18 
  -8  -5  -7    1.18    0.28 
  -9  -5  -7    0.73    0.27 
  -8   6   7    1.53    0.31 
  -7   6   7    1.03    0.26 
   6  -6  -7    0.62    0.18 
   5  -6  -7    4.24    0.38 
   5  -6  -7    3.61    0.37 
   4  -6  -7   18.20    0.86 
   4  -6  -7   17.85    0.84 
   3  -6  -7    3.31    0.26 
   3  -6  -7    3.27    0.27 
   2  -6  -7    3.22    0.24 
   2  -6  -7    3.57    0.25 
   1  -6  -7    3.50    0.24 
   1  -6  -7    3.62    0.21 
  -1   6   7    3.67    0.24 
   0  -6  -7   35.30    1.32 
   0   6   7   34.45    1.27 
  -1  -6  -7    3.69    0.23 
   1   6   7    3.41    0.16 
  -2  -6  -7    3.31    0.23 
  -3  -6  -7    3.25    0.24 
  -4  -6  -7   17.72    0.77 
  -5  -6  -7    3.92    0.29 
  -6  -6  -7    0.87    0.18 
  -7  -6  -7    1.21    0.21 
  -8  -6  -7    1.72    0.28 
  -8   7   7    0.41    0.26 
   7  -7  -7    1.40    0.28 
   6  -7  -7    0.65    0.20 
   6  -7  -7    0.50    0.17 
   5  -7  -7    2.05    0.29 
   5  -7  -7    2.48    0.33 
   4  -7  -7    3.21    0.33 
   4  -7  -7    3.55    0.33 
   3  -7  -7    9.33    0.52 
   3  -7  -7    9.19    0.50 
   2  -7  -7    8.69    0.48 
   2  -7  -7    9.15    0.47 
   1  -7  -7    9.49    0.46 
   1  -7  -7    9.68    0.44 
   1  -7  -7    9.63    0.48 
   0  -7  -7   17.87    0.79 
   0   7   7   19.96    0.76 
  -1  -7  -7    8.59    0.43 
  -2  -7  -7    9.87    0.48 
  -3  -7  -7   10.35    0.52 
  -4  -7  -7    3.65    0.28 
  -5  -7  -7    2.44    0.26 
  -6  -7  -7    0.56    0.16 
  -7  -7  -7    1.78    0.26 
  -8  -7  -7    0.37    0.18 
  -8   8   7   -0.01    0.22 
   7  -8  -7    0.94    0.24 
   6  -8  -7    0.81    0.21 
   6  -8  -7    0.72    0.24 
   5  -8  -7    2.38    0.33 
   5  -8  -7    2.54    0.32 
   4  -8  -7    0.45    0.16 
   4  -8  -7    0.48    0.16 
   3  -8  -7    2.12    0.26 
   3  -8  -7    2.37    0.26 
   2  -8  -7    7.97    0.47 
   2  -8  -7    8.48    0.45 
   1  -8  -7    4.32    0.28 
   1  -8  -7    4.31    0.31 
   0  -8  -7    0.96    0.16 
   0   8   7    1.26    0.14 
  -1  -8  -7    3.97    0.28 
  -2  -8  -7    8.93    0.46 
  -3  -8  -7    1.99    0.22 
  -4  -8  -7    0.36    0.13 
  -5  -8  -7    1.98    0.25 
  -6  -8  -7    0.54    0.17 
  -7  -8  -7    0.78    0.20 
  -8  -8  -7    0.01    0.16 
   7  -9  -7    0.28    0.19 
   6  -9  -7    0.23    0.20 
   6  -9  -7    0.30    0.16 
   5  -9  -7    1.23    0.23 
   5  -9  -7    0.95    0.25 
   4  -9  -7    1.76    0.26 
   4  -9  -7    1.15    0.24 
   3  -9  -7    0.41    0.14 
   3  -9  -7    0.50    0.16 
   2  -9  -7    4.51    0.34 
   2  -9  -7    3.99    0.30 
   1  -9  -7    1.75    0.23 
   1  -9  -7    2.03    0.21 
   0  -9  -7    2.83    0.27 
  -1  -9  -7    1.98    0.22 
  -2  -9  -7    4.68    0.33 
  -3  -9  -7    0.55    0.15 
  -4  -9  -7    1.67    0.23 
  -5  -9  -7    1.14    0.21 
  -6  -9  -7    0.17    0.14 
  -7  -9  -7    0.53    0.18 
   6 -10  -7    0.50    0.19 
   6 -10  -7    0.54    0.25 
   5 -10  -7    0.17    0.17 
   5 -10  -7    0.06    0.13 
   4 -10  -7    0.66    0.21 
   4 -10  -7    1.45    0.25 
   3 -10  -7    1.17    0.21 
   3 -10  -7    1.31    0.25 
   2 -10  -7    0.42    0.15 
   2 -10  -7    0.51    0.14 
   1 -10  -7    0.20    0.12 
   0 -10  -7    5.46    0.37 
  -1 -10  -7    0.34    0.13 
  -2 -10  -7    0.40    0.14 
  -3 -10  -7    1.20    0.21 
  -4 -10  -7    0.87    0.19 
  -5 -10  -7    0.01    0.12 
  -6 -10  -7    0.68    0.19 
   6 -11  -7    0.26    0.24 
   6 -11  -7    0.28    0.18 
   5 -11  -7    0.59    0.25 
   5 -11  -7    0.34    0.16 
   4 -11  -7    1.28    0.28 
   4 -11  -7    1.23    0.24 
   3 -11  -7    1.95    0.27 
   3 -11  -7    2.20    0.32 
   2 -11  -7    1.68    0.27 
   1 -11  -7    0.91    0.21 
   0 -11  -7    2.76    0.30 
  -1 -11  -7    0.94    0.19 
  -2 -11  -7    1.49    0.23 
  -3 -11  -7    1.95    0.26 
  -4 -11  -7    0.85    0.19 
  -5 -11  -7    0.56    0.18 
  -6 -11  -7    0.31    0.18 
   5 -12  -7    0.11    0.23 
   5 -12  -7    0.50    0.20 
   4 -12  -7    0.29    0.20 
   4 -12  -7    0.27    0.16 
   3 -12  -7    1.52    0.29 
   2 -12  -7    1.24    0.26 
   1 -12  -7    0.44    0.18 
   0 -12  -7    0.01    0.12 
  -1 -12  -7    0.45    0.17 
  -2 -12  -7    1.23    0.21 
  -3 -12  -7    1.32    0.23 
  -4 -12  -7    0.13    0.13 
  -5 -12  -7    0.45    0.20 
   4 -13  -7    0.87    0.27 
   3 -13  -7    0.65    0.25 
   2 -13  -7    0.48    0.22 
   1 -13  -7    0.85    0.23 
   0 -13  -7    0.21    0.15 
  -1 -13  -7    1.24    0.24 
  -2 -13  -7    0.77    0.21 
  -3 -13  -7    0.54    0.18 
  -4 -13  -7    0.78    0.21 
   2 -14  -7    0.40    0.22 
   1 -14  -7    0.45    0.21 
   0 -14  -7    0.36    0.20 
  -1 -14  -7    0.47    0.20 
  -2 -14  -7    0.26    0.20 
  -2 -14   8    0.87    0.24 
  -1 -14   8    0.17    0.22 
   2 -14   8    1.02    0.28 
  -4 -13   8    0.46    0.24 
  -3 -13   8    1.08    0.26 
  -2 -13   8    1.06    0.24 
  -1 -13   8    0.15    0.16 
   1 -13   8    0.21    0.15 
   2 -13   8    0.86    0.23 
   3 -13   8    0.89    0.25 
   4 -13   8    0.33    0.21 
  -5 -12   8    0.92    0.30 
  -4 -12   8    0.46    0.23 
  -3 -12   8    2.26    0.32 
  -2 -12   8    0.13    0.16 
  -1 -12   8    1.67    0.25 
   0 -12   8    0.29    0.14 
   0 -12   8    0.21    0.14 
   1 -12   8    2.09    0.30 
   2 -12   8    0.20    0.14 
   3 -12   8    1.72    0.29 
   4 -12   8    0.01    0.15 
   5 -12   8    1.10    0.29 
  -6 -11   8   -0.18    0.21 
  -5 -11   8    0.87    0.26 
  -4 -11   8    1.06    0.26 
  -3 -11   8    1.10    0.24 
  -2 -11   8    0.50    0.18 
  -1 -11   8    2.25    0.27 
  -1 -11   8    2.17    0.26 
   0 -11   8    0.15    0.13 
   0 -11   8    0.16    0.12 
   1 -11   8    2.33    0.30 
   2 -11   8    0.64    0.19 
   3 -11   8    0.82    0.21 
   4 -11   8    1.11    0.25 
   5 -11   8    1.02    0.25 
   6 -11   8   -0.08    0.16 
  -6 -10   8    1.29    0.29 
  -5 -10   8    0.16    0.18 
  -4 -10   8    0.12    0.16 
  -3 -10   8    0.08    0.15 
  -2 -10   8    3.07    0.28 
  -2 -10   8    2.70    0.29 
  -1 -10   8    2.11    0.24 
  -1 -10   8    1.78    0.22 
   0 -10   8    0.12    0.11 
   0 -10   8    0.19    0.12 
   1 -10   8    1.71    0.20 
   1 -10   8    1.69    0.25 
   2 -10   8    2.79    0.32 
   3 -10   8    0.24    0.15 
   4 -10   8    0.04    0.13 
   5 -10   8    0.34    0.16 
   6 -10   8    1.22    0.30 
  -7  -9   8    0.25    0.22 
  -6  -9   8    0.23    0.19 
  -5  -9   8    1.03    0.25 
  -4  -9   8    1.09    0.24 
  -3  -9   8    4.06    0.29 
  -3  -9   8    3.83    0.35 
  -2  -9   8    4.42    0.34 
  -2  -9   8    4.23    0.30 
  -1  -9   8    2.84    0.26 
  -1  -9   8    2.41    0.24 
   0  -9   8    0.94    0.15 
   0  -9   8    0.84    0.18 
   1  -9   8    2.39    0.26 
   1  -9   8    1.36    0.15 
   2  -9   8    4.35    0.37 
   3  -9   8    3.59    0.35 
   4  -9   8    1.38    0.25 
   5  -9   8    0.95    0.23 
   6  -9   8    0.40    0.17 
   7  -9   8    0.04    0.23 
  -7  -8   8    0.79    0.27 
  -6  -8   8    0.03    0.16 
  -5  -8   8    2.97    0.36 
  -4  -8   8    1.69    0.19 
  -4  -8   8    1.92    0.29 
  -3  -8   8    2.37    0.28 
  -3  -8   8    2.38    0.22 
  -2  -8   8    2.72    0.24 
  -2  -8   8    2.50    0.26 
  -1  -8   8    2.20    0.21 
  -1  -8   8    1.95    0.22 
   0  -8   8    1.11    0.14 
   0  -8   8    0.91    0.16 
   1  -8   8    0.85    0.11 
   1  -8   8    1.84    0.22 
   2  -8   8    2.20    0.17 
   2  -8   8    2.64    0.28 
   3  -8   8    2.45    0.29 
   4  -8   8    1.40    0.25 
   5  -8   8    2.65    0.35 
   6  -8   8    0.37    0.21 
   7  -8   8    1.18    0.31 
  -8  -7   8    0.72    0.24 
  -7  -7   8    0.32    0.19 
  -6  -7   8    0.57    0.22 
  -5  -7   8    0.58    0.14 
  -5  -7   8    0.34    0.18 
  -4  -7   8    3.31    0.25 
  -4  -7   8    3.83    0.36 
  -3  -7   8    1.20    0.21 
  -3  -7   8    1.33    0.17 
  -2  -7   8    4.34    0.28 
  -2  -7   8    4.98    0.33 
  -1  -7   8    1.47    0.17 
  -1  -7   8    1.18    0.16 
   0  -7   8    5.63    0.30 
   0  -7   8    5.76    0.34 
   1  -7   8    1.41    0.13 
   1  -7   8    1.29    0.18 
   2  -7   8    4.17    0.23 
   2  -7   8    4.11    0.30 
   3  -7   8    1.20    0.21 
   4  -7   8    3.60    0.35 
   5  -7   8    0.51    0.18 
   6  -7   8    0.38    0.18 
   7  -7   8    0.31    0.21 
   8  -7   8    0.44    0.26 
  -8  -6   8    0.07    0.16 
  -7  -6   8    0.99    0.24 
  -6  -6   8    2.38    0.34 
  -6  -6   8    3.32    0.28 
  -5  -6   8    0.70    0.14 
  -5  -6   8    0.60    0.18 
  -4  -6   8    0.31    0.16 
  -4  -6   8    0.73    0.13 
  -3  -6   8    4.21    0.32 
  -3  -6   8    4.00    0.26 
  -2  -6   8   18.26    0.75 
  -2  -6   8   18.04    0.80 
  -1  -6   8    2.36    0.20 
  -1  -6   8    2.51    0.20 
   0  -6   8    6.01    0.30 
   1  -6   8    2.47    0.16 
   1  -6   8    2.11    0.21 
   2  -6   8   16.11    0.59 
   2  -6   8   14.10    0.69 
   3  -6   8    3.09    0.29 
  -4   6  -8    0.39    0.12 
   4  -6   8    0.36    0.14 
  -5   6  -8    0.53    0.12 
   5  -6   8    0.74    0.20 
   6  -6   8    3.47    0.40 
   7  -6   8    0.97    0.26 
   8  -6   8    0.08    0.21 
  -8  -5   8    0.03    0.16 
  -7  -5   8    0.00    0.13 
  -7  -5   8    0.22    0.11 
  -6  -5   8    1.16    0.19 
  -6  -5   8    1.09    0.24 
  -5  -5   8    6.57    0.47 
  -5  -5   8    6.64    0.38 
  -4  -5   8    6.43    0.36 
  -4  -5   8    6.23    0.43 
  -3  -5   8    9.52    0.52 
  -3  -5   8   10.28    0.47 
  -2  -5   8    6.39    0.38 
  -2  -5   8    6.87    0.35 
  -1  -5   8    3.72    0.24 
  -1  -5   8    3.71    0.23 
   0  -5   8   79.21    2.80 
   1  -5   8    3.93    0.26 
   1  -5   8    3.62    0.19 
   2  -5   8    6.54    0.28 
   2  -5   8    7.46    0.39 
  -3   5  -8    9.56    0.47 
   3  -5   8    9.67    0.39 
   3  -5   8    9.54    0.51 
  -4   5  -8    5.72    0.33 
   4  -5   8    5.31    0.38 
  -5   5  -8    5.93    0.35 
   5  -5   8    5.83    0.43 
   6  -5   8    1.55    0.28 
   7  -5   8   -0.07    0.14 
   8  -5   8    0.26    0.20 
  -9  -4   8    0.75    0.25 
  -8  -4   8    1.19    0.26 
  -7  -4   8    0.39    0.14 
  -6  -4   8    0.97    0.17 
  -5  -4   8    2.10    0.22 
  -4  -4   8   12.43    0.57 
  -3  -4   8   38.57    1.44 
  -2  -4   8   21.38    0.84 
  -1  -4   8   30.43    1.15 
  -1  -4   8   29.64    1.12 
   0  -4   8    1.00    0.13 
   0  -4   8    0.71    0.09 
   1  -4   8   29.81    1.16 
   1  -4   8   30.90    1.08 
  -2   4  -8   20.51    0.85 
   2  -4   8   20.47    0.85 
   2  -4   8   20.84    0.74 
  -3   4  -8   37.30    1.46 
   3  -4   8   38.35    1.47 
  -4   4  -8   10.77    0.52 
   4  -4   8   10.85    0.56 
  -5   4  -8    1.94    0.21 
   5  -4   8    1.58    0.24 
  -6   4  -8    0.96    0.17 
   6  -4   8    0.59    0.20 
   7  -4   8    0.44    0.19 
   8  -4   8    0.79    0.26 
   9  -4   8    0.34    0.25 
  -8  -3   8    0.11    0.13 
  -7  -3   8    1.63    0.24 
  -6  -3   8    2.17    0.26 
  -5  -3   8    3.28    0.26 
  -4  -3   8    2.68    0.22 
  -3  -3   8    4.61    0.27 
  -2  -3   8   10.54    0.47 
  -1  -3   8  100.80    3.50 
   0  -3   8    1.37    0.11 
   0  -3   8    1.46    0.13 
  -1   3  -8  100.47    3.64 
   1  -3   8  103.62    3.45 
   1  -3   8   97.39    3.50 
  -2   3  -8    9.57    0.45 
   2  -3   8    9.54    0.45 
  -3   3  -8    4.42    0.28 
   3  -3   8    4.19    0.28 
  -4   3  -8    2.58    0.21 
   4  -3   8    2.54    0.25 
  -5   3  -8    2.82    0.24 
   5  -3   8    2.87    0.29 
  -6   3  -8    2.17    0.23 
   6  -3   8    1.88    0.28 
  -7   3  -8    2.04    0.25 
   7  -3   8    2.04    0.30 
   8  -3   8   -0.04    0.16 
   9  -3   8    1.64    0.33 
  -9  -2   8    0.80    0.22 
  -8  -2   8    0.18    0.14 
  -7  -2   8    2.12    0.28 
  -6  -2   8    4.43    0.33 
  -5  -2   8    3.85    0.29 
  -4  -2   8    7.82    0.42 
  -3  -2   8   12.34    0.56 
  -2  -2   8   35.95    1.33 
  -1  -2   8   57.88    2.05 
   0   2  -8   53.72    2.01 
   0  -2   8   54.95    1.92 
  -1   2  -8   55.45    2.14 
   1  -2   8   59.00    2.06 
   1  -2   8   59.10    2.00 
  -2   2  -8   34.71    1.37 
   2  -2   8   36.20    1.32 
  -3   2  -8   11.29    0.52 
   3  -2   8   10.89    0.51 
  -4   2  -8    6.11    0.37 
  -4   2  -8    7.29    0.28 
   4  -2   8    6.32    0.38 
  -5   2  -8    3.24    0.26 
   5  -2   8    3.24    0.29 
  -6   2  -8    4.27    0.31 
   6  -2   8    3.35    0.33 
  -7   2  -8    2.25    0.27 
   7  -2   8    2.08    0.29 
  -8   2  -8    0.23    0.14 
   8  -2   8    0.21    0.17 
   9  -2   8    0.43    0.26 
  -9  -1   8    0.21    0.19 
  -8  -1   8    3.44    0.39 
  -7  -1   8    1.48    0.26 
  -6  -1   8    2.53    0.29 
  -5  -1   8    1.76    0.23 
  -4  -1   8    9.13    0.47 
  -3  -1   8    9.99    0.48 
  -2  -1   8   13.29    0.57 
  -1  -1   8   59.81    2.11 
   0   1  -8    0.90    0.11 
   0  -1   8    0.97    0.10 
  -1   1  -8   61.74    2.23 
   1  -1   8   59.00    2.12 
  -2   1  -8   12.37    0.57 
   2  -1   8   13.16    0.54 
  -3   1  -8    9.71    0.35 
  -3   1  -8    9.35    0.48 
   3  -1   8    9.52    0.45 
  -4   1  -8    9.63    0.38 
  -4   1  -8    8.84    0.48 
   4  -1   8    9.09    0.46 
  -5   1  -8    1.46    0.20 
   5  -1   8    1.15    0.17 
  -6   1  -8    2.68    0.29 
   6  -1   8    2.50    0.27 
  -7   1  -8    1.05    0.21 
   7  -1   8    0.97    0.22 
  -8   1  -8    3.01    0.36 
   8  -1   8    2.37    0.33 
  -9   0   8    0.36    0.19 
  -8   0   8    1.11    0.24 
  -7   0   8    1.29    0.24 
  -6   0   8    0.72    0.17 
  -5   0   8    6.78    0.43 
  -4   0   8    7.94    0.44 
  -3   0   8    0.22    0.08 
  -2   0   8    8.10    0.39 
  -1   0   8    2.78    0.17 
   0   0  -8  205.92    7.02 
   0   0  -8  204.89    7.27 
   0   0   8  203.73    6.96 
  -1   0  -8    3.10    0.15 
  -1   0  -8    2.53    0.19 
   1   0   8    2.95    0.17 
  -2   0  -8    8.47    0.41 
  -2   0  -8    8.06    0.31 
   2   0   8    8.16    0.36 
  -3   0  -8    0.11    0.07 
  -3   0  -8    0.20    0.04 
   3   0   8    0.12    0.06 
  -4   0  -8    8.06    0.34 
  -4   0  -8    7.45    0.44 
   4   0   8    8.35    0.41 
  -5   0  -8    6.95    0.44 
  -5   0  -8    7.04    0.33 
   5   0   8    6.73    0.39 
  -6   0  -8    0.67    0.18 
   6   0   8    0.71    0.16 
  -7   0  -8    0.65    0.19 
   7   0   8    1.25    0.23 
  -8   0  -8    0.92    0.23 
  -9   0  -8    0.61    0.22 
  -9   1   8    0.74    0.24 
  -8   1   8    3.26    0.40 
  -7   1   8    0.70    0.18 
  -6   1   8    2.12    0.28 
  -5   1   8    1.43    0.22 
  -4   1   8   10.56    0.55 
  -3   1   8    8.60    0.45 
   2  -1  -8   12.20    0.56 
  -2   1   8   13.09    0.55 
   1  -1  -8   57.21    2.08 
   1  -1  -8   59.13    2.12 
  -1   1   8   58.09    2.06 
   0  -1  -8    0.84    0.10 
   0  -1  -8    0.91    0.10 
   0   1   8    0.86    0.09 
  -1  -1  -8   58.38    2.02 
  -1  -1  -8   53.42    2.14 
   1   1   8   61.54    2.02 
  -2  -1  -8   12.44    0.59 
  -2  -1  -8   13.66    0.50 
  -3  -1  -8    9.38    0.50 
  -3  -1  -8    9.79    0.39 
  -4  -1  -8    9.69    0.53 
  -4  -1  -8    9.85    0.42 
  -5  -1  -8    1.69    0.15 
  -5  -1  -8    1.48    0.23 
  -6  -1  -8    2.89    0.33 
   6   1   8    2.31    0.24 
  -7  -1  -8    1.10    0.23 
  -8  -1  -8    3.40    0.42 
  -9  -1  -8    0.13    0.18 
  -9   2   8    0.56    0.22 
  -8   2   8    0.20    0.15 
  -7   2   8    2.19    0.32 
  -6   2   8    3.96    0.38 
  -5   2   8    4.29    0.34 
  -4   2   8    7.22    0.44 
   3  -2  -8   12.31    0.58 
  -3   2   8   11.49    0.57 
   2  -2  -8   34.69    1.36 
  -2   2   8   36.22    1.34 
   1  -2  -8   55.40    2.01 
  -1   2   8   56.22    1.99 
   0  -2  -8   53.30    1.99 
   0  -2  -8   55.07    1.93 
   0   2   8   54.13    1.90 
  -1  -2  -8   56.04    2.09 
  -1  -2  -8   56.21    1.97 
   1   2   8   55.57    1.94 
  -2  -2  -8   35.78    1.30 
  -2  -2  -8   36.27    1.43 
   2   2   8   36.77    1.29 
  -3  -2  -8   11.09    0.58 
  -3  -2  -8   11.73    0.47 
   3   2   8   11.60    0.47 
  -4  -2  -8    7.16    0.44 
  -4  -2  -8    6.72    0.33 
   4   2   8    7.07    0.34 
  -5  -2  -8    3.35    0.34 
  -5  -2  -8    3.95    0.24 
   5   2   8    3.78    0.25 
  -6  -2  -8    4.49    0.38 
  -6  -2  -8    4.05    0.27 
  -7  -2  -8    1.91    0.31 
  -8  -2  -8   -0.08    0.15 
  -9  -2  -8    0.59    0.23 
  -9   3   8    1.45    0.31 
  -8   3   8    0.21    0.15 
  -7   3   8    1.28    0.26 
  -6   3   8    2.21    0.31 
  -5   3   8    3.03    0.32 
   4  -3  -8    1.94    0.25 
  -4   3   8    2.23    0.25 
   3  -3  -8    4.28    0.31 
  -3   3   8    4.52    0.31 
   2  -3  -8    9.92    0.48 
  -2   3   8    9.30    0.47 
   1  -3  -8   97.80    3.47 
   1  -3  -8   96.11    3.41 
  -1   3   8   96.31    3.37 
   0  -3  -8    1.21    0.13 
   0  -3  -8    1.21    0.12 
  -1  -3  -8   97.77    3.53 
  -1  -3  -8   95.63    3.36 
   1   3   8   96.40    3.30 
  -2  -3  -8    9.51    0.51 
  -2  -3  -8   10.01    0.43 
   2   3   8   10.49    0.39 
  -3  -3  -8    4.64    0.33 
  -3  -3  -8    4.54    0.25 
   3   3   8    4.65    0.22 
  -4  -3  -8    2.77    0.19 
  -4  -3  -8    2.47    0.28 
   4   3   8    2.56    0.17 
  -5  -3  -8    3.41    0.36 
  -5  -3  -8    3.73    0.25 
  -6  -3  -8    1.79    0.31 
  -6  -3  -8    2.14    0.21 
  -7  -3  -8    1.62    0.29 
  -8  -3  -8    0.18    0.15 
  -9  -3  -8    1.10    0.29 
  -9   4   8    0.31    0.19 
  -8   4   8    0.68    0.21 
  -7   4   8    0.65    0.20 
  -6   4   8    0.64    0.18 
  -5   4   8    1.73    0.27 
   4  -4  -8   12.15    0.63 
  -4   4   8   12.07    0.64 
   3  -4  -8   36.58    1.46 
  -3   4   8   37.49    1.46 
   2  -4  -8   20.79    0.85 
  -2   4   8   19.78    0.85 
   1  -4  -8   28.74    1.07 
   1  -4  -8   28.19    1.10 
  -1   4   8   28.41    1.08 
   0  -4  -8    0.96    0.12 
   0  -4  -8    0.96    0.12 
   0   4   8    0.87    0.10 
  -1  -4  -8   28.50    1.08 
  -1  -4  -8   29.28    1.17 
   1   4   8   29.16    1.03 
  -2  -4  -8   20.86    0.93 
  -2  -4  -8   20.41    0.82 
   2   4   8   21.72    0.75 
  -3  -4  -8   37.87    1.57 
  -3  -4  -8   37.10    1.41 
   3   4   8   39.24    1.33 
  -4  -4  -8   11.23    0.51 
  -5  -4  -8    2.15    0.21 
  -6  -4  -8    0.70    0.21 
  -6  -4  -8    0.97    0.17 
  -7  -4  -8    0.53    0.14 
  -7  -4  -8    0.55    0.21 
  -8  -4  -8    1.57    0.32 
  -9  -4  -8    0.23    0.19 
  -8   5   8    0.44    0.19 
  -7   5   8   -0.10    0.11 
  -6   5   8    1.30    0.27 
   5  -5  -8    6.12    0.45 
  -5   5   8    6.25    0.46 
   4  -5  -8    6.01    0.41 
  -4   5   8    5.57    0.40 
   3  -5  -8    8.66    0.49 
  -3   5   8    9.45    0.50 
   2  -5  -8    6.60    0.27 
   2  -5  -8    5.80    0.35 
  -2   5   8    5.87    0.36 
   1  -5  -8    3.69    0.24 
   1  -5  -8    3.40    0.19 
  -1   5   8    2.85    0.21 
   0  -5  -8   65.55    2.45 
   0   5   8   71.48    2.40 
  -1  -5  -8    4.07    0.23 
  -1  -5  -8    3.45    0.26 
   1   5   8    3.48    0.17 
  -2  -5  -8    6.69    0.34 
  -3  -5  -8    9.76    0.46 
  -4  -5  -8    5.86    0.34 
  -5  -5  -8    6.37    0.37 
  -6  -5  -8    1.42    0.21 
  -7  -5  -8    0.03    0.15 
  -7  -5  -8    0.07    0.11 
  -8  -5  -8    0.44    0.21 
  -8   6   8    0.10    0.15 
  -7   6   8    0.80    0.25 
  -6   6   8    2.54    0.35 
   5  -6  -8    0.81    0.20 
  -5   6   8    0.38    0.17 
   4  -6  -8    0.21    0.14 
   4  -6  -8    0.47    0.16 
  -4   6   8    0.15    0.13 
   3  -6  -8    3.30    0.29 
  -3   6   8    2.90    0.28 
   2  -6  -8   13.30    0.67 
  -2   6   8   16.79    0.70 
   1  -6  -8    2.01    0.20 
   1  -6  -8    2.06    0.15 
  -1   6   8    2.11    0.19 
   0  -6  -8    7.58    0.40 
   0   6   8    8.45    0.37 
  -1  -6  -8    2.00    0.18 
  -1  -6  -8    2.31    0.22 
   1   6   8    1.96    0.12 
  -2  -6  -8   16.75    0.71 
  -3  -6  -8    3.42    0.25 
  -4  -6  -8    0.44    0.12 
  -5  -6  -8    0.73    0.15 
  -6  -6  -8    3.07    0.29 
  -7  -6  -8    1.17    0.21 
  -8  -6  -8    0.45    0.22 
  -8   7   8    0.32    0.23 
  -7   7   8   -0.01    0.16 
   6  -7  -8    0.66    0.22 
  -6   7   8    0.62    0.21 
   5  -7  -8    0.36    0.19 
   5  -7  -8    0.68    0.18 
   4  -7  -8    3.55    0.34 
   4  -7  -8    3.92    0.37 
   3  -7  -8    1.48    0.22 
   3  -7  -8    1.06    0.19 
   2  -7  -8    4.50    0.32 
  -2   7   8    4.51    0.31 
   1  -7  -8    1.24    0.17 
   1  -7  -8    1.31    0.14 
   0  -7  -8    5.85    0.34 
   0  -7  -8    5.87    0.34 
   0   7   8    5.77    0.30 
  -1  -7  -8    1.12    0.15 
  -2  -7  -8    3.72    0.27 
  -3  -7  -8    1.03    0.16 
  -4  -7  -8    3.67    0.28 
  -5  -7  -8    0.43    0.13 
  -6  -7  -8    0.73    0.17 
  -7  -7  -8    0.14    0.14 
  -7   8   8    1.37    0.30 
   6  -8  -8    0.31    0.20 
   6  -8  -8    0.08    0.14 
   5  -8  -8    2.10    0.30 
   5  -8  -8    2.81    0.36 
   4  -8  -8    1.69    0.25 
   4  -8  -8    1.54    0.26 
   3  -8  -8    1.87    0.24 
   3  -8  -8    2.12    0.26 
   2  -8  -8    1.93    0.24 
   2  -8  -8    2.21    0.23 
   1  -8  -8    1.40    0.19 
  -1   8   8    0.87    0.14 
   0  -8  -8    0.96    0.16 
   0  -8  -8    1.05    0.16 
   0   8   8    0.99    0.13 
  -1  -8  -8    1.81    0.20 
  -2  -8  -8    2.27    0.23 
  -3  -8  -8    2.08    0.23 
  -4  -8  -8    1.45    0.21 
  -5  -8  -8    2.73    0.28 
  -6  -8  -8    0.23    0.14 
  -7  -8  -8    0.75    0.20 
  -7   9   8    0.01    0.17 
   6  -9  -8    0.32    0.17 
   6  -9  -8    0.17    0.20 
   5  -9  -8    0.54    0.22 
   5  -9  -8    0.72    0.20 
   4  -9  -8    0.90    0.23 
   4  -9  -8    0.75    0.18 
   3  -9  -8    3.04    0.32 
   3  -9  -8    3.78    0.31 
   2  -9  -8    4.10    0.35 
   2  -9  -8    3.52    0.29 
   1  -9  -8    1.65    0.22 
  -1   9   8    1.84    0.20 
   0  -9  -8    0.93    0.16 
   0  -9  -8    0.86    0.16 
  -1  -9  -8    1.82    0.22 
  -2  -9  -8    3.70    0.28 
  -3  -9  -8    3.56    0.29 
  -4  -9  -8    0.88    0.18 
  -5  -9  -8    0.67    0.17 
  -6  -9  -8    0.13    0.14 
  -7  -9  -8    0.46    0.18 
   6 -10  -8    1.38    0.33 
   6 -10  -8    1.12    0.27 
   5 -10  -8    0.23    0.15 
   5 -10  -8    0.02    0.17 
   4 -10  -8   -0.12    0.10 
   4 -10  -8    0.14    0.17 
   3 -10  -8    0.17    0.15 
   3 -10  -8    0.27    0.14 
   2 -10  -8    2.17    0.29 
   2 -10  -8    2.78    0.27 
   1 -10  -8    1.36    0.22 
   0 -10  -8    0.12    0.12 
  -1 -10  -8    1.80    0.23 
  -2 -10  -8    2.59    0.27 
  -3 -10  -8    0.41    0.15 
  -4 -10  -8    0.05    0.12 
  -5 -10  -8    0.28    0.15 
  -6 -10  -8    1.31    0.25 
   6 -11  -8   -0.09    0.22 
   6 -11  -8    0.20    0.18 
   5 -11  -8    0.76    0.26 
   5 -11  -8    0.95    0.23 
   4 -11  -8    0.88    0.25 
   4 -11  -8    1.01    0.23 
   3 -11  -8    0.82    0.23 
   3 -11  -8    1.17    0.22 
   2 -11  -8    0.78    0.22 
   1 -11  -8    2.49    0.30 
   0 -11  -8   -0.03    0.12 
  -1 -11  -8    2.11    0.26 
  -2 -11  -8    0.47    0.15 
  -3 -11  -8    1.05    0.21 
  -4 -11  -8    0.99    0.20 
  -5 -11  -8    1.01    0.22 
  -6 -11  -8   -0.13    0.14 
   5 -12  -8    1.10    0.26 
   5 -12  -8    1.13    0.30 
   4 -12  -8    0.38    0.21 
   3 -12  -8    2.41    0.35 
   2 -12  -8    0.30    0.17 
   1 -12  -8    1.20    0.24 
   0 -12  -8    0.18    0.15 
  -1 -12  -8    1.32    0.24 
  -2 -12  -8   -0.02    0.12 
  -3 -12  -8    1.60    0.25 
  -4 -12  -8    0.07    0.14 
  -5 -12  -8    1.13    0.26 
   4 -13  -8    0.39    0.24 
   3 -13  -8    1.17    0.29 
   2 -13  -8    0.86    0.25 
   1 -13  -8    0.05    0.15 
   0 -13  -8    1.83    0.31 
  -1 -13  -8    0.04    0.15 
  -2 -13  -8    0.39    0.17 
  -3 -13  -8    0.98    0.22 
  -4 -13  -8    0.24    0.16 
   2 -14  -8    1.52    0.32 
   1 -14  -8    0.03    0.19 
   0 -14  -8   -0.02    0.16 
  -1 -14  -8    0.04    0.16 
  -2 -14  -8    0.98    0.21 
  -3 -13   9    0.52    0.22 
  -2 -13   9    0.59    0.21 
  -1 -13   9    0.34    0.19 
   1 -13   9    0.53    0.20 
   2 -13   9    0.37    0.17 
   3 -13   9    0.82    0.25 
  -5 -12   9    0.42    0.26 
  -4 -12   9    0.31    0.22 
  -3 -12   9    1.35    0.26 
  -2 -12   9   -0.10    0.14 
  -1 -12   9    1.01    0.22 
   0 -12   9    0.18    0.15 
   1 -12   9    0.59    0.18 
   2 -12   9    0.28    0.15 
   3 -12   9    1.31    0.26 
   4 -12   9   -0.03    0.16 
   5 -12   9    0.94    0.26 
  -5 -11   9   -0.19    0.15 
  -4 -11   9    0.21    0.19 
  -3 -11   9    1.25    0.25 
  -2 -11   9    1.05    0.21 
  -1 -11   9    2.38    0.27 
  -1 -11   9    2.23    0.27 
   0 -11   9    0.16    0.12 
   0 -11   9    0.17    0.13 
   1 -11   9    2.41    0.31 
   2 -11   9    0.50    0.18 
   3 -11   9    1.01    0.24 
   4 -11   9    0.03    0.14 
   5 -11   9    0.25    0.18 
  -6 -10   9   -0.19    0.17 
  -5 -10   9    0.08    0.17 
  -4 -10   9    2.39    0.33 
  -3 -10   9    2.09    0.29 
  -2 -10   9    2.69    0.30 
  -2 -10   9    2.96    0.29 
  -1 -10   9    1.63    0.22 
  -1 -10   9    2.06    0.25 
   0 -10   9    2.68    0.28 
   0 -10   9    2.32    0.23 
   1 -10   9    1.57    0.24 
   2 -10   9    2.69    0.32 
   3 -10   9    1.71    0.28 
   4 -10   9    1.92    0.31 
   5 -10   9    0.15    0.16 
   6 -10   9    0.04    0.17 
  -7  -9   9   -0.03    0.20 
  -6  -9   9    0.40    0.21 
  -5  -9   9    0.49    0.20 
  -4  -9   9    0.94    0.23 
  -3  -9   9    0.15    0.15 
  -3  -9   9    0.30    0.13 
  -2  -9   9    3.39    0.31 
  -2  -9   9    3.51    0.28 
  -1  -9   9    1.22    0.19 
  -1  -9   9    1.43    0.20 
   0  -9   9    2.30    0.21 
   0  -9   9    1.81    0.23 
   1  -9   9    1.06    0.20 
   1  -9   9    0.77    0.12 
   2  -9   9    3.01    0.32 
   3  -9   9    0.13    0.11 
   4  -9   9    0.92    0.21 
   5  -9   9    0.63    0.20 
   6  -9   9    1.14    0.27 
   7  -9   9    0.03    0.21 
  -7  -8   9    1.17    0.30 
  -6  -8   9    0.38    0.20 
  -5  -8   9    0.39    0.18 
  -4  -8   9    2.62    0.24 
  -4  -8   9    2.63    0.32 
  -3  -8   9    1.52    0.24 
  -3  -8   9    1.66    0.20 
  -2  -8   9    0.47    0.13 
  -2  -8   9    0.75    0.17 
  -1  -8   9    6.43    0.38 
  -1  -8   9    7.03    0.40 
   0  -8   9   -0.07    0.06 
   0  -8   9    0.04    0.09 
   1  -8   9    6.67    0.33 
   1  -8   9    6.17    0.40 
   2  -8   9    0.71    0.17 
   3  -8   9    1.86    0.26 
   4  -8   9    2.14    0.30 
   5  -8   9    0.10    0.12 
   6  -8   9    0.60    0.23 
   7  -8   9    0.90    0.29 
  -8  -7   9    0.44    0.21 
  -7  -7   9    1.77    0.34 
  -6  -7   9    0.30    0.19 
  -5  -7   9    0.64    0.22 
  -5  -7   9    1.08    0.17 
  -4  -7   9    2.37    0.31 
  -4  -7   9    2.29    0.22 
  -3  -7   9    3.32    0.25 
  -3  -7   9    3.16    0.32 
  -2  -7   9    9.50    0.52 
  -2  -7   9   10.78    0.50 
  -1  -7   9    4.83    0.31 
  -1  -7   9    4.97    0.31 
   0  -7   9    2.49    0.19 
   0  -7   9    2.98    0.24 
   1  -7   9    4.28    0.30 
   1  -7   9    4.39    0.24 
   2  -7   9   10.39    0.55 
   3  -7   9    3.32    0.32 
   4  -7   9    2.26    0.29 
   5  -7   9    0.72    0.21 
   6  -7   9    0.59    0.20 
   7  -7   9    1.87    0.37 
   8  -7   9    0.06    0.24 
  -8  -6   9    1.72    0.33 
  -7  -6   9    0.29    0.21 
  -6  -6   9    0.89    0.17 
  -6  -6   9    0.99    0.24 
  -5  -6   9    1.46    0.19 
  -5  -6   9    1.45    0.27 
  -4  -6   9   18.72    0.90 
  -4  -6   9   18.50    0.79 
  -3  -6   9    0.37    0.15 
  -3  -6   9    0.86    0.14 
  -2  -6   9    1.36    0.16 
  -2  -6   9    1.37    0.19 
  -1  -6   9    0.57    0.12 
  -1  -6   9    0.60    0.12 
   0  -6   9    6.94    0.37 
   1  -6   9    0.68    0.09 
   1  -6   9    0.61    0.13 
   2  -6   9    1.41    0.19 
   2  -6   9    1.42    0.11 
   3  -6   9    0.52    0.14 
  -4   6  -9   17.60    0.78 
   4  -6   9   18.08    0.85 
  -5   6  -9    1.88    0.21 
   5  -6   9    1.31    0.26 
   6  -6   9    0.86    0.23 
   7  -6   9    0.27    0.20 
   8  -6   9    2.28    0.40 
  -8  -5   9    0.57    0.23 
  -7  -5   9    1.37    0.27 
  -7  -5   9    1.43    0.22 
  -6  -5   9    4.17    0.43 
  -6  -5   9    4.23    0.31 
  -5  -5   9    2.15    0.30 
  -5  -5   9    1.74    0.21 
  -4  -5   9    3.04    0.24 
  -4  -5   9    3.39    0.34 
  -3  -5   9   19.51    0.79 
  -3  -5   9   18.70    0.86 
  -2  -5   9    4.02    0.29 
  -2  -5   9    3.98    0.25 
  -1  -5   9    5.61    0.32 
  -1  -5   9    5.85    0.31 
   0  -5   9    0.45    0.11 
   0  -5   9    0.51    0.09 
   1  -5   9    5.10    0.24 
   1  -5   9    5.66    0.32 
   2  -5   9    3.99    0.18 
   2  -5   9    3.68    0.28 
  -3   5  -9   18.73    0.80 
   3  -5   9   18.48    0.84 
  -4   5  -9    2.86    0.23 
   4  -5   9    3.04    0.30 
  -5   5  -9    1.64    0.20 
   5  -5   9    1.61    0.26 
  -6   5  -9    4.21    0.30 
   6  -5   9    3.73    0.40 
   7  -5   9    1.97    0.34 
   8  -5   9    0.81    0.27 
  -8  -4   9    0.27    0.16 
  -7  -4   9    1.71    0.23 
  -6  -4   9    0.50    0.15 
  -5  -4   9   17.22    0.77 
  -4  -4   9    3.24    0.24 
  -3  -4   9    7.40    0.39 
  -2  -4   9   17.46    0.72 
  -1  -4   9   23.75    0.93 
  -1  -4   9   22.78    0.90 
   0  -4   9    1.48    0.13 
   0  -4   9    1.64    0.16 
   1  -4   9   22.92    0.83 
   1  -4   9   23.31    0.92 
  -2   4  -9   16.77    0.71 
   2  -4   9   15.78    0.70 
  -3   4  -9    6.41    0.36 
   3  -4   9    6.26    0.38 
  -4   4  -9    3.10    0.24 
   4  -4   9    3.04    0.29 
  -5   4  -9   15.28    0.71 
   5  -4   9   15.44    0.76 
  -6   4  -9    0.62    0.14 
   6  -4   9    0.48    0.18 
   7  -4   9    1.24    0.29 
   8  -4   9    0.28    0.20 
  -8  -3   9    0.71    0.19 
  -7  -3   9    0.95    0.19 
  -6  -3   9    6.70    0.43 
  -5  -3   9    3.65    0.29 
  -4  -3   9    0.38    0.11 
  -3  -3   9   11.90    0.54 
  -2  -3   9   39.95    1.48 
  -1  -3   9   42.90    1.56 
   0  -3   9    2.13    0.14 
   0  -3   9    1.84    0.15 
  -1   3  -9   41.50    1.61 
   1  -3   9   43.11    1.47 
   1  -3   9   42.07    1.55 
  -2   3  -9   37.75    1.49 
   2  -3   9   39.28    1.45 
  -3   3  -9   11.07    0.52 
   3  -3   9   10.53    0.52 
  -4   3  -9    0.37    0.10 
   4  -3   9    0.20    0.10 
  -5   3  -9    2.89    0.25 
   5  -3   9    3.23    0.31 
  -6   3  -9    5.52    0.37 
   6  -3   9    5.77    0.42 
  -7   3  -9    0.77    0.17 
   7  -3   9    0.46    0.20 
   8  -3   9    0.39    0.21 
   9  -3   9    0.10    0.23 
  -9  -2   9   -0.05    0.14 
  -8  -2   9    1.77    0.28 
  -7  -2   9    0.10    0.12 
  -6  -2   9    0.27    0.12 
  -5  -2   9    4.63    0.32 
  -4  -2   9    4.38    0.30 
  -3  -2   9   12.09    0.56 
  -2  -2   9   26.40    1.02 
  -1  -2   9   46.53    1.67 
   0   2  -9   45.55    1.70 
   0  -2   9   44.67    1.62 
  -1   2  -9   47.64    1.75 
   1  -2   9   45.10    1.67 
  -2   2  -9   27.18    1.08 
   2  -2   9   26.27    1.03 
  -3   2  -9   10.97    0.52 
   3  -2   9   10.24    0.50 
  -4   2  -9    3.63    0.27 
   4  -2   9    3.61    0.27 
  -5   2  -9    3.26    0.27 
   5  -2   9    3.65    0.30 
  -6   2  -9    0.42    0.14 
   6  -2   9    0.42    0.16 
  -7   2  -9    0.42    0.14 
   7  -2   9    0.07    0.14 
  -8   2  -9    1.51    0.26 
   8  -2   9    1.24    0.27 
  -9  -1   9    1.98    0.31 
  -8  -1   9    0.87    0.21 
  -7  -1   9    1.73    0.26 
  -6  -1   9    0.97    0.19 
  -5  -1   9    1.25    0.19 
  -4  -1   9    2.32    0.23 
  -3  -1   9    1.01    0.15 
  -2  -1   9    5.83    0.31 
  -1  -1   9    9.13    0.41 
   0   1  -9  199.55    7.04 
   0  -1   9  195.96    6.74 
  -1   1  -9    9.98    0.46 
   1  -1   9    9.28    0.42 
  -2   1  -9    5.82    0.32 
   2  -1   9    4.92    0.28 
  -3   1  -9    0.93    0.15 
   3  -1   9    0.80    0.12 
  -4   1  -9    2.60    0.25 
  -4   1  -9    2.31    0.13 
   4  -1   9    2.32    0.22 
  -5   1  -9    1.00    0.17 
   5  -1   9    1.31    0.18 
  -6   1  -9    1.08    0.20 
   6  -1   9    0.98    0.19 
  -7   1  -9    2.62    0.31 
   7  -1   9    1.77    0.28 
  -8   1  -9    0.92    0.22 
   8  -1   9    1.21    0.27 
  -9   0   9    0.34    0.19 
  -8   0   9    0.70    0.20 
  -7   0   9    2.61    0.33 
  -6   0   9    4.97    0.38 
  -5   0   9    0.06    0.09 
  -4   0   9    0.08    0.08 
  -3   0   9   13.73    0.62 
  -2   0   9   29.82    1.14 
  -1   0   9    2.44    0.17 
   0   0  -9   -0.01    0.04 
   0   0  -9   -0.04    0.04 
   0   0   9    0.02    0.04 
  -1   0  -9    2.80    0.14 
  -1   0  -9    2.40    0.19 
   1   0   9    2.55    0.16 
  -2   0  -9   29.37    1.20 
  -2   0  -9   30.82    1.06 
   2   0   9   30.02    1.12 
  -3   0  -9   14.03    0.66 
  -3   0  -9   14.52    0.53 
   3   0   9   14.31    0.60 
  -4   0  -9   -0.03    0.07 
  -4   0  -9    0.00    0.04 
   4   0   9   -0.04    0.05 
  -5   0  -9    0.18    0.11 
   5   0   9    0.07    0.08 
  -6   0  -9    5.40    0.40 
   6   0   9    4.54    0.34 
  -7   0  -9    2.91    0.34 
   7   0   9    2.42    0.29 
  -8   0  -9    0.27    0.17 
  -9   0  -9    0.35    0.20 
  -9   1   9    1.70    0.33 
  -8   1   9    1.19    0.26 
  -7   1   9    2.25    0.32 
  -6   1   9    0.76    0.19 
  -5   1   9    1.19    0.21 
  -4   1   9    1.99    0.23 
  -3   1   9    1.05    0.16 
   2  -1  -9    5.99    0.33 
  -2   1   9    5.07    0.30 
   1  -1  -9    8.72    0.43 
   1  -1  -9    9.40    0.41 
  -1   1   9    9.77    0.42 
   0  -1  -9  196.57    6.94 
   0  -1  -9  192.63    6.70 
   0   1   9  195.76    6.64 
  -1  -1  -9    9.32    0.44 
  -1  -1  -9    9.37    0.38 
   1   1   9    9.17    0.39 
  -2  -1  -9    5.33    0.23 
  -2  -1  -9    5.21    0.31 
   2   1   9    4.68    0.25 
  -3  -1  -9    1.18    0.09 
  -3  -1  -9    0.73    0.14 
  -4  -1  -9    2.37    0.16 
  -4  -1  -9    2.56    0.27 
  -5  -1  -9    1.09    0.13 
  -5  -1  -9    1.26    0.22 
  -6  -1  -9    1.06    0.22 
   6   1   9    0.58    0.13 
  -7  -1  -9    2.09    0.32 
  -8  -1  -9    0.92    0.24 
  -9  -1  -9    2.24    0.37 
  -9   2   9    0.26    0.18 
  -8   2   9    1.60    0.31 
  -7   2   9    0.00    0.12 
  -6   2   9    0.20    0.12 
  -5   2   9    3.34    0.33 
  -4   2   9    3.07    0.29 
   3  -2  -9   11.91    0.58 
  -3   2   9   11.65    0.57 
   2  -2  -9   25.88    1.07 
  -2   2   9   27.54    1.05 
   1  -2  -9   43.22    1.63 
   1  -2  -9   44.08    1.63 
  -1   2   9   45.29    1.60 
   0  -2  -9   43.55    1.59 
   0  -2  -9   43.56    1.64 
   0   2   9   44.73    1.56 
  -1  -2  -9   42.74    1.64 
  -1  -2  -9   42.95    1.53 
  -2  -2  -9   26.84    1.09 
  -2  -2  -9   26.58    0.97 
   2   2   9   26.03    0.96 
  -3  -2  -9   11.14    0.60 
  -3  -2  -9   11.96    0.48 
   3   2   9   12.25    0.49 
  -4  -2  -9    3.16    0.31 
  -4  -2  -9    3.67    0.21 
   4   2   9    3.58    0.22 
  -5  -2  -9    3.57    0.36 
  -5  -2  -9    4.39    0.26 
   5   2   9    3.89    0.26 
  -6  -2  -9    0.24    0.14 
  -7  -2  -9    0.44    0.18 
  -8  -2  -9    1.49    0.30 
  -9  -2  -9    0.03    0.17 
  -9   3   9    0.36    0.22 
  -8   3   9    0.75    0.23 
  -7   3   9    1.04    0.23 
  -6   3   9    6.25    0.47 
  -5   3   9    2.91    0.32 
   4  -3  -9    0.31    0.14 
  -4   3   9    0.43    0.14 
   3  -3  -9   12.15    0.59 
  -3   3   9   10.78    0.57 
   2  -3  -9   37.40    1.44 
  -2   3   9   37.22    1.41 
   1  -3  -9   39.61    1.46 
  -1   3   9   38.62    1.43 
   0  -3  -9    1.84    0.15 
   0  -3  -9    1.99    0.15 
   0   3   9    1.52    0.12 
  -1  -3  -9   40.05    1.56 
  -1  -3  -9   40.11    1.46 
   1   3   9   40.94    1.42 
  -2  -3  -9   36.23    1.37 
  -2  -3  -9   38.73    1.52 
   2   3   9   38.98    1.34 
  -3  -3  -9   11.78    0.61 
  -3  -3  -9   11.10    0.49 
   3   3   9   12.05    0.47 
  -4  -3  -9    0.45    0.13 
  -4  -3  -9    0.46    0.10 
   4   3   9    0.28    0.08 
  -5  -3  -9    3.39    0.24 
  -5  -3  -9    3.54    0.37 
  -6  -3  -9    6.52    0.49 
  -6  -3  -9    6.18    0.36 
  -7  -3  -9    0.67    0.20 
  -8  -3  -9    0.49    0.22 
  -9  -3  -9    0.09    0.19 
  -9   4   9    0.86    0.25 
  -8   4   9    0.09    0.15 
  -7   4   9    1.46    0.28 
  -6   4   9    0.43    0.18 
  -5   4   9   16.45    0.84 
   4  -4  -9    3.40    0.32 
  -4   4   9    3.27    0.32 
   3  -4  -9    6.16    0.39 
  -3   4   9    6.12    0.38 
   2  -4  -9   16.82    0.72 
   2  -4  -9   16.38    0.63 
  -2   4   9   15.28    0.71 
   1  -4  -9   21.47    0.83 
   1  -4  -9   21.17    0.86 
  -1   4   9   21.08    0.84 
   0  -4  -9    1.50    0.14 
   0  -4  -9    1.21    0.14 
   0   4   9    0.86    0.10 
  -1  -4  -9   21.41    0.90 
  -1  -4  -9   20.76    0.82 
   1   4   9   21.48    0.77 
  -2  -4  -9   15.68    0.76 
  -2  -4  -9   15.66    0.66 
   2   4   9   17.17    0.60 
  -3  -4  -9    6.55    0.33 
  -3  -4  -9    6.24    0.42 
   3   4   9    6.75    0.28 
  -4  -4  -9    3.32    0.22 
  -4  -4  -9    2.80    0.32 
  -5  -4  -9   18.08    0.92 
  -5  -4  -9   16.81    0.73 
  -6  -4  -9    0.08    0.13 
  -6  -4  -9    0.62    0.14 
  -7  -4  -9    0.96    0.25 
  -8  -4  -9    0.13    0.14 
  -8   5   9    0.59    0.22 
  -7   5   9    1.25    0.28 
  -6   5   9    3.39    0.39 
   5  -5  -9    1.73    0.28 
  -5   5   9    1.49    0.25 
   4  -5  -9    2.82    0.31 
  -4   5   9    2.58    0.29 
   3  -5  -9   18.00    0.83 
  -3   5   9   18.42    0.83 
   2  -5  -9    3.71    0.27 
   2  -5  -9    3.69    0.19 
  -2   5   9    3.90    0.27 
   1  -5  -9    5.02    0.26 
   1  -5  -9    4.63    0.30 
  -1   5   9    5.23    0.29 
   0  -5  -9    0.29    0.08 
   0  -5  -9    0.57    0.11 
   0   5   9    0.46    0.08 
  -1  -5  -9    4.77    0.32 
  -1  -5  -9    5.31    0.29 
   1   5   9    5.23    0.23 
  -2  -5  -9    3.89    0.25 
  -2  -5  -9    4.44    0.32 
   2   5   9    4.41    0.18 
  -3  -5  -9   18.48    0.77 
  -3  -5  -9   18.89    0.90 
  -4  -5  -9    2.39    0.31 
  -4  -5  -9    3.04    0.23 
  -5  -5  -9    1.42    0.27 
  -5  -5  -9    1.91    0.20 
  -6  -5  -9    3.94    0.29 
  -6  -5  -9    3.32    0.40 
  -7  -5  -9    1.66    0.32 
  -8  -5  -9    0.56    0.23 
  -8   6   9    1.72    0.35 
  -7   6   9    0.33    0.20 
  -6   6   9    0.56    0.21 
   5  -6  -9    1.41    0.26 
  -5   6   9    1.12    0.24 
   4  -6  -9   17.31    0.85 
  -4   6   9   17.77    0.86 
   3  -6  -9    0.45    0.15 
  -3   6   9    0.27    0.13 
   2  -6  -9    1.08    0.17 
  -2   6   9    1.52    0.19 
   1  -6  -9    0.61    0.13 
   1  -6  -9    0.50    0.09 
  -1   6   9    0.47    0.10 
   0  -6  -9    6.43    0.36 
   0   6   9    6.70    0.32 
  -1  -6  -9    0.62    0.13 
  -1  -6  -9    0.31    0.09 
   1   6   9    0.43    0.06 
  -2  -6  -9    1.54    0.22 
  -2  -6  -9    1.52    0.17 
  -3  -6  -9    0.56    0.12 
  -4  -6  -9   19.32    0.82 
  -5  -6  -9    1.57    0.20 
  -6  -6  -9    0.91    0.16 
  -7  -6  -9    0.20    0.12 
  -7  -6  -9   -0.09    0.14 
  -8  -6  -9    1.49    0.33 
  -8   7   9    0.22    0.24 
  -7   7   9    1.12    0.27 
   6  -7  -9    0.47    0.21 
  -6   7   9    0.41    0.18 
   5  -7  -9    0.66    0.21 
  -5   7   9    0.62    0.19 
   4  -7  -9    2.17    0.30 
  -4   7   9    1.79    0.26 
   3  -7  -9    2.94    0.30 
  -3   7   9    2.60    0.28 
   2  -7  -9    8.91    0.49 
  -2   7   9    9.11    0.49 
   1  -7  -9    4.42    0.25 
   1  -7  -9    3.59    0.28 
   0  -7  -9    3.22    0.24 
   0  -7  -9    2.82    0.23 
   0   7   9    3.21    0.20 
  -1  -7  -9    4.66    0.32 
  -1  -7  -9    4.12    0.28 
  -2  -7  -9   10.06    0.50 
  -3  -7  -9    3.41    0.26 
  -4  -7  -9    2.57    0.25 
  -5  -7  -9    0.66    0.16 
  -6  -7  -9    0.40    0.15 
  -7  -7  -9    1.89    0.26 
  -7  -7  -9    1.65    0.32 
  -8  -7  -9    0.20    0.18 
  -7   8   9    0.80    0.27 
   6  -8  -9    0.50    0.23 
  -6   8   9    0.40    0.21 
   5  -8  -9    0.18    0.18 
  -5   8   9    0.13    0.15 
   4  -8  -9    2.40    0.31 
  -4   8   9    2.22    0.30 
   3  -8  -9    1.65    0.25 
  -3   8   9    1.37    0.22 
   2  -8  -9    0.71    0.17 
  -2   8   9    0.66    0.15 
   1  -8  -9    5.43    0.35 
  -1   8   9    4.66    0.30 
   0  -8  -9    0.08    0.08 
   0  -8  -9    0.11    0.08 
  -1  -8  -9    6.02    0.37 
  -1  -8  -9    6.57    0.41 
  -2  -8  -9    0.73    0.15 
  -3  -8  -9    1.70    0.21 
  -4  -8  -9    2.25    0.25 
  -5  -8  -9    0.33    0.14 
  -6  -8  -9    0.37    0.15 
  -7  -8  -9    1.19    0.24 
  -7   9   9   -0.03    0.20 
   6  -9  -9    0.89    0.27 
  -6   9   9    0.62    0.23 
   5  -9  -9    0.62    0.21 
  -5   9   9    0.28    0.20 
   4  -9  -9    0.77    0.22 
  -4   9   9    0.78    0.22 
   3  -9  -9    0.23    0.14 
  -3   9   9    0.20    0.14 
   2  -9  -9    3.15    0.31 
  -2   9   9    2.71    0.28 
   1  -9  -9    1.14    0.20 
   0  -9  -9    1.47    0.20 
  -1  -9  -9    1.13    0.18 
  -1  -9  -9    1.31    0.21 
  -2  -9  -9    2.84    0.27 
  -3  -9  -9    0.14    0.11 
  -4  -9  -9    0.67    0.17 
  -5  -9  -9    0.41    0.15 
  -6  -9  -9    1.21    0.23 
  -7  -9  -9    0.14    0.16 
   6 -10  -9   -0.10    0.20 
  -6  10   9   -0.04    0.17 
   5 -10  -9    0.09    0.18 
  -5  10   9    0.18    0.19 
   4 -10  -9    2.22    0.33 
  -4  10   9    2.08    0.31 
   3 -10  -9    1.42    0.26 
  -3  10   9    1.70    0.27 
   2 -10  -9    2.18    0.29 
   1 -10  -9    1.38    0.23 
   0 -10  -9    2.55    0.27 
  -1 -10  -9    1.41    0.22 
  -2 -10  -9    2.75    0.28 
  -3 -10  -9    1.53    0.22 
  -4 -10  -9    1.94    0.26 
  -5 -10  -9   -0.07    0.12 
  -6 -10  -9   -0.20    0.13 
   5 -11  -9    0.19    0.22 
  -5  11   9   -0.11    0.18 
   4 -11  -9    0.20    0.18 
  -4  11   9   -0.16    0.16 
   3 -11  -9    1.32    0.26 
   2 -11  -9    0.79    0.21 
   1 -11  -9    1.86    0.28 
   0 -11  -9    0.40    0.16 
  -1 -11  -9    2.14    0.27 
  -2 -11  -9    0.39    0.15 
  -3 -11  -9    1.21    0.23 
  -4 -11  -9    0.13    0.13 
  -5 -11  -9    0.19    0.17 
  -5  12   9    0.62    0.26 
   4 -12  -9    0.20    0.20 
   3 -12  -9    1.18    0.28 
   2 -12  -9    0.16    0.17 
   1 -12  -9    0.77    0.21 
   0 -12  -9   -0.14    0.13 
  -1 -12  -9    0.59    0.17 
  -2 -12  -9    0.26    0.15 
  -3 -12  -9    0.81    0.19 
  -4 -12  -9    0.32    0.16 
  -5 -12  -9    0.32    0.18 
   3 -13  -9    0.12    0.19 
   2 -13  -9    0.19    0.18 
   1 -13  -9    0.34    0.19 
   0 -13  -9    0.06    0.15 
  -1 -13  -9    0.24    0.16 
  -2 -13  -9    0.38    0.16 
  -3 -13  -9    0.43    0.16 
   1 -14  -9    0.10    0.20 
   0 -14  -9    0.82    0.26 
  -1 -14  -9    0.04    0.18 
  -3 -13  10    0.51    0.22 
  -2 -13  10    0.01    0.18 
   1 -13  10    0.20    0.17 
   2 -13  10   -0.01    0.14 
   3 -13  10    0.15    0.16 
  -4 -12  10    0.20    0.20 
  -3 -12  10    0.73    0.22 
  -2 -12  10    0.23    0.16 
  -1 -12  10    0.73    0.20 
  -1 -12  10    0.61    0.20 
   0 -12  10    0.58    0.19 
   1 -12  10    0.61    0.20 
   2 -12  10    0.11    0.15 
   3 -12  10    0.90    0.23 
   4 -12  10    0.08    0.15 
  -5 -11  10    0.72    0.25 
  -4 -11  10    0.68    0.22 
  -3 -11  10    0.23    0.18 
  -2 -11  10    0.45    0.16 
  -2 -11  10    0.46    0.18 
  -1 -11  10    2.65    0.28 
  -1 -11  10    3.20    0.32 
   0 -11  10    0.21    0.13 
   1 -11  10    3.16    0.35 
   2 -11  10    0.53    0.18 
   3 -11  10    0.22    0.14 
   4 -11  10    0.56    0.19 
   5 -11  10    0.68    0.23 
  -6 -10  10    1.65    0.33 
  -5 -10  10    0.19    0.19 
  -4 -10  10    0.48    0.19 
  -3 -10  10    0.05    0.15 
  -3 -10  10   -0.13    0.10 
  -2 -10  10    4.91    0.38 
  -2 -10  10    5.04    0.36 
  -1 -10  10    0.72    0.18 
  -1 -10  10    0.87    0.18 
   0 -10  10    0.03    0.12 
   0 -10  10    0.02    0.11 
   1 -10  10    0.85    0.19 
   2 -10  10    4.69    0.42 
   3 -10  10   -0.20    0.10 
   4 -10  10    0.69    0.21 
   5 -10  10    0.25    0.15 
   6 -10  10    1.90    0.34 
  -7  -9  10    0.13    0.23 
  -6  -9  10    0.01    0.18 
  -5  -9  10   -0.03    0.17 
  -4  -9  10    0.76    0.21 
  -3  -9  10    1.80    0.22 
  -3  -9  10    1.14    0.22 
  -2  -9  10    4.02    0.30 
  -2  -9  10    3.47    0.32 
  -1  -9  10    8.84    0.48 
  -1  -9  10    8.56    0.49 
   0  -9  10    2.70    0.23 
   0  -9  10    2.92    0.29 
   1  -9  10    7.93    0.49 
   2  -9  10    2.91    0.32 
   3  -9  10    1.65    0.26 
   4  -9  10    1.02    0.22 
   5  -9  10    0.13    0.15 
   6  -9  10    0.20    0.19 
   7  -9  10    0.38    0.27 
  -7  -8  10    0.96    0.29 
  -6  -8  10    0.14    0.19 
  -5  -8  10    1.14    0.26 
  -4  -8  10    0.07    0.15 
  -4  -8  10    0.14    0.11 
  -3  -8  10    2.62    0.30 
  -3  -8  10    3.02    0.25 
  -2  -8  10    3.45    0.31 
  -2  -8  10    3.40    0.27 
  -1  -8  10   16.13    0.72 
  -1  -8  10   16.02    0.73 
   0  -8  10    2.24    0.25 
   0  -8  10    1.95    0.18 
   1  -8  10   14.76    0.70 
   1  -8  10   13.91    0.60 
   2  -8  10    2.67    0.29 
   3  -8  10    2.80    0.32 
   4  -8  10    0.25    0.14 
   5  -8  10    1.71    0.30 
   6  -8  10    0.12    0.17 
   7  -8  10    0.77    0.27 
  -8  -7  10    0.40    0.25 
  -7  -7  10    0.15    0.20 
  -6  -7  10    0.91    0.23 
  -5  -7  10    0.01    0.15 
  -5  -7  10    0.26    0.11 
  -4  -7  10    2.96    0.26 
  -4  -7  10    2.92    0.34 
  -3  -7  10    3.72    0.27 
  -3  -7  10    3.97    0.35 
  -2  -7  10    0.54    0.13 
  -2  -7  10    0.83    0.18 
  -1  -7  10    0.91    0.14 
  -1  -7  10    0.92    0.15 
   0  -7  10    6.24    0.37 
   1  -7  10    1.06    0.12 
   1  -7  10    0.69    0.16 
   2  -7  10    0.75    0.17 
   3  -7  10    3.11    0.32 
   4  -7  10    2.76    0.33 
   5  -7  10    0.53    0.19 
   6  -7  10    0.75    0.23 
   7  -7  10    0.29    0.21 
  -8  -6  10    0.72    0.24 
  -7  -6  10    0.06    0.18 
  -6  -6  10    3.07    0.29 
  -6  -6  10    3.17    0.39 
  -5  -6  10    1.06    0.24 
  -5  -6  10    1.18    0.18 
  -4  -6  10    0.40    0.12 
  -4  -6  10    0.51    0.18 
  -3  -6  10    7.13    0.39 
  -3  -6  10    6.72    0.45 
  -2  -6  10    4.24    0.30 
  -2  -6  10    3.99    0.27 
  -1  -6  10    0.88    0.14 
  -1  -6  10    0.60    0.12 
   0  -6  10    3.03    0.20 
   0  -6  10    3.52    0.25 
   1  -6  10    0.70    0.09 
   1  -6  10    0.59    0.13 
   2  -6  10    3.37    0.28 
   3  -6  10    5.45    0.38 
  -4   6 -10    0.31    0.12 
   4  -6  10    0.35    0.16 
  -5   6 -10    0.82    0.16 
   5  -6  10    1.21    0.24 
   6  -6  10    2.60    0.36 
   7  -6  10    0.16    0.19 
   8  -6  10    0.58    0.27 
  -8  -5  10    1.04    0.27 
  -7  -5  10    1.64    0.33 
  -7  -5  10    1.96    0.25 
  -6  -5  10    1.14    0.27 
  -6  -5  10    1.70    0.23 
  -5  -5  10    3.51    0.38 
  -5  -5  10    2.83    0.27 
  -4  -5  10    2.99    0.24 
  -4  -5  10    2.84    0.32 
  -3  -5  10    3.09    0.30 
  -3  -5  10    2.74    0.22 
  -2  -5  10    5.47    0.31 
  -2  -5  10    5.25    0.35 
  -1  -5  10    4.81    0.29 
  -1  -5  10    4.89    0.29 
   0  -5  10    0.67    0.13 
   0  -5  10    0.80    0.11 
   1  -5  10    5.14    0.31 
   1  -5  10    4.89    0.23 
  -2   5 -10    5.21    0.31 
   2  -5  10    4.06    0.30 
  -3   5 -10    3.13    0.24 
   3  -5  10    2.77    0.28 
  -4   5 -10    2.20    0.22 
   4  -5  10    2.20    0.27 
  -5   5 -10    2.80    0.24 
   5  -5  10    3.41    0.36 
  -6   5 -10    1.62    0.22 
   6  -5  10    1.30    0.27 
   7  -5  10    2.23    0.35 
   8  -5  10    0.80    0.27 
  -8  -4  10    0.42    0.18 
  -7  -4  10    1.47    0.23 
  -6  -4  10    0.24    0.12 
  -5  -4  10    5.91    0.37 
  -4  -4  10    5.46    0.34 
  -3  -4  10   13.10    0.60 
  -2  -4  10    5.53    0.31 
  -1  -4  10    4.13    0.26 
  -1  -4  10    3.90    0.24 
   0  -4  10    1.89    0.14 
   0  -4  10    1.69    0.17 
   1  -4  10    4.01    0.26 
   1  -4  10    4.51    0.20 
  -2   4 -10    5.50    0.32 
   2  -4  10    5.34    0.33 
  -3   4 -10   11.09    0.55 
   3  -4  10   12.05    0.58 
  -4   4 -10    4.55    0.30 
   4  -4  10    4.16    0.33 
  -5   4 -10    4.69    0.33 
   5  -4  10    5.20    0.38 
  -6   4 -10    0.39    0.13 
   6  -4  10    0.20    0.17 
   7  -4  10    1.42    0.28 
   8  -4  10    0.49    0.24 
  -8  -3  10    0.89    0.21 
  -7  -3  10    3.25    0.34 
  -6  -3  10    0.46    0.15 
  -5  -3  10    8.41    0.48 
  -4  -3  10    2.93    0.24 
  -3  -3  10    9.16    0.46 
  -2  -3  10   13.69    0.60 
  -1  -3  10    5.65    0.30 
   0  -3  10    1.21    0.13 
  -1   3 -10    4.72    0.29 
   1  -3  10    4.87    0.20 
   1  -3  10    4.47    0.27 
  -2   3 -10   14.44    0.62 
   2  -3  10   12.26    0.58 
  -3   3 -10    8.84    0.46 
   3  -3  10    8.31    0.45 
  -4   3 -10    2.26    0.23 
   4  -3  10    2.62    0.26 
  -5   3 -10    6.70    0.41 
   5  -3  10    7.06    0.45 
  -6   3 -10    0.42    0.13 
   6  -3  10    0.55    0.18 
  -7   3 -10    3.41    0.33 
   7  -3  10    3.23    0.38 
   8  -3  10    0.94    0.27 
   9  -3  10    0.46    0.26 
  -9  -2  10    0.09    0.17 
  -8  -2  10    0.17    0.13 
  -7  -2  10    0.51    0.16 
  -6  -2  10    5.62    0.39 
  -5  -2  10    2.90    0.29 
  -4  -2  10   13.32    0.63 
  -3  -2  10   17.20    0.74 
  -2  -2  10   21.55    0.86 
  -1  -2  10    2.94    0.20 
   0   2 -10   18.24    0.79 
   0  -2  10   19.90    0.76 
  -1   2 -10    2.62    0.20 
   1  -2  10    3.00    0.20 
  -2   2 -10   22.67    0.93 
   2  -2  10   21.61    0.88 
  -3   2 -10   16.38    0.74 
   3  -2  10   17.02    0.72 
  -4   2 -10   12.09    0.59 
   4  -2  10   11.71    0.58 
  -5   2 -10    2.44    0.25 
   5  -2  10    2.26    0.26 
  -6   2 -10    6.30    0.42 
   6  -2  10    6.04    0.43 
  -7   2 -10    0.58    0.15 
   7  -2  10    0.70    0.20 
  -8   2 -10    0.65    0.19 
   8  -2  10    0.51    0.22 
  -9  -1  10    1.04    0.26 
  -8  -1  10    3.35    0.39 
  -7  -1  10    1.43    0.26 
  -6  -1  10    0.35    0.14 
  -5  -1  10    0.44    0.12 
  -4  -1  10    4.75    0.33 
  -3  -1  10    2.56    0.23 
  -2  -1  10   35.12    1.32 
  -1  -1  10   36.00    1.33 
   0   1 -10  153.03    5.42 
   0  -1  10  149.15    5.18 
  -1   1 -10   35.21    1.40 
   1  -1  10   37.19    1.33 
  -2   1 -10   33.36    1.35 
   2  -1  10   35.30    1.29 
  -3   1 -10    2.24    0.22 
   3  -1  10    2.34    0.19 
  -4   1 -10    4.39    0.31 
   4  -1  10    3.92    0.28 
  -5   1 -10    0.36    0.13 
   5  -1  10    0.16    0.10 
  -6   1 -10    0.48    0.15 
   6  -1  10    0.20    0.14 
  -7   1 -10    1.86    0.27 
   7  -1  10    1.17    0.24 
  -8   1 -10    2.92    0.35 
  -9   0  10    0.23    0.18 
  -8   0  10    0.07    0.15 
  -7   0  10    3.60    0.38 
  -6   0  10    0.19    0.12 
  -5   0  10    2.63    0.28 
  -4   0  10    2.47    0.25 
  -3   0  10   18.11    0.78 
  -2   0  10    0.49    0.10 
   1   0 -10   55.00    2.05 
  -1   0  10   55.67    1.98 
   0   0 -10  149.68    5.30 
   0   0 -10  143.88    5.10 
   0   0  10  149.75    5.07 
  -1   0 -10   54.28    2.03 
  -1   0 -10   53.41    1.90 
   1   0  10   54.74    1.91 
  -2   0 -10    0.39    0.10 
  -2   0 -10    0.52    0.06 
   2   0  10    0.53    0.09 
  -3   0 -10   16.69    0.77 
  -3   0 -10   17.10    0.62 
   3   0  10   17.08    0.70 
  -4   0 -10    2.38    0.26 
  -4   0 -10    2.82    0.15 
   4   0  10    2.81    0.22 
  -5   0 -10    2.66    0.29 
   5   0  10    2.56    0.24 
  -6   0 -10    0.17    0.11 
   6   0  10    0.05    0.12 
  -7   0 -10    3.83    0.39 
   7   0  10    2.42    0.31 
  -8   0 -10    0.23    0.15 
  -9   0 -10    0.23    0.19 
  -9   1  10    1.50    0.32 
  -8   1  10    2.30    0.34 
  -7   1  10    1.77    0.30 
  -6   1  10    0.16    0.12 
  -5   1  10    0.50    0.15 
  -4   1  10    4.22    0.31 
  -3   1  10    2.06    0.21 
   2  -1 -10   33.76    1.30 
  -2   1  10   32.84    1.27 
   1  -1 -10   36.86    1.38 
   1  -1 -10   35.37    1.36 
  -1   1  10   36.56    1.34 
   0  -1 -10  150.99    5.31 
   0  -1 -10  144.87    5.12 
   0   1  10  148.41    5.08 
  -1  -1 -10   34.94    1.26 
  -1  -1 -10   34.34    1.36 
   1   1  10   35.97    1.27 
  -2  -1 -10   32.88    1.17 
  -2  -1 -10   31.70    1.31 
   2   1  10   33.15    1.20 
  -3  -1 -10    2.04    0.23 
  -3  -1 -10    2.52    0.14 
  -4  -1 -10    4.33    0.22 
  -4  -1 -10    4.16    0.32 
  -5  -1 -10    0.44    0.14 
  -6  -1 -10    0.51    0.17 
   6   1  10    0.22    0.09 
  -7  -1 -10    1.81    0.30 
  -8  -1 -10    2.54    0.37 
  -9  -1 -10    1.26    0.31 
  -9   2  10    0.15    0.19 
  -8   2  10    0.82    0.24 
  -7   2  10    0.55    0.18 
  -6   2  10    7.23    0.49 
  -5   2  10    2.39    0.29 
  -4   2  10   13.03    0.66 
   3  -2 -10   17.93    0.79 
  -3   2  10   16.34    0.75 
   2  -2 -10   22.32    0.92 
  -2   2  10   21.42    0.88 
   1  -2 -10    2.39    0.17 
   1  -2 -10    3.11    0.22 
  -1   2  10    3.32    0.21 
   0  -2 -10   18.78    0.77 
   0  -2 -10   18.67    0.74 
   0   2  10   18.94    0.73 
  -1  -2 -10    3.23    0.23 
  -1  -2 -10    2.99    0.18 
  -2  -2 -10   20.60    0.91 
  -2  -2 -10   21.00    0.79 
   2   2  10   21.75    0.80 
  -3  -2 -10   16.11    0.77 
  -3  -2 -10   16.98    0.65 
   3   2  10   16.57    0.66 
  -4  -2 -10   12.57    0.52 
  -4  -2 -10   12.50    0.67 
   4   2  10   12.68    0.55 
  -5  -2 -10    2.48    0.19 
  -5  -2 -10    3.34    0.34 
   5   2  10    2.39    0.21 
  -6  -2 -10    6.47    0.48 
  -7  -2 -10    0.46    0.20 
  -8  -2 -10    0.60    0.22 
  -9  -2 -10    0.39    0.24 
  -9   3  10    0.82    0.26 
  -8   3  10    0.72    0.22 
  -7   3  10    2.83    0.37 
  -6   3  10    0.44    0.16 
  -5   3  10    8.14    0.53 
   4  -3 -10    2.64    0.30 
  -4   3  10    2.88    0.29 
   3  -3 -10    8.23    0.47 
  -3   3  10    8.40    0.46 
   2  -3 -10   13.12    0.61 
  -2   3  10   12.71    0.59 
   1  -3 -10    4.47    0.28 
  -1   3  10    5.15    0.28 
   0  -3 -10    1.14    0.13 
   0  -3 -10    1.57    0.15 
   0   3  10    1.27    0.12 
  -1  -3 -10    4.36    0.29 
  -1  -3 -10    4.91    0.26 
   1   3  10    4.79    0.23 
  -2  -3 -10   12.95    0.63 
  -2  -3 -10   12.89    0.53 
   2   3  10   13.35    0.51 
  -3  -3 -10    8.68    0.40 
  -3  -3 -10    9.14    0.52 
   3   3  10    8.92    0.38 
  -4  -3 -10    3.20    0.21 
  -4  -3 -10    2.31    0.29 
   4   3  10    2.88    0.19 
  -5  -3 -10    7.95    0.53 
  -5  -3 -10    8.07    0.40 
  -6  -3 -10    0.47    0.17 
  -7  -3 -10    3.91    0.45 
  -8  -3 -10    0.95    0.24 
  -9  -3 -10    0.84    0.28 
  -8   4  10    0.22    0.17 
  -7   4  10    1.99    0.33 
  -6   4  10    0.34    0.18 
  -5   4  10    5.13    0.42 
   4  -4 -10    4.50    0.37 
  -4   4  10    4.71    0.36 
   3  -4 -10   12.46    0.62 
  -3   4  10   11.93    0.61 
   2  -4 -10    5.70    0.34 
   2  -4 -10    5.34    0.26 
  -2   4  10    5.18    0.32 
   1  -4 -10    3.76    0.22 
   1  -4 -10    4.20    0.26 
  -1   4  10    3.32    0.22 
   0  -4 -10    1.80    0.17 
   0  -4 -10    1.84    0.17 
  -1  -4 -10    3.88    0.28 
  -1  -4 -10    4.23    0.24 
   1   4  10    4.19    0.20 
  -2  -4 -10    5.61    0.37 
  -2  -4 -10    5.17    0.28 
   2   4  10    5.63    0.24 
  -3  -4 -10   12.52    0.53 
  -3  -4 -10   11.18    0.64 
  -4  -4 -10    4.75    0.28 
  -4  -4 -10    4.79    0.39 
  -5  -4 -10    5.43    0.44 
  -5  -4 -10    5.55    0.32 
  -6  -4 -10    0.31    0.15 
  -6  -4 -10    0.32    0.11 
  -7  -4 -10    1.61    0.30 
  -8  -4 -10    0.35    0.20 
  -8   5  10    0.82    0.25 
  -7   5  10    1.23    0.27 
  -6   5  10    1.18    0.26 
   5  -5 -10    2.60    0.34 
  -5   5  10    2.86    0.34 
   4  -5 -10    2.73    0.31 
  -4   5  10    2.61    0.30 
   3  -5 -10    2.56    0.27 
  -3   5  10    2.33    0.26 
   2  -5 -10    4.39    0.31 
   2  -5 -10    5.07    0.24 
  -2   5  10    5.14    0.32 
   1  -5 -10    4.80    0.30 
   1  -5 -10    4.78    0.26 
  -1   5  10    4.75    0.28 
   0  -5 -10    0.70    0.12 
   0  -5 -10    0.78    0.13 
   0   5  10    0.64    0.09 
  -1  -5 -10    4.77    0.32 
  -1  -5 -10    4.76    0.28 
   1   5  10    5.00    0.23 
  -2  -5 -10    5.28    0.35 
  -2  -5 -10    4.72    0.28 
  -3  -5 -10    2.80    0.31 
  -3  -5 -10    2.60    0.20 
  -4  -5 -10    2.59    0.22 
  -4  -5 -10    2.54    0.32 
  -5  -5 -10    2.84    0.23 
  -5  -5 -10    3.05    0.38 
  -6  -5 -10    1.29    0.19 
  -6  -5 -10    1.39    0.28 
  -7  -5 -10    1.52    0.31 
  -8  -5 -10    0.81    0.24 
  -8   6  10    0.34    0.26 
  -7   6  10    0.21    0.20 
  -6   6  10    2.45    0.36 
   5  -6 -10    0.97    0.23 
  -5   6  10    1.02    0.23 
   4  -6 -10    0.35    0.17 
  -4   6  10    0.41    0.15 
   3  -6 -10    6.24    0.42 
  -3   6  10    6.11    0.41 
   2  -6 -10    3.36    0.26 
  -2   6  10    3.10    0.25 
   1  -6 -10    0.63    0.13 
   1  -6 -10    0.65    0.10 
  -1   6  10    0.58    0.12 
   0  -6 -10    2.96    0.23 
   0   6  10    3.02    0.20 
  -1  -6 -10    0.67    0.13 
  -1  -6 -10    0.71    0.14 
   1   6  10    0.64    0.08 
  -2  -6 -10    3.27    0.24 
  -2  -6 -10    3.40    0.29 
  -3  -6 -10    6.86    0.37 
  -3  -6 -10    6.63    0.46 
  -4  -6 -10    0.29    0.11 
  -4  -6 -10    0.41    0.19 
  -5  -6 -10    0.44    0.20 
  -5  -6 -10    1.18    0.18 
  -6  -6 -10    2.75    0.27 
  -6  -6 -10    3.04    0.41 
  -7  -6 -10    0.08    0.14 
  -8  -6 -10    1.03    0.30 
  -8   7  10    0.47    0.25 
  -7   7  10    0.38    0.20 
   6  -7 -10    0.89    0.26 
  -6   7  10    0.54    0.20 
   5  -7 -10    0.35    0.18 
  -5   7  10    0.02    0.13 
   4  -7 -10    2.62    0.32 
  -4   7  10    1.87    0.28 
   3  -7 -10    3.13    0.32 
  -3   7  10    3.06    0.30 
   2  -7 -10    0.58    0.15 
  -2   7  10    0.72    0.14 
   1  -7 -10    0.84    0.16 
   1  -7 -10    0.94    0.13 
   0  -7 -10    3.80    0.28 
   0  -7 -10    6.15    0.34 
   0   7  10    4.93    0.27 
  -1  -7 -10    0.91    0.17 
  -1  -7 -10    0.90    0.15 
  -2  -7 -10    0.82    0.15 
  -2  -7 -10    0.69    0.18 
  -3  -7 -10    4.23    0.39 
  -3  -7 -10    3.24    0.26 
  -4  -7 -10    2.37    0.24 
  -4  -7 -10    2.62    0.34 
  -5  -7 -10    0.25    0.15 
  -5  -7 -10    0.30    0.13 
  -6  -7 -10    0.99    0.19 
  -6  -7 -10    0.51    0.23 
  -7  -7 -10    0.16    0.16 
  -7  -7 -10   -0.16    0.17 
  -8  -7 -10    0.27    0.17 
  -7   8  10    0.28    0.21 
   6  -8 -10    0.21    0.20 
  -6   8  10   -0.05    0.14 
   5  -8 -10    1.46    0.29 
  -5   8  10    1.29    0.28 
   4  -8 -10    0.10    0.15 
  -4   8  10    0.07    0.13 
   3  -8 -10    2.47    0.30 
  -3   8  10    2.80    0.30 
   2  -8 -10    2.96    0.30 
  -2   8  10    2.73    0.27 
   1  -8 -10   12.57    0.61 
  -1   8  10   11.10    0.55 
   0  -8 -10    2.09    0.24 
   0  -8 -10    2.39    0.23 
  -1  -8 -10   13.06    0.68 
  -1  -8 -10   14.14    0.65 
  -2  -8 -10    3.29    0.26 
  -2  -8 -10    2.96    0.33 
  -3  -8 -10    2.15    0.30 
  -3  -8 -10    1.92    0.23 
  -4  -8 -10    0.15    0.11 
  -5  -8 -10    1.28    0.21 
  -6  -8 -10    0.10    0.18 
  -6  -8 -10    0.11    0.13 
  -7  -8 -10    0.87    0.31 
  -7  -8 -10    1.54    0.26 
  -7   9  10    0.23    0.22 
   6  -9 -10    0.37    0.23 
  -6   9  10    0.39    0.23 
   5  -9 -10    0.07    0.17 
  -5   9  10    0.06    0.15 
   4  -9 -10    0.72    0.21 
  -4   9  10    0.73    0.21 
   3  -9 -10    1.57    0.26 
  -3   9  10    1.24    0.23 
   2  -9 -10    3.26    0.33 
  -2   9  10    2.81    0.29 
   1  -9 -10    6.98    0.44 
   0  -9 -10    2.54    0.27 
  -1  -9 -10    8.08    0.46 
  -1  -9 -10    7.65    0.48 
  -2  -9 -10    3.01    0.33 
  -2  -9 -10    3.03    0.28 
  -3  -9 -10    1.22    0.20 
  -4  -9 -10    0.37    0.14 
  -5  -9 -10    0.17    0.14 
  -6  -9 -10    0.11    0.15 
  -7  -9 -10    0.03    0.24 
  -7  -9 -10    0.10    0.16 
   6 -10 -10    1.54    0.35 
  -6  10  10    1.74    0.36 
   5 -10 -10    0.06    0.18 
  -5  10  10    0.08    0.17 
   4 -10 -10    0.14    0.16 
  -4  10  10    0.45    0.19 
   3 -10 -10   -0.05    0.13 
  -3  10  10   -0.11    0.12 
   2 -10 -10    4.50    0.37 
   1 -10 -10    0.69    0.18 
   0 -10 -10   -0.07    0.09 
  -1 -10 -10    0.73    0.17 
  -2 -10 -10    4.27    0.40 
  -2 -10 -10    4.55    0.34 
  -3 -10 -10   -0.20    0.08 
  -4 -10 -10    0.68    0.17 
  -5 -10 -10    0.01    0.13 
  -6 -10 -10    1.32    0.25 
   5 -11 -10    0.46    0.25 
  -5  11  10    0.26    0.22 
   4 -11 -10    0.40    0.22 
  -4  11  10    0.84    0.25 
   3 -11 -10    0.26    0.18 
   2 -11 -10    0.21    0.16 
   1 -11 -10    2.03    0.29 
   0 -11 -10    0.09    0.11 
  -1 -11 -10    2.29    0.28 
  -2 -11 -10    0.19    0.18 
  -2 -11 -10    0.13    0.12 
  -3 -11 -10    0.38    0.15 
  -4 -11 -10    0.45    0.16 
  -5 -11 -10    0.72    0.20 
   4 -12 -10    0.11    0.20 
   3 -12 -10    0.66    0.23 
   2 -12 -10    0.27    0.18 
   1 -12 -10    0.51    0.19 
   0 -12 -10    0.15    0.13 
  -1 -12 -10    0.35    0.16 
  -2 -12 -10    0.25    0.15 
  -3 -12 -10    0.56    0.18 
  -4 -12 -10    0.05    0.14 
   3 -13 -10    0.18    0.21 
   2 -13 -10    0.04    0.16 
   1 -13 -10    0.10    0.16 
   0 -13 -10    0.96    0.23 
  -1 -13 -10    0.06    0.13 
  -2 -13 -10    0.10    0.13 
  -3 -13 -10    0.28    0.15 
   0 -14 -10   -0.02    0.18 
  -3 -13  11    0.46    0.24 
   0 -13  11    0.00    0.18 
   1 -13  11    0.86    0.24 
   2 -13  11    0.84    0.24 
   3 -13  11    0.57    0.24 
  -4 -12  11    0.18    0.22 
  -3 -12  11    0.85    0.24 
  -2 -12  11    0.46    0.19 
  -1 -12  11    1.39    0.26 
   0 -12  11   -0.10    0.11 
   1 -12  11    1.38    0.26 
   2 -12  11    0.36    0.17 
   3 -12  11    1.20    0.26 
   4 -12  11    0.19    0.19 
  -5 -11  11    0.57    0.25 
  -4 -11  11    0.05    0.18 
  -3 -11  11    0.86    0.23 
  -2 -11  11    0.12    0.16 
  -2 -11  11    0.21    0.13 
  -1 -11  11    0.53    0.17 
  -1 -11  11    0.47    0.17 
   0 -11  11    0.57    0.18 
   1 -11  11    0.55    0.18 
   2 -11  11    0.08    0.12 
   3 -11  11    0.59    0.20 
   4 -11  11    0.19    0.16 
   5 -11  11    0.71    0.24 
  -6 -10  11    0.67    0.28 
  -5 -10  11    0.13    0.20 
  -4 -10  11    0.00    0.15 
  -3 -10  11    0.21    0.16 
  -3 -10  11    0.65    0.16 
  -2 -10  11    0.61    0.16 
  -2 -10  11    0.41    0.17 
  -1 -10  11    2.46    0.29 
  -1 -10  11    2.33    0.25 
   0 -10  11    0.27    0.12 
   1 -10  11    2.54    0.31 
   2 -10  11    0.44    0.17 
   3 -10  11    0.10    0.13 
   4 -10  11    0.29    0.16 
   5 -10  11    0.22    0.19 
   6 -10  11    0.50    0.22 
  -6  -9  11    0.44    0.24 
  -5  -9  11    0.13    0.17 
  -4  -9  11    0.15    0.17 
  -4  -9  11    0.35    0.13 
  -3  -9  11    0.22    0.12 
  -3  -9  11    0.47    0.17 
  -2  -9  11    2.98    0.30 
  -2  -9  11    2.79    0.28 
  -1  -9  11    1.81    0.23 
  -1  -9  11    1.66    0.22 
   0  -9  11    0.04    0.08 
   0  -9  11    0.23    0.13 
   1  -9  11    1.44    0.23 
   2  -9  11    2.77    0.32 
   3  -9  11    0.45    0.16 
   4  -9  11    0.02    0.11 
   5  -9  11    0.32    0.17 
   6  -9  11    0.09    0.19 
  -7  -8  11    1.12    0.30 
  -6  -8  11    0.01    0.17 
  -5  -8  11    0.27    0.11 
  -5  -8  11    0.01    0.15 
  -4  -8  11    0.25    0.11 
  -4  -8  11    0.22    0.17 
  -3  -8  11    4.18    0.38 
  -3  -8  11    4.69    0.32 
  -2  -8  11    1.94    0.25 
  -2  -8  11    1.97    0.23 
  -1  -8  11    1.94    0.23 
  -1  -8  11    1.83    0.21 
   0  -8  11    3.95    0.31 
   1  -8  11    2.04    0.25 
   2  -8  11    1.69    0.25 
   3  -8  11    4.13    0.39 
   4  -8  11    0.11    0.13 
   5  -8  11    0.21    0.16 
   6  -8  11    0.43    0.20 
   7  -8  11    0.97    0.31 
  -7  -7  11    0.22    0.21 
  -6  -7  11    0.91    0.26 
  -5  -7  11    0.20    0.17 
  -5  -7  11    0.42    0.14 
  -4  -7  11    0.07    0.15 
  -4  -7  11    0.15    0.10 
  -3  -7  11    5.54    0.40 
  -3  -7  11    4.55    0.32 
  -2  -7  11    9.30    0.49 
  -2  -7  11    9.55    0.52 
  -1  -7  11    4.04    0.28 
  -1  -7  11    3.52    0.28 
   0  -7  11   10.36    0.53 
   0  -7  11    9.98    0.47 
   1  -7  11    3.38    0.30 
   2  -7  11    9.57    0.53 
   3  -7  11    4.35    0.35 
   4  -7  11    0.17    0.14 
   5  -7  11    0.18    0.16 
   6  -7  11    0.23    0.19 
   7  -7  11    0.21    0.22 
  -8  -6  11    1.03    0.31 
  -7  -6  11    0.54    0.23 
  -6  -6  11    0.47    0.22 
  -6  -6  11    0.67    0.16 
  -5  -6  11    0.92    0.17 
  -5  -6  11    0.79    0.22 
  -4  -6  11    6.67    0.39 
  -4  -6  11    5.64    0.45 
  -3  -6  11    2.47    0.24 
  -3  -6  11    2.38    0.29 
  -2  -6  11    5.51    0.34 
  -2  -6  11    5.84    0.38 
  -1  -6  11   -0.03    0.07 
  -1  -6  11   -0.02    0.08 
   0  -6  11   37.88    1.40 
   0  -6  11   37.49    1.45 
   1  -6  11    0.00    0.08 
   1  -6  11    0.01    0.05 
   2  -6  11    5.35    0.36 
  -3   6 -11    2.07    0.23 
   3  -6  11    2.34    0.27 
  -4   6 -11    6.41    0.39 
   4  -6  11    6.22    0.44 
  -5   6 -11    0.64    0.15 
   5  -6  11    0.85    0.21 
   6  -6  11    0.42    0.20 
   7  -6  11    1.06    0.27 
   8  -6  11    0.98    0.31 
  -8  -5  11    0.79    0.23 
  -7  -5  11    1.43    0.24 
  -7  -5  11    1.17    0.28 
  -6  -5  11    1.61    0.31 
  -6  -5  11    1.63    0.23 
  -5  -5  11    0.52    0.14 
  -4  -5  11    0.87    0.16 
  -3  -5  11    8.96    0.46 
  -3  -5  11    8.80    0.52 
  -2  -5  11   16.90    0.75 
  -2  -5  11   15.54    0.70 
  -1  -5  11    4.87    0.30 
  -1  -5  11    4.73    0.29 
   0  -5  11    2.08    0.16 
   0  -5  11    2.24    0.21 
   1  -5  11    4.92    0.23 
   1  -5  11    4.71    0.31 
  -2   5 -11   15.47    0.71 
   2  -5  11   15.73    0.72 
  -3   5 -11    7.84    0.44 
   3  -5  11    8.25    0.47 
  -4   5 -11    0.79    0.16 
   4  -5  11    1.11    0.22 
  -5   5 -11    0.73    0.16 
   5  -5  11    0.51    0.18 
  -6   5 -11    1.94    0.24 
   6  -5  11    1.63    0.28 
   7  -5  11    1.41    0.30 
   8  -5  11    0.51    0.26 
  -8  -4  11   -0.02    0.14 
  -7  -4  11    1.71    0.26 
  -6  -4  11    0.10    0.11 
  -5  -4  11    8.84    0.49 
  -4  -4  11    0.35    0.12 
  -3  -4  11    6.29    0.36 
  -2  -4  11    0.87    0.14 
  -1  -4  11   16.27    0.69 
   0  -4  11   12.65    0.53 
   0  -4  11   12.81    0.57 
   1  -4  11   14.89    0.67 
   1  -4  11   15.86    0.58 
  -2   4 -11    0.84    0.15 
   2  -4  11    0.72    0.14 
  -3   4 -11    6.58    0.38 
   3  -4  11    6.55    0.40 
  -4   4 -11    0.28    0.11 
   4  -4  11    0.18    0.13 
  -5   4 -11    7.31    0.44 
   5  -4  11    7.89    0.50 
  -6   4 -11    0.14    0.11 
   6  -4  11    0.36    0.17 
  -7   4 -11    1.53    0.23 
   7  -4  11    1.62    0.31 
   8  -4  11    0.11    0.19 
  -8  -3  11    0.21    0.16 
  -7  -3  11    1.59    0.25 
  -6  -3  11    3.22    0.32 
  -5  -3  11    8.40    0.48 
  -4  -3  11    4.94    0.33 
  -3  -3  11    3.56    0.26 
  -2  -3  11   12.59    0.57 
  -1  -3  11    9.53    0.45 
   0  -3  11    4.54    0.26 
  -1   3 -11    9.69    0.48 
   1  -3  11    9.82    0.37 
   1  -3  11    8.69    0.44 
  -2   3 -11   11.84    0.56 
   2  -3  11   11.24    0.54 
  -3   3 -11    3.52    0.26 
   3  -3  11    2.70    0.25 
  -4   3 -11    4.96    0.33 
   4  -3  11    4.80    0.35 
  -5   3 -11    8.05    0.48 
   5  -3  11    8.82    0.51 
  -6   3 -11    2.59    0.28 
   6  -3  11    2.76    0.32 
  -7   3 -11    1.55    0.24 
   7  -3  11    1.53    0.29 
   8  -3  11   -0.13    0.17 
  -9  -2  11    0.18    0.18 
  -8  -2  11    2.89    0.36 
  -7  -2  11    1.20    0.23 
  -6  -2  11    0.87    0.18 
  -5  -2  11    1.36    0.21 
  -4  -2  11   16.50    0.75 
  -3  -2  11    9.65    0.48 
  -2  -2  11    1.36    0.16 
  -1  -2  11   24.25    0.94 
   0   2 -11   38.73    1.48 
   0  -2  11   37.56    1.40 
  -1   2 -11   25.74    1.05 
   1  -2  11   25.93    1.00 
  -2   2 -11    1.63    0.19 
   2  -2  11    1.81    0.18 
  -3   2 -11    9.30    0.49 
   3  -2  11    9.20    0.47 
  -4   2 -11   14.73    0.70 
   4  -2  11   14.57    0.69 
  -5   2 -11    1.28    0.20 
   5  -2  11    1.42    0.22 
  -6   2 -11    0.84    0.18 
   6  -2  11    0.61    0.18 
  -7   2 -11    1.14    0.22 
   7  -2  11    1.05    0.24 
  -8   2 -11    2.72    0.34 
   8  -2  11    3.76    0.42 
  -9  -1  11    1.10    0.27 
  -8  -1  11    0.11    0.15 
  -7  -1  11    1.10    0.23 
  -6  -1  11    6.47    0.44 
  -5  -1  11    6.87    0.44 
  -4  -1  11    3.56    0.28 
  -3  -1  11    1.35    0.19 
  -2  -1  11   13.68    0.60 
  -1  -1  11   35.01    1.31 
   0   1 -11    8.63    0.42 
   0  -1  11    8.33    0.39 
  -1   1 -11   34.05    1.35 
   1  -1  11   34.76    1.27 
  -2   1 -11   14.16    0.66 
   2  -1  11   14.75    0.62 
  -3   1 -11    1.51    0.19 
   3  -1  11    1.59    0.17 
  -4   1 -11    3.30    0.27 
   4  -1  11    3.68    0.27 
  -5   1 -11    7.44    0.45 
   5  -1  11    6.35    0.41 
  -6   1 -11    5.57    0.40 
   6  -1  11    5.13    0.38 
  -7   1 -11    0.61    0.19 
   7  -1  11    1.12    0.24 
  -8   1 -11    0.10    0.14 
  -9   0  11    1.71    0.33 
  -8   0  11    0.35    0.17 
  -7   0  11    2.20    0.31 
  -6   0  11    2.90    0.32 
  -5   0  11    0.67    0.16 
  -4   0  11    3.95    0.30 
  -3   0  11   17.38    0.77 
  -2   0  11    1.94    0.19 
   1   0 -11   30.11    1.17 
  -1   0  11   29.89    1.14 
   0   0 -11    0.06    0.05 
   0   0 -11    0.00    0.06 
   0   0  11    0.14    0.06 
  -1   0 -11   28.31    1.03 
  -1   0 -11   27.62    1.13 
   1   0  11   28.82    1.05 
  -2   0 -11    1.54    0.18 
  -2   0 -11    2.00    0.11 
   2   0  11    1.78    0.16 
  -3   0 -11   17.02    0.62 
  -3   0 -11   17.32    0.78 
   3   0  11   16.50    0.70 
  -4   0 -11    3.41    0.28 
   4   0  11    2.98    0.24 
  -5   0 -11    0.89    0.19 
   5   0  11    0.92    0.16 
  -6   0 -11    2.67    0.31 
   6   0  11    2.55    0.28 
  -7   0 -11    2.60    0.34 
  -8   0 -11    0.53    0.19 
  -9   0 -11    1.39    0.30 
  -9   1  11    0.74    0.25 
  -8   1  11   -0.03    0.14 
  -7   1  11    1.05    0.24 
  -6   1  11    6.22    0.45 
  -5   1  11    6.42    0.43 
  -4   1  11    3.56    0.28 
  -3   1  11    1.30    0.18 
   2  -1 -11   14.99    0.67 
  -2   1  11   14.52    0.65 
   1  -1 -11   34.93    1.33 
   1  -1 -11   34.99    1.32 
  -1   1  11   34.22    1.29 
   0  -1 -11    7.81    0.38 
   0  -1 -11    8.25    0.40 
   0   1  11    8.19    0.37 
  -1  -1 -11   34.45    1.35 
  -1  -1 -11   33.84    1.25 
   1   1  11   34.84    1.25 
  -2  -1 -11   15.14    0.56 
  -2  -1 -11   13.91    0.67 
   2   1  11   14.27    0.59 
  -3  -1 -11    1.64    0.21 
  -3  -1 -11    1.55    0.11 
   3   1  11    1.56    0.15 
  -4  -1 -11    3.67    0.31 
  -4  -1 -11    3.99    0.21 
  -6  -1 -11    5.97    0.44 
  -7  -1 -11    0.71    0.21 
  -8  -1 -11    0.14    0.16 
  -9  -1 -11    0.87    0.25 
  -9   2  11    0.19    0.19 
  -8   2  11    4.14    0.47 
  -7   2  11    1.13    0.24 
  -6   2  11    0.60    0.19 
  -5   2  11    1.59    0.25 
  -4   2  11   14.69    0.72 
   3  -2 -11    8.86    0.50 
  -3   2  11    9.12    0.48 
   2  -2 -11    1.94    0.21 
  -2   2  11    1.78    0.19 
   1  -2 -11   25.78    1.02 
   1  -2 -11   25.71    1.03 
  -1   2  11   26.50    1.01 
   0  -2 -11   36.93    1.43 
   0  -2 -11   37.86    1.39 
   0   2  11   37.09    1.35 
  -1  -2 -11   25.25    0.96 
  -1  -2 -11   25.68    1.04 
   1   2  11   25.16    0.94 
  -2  -2 -11    1.14    0.17 
  -2  -2 -11    1.54    0.13 
   2   2  11    1.66    0.13 
  -3  -2 -11    9.63    0.41 
  -3  -2 -11    9.48    0.53 
   3   2  11    9.41    0.42 
  -4  -2 -11   15.13    0.76 
  -4  -2 -11   15.07    0.60 
   4   2  11   14.86    0.64 
  -5  -2 -11    1.56    0.25 
  -6  -2 -11    0.82    0.21 
  -7  -2 -11    0.78    0.21 
  -8  -2 -11    3.18    0.42 
  -8   3  11   -0.08    0.14 
  -7   3  11    1.29    0.25 
  -6   3  11    2.96    0.36 
  -5   3  11    8.25    0.53 
   4  -3 -11    5.31    0.40 
  -4   3  11    5.45    0.39 
   3  -3 -11    3.01    0.29 
  -3   3  11    2.95    0.27 
   2  -3 -11   12.11    0.59 
  -2   3  11   11.90    0.56 
   1  -3 -11    9.74    0.45 
   1  -3 -11    7.42    0.39 
  -1   3  11    9.22    0.42 
   0  -3 -11    4.27    0.26 
   0  -3 -11    4.62    0.26 
   0   3  11    4.34    0.24 
  -1  -3 -11    9.38    0.42 
  -1  -3 -11    9.84    0.48 
   1   3  11    9.24    0.40 
  -2  -3 -11   11.95    0.51 
  -2  -3 -11   11.93    0.61 
   2   3  11   12.45    0.49 
  -3  -3 -11    2.62    0.29 
  -3  -3 -11    2.97    0.20 
   3   3  11    3.31    0.19 
  -4  -3 -11    5.02    0.27 
  -4  -3 -11    4.78    0.39 
  -5  -3 -11    8.48    0.57 
  -5  -3 -11    8.77    0.42 
  -6  -3 -11    2.46    0.34 
  -7  -3 -11    1.39    0.30 
  -8  -3 -11    0.07    0.18 
  -8   4  11    0.22    0.18 
  -7   4  11    1.53    0.29 
  -6   4  11    0.26    0.17 
  -5   4  11    7.67    0.53 
   4  -4 -11    0.30    0.13 
  -4   4  11    0.03    0.12 
   3  -4 -11    6.74    0.43 
  -3   4  11    6.62    0.41 
   2  -4 -11    0.83    0.10 
   2  -4 -11    0.89    0.16 
  -2   4  11    0.91    0.15 
   1  -4 -11   14.09    0.63 
   1  -4 -11   13.26    0.59 
  -1   4  11   14.41    0.60 
   0  -4 -11   11.58    0.53 
   0  -4 -11   11.82    0.54 
  -1  -4 -11   14.49    0.67 
  -1  -4 -11   14.40    0.62 
   1   4  11   15.26    0.57 
  -2  -4 -11    0.75    0.16 
  -2  -4 -11    1.00    0.12 
   2   4  11    1.04    0.10 
  -3  -4 -11    6.59    0.34 
  -3  -4 -11    6.79    0.46 
  -4  -4 -11    0.46    0.11 
  -4  -4 -11    0.16    0.14 
  -5  -4 -11    7.24    0.55 
  -5  -4 -11    8.71    0.43 
  -6  -4 -11    0.09    0.15 
  -7  -4 -11    1.71    0.33 
  -8  -4 -11    0.15    0.16 
  -8   5  11    0.53    0.21 
  -7   5  11    1.33    0.30 
  -6   5  11    1.78    0.33 
   5  -5 -11    0.82    0.22 
  -5   5  11    0.75    0.21 
   4  -5 -11    0.93    0.21 
  -4   5  11    0.84    0.20 
   3  -5 -11    8.77    0.51 
  -3   5  11    8.72    0.50 
   2  -5 -11   15.67    0.63 
   2  -5 -11   15.41    0.72 
  -2   5  11   15.56    0.70 
   1  -5 -11    4.70    0.31 
   1  -5 -11    4.79    0.27 
  -1   5  11    4.82    0.28 
   0  -5 -11    1.85    0.19 
   0  -5 -11    1.99    0.19 
   0   5  11    1.93    0.15 
  -1  -5 -11    4.25    0.27 
  -1  -5 -11    5.18    0.32 
   1   5  11    4.28    0.22 
  -2  -5 -11   15.49    0.71 
  -2  -5 -11   20.05    0.85 
  -3  -5 -11    7.84    0.51 
  -3  -5 -11    8.30    0.41 
  -4  -5 -11    0.88    0.22 
  -4  -5 -11    0.83    0.14 
  -5  -5 -11    0.58    0.20 
  -5  -5 -11    0.67    0.14 
  -6  -5 -11    1.35    0.20 
  -6  -5 -11    1.59    0.31 
  -7  -5 -11    1.18    0.27 
  -8  -5 -11    0.10    0.18 
  -8   6  11    0.51    0.27 
  -7   6  11    0.64    0.25 
  -6   6  11    0.49    0.23 
   5  -6 -11    1.12    0.24 
  -5   6  11    0.77    0.20 
   4  -6 -11    5.63    0.44 
  -4   6  11    6.35    0.45 
   3  -6 -11    2.65    0.29 
  -3   6  11    2.08    0.26 
   2  -6 -11    4.82    0.34 
  -2   6  11    5.36    0.34 
   1  -6 -11    0.06    0.09 
   1  -6 -11    0.06    0.07 
  -1   6  11    0.06    0.07 
   0  -6 -11   34.86    1.35 
   0   6  11   34.81    1.28 
  -1  -6 -11    0.03    0.08 
  -1  -6 -11    0.08    0.08 
  -2  -6 -11    5.20    0.31 
  -2  -6 -11    5.23    0.39 
  -3  -6 -11    2.28    0.22 
  -3  -6 -11    2.38    0.30 
  -4  -6 -11    5.46    0.34 
  -4  -6 -11    5.06    0.43 
  -5  -6 -11    0.65    0.15 
  -5  -6 -11    0.57    0.20 
  -6  -6 -11    0.21    0.19 
  -6  -6 -11    0.37    0.14 
  -7  -6 -11    0.59    0.22 
  -8  -6 -11    0.82    0.27 
  -7   7  11    0.14    0.18 
   6  -7 -11    0.90    0.27 
  -6   7  11    0.72    0.23 
   5  -7 -11    0.48    0.21 
  -5   7  11    0.28    0.17 
   4  -7 -11    0.03    0.13 
  -4   7  11    0.23    0.15 
   3  -7 -11    4.38    0.36 
  -3   7  11    4.37    0.35 
   2  -7 -11    7.48    0.46 
  -2   7  11    8.61    0.46 
   1  -7 -11    3.29    0.29 
   0  -7 -11    9.30    0.48 
   0   7  11    9.05    0.42 
  -1  -7 -11    3.54    0.29 
  -1  -7 -11    3.51    0.26 
  -2  -7 -11    7.90    0.51 
  -2  -7 -11    8.70    0.45 
  -3  -7 -11    4.16    0.40 
  -3  -7 -11    4.57    0.31 
  -4  -7 -11    0.11    0.10 
  -4  -7 -11    0.16    0.16 
  -5  -7 -11   -0.01    0.14 
  -5  -7 -11    0.03    0.10 
  -6  -7 -11    0.45    0.22 
  -6  -7 -11    0.70    0.17 
  -7  -7 -11    0.24    0.21 
  -7   8  11    0.88    0.27 
   6  -8 -11    0.19    0.19 
  -6   8  11    0.12    0.17 
   5  -8 -11    0.03    0.17 
  -5   8  11    0.17    0.17 
   4  -8 -11    0.05    0.14 
  -4   8  11    0.41    0.16 
   3  -8 -11    3.47    0.36 
  -3   8  11    3.20    0.32 
   2  -8 -11    1.64    0.24 
  -2   8  11    1.46    0.22 
   1  -8 -11    1.71    0.23 
  -1   8  11    1.80    0.20 
   0  -8 -11    3.37    0.28 
   0  -8 -11    4.24    0.30 
  -1  -8 -11    2.03    0.25 
  -1  -8 -11    1.76    0.22 
  -2  -8 -11    1.37    0.24 
  -2  -8 -11    1.72    0.21 
  -3  -8 -11    4.16    0.30 
  -3  -8 -11    3.71    0.39 
  -4  -8 -11    0.04    0.11 
  -4  -8 -11    0.41    0.19 
  -5  -8 -11   -0.09    0.16 
  -5  -8 -11    0.10    0.12 
  -6  -8 -11    0.31    0.14 
  -6  -8 -11    0.13    0.18 
  -7  -8 -11    0.98    0.33 
   6  -9 -11    0.24    0.24 
  -6   9  11    0.11    0.19 
   5  -9 -11   -0.01    0.16 
  -5   9  11    0.07    0.15 
   4  -9 -11   -0.11    0.14 
  -4   9  11    0.01    0.13 
   3  -9 -11    0.15    0.15 
  -3   9  11    0.16    0.14 
   2  -9 -11    2.86    0.32 
  -2   9  11    2.20    0.27 
   1  -9 -11    1.55    0.23 
   0  -9 -11    0.09    0.09 
  -1  -9 -11    1.22    0.24 
  -1  -9 -11    1.68    0.22 
  -2  -9 -11    2.73    0.27 
  -2  -9 -11    2.55    0.32 
  -3  -9 -11    0.06    0.16 
  -3  -9 -11    0.26    0.12 
  -4  -9 -11    0.19    0.17 
  -4  -9 -11    0.09    0.11 
  -5  -9 -11    0.34    0.20 
  -5  -9 -11    0.33    0.16 
  -6  -9 -11    0.27    0.16 
  -6  -9 -11    0.43    0.25 
   6 -10 -11    0.76    0.29 
  -6  10  11    0.65    0.27 
   5 -10 -11    0.09    0.19 
  -5  10  11    0.19    0.18 
   4 -10 -11   -0.06    0.14 
  -4  10  11    0.05    0.15 
   3 -10 -11    0.01    0.15 
  -3  10  11    0.30    0.17 
   2 -10 -11    0.30    0.16 
   1 -10 -11    2.39    0.29 
   0 -10 -11    0.05    0.11 
  -1 -10 -11    2.08    0.26 
  -2 -10 -11    0.54    0.20 
  -2 -10 -11    0.42    0.14 
  -3 -10 -11    0.06    0.15 
  -3 -10 -11    0.31    0.14 
  -4 -10 -11    0.18    0.19 
  -4 -10 -11   -0.07    0.10 
  -5 -10 -11    0.03    0.14 
  -5 -10 -11    0.03    0.19 
  -6 -10 -11    0.81    0.22 
  -6 -10 -11    0.83    0.32 
   5 -11 -11    0.70    0.25 
  -5  11  11    0.67    0.25 
   4 -11 -11    0.41    0.22 
  -4  11  11    0.06    0.20 
   3 -11 -11    0.71    0.22 
   2 -11 -11    0.09    0.15 
   1 -11 -11    0.41    0.15 
   0 -11 -11    0.72    0.19 
  -1 -11 -11    0.38    0.14 
  -2 -11 -11    0.07    0.12 
  -3 -11 -11    0.73    0.19 
  -3 -11 -11    0.69    0.25 
  -4 -11 -11   -0.01    0.18 
  -4 -11 -11    0.15    0.14 
  -5 -11 -11    0.64    0.28 
  -5 -11 -11    0.88    0.22 
   4 -12 -11    0.05    0.21 
   3 -12 -11    0.70    0.24 
   2 -12 -11    0.67    0.23 
   1 -12 -11    1.32    0.28 
   0 -12 -11   -0.02    0.12 
  -1 -12 -11    1.23    0.24 
  -2 -12 -11    0.60    0.17 
  -3 -12 -11    0.70    0.19 
  -4 -12 -11    0.31    0.17 
  -4 -12 -11    0.08    0.20 
   2 -13 -11    0.69    0.25 
   1 -13 -11    0.57    0.21 
   0 -13 -11   -0.10    0.12 
  -1 -13 -11    0.64    0.20 
  -2 -13 -11    0.96    0.22 
  -3 -13 -11    0.37    0.17 
   0 -13  12   -0.01    0.17 
   1 -13  12    0.42    0.19 
   2 -13  12    0.49    0.21 
  -4 -12  12    0.19    0.23 
  -3 -12  12    0.48    0.23 
  -1 -12  12    0.81    0.21 
   0 -12  12    0.91    0.22 
   1 -12  12    0.83    0.21 
   2 -12  12    0.29    0.17 
   3 -12  12    0.38    0.20 
   4 -12  12    0.46    0.21 
  -5 -11  12    0.40    0.23 
  -4 -11  12   -0.10    0.16 
  -3 -11  12    1.01    0.26 
  -2 -11  12    0.16    0.16 
  -2 -11  12    0.27    0.15 
  -1 -11  12    0.87    0.22 
   0 -11  12    0.04    0.13 
   1 -11  12    1.28    0.25 
   2 -11  12    0.30    0.16 
   3 -11  12    1.03    0.24 
   4 -11  12    0.12    0.15 
   5 -11  12    0.03    0.18 
  -6 -10  12    0.81    0.29 
  -5 -10  12    1.07    0.28 
  -4 -10  12    0.31    0.20 
  -3 -10  12    0.39    0.19 
  -3 -10  12    0.51    0.16 
  -2 -10  12    1.10    0.22 
  -2 -10  12    1.38    0.22 
  -1 -10  12    1.32    0.22 
  -1 -10  12    1.43    0.21 
   0 -10  12    0.14    0.13 
   1 -10  12    1.07    0.21 
   2 -10  12    1.20    0.24 
   3 -10  12    0.38    0.16 
   4 -10  12    0.32    0.17 
   5 -10  12    0.76    0.24 
   6 -10  12    0.50    0.23 
  -6  -9  12   -0.20    0.17 
  -5  -9  12    0.07    0.19 
  -4  -9  12    0.96    0.25 
  -4  -9  12    1.25    0.20 
  -3  -9  12    0.08    0.10 
  -3  -9  12    0.00    0.13 
  -2  -9  12    0.01    0.10 
  -2  -9  12    0.08    0.14 
  -1  -9  12    0.69    0.17 
  -1  -9  12    1.12    0.19 
   0  -9  12    0.69    0.16 
   1  -9  12    1.04    0.20 
   2  -9  12    0.19    0.12 
   3  -9  12    0.00    0.12 
   4  -9  12    1.20    0.25 
   5  -9  12    0.15    0.15 
   6  -9  12    0.00    0.19 
  -7  -8  12    0.02    0.23 
  -6  -8  12   -0.03    0.18 
  -5  -8  12    1.07    0.27 
  -5  -8  12    1.16    0.20 
  -4  -8  12    0.06    0.10 
  -4  -8  12    0.08    0.16 
  -3  -8  12    1.59    0.22 
  -3  -8  12    1.66    0.26 
  -2  -8  12    2.23    0.27 
  -2  -8  12    2.55    0.27 
  -1  -8  12    1.17    0.20 
  -1  -8  12    0.97    0.17 
   0  -8  12    7.85    0.46 
   0  -8  12    7.82    0.40 
   1  -8  12    1.29    0.22 
   2  -8  12    2.82    0.31 
   3  -8  12    1.34    0.25 
   4  -8  12    0.09    0.13 
   5  -8  12    1.14    0.27 
   6  -8  12    0.11    0.18 
   7  -8  12    1.01    0.32 
  -7  -7  12    0.07    0.20 
  -6  -7  12    0.49    0.14 
  -6  -7  12    0.31    0.21 
  -5  -7  12    1.28    0.28 
  -5  -7  12    0.89    0.17 
  -4  -7  12    2.29    0.25 
  -4  -7  12    2.53    0.33 
  -3  -7  12    0.76    0.16 
  -3  -7  12    0.66    0.19 
  -2  -7  12    2.09    0.23 
  -2  -7  12    2.25    0.26 
  -1  -7  12    2.77    0.27 
  -1  -7  12    2.48    0.23 
   0  -7  12   40.42    1.57 
   0  -7  12   39.88    1.49 
   1  -7  12    2.30    0.26 
   2  -7  12    2.13    0.26 
   3  -7  12    0.78    0.19 
   4  -7  12    2.49    0.33 
  -5   7 -12    1.00    0.19 
   5  -7  12    1.13    0.26 
   6  -7  12    0.42    0.20 
   7  -7  12   -0.05    0.19 
  -7  -6  12    0.63    0.26 
  -6  -6  12    3.00    0.39 
  -6  -6  12    2.64    0.29 
  -5  -6  12    0.33    0.18 
  -5  -6  12    0.68    0.15 
  -4  -6  12    0.32    0.18 
  -4  -6  12    0.28    0.13 
  -3  -6  12    6.17    0.43 
  -3  -6  12    5.80    0.37 
  -2  -6  12   23.80    0.97 
  -2  -6  12   22.42    0.99 
  -1  -6  12    3.85    0.27 
  -1  -6  12    3.98    0.29 
   0  -6  12    0.30    0.12 
   0  -6  12    0.32    0.09 
   1  -6  12    3.98    0.30 
   2  -6  12   23.83    1.03 
  -3   6 -12    5.94    0.37 
   3  -6  12    5.29    0.40 
  -4   6 -12    0.17    0.12 
   4  -6  12    0.20    0.14 
  -5   6 -12    0.74    0.16 
   5  -6  12    0.81    0.22 
   6  -6  12    3.44    0.41 
   7  -6  12    0.88    0.28 
  -8  -5  12    0.18    0.24 
  -7  -5  12    0.64    0.17 
  -7  -5  12    0.04    0.19 
  -6  -5  12    0.44    0.16 
  -5  -5  12   14.27    0.70 
  -4  -5  12    9.54    0.51 
  -3  -5  12    7.58    0.49 
  -3  -5  12    7.80    0.43 
  -2  -5  12   14.47    0.68 
  -2  -5  12   14.24    0.65 
  -1  -5  12   17.70    0.76 
  -1  -5  12   18.31    0.77 
   0  -5  12    1.23    0.17 
   0  -5  12    0.86    0.12 
   1  -5  12   17.86    0.67 
   1  -5  12   17.32    0.77 
  -2   5 -12   14.10    0.67 
   2  -5  12   14.20    0.68 
  -3   5 -12    6.91    0.41 
   3  -5  12    7.31    0.45 
  -4   5 -12    9.17    0.49 
   4  -5  12    8.24    0.52 
  -5   5 -12   11.78    0.62 
   5  -5  12   12.49    0.69 
  -6   5 -12    0.77    0.17 
   6  -5  12    0.71    0.21 
   7  -5  12    0.20    0.21 
   8  -5  12    0.42    0.25 
  -8  -4  12    0.74    0.21 
  -7  -4  12    5.37    0.41 
  -6  -4  12    1.35    0.23 
  -5  -4  12    6.79    0.42 
  -4  -4  12    4.32    0.31 
  -3  -4  12   12.59    0.59 
  -2  -4  12    7.93    0.42 
  -1  -4  12   13.94    0.62 
   0  -4  12    1.62    0.15 
   0  -4  12    1.68    0.18 
   1  -4  12   13.79    0.52 
   1  -4  12   13.17    0.61 
  -2   4 -12    7.75    0.43 
   2  -4  12    7.55    0.42 
  -3   4 -12   12.16    0.59 
   3  -4  12   11.54    0.59 
  -4   4 -12    4.23    0.32 
   4  -4  12    4.81    0.36 
  -5   4 -12    6.04    0.40 
   5  -4  12    6.64    0.46 
  -6   4 -12    1.28    0.21 
   6  -4  12    1.74    0.30 
  -7   4 -12    4.95    0.38 
   7  -4  12    5.25    0.49 
   8  -4  12    0.39    0.24 
  -8  -3  12    1.66    0.29 
  -7  -3  12    0.86    0.20 
  -6  -3  12    0.16    0.13 
  -5  -3  12    4.49    0.34 
  -4  -3  12   22.84    0.97 
  -3  -3  12    1.46    0.19 
  -2  -3  12    6.37    0.35 
  -1  -3  12   14.17    0.62 
   0  -3  12    1.99    0.18 
  -1   3 -12   13.91    0.65 
   1  -3  12   14.55    0.63 
   1  -3  12   14.07    0.53 
  -2   3 -12    7.27    0.40 
   2  -3  12    6.83    0.39 
  -3   3 -12    1.60    0.20 
   3  -3  12    1.50    0.20 
  -4   3 -12   20.43    0.91 
   4  -3  12   19.97    0.91 
  -5   3 -12    4.77    0.35 
   5  -3  12    4.56    0.37 
  -6   3 -12    0.29    0.13 
   6  -3  12    0.04    0.13 
  -7   3 -12    0.89    0.20 
   7  -3  12    0.86    0.25 
   8  -3  12    0.98    0.27 
  -8  -2  12    0.29    0.18 
  -7  -2  12    0.13    0.14 
  -6  -2  12    7.44    0.49 
  -5  -2  12    2.16    0.27 
  -4  -2  12    0.69    0.16 
  -3  -2  12   11.67    0.56 
  -2  -2  12   19.87    0.83 
  -1  -2  12    3.29    0.23 
   0   2 -12    5.88    0.33 
   0  -2  12    5.08    0.30 
  -1   2 -12    3.62    0.25 
   1  -2  12    3.27    0.23 
  -2   2 -12   19.96    0.86 
   2  -2  12   19.55    0.82 
  -3   2 -12    9.76    0.53 
   3  -2  12   11.28    0.53 
  -4   2 -12    0.82    0.17 
   4  -2  12    0.63    0.15 
  -5   2 -12    2.20    0.26 
   5  -2  12    2.01    0.26 
  -6   2 -12    6.35    0.43 
   6  -2  12    6.64    0.46 
  -7   2 -12   -0.02    0.11 
   7  -2  12    0.02    0.14 
  -8   2 -12    0.11    0.14 
   8  -2  12    0.04    0.20 
  -8  -1  12    0.48    0.18 
  -7  -1  12    2.13    0.30 
  -6  -1  12    1.08    0.22 
  -5  -1  12    1.16    0.20 
  -4  -1  12    7.05    0.43 
  -3  -1  12    3.39    0.26 
  -2  -1  12    4.20    0.27 
  -1  -1  12    3.95    0.25 
   0   1 -12   24.43    0.99 
   0  -1  12   23.98    0.94 
  -1   1 -12    3.29    0.25 
   1  -1  12    3.87    0.23 
  -2   1 -12    3.85    0.28 
   2  -1  12    3.92    0.25 
  -3   1 -12    3.51    0.28 
   3  -1  12    4.12    0.27 
  -4   1 -12    6.27    0.39 
   4  -1  12    5.29    0.35 
  -5   1 -12    0.98    0.19 
   5  -1  12    1.05    0.19 
  -6   1 -12    0.72    0.18 
   6  -1  12    0.50    0.17 
  -7   1 -12    2.17    0.31 
   7  -1  12    2.19    0.30 
  -8   1 -12    0.59    0.19 
  -8   0  12   -0.05    0.14 
  -7   0  12    0.08    0.13 
  -6   0  12    5.22    0.40 
  -5   0  12    0.65    0.16 
  -4   0  12    0.16    0.10 
  -3   0  12    3.49    0.27 
  -2   0  12    0.24    0.08 
   1   0 -12   14.86    0.64 
  -1   0  12   14.37    0.62 
   0   0 -12   17.33    0.72 
   0   0 -12   18.21    0.77 
   0   0  12   18.59    0.72 
  -1   0 -12   13.96    0.56 
  -1   0 -12   14.22    0.65 
   1   0  12   14.41    0.59 
  -2   0 -12    0.30    0.05 
  -2   0 -12    0.20    0.09 
   2   0  12    0.32    0.09 
  -3   0 -12    3.41    0.27 
   3   0  12    3.85    0.25 
  -4   0 -12   -0.01    0.09 
   4   0  12    0.01    0.06 
  -5   0 -12    0.56    0.16 
   5   0  12    0.71    0.15 
  -6   0 -12    5.17    0.40 
   6   0  12    4.54    0.35 
  -7   0 -12    0.20    0.13 
  -8   0 -12    0.09    0.15 
  -8   1  12    0.49    0.20 
  -7   1  12    2.24    0.33 
  -6   1  12    0.59    0.18 
  -5   1  12    1.33    0.23 
  -4   1  12    5.72    0.39 
  -3   1  12    3.59    0.28 
  -2   1  12    4.26    0.28 
   1  -1 -12    3.99    0.24 
   1  -1 -12    3.64    0.25 
  -1   1  12    3.51    0.23 
   0  -1 -12   24.16    0.92 
   0  -1 -12   23.46    0.96 
   0   1  12   23.05    0.90 
  -1  -1 -12    3.58    0.26 
  -1  -1 -12    3.74    0.21 
   1   1  12    3.99    0.22 
  -2  -1 -12    3.58    0.27 
  -2  -1 -12    4.21    0.21 
   2   1  12    3.49    0.22 
  -3  -1 -12    3.87    0.20 
  -3  -1 -12    3.52    0.29 
   3   1  12    4.13    0.25 
  -4  -1 -12    5.67    0.38 
   4   1  12    4.14    0.28 
  -5  -1 -12    1.25    0.22 
  -6  -1 -12    0.78    0.21 
  -7  -1 -12    2.15    0.33 
  -8  -1 -12    0.63    0.23 
  -8   2  12    0.14    0.17 
  -7   2  12    0.30    0.16 
  -6   2  12    7.41    0.52 
  -5   2  12    2.15    0.30 
  -4   2  12    0.70    0.17 
   3  -2 -12   10.83    0.58 
  -3   2  12   10.78    0.56 
   2  -2 -12   19.53    0.86 
  -2   2  12   20.09    0.84 
   1  -2 -12    3.22    0.22 
   1  -2 -12    3.70    0.25 
  -1   2  12    3.44    0.23 
   0  -2 -12    5.04    0.29 
   0  -2 -12    5.23    0.31 
   0   2  12    5.68    0.28 
  -1  -2 -12    3.57    0.25 
  -1  -2 -12    3.10    0.20 
   1   2  12    3.27    0.19 
  -2  -2 -12   19.92    0.76 
  -2  -2 -12   19.34    0.87 
  -3  -2 -12   11.67    0.60 
  -3  -2 -12   10.68    0.46 
   3   2  12   11.21    0.49 
  -4  -2 -12    0.70    0.10 
  -4  -2 -12    0.86    0.20 
   4   2  12    0.66    0.12 
  -5  -2 -12    1.68    0.27 
  -6  -2 -12    6.96    0.51 
  -7  -2 -12    0.30    0.17 
  -8  -2 -12    0.48    0.19 
  -8   3  12    1.47    0.30 
  -7   3  12    0.63    0.20 
  -6   3  12    0.05    0.14 
  -5   3  12    4.63    0.42 
  -4   3  12   19.90    0.92 
   3  -3 -12    1.83    0.24 
  -3   3  12    1.32    0.21 
   2  -3 -12    7.42    0.42 
  -2   3  12    6.94    0.39 
   1  -3 -12   13.30    0.62 
   1  -3 -12   14.55    0.60 
  -1   3  12   13.10    0.59 
   0  -3 -12    1.68    0.18 
   0  -3 -12    1.93    0.18 
   0   3  12    1.87    0.15 
  -1  -3 -12   13.60    0.56 
  -1  -3 -12   12.52    0.61 
  -2  -3 -12    5.80    0.38 
  -2  -3 -12    6.47    0.32 
   2   3  12    6.82    0.31 
  -3  -3 -12    1.86    0.16 
  -3  -3 -12    1.59    0.24 
   3   3  12    1.80    0.15 
  -4  -3 -12   19.83    0.99 
  -4  -3 -12   21.20    0.82 
  -5  -3 -12    4.93    0.41 
  -6  -3 -12    0.23    0.14 
  -7  -3 -12    1.04    0.27 
  -8  -3 -12    1.75    0.34 
  -8   4  12    0.38    0.20 
  -7   4  12    4.58    0.48 
  -6   4  12    1.17    0.27 
  -5   4  12    6.84    0.49 
   4  -4 -12    4.02    0.38 
  -4   4  12    4.46    0.36 
   3  -4 -12   11.92    0.65 
  -3   4  12   12.66    0.63 
   2  -4 -12    7.60    0.36 
   2  -4 -12    6.91    0.42 
  -2   4  12    7.50    0.41 
   1  -4 -12   13.29    0.62 
  -1   4  12   13.51    0.59 
   0  -4 -12    1.42    0.16 
   0  -4 -12    1.92    0.18 
   0   4  12    1.01    0.12 
  -1  -4 -12   12.70    0.56 
  -1  -4 -12   12.41    0.61 
   1   4  12   12.86    0.51 
  -2  -4 -12    7.60    0.38 
  -2  -4 -12    7.90    0.46 
   2   4  12    7.79    0.34 
  -3  -4 -12   12.20    0.53 
  -3  -4 -12   11.88    0.66 
  -4  -4 -12    5.16    0.42 
  -4  -4 -12    4.91    0.29 
  -5  -4 -12    6.87    0.53 
  -5  -4 -12    6.69    0.37 
  -6  -4 -12    1.35    0.28 
  -7  -4 -12    5.88    0.57 
  -8  -4 -12    0.36    0.21 
  -8   5  12    0.23    0.18 
  -7   5  12    0.23    0.19 
  -6   5  12    0.59    0.19 
   5  -5 -12   12.29    0.73 
  -5   5  12   12.12    0.70 
   4  -5 -12    9.55    0.58 
  -4   5  12    8.95    0.55 
   3  -5 -12    7.98    0.49 
  -3   5  12    6.96    0.44 
   2  -5 -12   14.21    0.59 
   2  -5 -12   14.00    0.68 
  -2   5  12   14.46    0.66 
   1  -5 -12   16.45    0.68 
   1  -5 -12   15.69    0.72 
  -1   5  12   15.96    0.68 
   0  -5 -12    1.05    0.16 
   0  -5 -12    1.05    0.15 
   0   5  12    1.02    0.12 
  -1  -5 -12   16.04    0.70 
  -1  -5 -12   16.74    0.76 
   1   5  12   16.65    0.64 
  -2  -5 -12   13.06    0.69 
  -2  -5 -12   14.47    0.61 
  -3  -5 -12    7.25    0.49 
  -3  -5 -12    7.35    0.39 
  -4  -5 -12    8.79    0.59 
  -4  -5 -12    9.80    0.47 
  -5  -5 -12   13.02    0.59 
  -5  -5 -12   11.78    0.74 
  -6  -5 -12    0.22    0.17 
  -7  -5 -12    0.05    0.15 
  -8  -5 -12    0.23    0.18 
  -8   6  12    0.56    0.27 
  -7   6  12    0.03    0.19 
  -6   6  12    3.04    0.40 
   5  -6 -12    0.64    0.22 
  -5   6  12    0.70    0.20 
   4  -6 -12    0.37    0.17 
  -4   6  12    0.31    0.17 
   3  -6 -12    5.11    0.40 
  -3   6  12    5.64    0.40 
   2  -6 -12   22.18    0.96 
  -2   6  12   20.93    0.92 
   1  -6 -12    3.16    0.27 
   1  -6 -12    3.79    0.24 
  -1   6  12    3.31    0.24 
   0  -6 -12    0.39    0.12 
   0  -6 -12    0.35    0.11 
   0   6  12    0.38    0.09 
  -1  -6 -12    4.46    0.32 
  -1  -6 -12    3.95    0.28 
  -2  -6 -12   21.81    1.01 
  -2  -6 -12   22.25    0.91 
  -3  -6 -12    5.08    0.32 
  -3  -6 -12    5.45    0.42 
  -4  -6 -12    0.13    0.10 
  -4  -6 -12    0.26    0.16 
  -5  -6 -12    0.64    0.22 
  -5  -6 -12    0.70    0.15 
  -6  -6 -12    2.59    0.39 
  -7  -6 -12    0.49    0.20 
  -8  -6 -12    0.24    0.18 
  -7   7  12    0.00    0.18 
   6  -7 -12    0.41    0.21 
  -6   7  12    0.36    0.20 
   5  -7 -12    1.17    0.27 
  -5   7  12    0.88    0.23 
   4  -7 -12    2.14    0.32 
  -4   7  12    1.62    0.27 
   3  -7 -12    0.62    0.17 
  -3   7  12    0.69    0.18 
   2  -7 -12    1.78    0.25 
  -2   7  12    2.51    0.25 
   1  -7 -12    2.23    0.25 
  -1   7  12    0.83    0.14 
   0  -7 -12   37.01    1.46 
  -1  -7 -12    2.26    0.24 
  -1  -7 -12    2.44    0.26 
  -2  -7 -12    2.54    0.30 
  -2  -7 -12    2.17    0.23 
  -3  -7 -12    0.77    0.15 
  -3  -7 -12    0.64    0.20 
  -4  -7 -12    2.14    0.31 
  -4  -7 -12    2.04    0.23 
  -5  -7 -12    0.88    0.17 
  -5  -7 -12    0.89    0.24 
  -6  -7 -12    0.18    0.19 
  -6  -7 -12    0.42    0.14 
  -7  -7 -12   -0.15    0.17 
  -7   8  12    0.21    0.24 
   6  -8 -12    0.17    0.20 
  -6   8  12    0.12    0.16 
   5  -8 -12    0.85    0.23 
  -5   8  12    0.98    0.25 
   4  -8 -12    0.07    0.14 
  -4   8  12    0.14    0.15 
   3  -8 -12    1.24    0.25 
  -3   8  12    1.44    0.24 
   2  -8 -12    2.37    0.28 
  -2   8  12    2.10    0.26 
   1  -8 -12    0.73    0.17 
  -1   8  12    0.71    0.15 
   0  -8 -12    7.21    0.43 
   0  -8 -12    8.13    0.46 
  -1  -8 -12    1.32    0.23 
  -1  -8 -12    1.08    0.19 
  -2  -8 -12    1.90    0.28 
  -2  -8 -12    2.29    0.24 
  -3  -8 -12    1.67    0.21 
  -3  -8 -12    1.36    0.26 
  -4  -8 -12    0.10    0.16 
  -4  -8 -12   -0.05    0.10 
  -5  -8 -12    0.98    0.26 
  -5  -8 -12    1.06    0.19 
  -6  -8 -12    0.00    0.12 
  -6  -8 -12   -0.25    0.16 
  -7  -8 -12    0.65    0.31 
   6  -9 -12   -0.02    0.19 
  -6   9  12   -0.25    0.16 
   5  -9 -12    0.17    0.19 
  -5   9  12    0.16    0.18 
   4  -9 -12    0.72    0.23 
  -4   9  12    0.69    0.21 
   3  -9 -12    0.06    0.13 
  -3   9  12   -0.12    0.12 
   2  -9 -12    0.02    0.10 
  -2   9  12   -0.06    0.13 
   1  -9 -12    1.24    0.22 
   0  -9 -12    0.53    0.15 
  -1  -9 -12    0.70    0.17 
  -1  -9 -12    0.82    0.21 
  -2  -9 -12    0.08    0.11 
  -2  -9 -12    0.05    0.14 
  -3  -9 -12    0.04    0.14 
  -3  -9 -12    0.05    0.09 
  -4  -9 -12    0.80    0.24 
  -4  -9 -12    1.03    0.20 
  -5  -9 -12    0.32    0.20 
  -5  -9 -12    0.13    0.13 
  -6  -9 -12   -0.05    0.20 
  -6  -9 -12    0.07    0.15 
   6 -10 -12    0.43    0.27 
  -6  10  12    0.37    0.23 
   5 -10 -12    0.59    0.25 
  -5  10  12    0.95    0.27 
   4 -10 -12    0.42    0.21 
  -4  10  12    0.28    0.18 
   3 -10 -12    0.01    0.14 
   2 -10 -12    0.70    0.20 
   1 -10 -12    1.03    0.21 
   0 -10 -12   -0.11    0.09 
  -1 -10 -12    1.26    0.22 
  -2 -10 -12    1.10    0.25 
  -2 -10 -12    0.92    0.19 
  -3 -10 -12    0.10    0.12 
  -3 -10 -12    0.28    0.18 
  -4 -10 -12    0.27    0.20 
  -4 -10 -12    0.21    0.13 
  -5 -10 -12    0.84    0.20 
  -5 -10 -12    0.71    0.27 
  -6 -10 -12    0.75    0.22 
  -6 -10 -12    0.74    0.29 
   5 -11 -12    0.33    0.26 
  -5  11  12    0.41    0.22 
   4 -11 -12   -0.05    0.18 
   3 -11 -12    1.23    0.27 
   2 -11 -12   -0.03    0.13 
   1 -11 -12    1.25    0.24 
   0 -11 -12    0.03    0.13 
  -1 -11 -12    1.01    0.20 
  -2 -11 -12    0.17    0.13 
  -3 -11 -12    0.64    0.23 
  -3 -11 -12    1.22    0.21 
  -4 -11 -12    0.24    0.20 
  -4 -11 -12   -0.08    0.11 
  -5 -11 -12    0.03    0.22 
  -5 -11 -12    0.03    0.17 
   4 -12 -12    0.61    0.27 
   3 -12 -12    0.48    0.23 
   2 -12 -12   -0.01    0.16 
   1 -12 -12    0.26    0.16 
   0 -12 -12    0.69    0.20 
  -1 -12 -12    0.61    0.19 
  -2 -12 -12    0.29    0.16 
  -3 -12 -12    0.28    0.17 
  -4 -12 -12    0.17    0.22 
  -4 -12 -12    0.11    0.14 
   2 -13 -12    0.34    0.23 
   1 -13 -12    0.25    0.21 
   0 -13 -12    0.15    0.15 
  -1 -13 -12    0.12    0.15 
  -2 -13 -12    0.15    0.14 
   0 -13  13    0.59    0.22 
   1 -13  13    0.20    0.18 
  -3 -12  13    0.50    0.24 
  -1 -12  13    1.61    0.27 
   0 -12  13    0.45    0.19 
   1 -12  13    1.27    0.27 
   2 -12  13    0.11    0.16 
   3 -12  13    0.13    0.16 
  -4 -11  13    0.48    0.24 
  -3 -11  13    0.48    0.23 
  -2 -11  13    1.26    0.24 
  -2 -11  13    0.90    0.23 
  -1 -11  13    0.32    0.16 
   0 -11  13    0.25    0.15 
   1 -11  13    0.39    0.17 
   2 -11  13    1.36    0.27 
   3 -11  13    0.20    0.15 
   4 -11  13    0.20    0.16 
  -5 -10  13    0.23    0.22 
  -4 -10  13    0.99    0.26 
  -3 -10  13   -0.04    0.16 
  -3 -10  13   -0.05    0.12 
  -2 -10  13    0.84    0.20 
  -2 -10  13    0.66    0.19 
  -1 -10  13    0.49    0.16 
   0 -10  13    0.90    0.22 
   1 -10  13    0.28    0.15 
   2 -10  13    0.87    0.22 
   3 -10  13   -0.03    0.12 
   4 -10  13    1.38    0.28 
   5 -10  13   -0.04    0.14 
  -6  -9  13    0.30    0.25 
  -5  -9  13    0.63    0.23 
  -4  -9  13    0.34    0.20 
  -4  -9  13    1.01    0.19 
  -3  -9  13    0.67    0.17 
  -3  -9  13    0.89    0.22 
  -2  -9  13    0.39    0.16 
  -2  -9  13    0.58    0.16 
  -1  -9  13    1.11    0.20 
  -1  -9  13    1.17    0.22 
   0  -9  13   -0.02    0.11 
   1  -9  13    1.46    0.24 
   2  -9  13    0.56    0.18 
   3  -9  13    0.90    0.21 
   4  -9  13    0.33    0.17 
   5  -9  13    0.45    0.20 
   6  -9  13    0.34    0.25 
  -6  -8  13   -0.04    0.17 
  -5  -8  13    1.09    0.27 
  -5  -8  13    0.40    0.15 
  -4  -8  13    0.27    0.13 
  -4  -8  13    0.31    0.19 
  -3  -8  13    2.59    0.27 
  -3  -8  13    2.08    0.29 
  -2  -8  13    1.73    0.25 
  -2  -8  13    2.08    0.25 
  -1  -8  13    2.16    0.26 
  -1  -8  13    2.72    0.26 
   0  -8  13    0.24    0.13 
   1  -8  13    2.11    0.27 
   2  -8  13    1.74    0.26 
   3  -8  13    1.57    0.26 
   4  -8  13    0.13    0.14 
   5  -8  13    0.73    0.25 
   6  -8  13    0.05    0.19 
  -7  -7  13    0.04    0.22 
  -6  -7  13    0.98    0.21 
  -6  -7  13    1.10    0.29 
  -5  -7  13    0.33    0.20 
  -5  -7  13    0.33    0.13 
  -4  -7  13    0.72    0.21 
  -4  -7  13    0.84    0.17 
  -3  -7  13    1.04    0.22 
  -3  -7  13    0.62    0.14 
  -2  -7  13    5.07    0.37 
  -2  -7  13    5.19    0.35 
  -1  -7  13    0.68    0.16 
  -1  -7  13    0.55    0.14 
   0  -7  13    6.81    0.42 
   1  -7  13    0.52    0.14 
   2  -7  13    5.26    0.38 
   3  -7  13    0.60    0.17 
   4  -7  13    0.72    0.21 
  -5   7 -13    0.26    0.12 
   5  -7  13    0.14    0.16 
   6  -7  13    1.24    0.30 
   7  -7  13    0.06    0.19 
  -7  -6  13    0.25    0.16 
  -7  -6  13    0.04    0.19 
  -6  -6  13    0.34    0.21 
  -6  -6  13    0.31    0.14 
  -5  -6  13    0.05    0.16 
  -5  -6  13    0.10    0.11 
  -4  -6  13   10.83    0.57 
  -4  -6  13   11.06    0.65 
  -3  -6  13    2.73    0.31 
  -3  -6  13    2.28    0.25 
  -2  -6  13    3.60    0.27 
  -2  -6  13    3.34    0.31 
  -1  -6  13    5.91    0.34 
  -1  -6  13    4.86    0.33 
   0  -6  13    1.06    0.13 
   0  -6  13    0.92    0.17 
   1  -6  13    5.46    0.36 
   2  -6  13    3.81    0.31 
  -3   6 -13    2.61    0.27 
   3  -6  13    2.23    0.28 
  -4   6 -13   10.62    0.57 
   4  -6  13    9.95    0.61 
  -5   6 -13    0.11    0.12 
   5  -6  13    0.34    0.17 
   6  -6  13    0.50    0.21 
   7  -6  13    0.01    0.18 
  -8  -5  13   -0.26    0.24 
  -7  -5  13    1.31    0.23 
  -7  -5  13    1.02    0.30 
  -6  -5  13    0.33    0.15 
  -5  -5  13    0.97    0.19 
  -4  -5  13    0.44    0.13 
  -3  -5  13    8.89    0.48 
  -2  -5  13    3.46    0.30 
  -2  -5  13    3.62    0.27 
  -1  -5  13   15.01    0.72 
  -1  -5  13   19.30    0.76 
   0  -5  13    0.83    0.12 
   0  -5  13    0.92    0.16 
   1  -5  13   19.07    0.83 
  -2   5 -13    2.87    0.28 
   2  -5  13    3.08    0.29 
  -3   5 -13    8.60    0.48 
   3  -5  13    7.60    0.48 
  -4   5 -13    0.53    0.14 
   4  -5  13    0.42    0.18 
  -5   5 -13    0.92    0.19 
   5  -5  13    1.39    0.27 
  -6   5 -13    0.41    0.14 
   6  -5  13    0.69    0.23 
   7  -5  13    1.13    0.28 
   8  -5  13   -0.06    0.21 
  -8  -4  13    0.33    0.18 
  -7  -4  13    0.15    0.15 
  -6  -4  13    0.53    0.17 
  -5  -4  13   11.24    0.60 
  -4  -4  13    4.82    0.34 
  -3  -4  13   16.90    0.76 
  -2  -4  13    1.23    0.18 
  -1  -4  13    4.77    0.30 
   0  -4  13    0.78    0.11 
   0  -4  13    0.70    0.14 
   1  -4  13    4.50    0.30 
  -2   4 -13    0.85    0.16 
   2  -4  13    0.89    0.17 
  -3   4 -13   16.45    0.77 
   3  -4  13   16.43    0.77 
  -4   4 -13    5.03    0.35 
   4  -4  13    4.35    0.37 
  -5   4 -13   10.31    0.57 
   5  -4  13   10.37    0.61 
  -6   4 -13    0.41    0.15 
   6  -4  13    0.54    0.20 
  -7   4 -13    0.24    0.14 
   7  -4  13    0.09    0.17 
   8  -4  13    0.36    0.25 
  -8  -3  13    0.19    0.17 
  -7  -3  13    1.72    0.29 
  -6  -3  13    9.50    0.56 
  -5  -3  13    1.28    0.22 
  -4  -3  13    5.14    0.36 
  -3  -3  13    7.99    0.44 
  -2  -3  13   10.46    0.51 
  -1  -3  13   14.95    0.65 
   0  -3  13   11.14    0.51 
  -1   3 -13   15.02    0.70 
   1  -3  13   14.53    0.66 
   1  -3  13   15.32    0.57 
  -2   3 -13   10.21    0.52 
   2  -3  13    9.20    0.49 
  -3   3 -13    7.90    0.45 
   3  -3  13    7.77    0.45 
  -4   3 -13    4.36    0.32 
   4  -3  13    3.54    0.33 
  -5   3 -13    1.13    0.20 
   5  -3  13    1.28    0.24 
  -6   3 -13    7.81    0.50 
   6  -3  13    8.45    0.54 
  -7   3 -13    1.93    0.28 
   7  -3  13    1.68    0.31 
   8  -3  13    0.27    0.23 
  -8  -2  13    1.55    0.28 
  -7  -2  13    2.46    0.34 
  -6  -2  13    3.31    0.35 
  -5  -2  13    1.81    0.25 
  -4  -2  13   13.88    0.68 
  -3  -2  13    0.79    0.15 
  -2  -2  13    0.06    0.08 
  -1  -2  13    2.54    0.20 
   0   2 -13   15.25    0.68 
   0  -2  13   14.00    0.62 
  -1   2 -13    2.62    0.22 
   1  -2  13    2.36    0.21 
  -2   2 -13    0.15    0.09 
   2  -2  13    0.14    0.07 
  -3   2 -13    1.09    0.18 
   3  -2  13    0.92    0.17 
  -4   2 -13   12.23    0.63 
   4  -2  13   11.96    0.61 
  -5   2 -13    1.69    0.24 
   5  -2  13    1.67    0.25 
  -6   2 -13    2.52    0.30 
   6  -2  13    2.56    0.32 
  -7   2 -13    2.16    0.30 
   7  -2  13    1.90    0.32 
  -8   2 -13    1.39    0.26 
  -8  -1  13    0.62    0.19 
  -7  -1  13    0.56    0.17 
  -6  -1  13    5.13    0.40 
  -5  -1  13    5.24    0.39 
  -4  -1  13    0.74    0.17 
  -3  -1  13    1.45    0.20 
  -2  -1  13    4.00    0.27 
  -1  -1  13    2.07    0.19 
   0   1 -13    3.44    0.25 
   0  -1  13    3.54    0.23 
  -1   1 -13    2.61    0.21 
   1  -1  13    2.34    0.18 
  -2   1 -13    4.00    0.28 
   2  -1  13    3.85    0.25 
  -3   1 -13    1.53    0.21 
   3  -1  13    1.68    0.19 
  -4   1 -13    0.62    0.15 
   4  -1  13    0.35    0.13 
  -5   1 -13    5.09    0.38 
   5  -1  13    5.02    0.37 
  -6   1 -13    5.49    0.41 
   6  -1  13    4.82    0.39 
  -7   1 -13    0.67    0.19 
   7  -1  13    0.66    0.21 
  -8   1 -13    0.29    0.18 
  -8   0  13    0.25    0.17 
  -7   0  13    1.13    0.25 
  -6   0  13    0.33    0.16 
  -5   0  13    5.04    0.38 
  -4   0  13    7.02    0.44 
  -3   0  13    3.52    0.28 
  -2   0  13    4.87    0.31 
   1   0 -13    1.46    0.17 
  -1   0  13    1.13    0.15 
   0   0 -13    0.09    0.07 
   0   0 -13    0.08    0.06 
   0   0  13    0.01    0.05 
  -1   0 -13    1.26    0.12 
  -1   0 -13    1.43    0.18 
   1   0  13    1.57    0.15 
  -2   0 -13    4.34    0.31 
  -2   0 -13    4.67    0.22 
   2   0  13    4.65    0.27 
  -3   0 -13    3.35    0.27 
   3   0  13    3.11    0.23 
  -4   0 -13    6.77    0.44 
   4   0  13    6.23    0.38 
  -5   0 -13    5.10    0.40 
   5   0  13    5.38    0.36 
  -6   0 -13    0.44    0.16 
   6   0  13    0.33    0.15 
  -7   0 -13    1.10    0.24 
  -8   0 -13    0.34    0.19 
  -8   1  13    0.26    0.18 
  -7   1  13    0.89    0.22 
  -6   1  13    5.31    0.42 
  -5   1  13    5.24    0.39 
  -4   1  13    0.44    0.15 
  -3   1  13    1.25    0.20 
  -2   1  13    3.48    0.25 
   1  -1 -13    2.51    0.20 
   1  -1 -13    2.19    0.19 
  -1   1  13    2.32    0.19 
   0  -1 -13    4.02    0.25 
   0  -1 -13    3.71    0.24 
   0   1  13    3.18    0.21 
  -1  -1 -13    2.14    0.16 
  -1  -1 -13    2.23    0.22 
   1   1  13    2.28    0.17 
  -2  -1 -13    3.42    0.27 
  -2  -1 -13    3.95    0.21 
   2   1  13    3.82    0.23 
  -3  -1 -13    1.49    0.12 
  -3  -1 -13    1.45    0.22 
   3   1  13    1.36    0.16 
  -4  -1 -13    0.47    0.15 
   4   1  13    0.44    0.11 
  -5  -1 -13    4.38    0.37 
  -6  -1 -13    5.46    0.44 
  -7  -1 -13    0.86    0.23 
  -8  -1 -13    0.34    0.19 
  -8   2  13    1.33    0.28 
  -7   2  13    2.02    0.33 
  -6   2  13    2.39    0.33 
  -5   2  13    1.99    0.29 
  -4   2  13   12.51    0.65 
  -3   2  13    1.03    0.18 
   2  -2 -13    0.22    0.10 
  -2   2  13    0.13    0.09 
   1  -2 -13    2.22    0.18 
   1  -2 -13    2.17    0.21 
  -1   2  13    2.45    0.19 
   0  -2 -13   14.55    0.63 
   0  -2 -13   13.66    0.64 
   0   2  13   15.01    0.61 
  -1  -2 -13    2.54    0.21 
  -1  -2 -13    2.58    0.18 
   1   2  13    2.50    0.17 
  -2  -2 -13    0.47    0.12 
  -2  -2 -13    0.17    0.07 
   2   2  13    0.01    0.04 
  -3  -2 -13    0.78    0.18 
  -3  -2 -13    1.07    0.11 
   3   2  13    1.09    0.13 
  -4  -2 -13   13.85    0.73 
   4   2  13   14.19    0.62 
  -5  -2 -13    1.75    0.28 
  -6  -2 -13    3.09    0.39 
  -7  -2 -13    1.64    0.30 
  -8  -2 -13    2.34    0.39 
  -8   3  13    0.38    0.20 
  -7   3  13    1.17    0.26 
  -6   3  13    9.42    0.62 
  -5   3  13    1.27    0.25 
  -4   3  13    4.70    0.38 
   3  -3 -13    7.70    0.48 
  -3   3  13    7.90    0.46 
   2  -3 -13   10.45    0.56 
  -2   3  13   11.09    0.54 
   1  -3 -13   14.45    0.63 
   1  -3 -13   14.60    0.66 
  -1   3  13   14.26    0.63 
   0  -3 -13   11.08    0.51 
   0  -3 -13   10.51    0.52 
   0   3  13   11.48    0.49 
  -1  -3 -13   14.57    0.61 
  -1  -3 -13   13.39    0.65 
  -2  -3 -13    8.04    0.50 
  -2  -3 -13    9.87    0.43 
   2   3  13    9.85    0.42 
  -3  -3 -13    8.02    0.38 
  -3  -3 -13    8.08    0.50 
   3   3  13    7.45    0.37 
  -4  -3 -13    4.46    0.26 
  -4  -3 -13    3.63    0.38 
  -5  -3 -13    0.90    0.22 
  -6  -3 -13    9.26    0.63 
  -7  -3 -13    1.48    0.30 
  -8  -3 -13   -0.07    0.14 
  -8   4  13    0.17    0.17 
  -7   4  13    0.20    0.18 
  -6   4  13    0.59    0.21 
  -5   4  13   11.38    0.67 
   4  -4 -13    5.18    0.41 
  -4   4  13    5.17    0.40 
   3  -4 -13   16.89    0.82 
  -3   4  13   16.39    0.77 
   2  -4 -13    1.23    0.14 
   2  -4 -13    1.38    0.21 
  -2   4  13    0.85    0.15 
   1  -4 -13    4.42    0.31 
  -1   4  13    4.83    0.30 
   0  -4 -13    0.61    0.13 
   0  -4 -13    0.83    0.14 
   0   4  13    0.64    0.11 
  -1  -4 -13    4.24    0.27 
  -1  -4 -13    4.73    0.31 
   1   4  13    4.42    0.24 
  -2  -4 -13    1.11    0.21 
  -2  -4 -13    1.08    0.14 
   2   4  13    1.13    0.12 
  -3  -4 -13   17.42    0.84 
  -3  -4 -13   16.07    0.69 
  -4  -4 -13    4.84    0.45 
  -4  -4 -13    5.80    0.32 
  -5  -4 -13   11.57    0.71 
  -6  -4 -13    0.59    0.20 
  -7  -4 -13    0.03    0.15 
  -8  -4 -13    0.55    0.22 
  -8   5  13    0.08    0.23 
  -7   5  13    0.92    0.28 
  -6   5  13    0.57    0.22 
   5  -5 -13    1.04    0.25 
  -5   5  13    1.08    0.24 
   4  -5 -13    0.38    0.17 
  -4   5  13    0.49    0.17 
   3  -5 -13    8.02    0.52 
  -3   5  13    9.56    0.53 
   2  -5 -13    2.58    0.28 
   2  -5 -13    3.10    0.21 
  -2   5  13    3.09    0.25 
   1  -5 -13   19.33    0.85 
   1  -5 -13   20.07    0.81 
  -1   5  13   18.40    0.80 
   0  -5 -13    0.94    0.15 
   0  -5 -13    0.72    0.14 
   0   5  13    0.37    0.08 
  -1  -5 -13   19.20    0.80 
  -1  -5 -13   18.91    0.85 
   1   5  13   18.49    0.72 
  -2  -5 -13    3.91    0.26 
  -2  -5 -13    3.79    0.33 
  -3  -5 -13    8.70    0.55 
  -3  -5 -13    8.24    0.42 
  -4  -5 -13    0.31    0.17 
  -4  -5 -13    0.56    0.14 
  -5  -5 -13    1.01    0.16 
  -5  -5 -13    0.72    0.24 
  -6  -5 -13    0.25    0.20 
  -7  -5 -13    1.08    0.28 
  -8  -5 -13   -0.02    0.16 
  -7   6  13   -0.06    0.18 
  -6   6  13    0.39    0.21 
   5  -6 -13    0.07    0.16 
  -5   6  13    0.03    0.15 
   4  -6 -13   10.12    0.63 
  -4   6  13   10.13    0.60 
   3  -6 -13    1.96    0.28 
  -3   6  13    2.07    0.26 
   2  -6 -13    3.12    0.31 
  -2   6  13    3.28    0.29 
   1  -6 -13    4.82    0.35 
   1  -6 -13    4.92    0.30 
  -1   6  13    5.31    0.31 
   0  -6 -13    0.95    0.16 
   0  -6 -13    0.90    0.17 
   0   6  13    0.79    0.12 
  -1  -6 -13    5.41    0.36 
  -1  -6 -13    5.16    0.33 
  -2  -6 -13    3.49    0.34 
  -2  -6 -13    3.80    0.27 
  -3  -6 -13    2.12    0.21 
  -3  -6 -13    2.42    0.32 
  -4  -6 -13   10.25    0.67 
  -4  -6 -13   11.31    0.54 
  -5  -6 -13    0.41    0.13 
  -5  -6 -13   -0.13    0.12 
  -6  -6 -13    0.07    0.16 
  -7  -6 -13    0.05    0.17 
  -7   7  13    0.03    0.19 
   6  -7 -13    0.86    0.27 
  -6   7  13    1.06    0.27 
   5  -7 -13    0.36    0.19 
  -5   7  13    0.22    0.16 
   4  -7 -13    0.84    0.23 
  -4   7  13    0.69    0.20 
   3  -7 -13    1.04    0.22 
  -3   7  13    0.76    0.18 
   2  -7 -13    5.12    0.37 
  -2   7  13    4.81    0.37 
   1  -7 -13    0.21    0.12 
  -1   7  13    0.32    0.10 
   0  -7 -13    6.93    0.42 
  -1  -7 -13    0.43    0.17 
  -1  -7 -13    0.45    0.13 
  -2  -7 -13    4.72    0.32 
  -2  -7 -13    4.59    0.38 
  -3  -7 -13    1.07    0.18 
  -3  -7 -13    0.78    0.21 
  -4  -7 -13    0.52    0.15 
  -4  -7 -13    0.67    0.22 
  -5  -7 -13    0.21    0.12 
  -5  -7 -13    0.27    0.19 
  -6  -7 -13    0.61    0.24 
  -7  -7 -13   -0.26    0.19 
   6  -8 -13    0.31    0.20 
  -6   8  13    0.08    0.20 
   5  -8 -13    0.50    0.22 
  -5   8  13    0.56    0.20 
   4  -8 -13    0.38    0.18 
  -4   8  13    0.09    0.14 
   3  -8 -13    1.80    0.28 
  -3   8  13    1.73    0.27 
   2  -8 -13    1.22    0.22 
  -2   8  13    1.71    0.23 
   1  -8 -13    2.44    0.28 
   0  -8 -13    0.00    0.10 
  -1  -8 -13    2.17    0.25 
  -1  -8 -13    2.21    0.28 
  -2  -8 -13    1.86    0.22 
  -2  -8 -13    1.74    0.28 
  -3  -8 -13    2.03    0.31 
  -3  -8 -13    2.04    0.24 
  -4  -8 -13    0.20    0.13 
  -4  -8 -13   -0.01    0.17 
  -5  -8 -13    0.99    0.19 
  -5  -8 -13    0.52    0.24 
  -6  -8 -13    0.04    0.20 
   6  -9 -13    0.83    0.29 
  -6   9  13    0.50    0.24 
   5  -9 -13    0.55    0.24 
  -5   9  13    0.28    0.18 
   4  -9 -13    0.27    0.18 
  -4   9  13    0.70    0.22 
   3  -9 -13    0.48    0.18 
  -3   9  13    0.34    0.17 
   2  -9 -13    0.38    0.15 
   1  -9 -13    1.40    0.24 
   0  -9 -13    0.11    0.11 
  -1  -9 -13    1.09    0.23 
  -1  -9 -13    1.24    0.21 
  -2  -9 -13    0.67    0.21 
  -2  -9 -13    0.37    0.15 
  -3  -9 -13    0.40    0.13 
  -3  -9 -13    0.69    0.23 
  -4  -9 -13    0.09    0.17 
  -4  -9 -13    0.45    0.15 
  -5  -9 -13    0.65    0.18 
  -5  -9 -13    0.37    0.21 
  -6  -9 -13    0.42    0.25 
  -6  -9 -13    0.42    0.19 
   5 -10 -13    0.20    0.21 
  -5  10  13    0.35    0.22 
   4 -10 -13    1.09    0.27 
  -4  10  13    0.71    0.22 
   3 -10 -13   -0.14    0.13 
   2 -10 -13    0.26    0.16 
   1 -10 -13    0.20    0.14 
   0 -10 -13    0.98    0.21 
  -1 -10 -13    0.27    0.13 
  -2 -10 -13    0.46    0.21 
  -2 -10 -13    0.79    0.18 
  -3 -10 -13   -0.23    0.14 
  -3 -10 -13    0.18    0.12 
  -4 -10 -13    1.06    0.27 
  -4 -10 -13    1.32    0.22 
  -5 -10 -13    0.25    0.22 
  -5 -10 -13    0.07    0.14 
   4 -11 -13    0.19    0.20 
   3 -11 -13    0.77    0.24 
   2 -11 -13    0.64    0.20 
   1 -11 -13    0.24    0.16 
   0 -11 -13    0.01    0.11 
  -1 -11 -13    0.39    0.16 
  -2 -11 -13    0.81    0.19 
  -3 -11 -13    0.25    0.21 
  -3 -11 -13    0.24    0.13 
  -4 -11 -13    0.07    0.20 
  -4 -11 -13    0.23    0.15 
   3 -12 -13    0.23    0.22 
   2 -12 -13    0.26    0.19 
   1 -12 -13    1.13    0.25 
   0 -12 -13    0.29    0.15 
  -1 -12 -13    1.10    0.24 
  -2 -12 -13    0.21    0.15 
  -3 -12 -13    0.40    0.18 
   1 -13 -13    0.14    0.14 
   0 -13 -13    0.48    0.19 
  -1 -13 -13   -0.01    0.14 
  -1 -12  14    0.72    0.22 
   0 -12  14    0.13    0.16 
   1 -12  14    0.91    0.25 
   2 -12  14    0.72    0.23 
   3 -12  14    0.24    0.18 
  -4 -11  14    0.53    0.24 
  -3 -11  14    0.17    0.20 
  -2 -11  14    0.96    0.22 
  -1 -11  14    1.51    0.28 
   0 -11  14    0.45    0.18 
   1 -11  14    1.30    0.27 
   2 -11  14    0.36    0.17 
   3 -11  14    0.24    0.18 
   4 -11  14    0.65    0.24 
  -5 -10  14    0.33    0.24 
  -4 -10  14    0.28    0.22 
  -3 -10  14    0.02    0.17 
  -3 -10  14    0.12    0.14 
  -2 -10  14    3.33    0.35 
  -2 -10  14    2.89    0.34 
  -1 -10  14    0.46    0.17 
   0 -10  14    0.98    0.21 
   1 -10  14    0.52    0.18 
   2 -10  14    2.70    0.35 
   3 -10  14    0.03    0.12 
   4 -10  14    0.00    0.14 
   5 -10  14    0.71    0.25 
  -6  -9  14    0.10    0.24 
  -5  -9  14    0.04    0.19 
  -4  -9  14   -0.14    0.16 
  -4  -9  14    0.44    0.15 
  -3  -9  14    1.07    0.21 
  -3  -9  14    1.32    0.25 
  -2  -9  14    0.18    0.16 
  -2  -9  14    0.34    0.16 
  -1  -9  14    4.52    0.37 
   0  -9  14    1.77    0.27 
   1  -9  14    4.69    0.38 
   2  -9  14    0.09    0.13 
   3  -9  14    0.82    0.23 
   4  -9  14    0.42    0.18 
   5  -9  14    0.15    0.19 
   6  -9  14    0.09    0.23 
  -6  -8  14    0.38    0.24 
  -5  -8  14    0.80    0.26 
  -5  -8  14    0.57    0.16 
  -4  -8  14    0.94    0.18 
  -4  -8  14    0.86    0.24 
  -3  -8  14    2.81    0.29 
  -3  -8  14    2.58    0.32 
  -2  -8  14    1.31    0.21 
  -2  -8  14    1.27    0.23 
  -1  -8  14    2.23    0.27 
  -1  -8  14    2.39    0.25 
   0  -8  14   -0.04    0.10 
   1  -8  14    2.05    0.28 
   2  -8  14    1.53    0.25 
   3  -8  14    3.01    0.35 
   4  -8  14    0.84    0.23 
   5  -8  14    0.61    0.23 
   6  -8  14    0.33    0.23 
  -7  -7  14    0.00    0.22 
  -6  -7  14   -0.02    0.12 
  -6  -7  14    0.17    0.21 
  -5  -7  14    0.99    0.20 
  -5  -7  14    1.14    0.27 
  -4  -7  14    2.75    0.29 
  -4  -7  14    2.70    0.35 
  -3  -7  14    0.73    0.16 
  -3  -7  14    0.38    0.17 
  -2  -7  14    1.16    0.20 
  -2  -7  14    1.19    0.21 
  -1  -7  14    0.90    0.17 
  -1  -7  14    0.51    0.13 
   0  -7  14    3.10    0.30 
   1  -7  14    0.63    0.16 
   2  -7  14    0.91    0.19 
   3  -7  14    0.49    0.19 
   4  -7  14    2.79    0.36 
  -5   7 -14    0.90    0.19 
   5  -7  14    1.17    0.27 
   6  -7  14    0.19    0.20 
   7  -7  14   -0.16    0.19 
  -7  -6  14    0.03    0.21 
  -7  -6  14    0.07    0.15 
  -6  -6  14    2.59    0.30 
  -6  -6  14    2.70    0.40 
  -5  -6  14    0.47    0.20 
  -5  -6  14    0.53    0.16 
  -4  -6  14    0.97    0.24 
  -4  -6  14    0.57    0.15 
  -3  -6  14    0.54    0.15 
  -3  -6  14    0.86    0.21 
  -2  -6  14    1.46    0.21 
  -2  -6  14    1.51    0.22 
  -1  -6  14    1.24    0.19 
   0  -6  14    4.89    0.34 
   1  -6  14    1.31    0.20 
   2  -6  14    1.24    0.22 
   3  -6  14    0.84    0.21 
  -4   6 -14    0.59    0.16 
   4  -6  14    0.51    0.19 
  -5   6 -14    0.29    0.13 
   5  -6  14    0.25    0.19 
  -6   6 -14    2.99    0.31 
   6  -6  14    3.00    0.41 
   7  -6  14   -0.11    0.19 
  -7  -5  14    0.17    0.15 
  -6  -5  14    0.69    0.18 
  -5  -5  14    0.09    0.12 
  -4  -5  14    1.72    0.23 
  -3  -5  14    6.58    0.40 
  -2  -5  14    2.84    0.28 
  -2  -5  14    3.37    0.27 
  -1  -5  14    1.88    0.21 
   0  -5  14    1.12    0.14 
   0  -5  14    0.98    0.17 
   1  -5  14    2.33    0.25 
  -2   5 -14    2.84    0.28 
   2  -5  14    3.13    0.30 
  -3   5 -14    7.18    0.44 
   3  -5  14    6.63    0.45 
  -4   5 -14    1.34    0.21 
   4  -5  14    1.47    0.25 
  -5   5 -14    0.14    0.11 
   5  -5  14    0.26    0.17 
  -6   5 -14    0.52    0.17 
   6  -5  14    0.39    0.20 
   7  -5  14    0.31    0.23 
  -8  -4  14    0.04    0.14 
  -7  -4  14    0.85    0.21 
  -6  -4  14    1.77    0.27 
  -5  -4  14    4.59    0.35 
  -4  -4  14    6.62    0.42 
  -3  -4  14    5.94    0.38 
  -2  -4  14    0.18    0.11 
  -1  -4  14   10.27    0.51 
   0  -4  14    0.03    0.07 
   0  -4  14   -0.01    0.08 
   1  -4  14   10.83    0.54 
  -2   4 -14    0.27    0.12 
   2  -4  14    0.16    0.11 
  -3   4 -14    5.58    0.38 
   3  -4  14    6.14    0.41 
  -4   4 -14    6.11    0.41 
   4  -4  14    6.35    0.44 
  -5   4 -14    4.80    0.35 
   5  -4  14    3.84    0.39 
  -6   4 -14    1.04    0.21 
   6  -4  14    1.43    0.28 
  -7   4 -14    0.66    0.18 
   7  -4  14    0.25    0.19 
   8  -4  14    0.02    0.22 
  -8  -3  14    0.14    0.16 
  -7  -3  14    1.16    0.24 
  -6  -3  14    0.25    0.15 
  -5  -3  14    1.20    0.21 
  -4  -3  14    7.93    0.47 
  -3  -3  14    4.97    0.34 
  -2  -3  14    8.73    0.46 
  -1  -3  14    1.06    0.16 
   0  -3  14    0.38    0.11 
  -1   3 -14    1.16    0.18 
   1  -3  14    1.27    0.18 
  -2   3 -14    9.05    0.48 
   2  -3  14    8.01    0.45 
  -3   3 -14    4.27    0.32 
   3  -3  14    5.25    0.36 
  -4   3 -14    6.81    0.44 
   4  -3  14    6.78    0.44 
  -5   3 -14    0.98    0.19 
   5  -3  14    0.95    0.21 
  -6   3 -14    0.21    0.14 
   6  -3  14    0.26    0.17 
  -7   3 -14    1.24    0.24 
   7  -3  14    1.07    0.27 
  -8   3 -14    0.12    0.17 
   8  -3  14    0.08    0.22 
  -8  -2  14   -0.07    0.11 
  -7  -2  14    0.46    0.18 
  -6  -2  14    3.15    0.35 
  -5  -2  14    4.37    0.35 
  -4  -2  14    2.73    0.29 
  -3  -2  14    4.92    0.33 
  -2  -2  14    9.44    0.48 
  -1  -2  14    3.11    0.24 
   0   2 -14    4.16    0.29 
   0  -2  14    4.40    0.28 
  -1   2 -14    2.78    0.27 
   1  -2  14    3.15    0.23 
   1  -2  14    3.16    0.23 
  -2   2 -14    8.97    0.48 
   2  -2  14    8.03    0.44 
  -3   2 -14    4.84    0.34 
   3  -2  14    4.86    0.34 
  -4   2 -14    2.22    0.26 
   4  -2  14    1.81    0.24 
  -5   2 -14    3.77    0.32 
   5  -2  14    3.88    0.35 
  -6   2 -14    3.06    0.33 
   6  -2  14    2.56    0.32 
  -7   2 -14    0.18    0.15 
   7  -2  14    0.42    0.19 
  -8   2 -14    0.09    0.14 
  -8  -1  14    1.67    0.32 
  -7  -1  14    1.37    0.26 
  -6  -1  14    0.21    0.14 
  -5  -1  14   10.77    0.61 
  -4  -1  14    4.88    0.36 
  -3  -1  14    5.24    0.35 
  -2  -1  14    7.26    0.40 
  -1  -1  14    0.62    0.12 
   0   1 -14   19.19    0.84 
   0  -1  14   19.19    0.79 
  -1   1 -14    0.40    0.11 
   1  -1  14    0.49    0.10 
  -2   1 -14    7.09    0.42 
   2  -1  14    7.43    0.39 
  -3   1 -14    4.75    0.34 
   3  -1  14    4.29    0.30 
  -4   1 -14    4.49    0.34 
   4  -1  14    4.18    0.32 
  -5   1 -14    8.91    0.55 
   5  -1  14    9.52    0.54 
  -6   1 -14    0.19    0.13 
   6  -1  14    0.12    0.14 
  -7   1 -14    1.49    0.26 
  -8   1 -14    1.38    0.28 
  -8   0  14    0.04    0.17 
  -7   0  14    3.35    0.40 
  -6   0  14    0.57    0.19 
  -5   0  14    1.37    0.24 
  -4   0  14    0.59    0.16 
  -3   0  14   20.20    0.89 
  -2   0  14    2.88    0.24 
  -1   0  14    6.27    0.35 
   0   0 -14   -0.04    0.06 
   0   0  14    0.01    0.06 
  -1   0 -14    5.69    0.35 
  -1   0 -14    5.79    0.28 
   1   0  14    5.53    0.30 
  -2   0 -14    2.85    0.17 
  -2   0 -14    3.16    0.28 
   2   0  14    2.86    0.21 
  -3   0 -14   19.78    0.91 
   3   0  14   20.10    0.84 
  -4   0 -14    0.59    0.16 
   4   0  14    0.41    0.12 
  -5   0 -14    1.18    0.22 
   5   0  14    1.14    0.20 
  -6   0 -14    0.62    0.19 
   6   0  14    0.30    0.17 
  -7   0 -14    2.64    0.36 
  -8   0 -14    0.19    0.16 
  -8   1  14    1.73    0.33 
  -7   1  14    0.84    0.21 
  -6   1  14    0.30    0.15 
  -5   1  14   10.73    0.62 
  -4   1  14    4.98    0.38 
  -3   1  14    4.14    0.32 
  -2   1  14    6.64    0.39 
   1  -1 -14    0.65    0.13 
   1  -1 -14    0.71    0.13 
  -1   1  14    0.66    0.12 
   0  -1 -14   18.91    0.82 
   0  -1 -14   18.75    0.78 
   0   1  14   18.58    0.76 
  -1  -1 -14    0.40    0.12 
  -1  -1 -14    0.48    0.10 
   1   1  14    0.47    0.10 
  -2  -1 -14    7.55    0.34 
  -2  -1 -14    7.44    0.44 
   2   1  14    7.57    0.38 
  -3  -1 -14    4.49    0.35 
   3   1  14    4.53    0.28 
  -4  -1 -14    4.07    0.34 
   4   1  14    3.99    0.28 
   5   1  14    4.08    0.30 
  -6  -1 -14    0.11    0.14 
  -7  -1 -14    1.07    0.25 
  -8  -1 -14    2.07    0.35 
  -8   2  14    0.04    0.16 
  -7   2  14    0.34    0.17 
  -6   2  14    2.06    0.30 
  -5   2  14    3.44    0.36 
  -4   2  14    1.92    0.26 
  -3   2  14    4.84    0.35 
   2  -2 -14    9.35    0.50 
  -2   2  14    8.57    0.47 
   1  -2 -14    3.44    0.26 
   1  -2 -14    3.25    0.23 
  -1   2  14    2.80    0.22 
   0  -2 -14    4.38    0.28 
   0  -2 -14    4.72    0.30 
   0   2  14    4.29    0.26 
  -1  -2 -14    3.17    0.25 
  -1  -2 -14    3.04    0.21 
   1   2  14    3.04    0.20 
  -2  -2 -14    8.98    0.50 
  -2  -2 -14    9.81    0.42 
   2   2  14    8.12    0.41 
  -3  -2 -14    5.08    0.27 
  -3  -2 -14    5.24    0.39 
   3   2  14    4.92    0.29 
  -4  -2 -14    2.00    0.29 
   4   2  14    2.76    0.22 
  -5  -2 -14    3.47    0.38 
  -6  -2 -14    2.35    0.35 
  -7  -2 -14    0.42    0.18 
  -8  -2 -14    0.10    0.18 
  -8   3  14    0.38    0.21 
  -7   3  14    0.75    0.24 
  -6   3  14    0.10    0.15 
  -5   3  14    0.67    0.21 
  -4   3  14    7.07    0.47 
   3  -3 -14    5.08    0.38 
  -3   3  14    5.07    0.36 
   2  -3 -14    8.99    0.50 
  -2   3  14    7.56    0.44 
   1  -3 -14    1.24    0.16 
   1  -3 -14    1.38    0.19 
  -1   3  14    1.06    0.15 
   0  -3 -14    0.23    0.10 
   0  -3 -14    0.35    0.11 
   0   3  14    0.66    0.11 
  -1  -3 -14    1.30    0.15 
  -1  -3 -14    1.29    0.18 
   1   3  14    0.77    0.11 
  -2  -3 -14    8.49    0.49 
  -2  -3 -14    8.24    0.40 
   2   3  14    8.00    0.38 
  -3  -3 -14    5.06    0.39 
  -3  -3 -14    4.83    0.27 
   3   3  14    4.42    0.27 
  -4  -3 -14    7.72    0.53 
  -5  -3 -14    0.84    0.22 
  -6  -3 -14    0.04    0.14 
  -7  -3 -14    1.34    0.29 
  -8  -3 -14    0.20    0.19 
  -8   4  14   -0.05    0.15 
  -7   4  14    0.50    0.24 
  -6   4  14    1.19    0.28 
  -5   4  14    4.45    0.44 
   4  -4 -14    6.05    0.45 
  -4   4  14    6.26    0.44 
   3  -4 -14    5.39    0.40 
  -3   4  14    5.15    0.38 
   2  -4 -14    0.25    0.09 
   2  -4 -14    0.33    0.12 
  -2   4  14    0.29    0.12 
   1  -4 -14    9.09    0.50 
   1  -4 -14    9.64    0.46 
  -1   4  14    9.56    0.47 
   0  -4 -14   -0.04    0.07 
   0  -4 -14   -0.02    0.06 
   0   4  14   -0.02    0.06 
  -1  -4 -14    9.34    0.47 
  -1  -4 -14    9.95    0.52 
   1   4  14    9.79    0.43 
  -2  -4 -14    0.16    0.09 
  -2  -4 -14    0.15    0.12 
   2   4  14    0.26    0.08 
  -3  -4 -14    5.83    0.32 
  -3  -4 -14    5.45    0.42 
  -4  -4 -14    6.78    0.51 
  -4  -4 -14    6.77    0.36 
  -5  -4 -14    4.48    0.46 
  -6  -4 -14    1.46    0.29 
  -7  -4 -14    0.59    0.21 
  -8  -4 -14    0.18    0.18 
  -7   5  14    0.19    0.19 
  -6   5  14    0.47    0.20 
   5  -5 -14    0.14    0.14 
  -5   5  14    0.19    0.17 
   4  -5 -14    1.55    0.28 
  -4   5  14    1.98    0.29 
   3  -5 -14    6.19    0.45 
  -3   5  14    6.75    0.43 
   2  -5 -14    3.01    0.30 
  -2   5  14    2.75    0.26 
   1  -5 -14    2.30    0.25 
  -1   5  14    2.60    0.23 
   0  -5 -14    0.93    0.15 
   0  -5 -14    0.78    0.15 
  -1  -5 -14    1.92    0.20 
  -1  -5 -14    2.00    0.24 
   1   5  14    2.11    0.16 
  -2  -5 -14    2.60    0.30 
  -2  -5 -14    2.90    0.23 
  -3  -5 -14    5.52    0.33 
  -3  -5 -14    6.63    0.47 
  -4  -5 -14    1.36    0.18 
  -4  -5 -14    1.19    0.25 
  -5  -5 -14    0.20    0.18 
  -6  -5 -14    0.61    0.24 
  -7  -5 -14    0.11    0.18 
  -7   6  14    0.15    0.20 
  -6   6  14    2.20    0.34 
   5  -6 -14    0.18    0.18 
  -5   6  14    0.44    0.19 
   4  -6 -14    0.73    0.20 
  -4   6  14    0.34    0.17 
   3  -6 -14    0.83    0.19 
  -3   6  14    0.86    0.21 
   2  -6 -14    1.46    0.23 
  -2   6  14    1.19    0.19 
   1  -6 -14    1.11    0.20 
   1  -6 -14    1.03    0.15 
  -1   6  14    1.15    0.17 
   0  -6 -14    4.35    0.32 
   0  -6 -14    4.69    0.31 
   0   6  14    5.11    0.28 
  -1  -6 -14    1.06    0.17 
  -1  -6 -14    1.33    0.22 
  -2  -6 -14    1.22    0.18 
  -2  -6 -14    1.29    0.24 
  -3  -6 -14    0.79    0.20 
  -3  -6 -14    0.85    0.16 
  -4  -6 -14    0.54    0.14 
  -4  -6 -14    0.51    0.21 
  -5  -6 -14    0.27    0.18 
  -6  -6 -14    2.86    0.42 
  -7  -6 -14    0.24    0.23 
  -7   7  14    0.11    0.21 
  -6   7  14    0.21    0.19 
   5  -7 -14    1.51    0.30 
  -5   7  14    1.27    0.27 
   4  -7 -14    2.76    0.36 
  -4   7  14    2.41    0.32 
   3  -7 -14    0.60    0.20 
  -3   7  14    0.19    0.15 
   2  -7 -14    1.16    0.21 
  -2   7  14    1.35    0.21 
   1  -7 -14    0.96    0.18 
  -1   7  14    0.53    0.12 
   0  -7 -14    1.75    0.21 
   0  -7 -14    2.73    0.27 
  -1  -7 -14    0.82    0.19 
  -1  -7 -14    0.57    0.15 
  -2  -7 -14    1.09    0.18 
  -2  -7 -14    1.33    0.25 
  -3  -7 -14    0.48    0.19 
  -3  -7 -14    0.62    0.15 
  -4  -7 -14    2.60    0.36 
  -4  -7 -14    2.74    0.26 
  -5  -7 -14    1.36    0.21 
  -5  -7 -14    0.66    0.24 
  -6  -7 -14    0.46    0.23 
  -7  -7 -14    0.01    0.22 
   6  -8 -14    0.41    0.25 
  -6   8  14    0.29    0.20 
   5  -8 -14    0.63    0.23 
  -5   8  14    0.41    0.22 
   4  -8 -14    0.75    0.23 
  -4   8  14    1.03    0.24 
   3  -8 -14    3.39    0.37 
  -3   8  14    2.92    0.32 
   2  -8 -14    1.23    0.23 
  -2   8  14    1.18    0.21 
   1  -8 -14    2.35    0.28 
   0  -8 -14    0.15    0.11 
  -1  -8 -14    2.82    0.28 
  -1  -8 -14    2.56    0.30 
  -2  -8 -14    1.23    0.20 
  -2  -8 -14    1.37    0.26 
  -3  -8 -14    2.22    0.33 
  -3  -8 -14    2.42    0.25 
  -4  -8 -14    0.40    0.22 
  -4  -8 -14    0.99    0.17 
  -5  -8 -14    0.60    0.24 
  -5  -8 -14    0.60    0.17 
  -6  -8 -14    0.40    0.24 
   6  -9 -14    0.08    0.22 
  -6   9  14    0.05    0.20 
   5  -9 -14    0.12    0.20 
  -5   9  14    0.22    0.19 
   4  -9 -14    0.04    0.17 
  -4   9  14    0.16    0.17 
   3  -9 -14    0.90    0.23 
  -3   9  14    0.89    0.21 
   2  -9 -14    0.20    0.14 
   1  -9 -14    4.40    0.39 
   0  -9 -14    2.06    0.27 
  -1  -9 -14    4.96    0.37 
  -2  -9 -14    0.15    0.12 
  -2  -9 -14    0.22    0.18 
  -3  -9 -14    1.22    0.21 
  -3  -9 -14    1.03    0.26 
  -4  -9 -14    0.29    0.19 
  -4  -9 -14    0.71    0.18 
  -5  -9 -14    0.31    0.15 
  -5  -9 -14   -0.21    0.15 
  -6  -9 -14    0.05    0.22 
   5 -10 -14    0.37    0.26 
  -5  10  14    0.21    0.22 
   4 -10 -14   -0.03    0.17 
  -4  10  14   -0.14    0.18 
   3 -10 -14    0.02    0.13 
   2 -10 -14    2.55    0.33 
   1 -10 -14    0.32    0.15 
   0 -10 -14    0.62    0.18 
  -1 -10 -14    0.27    0.14 
  -2 -10 -14    3.20    0.32 
  -2 -10 -14    2.68    0.37 
  -3 -10 -14    0.15    0.13 
  -3 -10 -14    0.15    0.17 
  -4 -10 -14    0.23    0.14 
  -4 -10 -14    0.07    0.18 
  -5 -10 -14    0.47    0.25 
  -5 -10 -14    0.31    0.16 
   4 -11 -14    0.65    0.27 
   3 -11 -14    0.20    0.19 
   2 -11 -14    0.38    0.18 
   1 -11 -14    0.66    0.21 
   0 -11 -14    0.06    0.12 
  -1 -11 -14    0.95    0.21 
  -2 -11 -14    0.30    0.15 
  -3 -11 -14    0.19    0.23 
  -3 -11 -14    0.13    0.14 
  -4 -11 -14    0.97    0.28 
  -4 -11 -14    0.57    0.19 
   3 -12 -14    0.40    0.25 
   2 -12 -14    0.57    0.20 
   1 -12 -14    0.99    0.24 
   0 -12 -14    0.13    0.14 
  -1 -12 -14    0.46    0.18 
  -2 -12 -14    0.65    0.21 
  -3 -12 -14    0.75    0.21 
  -1 -12  15    0.46    0.20 
   0 -12  15    0.30    0.20 
   1 -12  15    0.83    0.23 
   2 -12  15    0.14    0.16 
  -4 -11  15    0.33    0.24 
  -2 -11  15    0.88    0.22 
  -1 -11  15    0.29    0.18 
   0 -11  15    0.97    0.24 
   1 -11  15    0.39    0.18 
   2 -11  15    0.53    0.20 
   3 -11  15    0.83    0.25 
   4 -11  15    0.43    0.21 
  -5 -10  15   -0.14    0.20 
  -4 -10  15    0.45    0.22 
  -3 -10  15    0.02    0.17 
  -3 -10  15    0.03    0.14 
  -2 -10  15    0.10    0.14 
  -1 -10  15    0.32    0.15 
   0 -10  15    3.21    0.37 
   1 -10  15    0.18    0.16 
   2 -10  15    0.00    0.13 
   3 -10  15    0.16    0.15 
   4 -10  15    0.42    0.20 
   5 -10  15    0.05    0.16 
  -5  -9  15    0.08    0.20 
  -4  -9  15    0.21    0.13 
  -4  -9  15    0.07    0.18 
  -3  -9  15    0.72    0.21 
  -3  -9  15    0.25    0.14 
  -2  -9  15    2.69    0.31 
  -1  -9  15    0.77    0.19 
   0  -9  15    0.34    0.14 
   1  -9  15    0.57    0.19 
   2  -9  15    3.06    0.37 
   3  -9  15    0.50    0.19 
   4  -9  15    0.18    0.16 
   5  -9  15    0.14    0.18 
  -6  -8  15    0.36    0.24 
  -5  -8  15    0.32    0.16 
  -5  -8  15    0.25    0.22 
  -4  -8  15    0.19    0.19 
  -4  -8  15   -0.02    0.11 
  -3  -8  15    1.83    0.25 
  -3  -8  15    1.84    0.28 
  -2  -8  15    1.00    0.22 
  -2  -8  15    0.99    0.20 
  -1  -8  15    2.33    0.28 
   0  -8  15    0.06    0.11 
   1  -8  15    2.82    0.32 
   2  -8  15    1.17    0.24 
   3  -8  15    2.04    0.31 
   4  -8  15   -0.13    0.14 
   5  -8  15    0.27    0.20 
   6  -8  15    0.19    0.22 
  -6  -7  15    1.22    0.22 
  -6  -7  15    0.95    0.29 
  -5  -7  15    0.31    0.15 
  -5  -7  15   -0.01    0.17 
  -4  -7  15    0.59    0.22 
  -4  -7  15    0.68    0.18 
  -3  -7  15    2.64    0.29 
  -3  -7  15    2.68    0.32 
  -2  -7  15    5.29    0.38 
  -2  -7  15    6.03    0.41 
  -1  -7  15    2.66    0.29 
   0  -7  15    2.03    0.26 
   1  -7  15    3.26    0.32 
   2  -7  15    5.80    0.41 
   3  -7  15    2.66    0.33 
   4  -7  15    0.57    0.20 
  -5   7 -15    0.64    0.17 
   5  -7  15    0.15    0.17 
   6  -7  15    1.21    0.30 
  -7  -6  15    0.45    0.26 
  -7  -6  15    0.29    0.15 
  -6  -6  15    0.20    0.14 
  -6  -6  15    0.09    0.20 
  -5  -6  15   -0.11    0.15 
  -5  -6  15    0.22    0.13 
  -4  -6  15    6.65    0.50 
  -4  -6  15    6.82    0.44 
  -3  -6  15    2.34    0.30 
  -3  -6  15    2.08    0.26 
  -2  -6  15    4.84    0.35 
  -2  -6  15    5.40    0.39 
  -1  -6  15    0.05    0.07 
  -1  -6  15    0.35    0.13 
   0  -6  15   10.34    0.56 
   1  -6  15    0.20    0.13 
   2  -6  15    3.66    0.34 
   3  -6  15    2.44    0.31 
  -4   6 -15    6.57    0.44 
   4  -6  15    6.16    0.48 
  -5   6 -15    0.23    0.12 
   5  -6  15   -0.14    0.14 
  -6   6 -15    0.28    0.15 
   6  -6  15    0.13    0.19 
   7  -6  15    0.48    0.25 
  -7  -5  15    0.93    0.23 
  -6  -5  15    1.85    0.27 
  -5  -5  15    1.52    0.24 
  -4  -5  15    1.72    0.23 
  -3  -5  15    4.58    0.33 
  -2  -5  15    2.92    0.30 
  -2  -5  15    3.40    0.27 
  -1  -5  15    6.43    0.39 
   0  -5  15    0.46    0.13 
   1  -5  15    5.55    0.38 
   2  -5  15    2.86    0.29 
  -3   5 -15    3.61    0.31 
   3  -5  15    3.94    0.36 
  -4   5 -15    1.34    0.22 
   4  -5  15    2.06    0.30 
  -5   5 -15    1.36    0.23 
   5  -5  15    1.42    0.28 
  -6   5 -15    1.89    0.27 
   6  -5  15    1.59    0.32 
   7  -5  15    0.68    0.24 
  -7  -4  15    0.95    0.22 
  -6  -4  15    0.24    0.13 
  -5  -4  15    1.54    0.24 
  -4  -4  15    0.22    0.12 
  -3  -4  15    2.81    0.28 
  -2  -4  15    6.53    0.39 
  -1  -4  15   13.58    0.64 
   0  -4  15    0.58    0.15 
   0  -4  15    0.66    0.12 
   1  -4  15   14.20    0.67 
  -2   4 -15    6.04    0.40 
   2  -4  15    6.21    0.40 
  -3   4 -15    2.74    0.28 
   3  -4  15    2.74    0.30 
  -4   4 -15    0.21    0.12 
   4  -4  15    0.25    0.15 
  -5   4 -15    1.61    0.25 
   5  -4  15    2.07    0.31 
  -6   4 -15    0.05    0.12 
   6  -4  15    0.20    0.17 
  -7   4 -15    1.01    0.23 
   7  -4  15    0.93    0.26 
  -8  -3  15    0.03    0.17 
  -7  -3  15   -0.03    0.12 
  -6  -3  15    0.89    0.20 
  -5  -3  15    4.42    0.35 
  -4  -3  15    0.46    0.15 
  -3  -3  15    2.11    0.24 
  -2  -3  15   19.00    0.83 
  -1  -3  15    8.95    0.47 
   0  -3  15    0.41    0.12 
  -1   3 -15    8.98    0.50 
   1  -3  15    8.70    0.47 
  -2   3 -15   20.02    0.89 
   2  -3  15   18.15    0.84 
  -3   3 -15    1.88    0.24 
   3  -3  15    1.58    0.23 
  -4   3 -15    0.72    0.18 
   4  -3  15    0.79    0.19 
  -5   3 -15    3.13    0.33 
   5  -3  15    3.75    0.36 
  -6   3 -15    1.14    0.22 
   6  -3  15    0.95    0.25 
  -7   3 -15    0.37    0.16 
   7  -3  15    0.04    0.17 
  -8   3 -15    0.20    0.18 
  -8  -2  15    0.80    0.25 
  -7  -2  15    0.70    0.20 
  -6  -2  15    1.73    0.28 
  -5  -2  15    2.89    0.32 
  -4  -2  15   10.98    0.59 
  -3  -2  15    0.59    0.15 
  -2  -2  15    3.49    0.27 
  -1  -2  15    1.19    0.17 
   0   2 -15   27.22    1.14 
   0  -2  15   26.92    1.08 
  -1   2 -15    1.67    0.22 
   1  -2  15    1.48    0.19 
  -2   2 -15    4.26    0.32 
   2  -2  15    4.68    0.32 
  -3   2 -15    0.76    0.17 
   3  -2  15    0.59    0.15 
  -4   2 -15    9.63    0.55 
   4  -2  15    8.75    0.52 
  -5   2 -15    2.67    0.31 
   5  -2  15    3.38    0.34 
  -6   2 -15    1.31    0.24 
   6  -2  15    1.14    0.25 
  -7   2 -15    0.76    0.22 
   7  -2  15    0.75    0.24 
  -8   2 -15    0.79    0.24 
  -8  -1  15    0.45    0.21 
  -7  -1  15    0.29    0.17 
  -6  -1  15    2.48    0.34 
  -5  -1  15    1.44    0.24 
  -4  -1  15   10.66    0.59 
  -3  -1  15   17.76    0.81 
  -2  -1  15    0.04    0.10 
  -1  -1  15    3.07    0.24 
   0   1 -15    2.91    0.25 
   0  -1  15    2.69    0.22 
  -1   1 -15    2.91    0.27 
   1  -1  15    3.39    0.24 
  -2   1 -15    0.22    0.11 
   2  -1  15    0.25    0.09 
  -3   1 -15   17.51    0.84 
   3  -1  15   17.82    0.78 
  -4   1 -15    9.41    0.56 
   4  -1  15   10.37    0.54 
  -5   1 -15    1.18    0.22 
   5  -1  15    1.33    0.23 
  -6   1 -15    2.25    0.31 
   6  -1  15    2.20    0.30 
  -7   1 -15    0.10    0.15 
  -8   1 -15    0.31    0.20 
  -8   0  15    0.21    0.17 
  -7   0  15    3.88    0.44 
  -6   0  15    1.25    0.25 
  -5   0  15    0.13    0.13 
  -4   0  15    0.13    0.13 
  -3   0  15    7.33    0.45 
  -2   0  15   11.98    0.58 
  -1   0  15    3.76    0.26 
   0   0 -15    0.07    0.07 
   0   0  15    0.02    0.06 
  -1   0 -15    3.93    0.23 
  -1   0 -15    4.32    0.31 
   1   0  15    3.87    0.25 
  -2   0 -15   11.22    0.59 
   2   0  15   11.18    0.52 
  -3   0 -15    7.30    0.45 
   3   0  15    6.25    0.37 
  -4   0 -15    0.07    0.13 
   4   0  15    0.33    0.13 
  -5   0 -15    0.16    0.12 
   5   0  15   -0.01    0.11 
  -6   0 -15    1.48    0.27 
  -7   0 -15    3.60    0.41 
  -8   0 -15    0.08    0.17 
  -8   1  15    0.10    0.18 
  -7   1  15    0.38    0.19 
  -6   1  15    2.55    0.35 
  -5   1  15    1.40    0.25 
  -4   1  15   11.25    0.63 
  -3   1  15   18.69    0.85 
  -2   1  15    0.24    0.11 
   1  -1 -15    3.58    0.26 
   1  -1 -15    3.07    0.24 
  -1   1  15    3.16    0.24 
   0  -1 -15    3.26    0.24 
   0  -1 -15    2.62    0.21 
   0   1  15    2.97    0.22 
  -1  -1 -15    3.34    0.22 
  -1  -1 -15    2.99    0.26 
   1   1  15    3.52    0.23 
  -2  -1 -15    0.23    0.08 
  -2  -1 -15    0.40    0.14 
   2   1  15    0.22    0.09 
  -3  -1 -15   17.60    0.86 
   3   1  15   17.93    0.76 
  -4  -1 -15   10.73    0.62 
   4   1  15   10.67    0.53 
  -5  -1 -15    1.31    0.25 
  -6  -1 -15    2.69    0.36 
  -7  -1 -15    0.31    0.18 
  -8  -1 -15    0.36    0.20 
  -8   2  15    0.79    0.24 
  -7   2  15    0.77    0.22 
  -6   2  15    1.50    0.28 
  -5   2  15    2.94    0.37 
  -4   2  15    9.57    0.57 
  -3   2  15    0.54    0.17 
   2  -2 -15    4.13    0.32 
  -2   2  15    4.09    0.31 
   1  -2 -15    1.50    0.18 
   1  -2 -15    1.69    0.21 
  -1   2  15    1.40    0.18 
   0  -2 -15   26.32    1.05 
   0  -2 -15   25.80    1.08 
   0   2  15   26.42    1.02 
  -1  -2 -15    1.37    0.20 
  -1  -2 -15    1.39    0.16 
   1   2  15    1.25    0.14 
  -2  -2 -15    4.39    0.25 
  -2  -2 -15    4.10    0.33 
   2   2  15    3.56    0.24 
  -3  -2 -15    0.50    0.16 
   3   2  15    0.15    0.07 
  -4  -2 -15    9.87    0.60 
  -5  -2 -15    2.92    0.36 
  -6  -2 -15    1.44    0.28 
  -7  -2 -15    0.71    0.21 
  -8  -2 -15    1.14    0.30 
  -8   3  15    0.34    0.18 
  -7   3  15    0.03    0.13 
  -6   3  15    0.41    0.18 
  -5   3  15    4.22    0.42 
  -4   3  15    0.71    0.19 
   3  -3 -15    1.96    0.27 
  -3   3  15    1.45    0.23 
   2  -3 -15   19.02    0.87 
  -2   3  15   18.30    0.82 
   1  -3 -15    8.44    0.44 
   1  -3 -15    8.66    0.48 
  -1   3  15    9.03    0.45 
   0  -3 -15    0.71    0.15 
   0  -3 -15    0.75    0.15 
   0   3  15    0.92    0.13 
  -1  -3 -15    8.68    0.50 
  -1  -3 -15    9.22    0.46 
   1   3  15    9.51    0.43 
  -2  -3 -15   17.70    0.84 
  -2  -3 -15   16.91    0.72 
   2   3  15   17.70    0.71 
  -3  -3 -15    1.85    0.17 
  -3  -3 -15    1.91    0.28 
  -4  -3 -15    0.80    0.20 
  -5  -3 -15    3.52    0.40 
  -6  -3 -15    0.91    0.25 
  -7  -3 -15    0.25    0.18 
  -8  -3 -15    0.18    0.19 
  -7   4  15    0.89    0.26 
  -6   4  15   -0.01    0.16 
  -5   4  15    1.65    0.28 
   4  -4 -15    0.19    0.13 
  -4   4  15    0.19    0.13 
   3  -4 -15    3.04    0.34 
  -3   4  15    3.48    0.33 
   2  -4 -15    6.42    0.44 
  -2   4  15    7.25    0.43 
   1  -4 -15   14.17    0.67 
   1  -4 -15   13.58    0.62 
  -1   4  15   13.31    0.62 
   0  -4 -15    0.80    0.16 
   0  -4 -15    0.79    0.14 
   0   4  15    0.54    0.11 
  -1  -4 -15   14.85    0.70 
  -1  -4 -15   13.43    0.63 
   1   4  15   14.00    0.59 
  -2  -4 -15    5.93    0.34 
  -2  -4 -15    6.48    0.43 
  -3  -4 -15    2.98    0.23 
  -3  -4 -15    2.94    0.33 
  -4  -4 -15    0.10    0.14 
  -5  -4 -15    1.36    0.30 
  -6  -4 -15   -0.06    0.14 
  -7  -4 -15    0.59    0.24 
  -7   5  15    0.54    0.25 
  -6   5  15    1.97    0.34 
  -5   5  15    1.79    0.30 
   4  -5 -15    1.97    0.30 
  -4   5  15    2.54    0.32 
   3  -5 -15    5.01    0.40 
  -3   5  15    5.38    0.39 
   2  -5 -15    3.62    0.34 
  -2   5  15    3.48    0.30 
   1  -5 -15    4.86    0.35 
  -1   5  15    5.83    0.34 
   0  -5 -15    0.44    0.13 
   0  -5 -15    0.30    0.11 
   0   5  15    0.10    0.06 
  -1  -5 -15    5.42    0.34 
  -1  -5 -15    5.54    0.38 
   1   5  15    5.82    0.30 
  -2  -5 -15    3.41    0.25 
  -2  -5 -15    3.24    0.33 
  -3  -5 -15    4.61    0.42 
  -3  -5 -15    4.45    0.30 
  -4  -5 -15    2.19    0.34 
  -5  -5 -15    1.11    0.26 
  -6  -5 -15    1.99    0.38 
  -7  -5 -15    0.49    0.20 
  -7   6  15    0.02    0.21 
  -6   6  15    0.00    0.16 
   5  -6 -15    0.04    0.14 
  -5   6  15   -0.17    0.13 
   4  -6 -15    7.45    0.52 
  -4   6  15    6.46    0.48 
   3  -6 -15    2.13    0.29 
  -3   6  15    1.61    0.25 
   2  -6 -15    4.55    0.36 
  -2   6  15    4.69    0.35 
   1  -6 -15    0.42    0.12 
   1  -6 -15    0.54    0.16 
  -1   6  15    0.39    0.11 
   0  -6 -15    9.74    0.51 
   0  -6 -15    9.65    0.53 
   0   6  15    9.99    0.46 
  -1  -6 -15    0.41    0.14 
  -1  -6 -15    0.35    0.15 
  -2  -6 -15    4.88    0.39 
  -2  -6 -15    4.81    0.32 
  -3  -6 -15    1.76    0.21 
  -3  -6 -15    2.06    0.31 
  -4  -6 -15    6.38    0.39 
  -4  -6 -15    8.54    0.58 
  -5  -6 -15    0.10    0.17 
  -6  -6 -15   -0.12    0.17 
  -7  -6 -15    0.44    0.25 
  -6   7  15    1.16    0.30 
   5  -7 -15    0.26    0.18 
  -5   7  15    0.24    0.17 
   4  -7 -15    0.48    0.18 
  -4   7  15    0.56    0.21 
   3  -7 -15    2.64    0.33 
  -3   7  15    2.26    0.29 
   2  -7 -15    4.59    0.37 
  -2   7  15    4.95    0.35 
   1  -7 -15    2.68    0.29 
  -1   7  15    2.23    0.23 
   0  -7 -15    1.71    0.22 
   0  -7 -15    1.51    0.22 
  -1  -7 -15    2.99    0.31 
  -1  -7 -15    3.33    0.29 
  -2  -7 -15    4.93    0.35 
  -2  -7 -15    5.44    0.42 
  -3  -7 -15    2.33    0.34 
  -3  -7 -15    2.63    0.27 
  -4  -7 -15    0.54    0.15 
  -4  -7 -15    0.59    0.22 
  -5  -7 -15    0.36    0.22 
  -6  -7 -15    1.57    0.35 
   6  -8 -15    0.25    0.24 
  -6   8  15    0.02    0.20 
   5  -8 -15    0.27    0.20 
  -5   8  15    0.34    0.20 
   4  -8 -15    0.03    0.14 
  -4   8  15    0.25    0.17 
   3  -8 -15    1.66    0.29 
  -3   8  15    2.01    0.28 
   2  -8 -15    1.01    0.22 
  -2   8  15    0.59    0.17 
   1  -8 -15    2.73    0.31 
   0  -8 -15    0.06    0.11 
  -1  -8 -15    2.85    0.32 
  -1  -8 -15    3.00    0.30 
  -2  -8 -15    0.99    0.20 
  -2  -8 -15    1.10    0.25 
  -3  -8 -15    1.56    0.29 
  -3  -8 -15    1.81    0.24 
  -4  -8 -15    0.07    0.12 
  -4  -8 -15    0.03    0.17 
  -5  -8 -15    0.06    0.18 
  -6  -8 -15    0.23    0.20 
   5  -9 -15    0.19    0.22 
  -5   9  15   -0.01    0.18 
   4  -9 -15    0.22    0.17 
  -4   9  15    0.17    0.20 
   3  -9 -15    0.44    0.17 
  -3   9  15    0.53    0.21 
   2  -9 -15    2.63    0.33 
   1  -9 -15    0.23    0.14 
   0  -9 -15    0.15    0.13 
  -1  -9 -15    0.38    0.16 
  -2  -9 -15    2.94    0.36 
  -2  -9 -15    2.44    0.29 
  -3  -9 -15    0.55    0.22 
  -3  -9 -15    0.46    0.15 
  -4  -9 -15    0.26    0.14 
  -4  -9 -15    0.01    0.17 
  -5  -9 -15    0.47    0.17 
  -5  -9 -15    0.11    0.20 
   5 -10 -15    0.12    0.24 
  -5  10  15    0.17    0.22 
   4 -10 -15    0.45    0.24 
   3 -10 -15    0.18    0.16 
   2 -10 -15    0.01    0.15 
   1 -10 -15    0.35    0.16 
   0 -10 -15    2.59    0.32 
  -1 -10 -15    0.18    0.13 
  -2 -10 -15    0.43    0.16 
  -3 -10 -15    0.08    0.18 
  -3 -10 -15    0.06    0.12 
  -4 -10 -15    0.53    0.17 
  -4 -10 -15    0.32    0.22 
  -5 -10 -15   -0.03    0.15 
  -5 -10 -15    0.16    0.21 
   4 -11 -15    0.32    0.25 
   3 -11 -15    0.60    0.20 
   2 -11 -15    0.26    0.17 
   1 -11 -15    0.25    0.16 
   0 -11 -15    0.49    0.19 
  -1 -11 -15    0.29    0.17 
  -2 -11 -15    0.47    0.17 
  -3 -11 -15    0.81    0.21 
  -4 -11 -15    0.53    0.27 
  -4 -11 -15    0.28    0.17 
   2 -12 -15    0.39    0.19 
   1 -12 -15    0.16    0.16 
   0 -12 -15    0.04    0.14 
  -1 -12 -15    0.21    0.16 
  -2 -12 -15   -0.03    0.14 
  -1 -12  16    0.50    0.22 
   0 -12  16    0.40    0.20 
   1 -12  16    0.27    0.20 
  -3 -11  16    0.18    0.19 
  -2 -11  16   -0.04    0.16 
  -1 -11  16    1.42    0.27 
   0 -11  16    0.53    0.19 
   1 -11  16    1.66    0.31 
   2 -11  16    0.20    0.18 
   3 -11  16   -0.13    0.16 
  -4 -10  16   -0.01    0.20 
  -4 -10  16    0.19    0.18 
  -3 -10  16    0.32    0.16 
  -2 -10  16    1.52    0.26 
  -1 -10  16    0.90    0.22 
   0 -10  16   -0.10    0.12 
   1 -10  16    0.81    0.21 
   2 -10  16    1.87    0.31 
   3 -10  16   -0.06    0.13 
   4 -10  16    0.26    0.20 
  -5  -9  16    0.23    0.17 
  -5  -9  16   -0.23    0.20 
  -4  -9  16    0.79    0.20 
  -4  -9  16    0.55    0.23 
  -3  -9  16    0.22    0.19 
  -3  -9  16    0.05    0.14 
  -2  -9  16    0.34    0.15 
  -1  -9  16    0.48    0.18 
   0  -9  16    1.46    0.26 
   1  -9  16    0.29    0.14 
   2  -9  16    0.28    0.16 
   3  -9  16    0.23    0.18 
   4  -9  16    0.17    0.18 
   5  -9  16    0.33    0.24 
  -6  -8  16   -0.18    0.21 
  -5  -8  16    2.01    0.36 
  -5  -8  16    2.22    0.29 
  -4  -8  16    0.21    0.19 
  -4  -8  16    0.28    0.15 
  -3  -8  16   -0.05    0.11 
  -3  -8  16    0.07    0.17 
  -2  -8  16    1.06    0.21 
  -1  -8  16    0.18    0.13 
   0  -8  16    2.13    0.29 
   1  -8  16    0.08    0.12 
   2  -8  16    0.44    0.17 
   3  -8  16    0.07    0.12 
   4  -8  16    0.09    0.17 
   5  -8  16    2.29    0.39 
   6  -8  16    0.05    0.22 
  -6  -7  16    0.17    0.22 
  -6  -7  16    0.39    0.17 
  -5  -7  16    0.11    0.19 
  -5  -7  16    0.34    0.15 
  -4  -7  16    0.41    0.15 
  -4  -7  16    0.34    0.21 
  -3  -7  16    0.53    0.16 
  -3  -7  16    0.55    0.19 
  -2  -7  16    0.93    0.19 
  -2  -7  16    0.94    0.22 
  -1  -7  16    0.62    0.17 
   0  -7  16    1.79    0.25 
   1  -7  16    0.18    0.12 
   2  -7  16    0.54    0.17 
   3  -7  16    0.80    0.21 
   4  -7  16    0.44    0.18 
  -5   7 -16    0.19    0.14 
   5  -7  16   -0.03    0.18 
   6  -7  16    0.21    0.22 
  -7  -6  16    0.46    0.19 
  -7  -6  16    0.83    0.31 
  -6  -6  16    1.92    0.35 
  -6  -6  16    1.78    0.27 
  -5  -6  16    0.39    0.21 
  -5  -6  16    0.13    0.13 
  -4  -6  16    0.32    0.13 
  -4  -6  16    0.27    0.18 
  -3  -6  16    0.76    0.22 
  -3  -6  16    0.82    0.19 
  -2  -6  16    6.01    0.41 
  -2  -6  16    4.67    0.35 
  -1  -6  16    0.60    0.15 
   0  -6  16    3.35    0.32 
   1  -6  16    0.56    0.16 
   2  -6  16    4.57    0.37 
   3  -6  16    0.60    0.19 
  -4   6 -16    0.25    0.14 
   4  -6  16    0.18    0.15 
  -5   6 -16    0.11    0.13 
   5  -6  16   -0.21    0.15 
  -6   6 -16    1.98    0.29 
   6  -6  16    1.81    0.35 
   7  -6  16    0.31    0.25 
  -7  -5  16    0.16    0.16 
  -6  -5  16    0.17    0.14 
  -5  -5  16    2.08    0.28 
  -4  -5  16    3.40    0.33 
  -3  -5  16    2.72    0.28 
  -2  -5  16    1.00    0.22 
  -2  -5  16    0.96    0.18 
  -1  -5  16    4.38    0.31 
  -1  -5  16    4.89    0.34 
   0  -5  16   11.46    0.59 
   1  -5  16    3.55    0.32 
   2  -5  16    1.29    0.23 
  -3   5 -16    2.27    0.28 
   3  -5  16    2.39    0.30 
  -4   5 -16    3.88    0.33 
   4  -5  16    3.97    0.39 
  -5   5 -16    1.27    0.22 
   5  -5  16    1.66    0.30 
  -6   5 -16    0.30    0.15 
   6  -5  16    0.10    0.18 
   7  -5  16    0.45    0.24 
  -7  -4  16    0.68    0.20 
  -6  -4  16    0.09    0.13 
  -5  -4  16    1.91    0.28 
  -4  -4  16    0.29    0.13 
  -3  -4  16    9.45    0.52 
  -2  -4  16    3.47    0.28 
  -1  -4  16   13.12    0.64 
   0  -4  16    2.51    0.26 
   1  -4  16   12.39    0.62 
  -2   4 -16    3.26    0.32 
   2  -4  16    3.30    0.31 
  -3   4 -16    9.47    0.55 
   3  -4  16    9.51    0.55 
  -4   4 -16    0.38    0.14 
   4  -4  16    0.55    0.17 
  -5   4 -16    1.43    0.24 
   5  -4  16    1.26    0.26 
  -6   4 -16    0.17    0.14 
   6  -4  16    0.13    0.17 
  -7   4 -16    0.79    0.20 
   7  -4  16    0.72    0.26 
  -7  -3  16    1.18    0.24 
  -6  -3  16    0.42    0.17 
  -5  -3  16    1.76    0.26 
  -4  -3  16    1.49    0.23 
  -3  -3  16    1.77    0.23 
  -2  -3  16    6.21    0.39 
  -1  -3  16   23.30    0.98 
   0  -3  16    8.56    0.46 
  -1   3 -16   22.21    1.00 
   1  -3  16   22.10    0.94 
  -2   3 -16    5.95    0.40 
   2  -3  16    5.74    0.39 
  -3   3 -16    1.40    0.22 
   3  -3  16    1.51    0.23 
  -4   3 -16    1.09    0.21 
   4  -3  16    1.97    0.27 
  -5   3 -16    1.57    0.25 
   5  -3  16    1.24    0.25 
  -6   3 -16    0.22    0.14 
   6  -3  16    0.56    0.20 
  -7   3 -16    1.08    0.24 
   7  -3  16    0.41    0.22 
  -7  -2  16    0.18    0.16 
  -6  -2  16    2.19    0.31 
  -5  -2  16    0.32    0.15 
  -4  -2  16    0.84    0.18 
  -3  -2  16    7.36    0.45 
  -2  -2  16    9.07    0.49 
  -1  -2  16   18.62    0.81 
   0  -2  16    4.21    0.30 
  -1   2 -16   18.10    0.83 
   1  -2  16   17.44    0.78 
  -2   2 -16    7.46    0.46 
   2  -2  16    8.73    0.46 
  -3   2 -16    7.29    0.45 
   3  -2  16    6.60    0.42 
  -4   2 -16    0.93    0.19 
   4  -2  16    0.76    0.19 
  -5   2 -16    0.23    0.13 
   5  -2  16    0.04    0.13 
  -6   2 -16    2.60    0.32 
   6  -2  16    3.10    0.36 
  -7   2 -16    0.42    0.18 
   7  -2  16    0.01    0.20 
  -8  -1  16    1.21    0.27 
  -7  -1  16    3.53    0.42 
  -6  -1  16    4.28    0.42 
  -5  -1  16    2.21    0.30 
  -4  -1  16    4.05    0.34 
  -3  -1  16   11.41    0.60 
  -2  -1  16    4.16    0.32 
  -1  -1  16    9.51    0.49 
   0   1 -16    9.84    0.53 
   0  -1  16    9.66    0.49 
  -1   1 -16   10.15    0.56 
   1  -1  16   11.50    0.53 
  -2   1 -16    3.35    0.32 
   2  -1  16    4.02    0.29 
  -3   1 -16   11.07    0.60 
   3  -1  16   10.68    0.55 
  -4   1 -16    3.37    0.34 
   4  -1  16    4.16    0.32 
  -5   1 -16    2.27    0.30 
   5  -1  16    1.83    0.26 
  -6   1 -16    3.54    0.39 
   6  -1  16    4.53    0.40 
  -7   1 -16    3.40    0.39 
  -8   1 -16    1.23    0.27 
  -8   0  16    1.51    0.31 
  -7   0  16    0.44    0.18 
  -6   0  16    4.48    0.45 
  -5   0  16    4.96    0.41 
  -4   0  16    8.75    0.54 
  -3   0  16    0.11    0.12 
  -2   0  16   10.59    0.54 
  -1   0  16    3.74    0.27 
   0   0 -16    3.58    0.29 
   0   0  16    4.13    0.27 
  -1   0 -16    3.43    0.28 
   1   0  16    3.00    0.23 
  -2   0 -16    9.43    0.53 
   2   0  16    9.59    0.48 
  -3   0 -16    0.33    0.14 
   3   0  16    0.46    0.13 
  -4   0 -16    8.00    0.50 
   4   0  16    6.83    0.43 
  -5   0 -16    4.57    0.39 
   5   0  16    4.84    0.37 
  -6   0 -16    3.16    0.38 
  -7   0 -16    0.02    0.15 
  -8   0 -16    1.59    0.31 
  -8   1  16    1.53    0.31 
  -7   1  16    4.03    0.47 
  -6   1  16    4.51    0.45 
  -5   1  16    2.41    0.34 
  -4   1  16    3.99    0.37 
  -3   1  16   11.63    0.61 
  -2   1  16    4.35    0.32 
   1  -1 -16   10.32    0.53 
   1  -1 -16   10.58    0.53 
  -1   1  16   10.29    0.52 
   0  -1 -16   10.55    0.53 
   0  -1 -16    9.60    0.49 
   0   1  16   10.03    0.48 
  -1  -1 -16   11.03    0.50 
  -1  -1 -16   10.49    0.57 
   1   1  16   10.69    0.50 
  -2  -1 -16    3.91    0.32 
   2   1  16    3.91    0.27 
  -3  -1 -16   10.25    0.59 
   3   1  16   10.46    0.51 
  -4  -1 -16    3.99    0.37 
   4   1  16    2.85    0.27 
  -5  -1 -16    2.24    0.32 
  -6  -1 -16    4.15    0.44 
  -7  -1 -16    3.29    0.42 
  -8  -1 -16    1.43    0.32 
  -7   2  16    0.43    0.21 
  -6   2  16    2.87    0.40 
  -5   2  16    0.04    0.16 
  -4   2  16    0.83    0.21 
  -3   2  16    7.80    0.48 
   2  -2 -16    8.56    0.51 
  -2   2  16    9.11    0.49 
   1  -2 -16   17.50    0.79 
   1  -2 -16   17.43    0.81 
  -1   2  16   19.06    0.79 
   0  -2 -16    4.04    0.29 
   0  -2 -16    3.96    0.30 
   0   2  16    4.31    0.27 
  -1  -2 -16   17.38    0.74 
  -1  -2 -16   16.95    0.81 
   1   2  16   18.09    0.73 
  -2  -2 -16    8.37    0.40 
  -2  -2 -16    8.25    0.50 
   2   2  16    7.80    0.41 
  -4  -2 -16    0.81    0.21 
  -5  -2 -16    0.00    0.12 
  -6  -2 -16    3.03    0.40 
  -7  -2 -16   -0.02    0.14 
  -7   3  16    0.74    0.26 
  -6   3  16    0.40    0.18 
  -5   3  16    1.48    0.27 
  -4   3  16    1.49    0.26 
   3  -3 -16    1.59    0.26 
  -3   3  16    1.90    0.27 
   2  -3 -16    5.77    0.40 
  -2   3  16    5.49    0.37 
   1  -3 -16   23.23    0.97 
   1  -3 -16   22.36    0.99 
  -1   3  16   23.09    0.95 
   0  -3 -16    8.81    0.46 
   0  -3 -16    7.31    0.44 
   0   3  16    8.45    0.41 
  -1  -3 -16   22.38    0.98 
  -1  -3 -16   21.33    0.90 
   1   3  16   22.09    0.87 
  -2  -3 -16    6.10    0.33 
  -2  -3 -16    6.25    0.42 
   2   3  16    5.14    0.30 
  -3  -3 -16    1.31    0.24 
  -4  -3 -16    1.35    0.27 
  -5  -3 -16    1.87    0.32 
  -6  -3 -16    0.47    0.20 
  -7  -3 -16    0.78    0.24 
  -7   4  16    0.76    0.27 
  -6   4  16   -0.15    0.15 
  -5   4  16    1.53    0.28 
   4  -4 -16    0.41    0.18 
  -4   4  16    0.34    0.17 
   3  -4 -16    9.82    0.58 
  -3   4  16    8.97    0.53 
   2  -4 -16    2.99    0.32 
  -2   4  16    3.88    0.31 
   1  -4 -16   12.52    0.59 
   1  -4 -16   12.49    0.64 
  -1   4  16   12.07    0.58 
   0  -4 -16    3.23    0.28 
   0  -4 -16    2.19    0.24 
   0   4  16    3.02    0.22 
  -1  -4 -16   12.52    0.62 
  -1  -4 -16   11.69    0.58 
  -2  -4 -16    3.35    0.25 
  -2  -4 -16    3.00    0.32 
  -3  -4 -16   10.08    0.49 
  -3  -4 -16   10.27    0.62 
  -4  -4 -16    0.56    0.20 
  -5  -4 -16    1.88    0.33 
  -6  -4 -16    0.04    0.15 
  -7  -4 -16    0.93    0.27 
  -7   5  16    0.40    0.25 
  -6   5  16   -0.17    0.16 
  -5   5  16    1.77    0.31 
   4  -5 -16    4.31    0.43 
  -4   5  16    4.05    0.40 
   3  -5 -16    2.73    0.34 
  -3   5  16    2.71    0.31 
   2  -5 -16    1.31    0.24 
  -2   5  16    1.03    0.19 
   1  -5 -16    2.82    0.24 
   1  -5 -16    4.16    0.32 
  -1   5  16    4.12    0.28 
   0  -5 -16   10.82    0.52 
   0  -5 -16    9.33    0.49 
   0   5  16    7.44    0.42 
  -1  -5 -16    4.61    0.36 
  -1  -5 -16    4.26    0.31 
  -2  -5 -16    0.81    0.21 
  -2  -5 -16    0.97    0.16 
  -3  -5 -16    2.84    0.34 
  -3  -5 -16    2.68    0.24 
  -4  -5 -16    3.89    0.42 
  -5  -5 -16    1.26    0.29 
  -6  -5 -16    0.07    0.19 
  -7  -5 -16    0.01    0.18 
  -7   6  16    0.57    0.29 
  -6   6  16    1.87    0.34 
   5  -6 -16    0.25    0.17 
  -5   6  16   -0.12    0.16 
   4  -6 -16    0.24    0.15 
  -4   6  16    0.13    0.16 
   3  -6 -16    0.87    0.22 
  -3   6  16    0.52    0.18 
   2  -6 -16    5.04    0.39 
  -2   6  16    4.56    0.35 
   1  -6 -16    0.10    0.12 
  -1   6  16    0.08    0.12 
   0  -6 -16    3.39    0.31 
   0  -6 -16    3.02    0.28 
  -1  -6 -16    0.37    0.13 
  -1  -6 -16    0.30    0.14 
  -2  -6 -16    4.89    0.40 
  -2  -6 -16    5.28    0.34 
  -3  -6 -16    0.39    0.14 
  -3  -6 -16    0.69    0.21 
  -4  -6 -16    0.11    0.17 
  -5  -6 -16   -0.16    0.15 
  -6  -6 -16    1.95    0.39 
  -7  -6 -16    0.56    0.27 
  -6   7  16    0.19    0.22 
   5  -7 -16    0.28    0.18 
  -5   7  16    0.16    0.19 
   4  -7 -16    0.47    0.17 
  -4   7  16    0.46    0.19 
   3  -7 -16    0.47    0.17 
  -3   7  16    0.79    0.20 
   2  -7 -16    1.02    0.21 
  -2   7  16    0.79    0.19 
   1  -7 -16    0.47    0.16 
   0  -7 -16    1.18    0.21 
   0  -7 -16    1.48    0.23 
  -1  -7 -16    0.56    0.15 
  -1  -7 -16    0.54    0.17 
  -2  -7 -16    0.53    0.15 
  -2  -7 -16    0.87    0.22 
  -3  -7 -16    0.64    0.15 
  -3  -7 -16    0.78    0.24 
  -4  -7 -16    0.17    0.12 
  -4  -7 -16    0.20    0.20 
  -5  -7 -16    0.35    0.23 
  -6  -7 -16    0.03    0.19 
   6  -8 -16    0.00    0.22 
  -6   8  16    0.05    0.21 
   5  -8 -16    2.19    0.37 
  -5   8  16    2.50    0.39 
   4  -8 -16    0.20    0.17 
  -4   8  16    0.42    0.21 
   3  -8 -16    0.09    0.13 
  -3   8  16    0.02    0.13 
   2  -8 -16    0.69    0.20 
   1  -8 -16    0.43    0.16 
   0  -8 -16    1.97    0.27 
  -1  -8 -16    0.16    0.12 
  -1  -8 -16    0.04    0.15 
  -2  -8 -16    0.70    0.21 
  -2  -8 -16    1.11    0.20 
  -3  -8 -16   -0.08    0.16 
  -3  -8 -16   -0.01    0.10 
  -4  -8 -16    0.50    0.24 
  -4  -8 -16    0.27    0.13 
  -5  -8 -16    2.29    0.38 
  -6  -8 -16   -0.11    0.20 
   5  -9 -16   -0.10    0.23 
  -5   9  16    0.29    0.22 
   4  -9 -16    0.52    0.21 
  -4   9  16    0.40    0.22 
   3  -9 -16   -0.10    0.12 
   2  -9 -16    0.12    0.14 
   1  -9 -16    0.49    0.18 
   0  -9 -16    1.49    0.26 
  -1  -9 -16    0.50    0.16 
  -2  -9 -16    0.41    0.22 
  -2  -9 -16    0.22    0.14 
  -3  -9 -16    0.10    0.12 
  -3  -9 -16   -0.09    0.17 
  -4  -9 -16    0.67    0.25 
  -4  -9 -16    0.73    0.19 
  -5  -9 -16    0.06    0.21 
   4 -10 -16    0.46    0.20 
   3 -10 -16    0.20    0.17 
   2 -10 -16    1.23    0.26 
   1 -10 -16    0.80    0.22 
   0 -10 -16    0.00    0.11 
  -1 -10 -16    0.51    0.17 
  -2 -10 -16    1.57    0.26 
  -3 -10 -16    0.06    0.12 
  -3 -10 -16   -0.14    0.18 
  -4 -10 -16    0.28    0.21 
  -4 -10 -16    0.34    0.16 
   3 -11 -16   -0.03    0.14 
   2 -11 -16    0.17    0.16 
   1 -11 -16    0.92    0.24 
   0 -11 -16    0.70    0.21 
  -1 -11 -16    1.38    0.26 
  -2 -11 -16    0.19    0.15 
  -3 -11 -16   -0.12    0.13 
   1 -12 -16    0.62    0.22 
   0 -12 -16    0.16    0.17 
  -1 -12 -16    0.62    0.21 
  -2 -11  17    0.15    0.19 
  -1 -11  17    0.40    0.20 
   0 -11  17    0.44    0.20 
   1 -11  17    0.37    0.19 
   2 -11  17    0.23    0.17 
  -4 -10  17    1.13    0.25 
  -3 -10  17    0.15    0.17 
  -2 -10  17    0.01    0.14 
  -1 -10  17    0.97    0.23 
   0 -10  17    0.58    0.19 
   1 -10  17    1.10    0.25 
   2 -10  17    0.29    0.17 
   3 -10  17    0.23    0.18 
   4 -10  17    0.98    0.26 
  -5  -9  17    0.12    0.23 
  -5  -9  17    0.31    0.18 
  -4  -9  17    0.63    0.26 
  -4  -9  17    0.66    0.20 
  -3  -9  17    1.35    0.24 
  -2  -9  17    0.67    0.20 
  -1  -9  17    1.62    0.25 
   0  -9  17    0.49    0.17 
   1  -9  17    0.85    0.21 
   2  -9  17    0.67    0.20 
   3  -9  17    0.73    0.23 
   4  -9  17    0.45    0.23 
   5  -9  17    0.13    0.24 
  -5  -8  17    0.50    0.25 
  -5  -8  17    0.52    0.17 
  -4  -8  17    0.15    0.13 
  -4  -8  17    0.17    0.19 
  -3  -8  17    0.84    0.24 
  -3  -8  17    0.95    0.21 
  -2  -8  17    0.53    0.18 
  -1  -8  17    1.83    0.27 
   0  -8  17    0.67    0.20 
   1  -8  17    1.66    0.27 
   2  -8  17    0.60    0.20 
   3  -8  17    0.71    0.21 
   4  -8  17    0.15    0.18 
   5  -8  17    0.32    0.23 
  -6  -7  17    0.09    0.16 
  -6  -7  17    0.02    0.23 
  -5  -7  17    0.55    0.24 
  -5  -7  17    0.60    0.19 
  -4  -7  17    0.35    0.21 
  -4  -7  17    0.27    0.14 
  -3  -7  17    0.08    0.12 
  -3  -7  17   -0.14    0.14 
  -2  -7  17    4.56    0.35 
  -1  -7  17    0.20    0.13 
   0  -7  17    0.92    0.20 
   1  -7  17    0.23    0.14 
   2  -7  17    4.23    0.40 
   3  -7  17   -0.03    0.15 
   4  -7  17    0.24    0.18 
  -5   7 -17    0.79    0.21 
   5  -7  17    0.66    0.25 
   6  -7  17    0.03    0.22 
  -6  -6  17    0.17    0.21 
  -6  -6  17   -0.06    0.13 
  -5  -6  17    0.08    0.18 
  -5  -6  17    0.02    0.14 
  -4  -6  17    1.17    0.22 
  -4  -6  17    0.78    0.24 
  -3  -6  17    3.10    0.34 
  -3  -6  17    3.10    0.32 
  -2  -6  17    0.38    0.15 
  -2  -6  17    0.58    0.19 
  -1  -6  17    2.78    0.30 
   0  -6  17    2.21    0.27 
   1  -6  17    2.32    0.28 
   2  -6  17    0.64    0.20 
   3  -6  17    3.66    0.38 
  -4   6 -17    1.44    0.24 
   4  -6  17    0.98    0.24 
  -5   6 -17    0.16    0.13 
   5  -6  17   -0.04    0.17 
  -6   6 -17    0.23    0.15 
   6  -6  17    0.15    0.20 
  -7  -5  17   -0.07    0.15 
  -6  -5  17    1.03    0.23 
  -5  -5  17    0.71    0.18 
  -4  -5  17    0.79    0.18 
  -3  -5  17    1.08    0.20 
  -2  -5  17    2.03    0.25 
  -2  -5  17    2.56    0.29 
  -1  -5  17    1.61    0.23 
   0  -5  17   20.28    0.91 
   1  -5  17    1.77    0.25 
   2  -5  17    2.32    0.29 
  -3   5 -17    1.08    0.21 
   3  -5  17    0.88    0.21 
  -4   5 -17    0.87    0.19 
   4  -5  17    0.73    0.22 
  -5   5 -17    0.06    0.13 
   5  -5  17    0.24    0.17 
  -6   5 -17    1.02    0.22 
   6  -5  17    1.10    0.29 
  -7   5 -17   -0.19    0.14 
   7  -5  17    0.15    0.23 
  -7  -4  17    0.76    0.22 
  -6  -4  17    0.52    0.17 
  -5  -4  17    1.57    0.24 
  -4  -4  17    0.10    0.13 
  -3  -4  17    4.09    0.32 
  -2  -4  17    6.07    0.40 
  -1  -4  17    3.00    0.29 
   0  -4  17   22.35    0.96 
   1  -4  17    2.67    0.28 
  -2   4 -17    5.92    0.42 
   2  -4  17    5.80    0.40 
  -3   4 -17    4.12    0.34 
   3  -4  17    4.30    0.37 
  -4   4 -17    0.39    0.14 
   4  -4  17    0.28    0.15 
  -5   4 -17    1.83    0.27 
   5  -4  17    2.31    0.33 
  -6   4 -17    0.40    0.17 
   6  -4  17    0.20    0.19 
  -7   4 -17    1.03    0.22 
   7  -4  17    0.50    0.25 
  -7  -3  17    0.86    0.23 
  -6  -3  17    1.82    0.30 
  -5  -3  17    2.93    0.33 
  -4  -3  17    0.73    0.18 
  -3  -3  17    3.20    0.30 
  -2  -3  17    0.89    0.18 
  -1  -3  17    8.63    0.48 
   0  -3  17    0.62    0.15 
  -1   3 -17    8.46    0.51 
   1  -3  17    8.94    0.49 
  -2   3 -17    1.03    0.20 
   2  -3  17    0.99    0.20 
  -3   3 -17    3.78    0.32 
   3  -3  17    4.07    0.33 
  -4   3 -17    1.04    0.20 
   4  -3  17    0.56    0.20 
  -5   3 -17    2.81    0.33 
   5  -3  17    2.92    0.35 
  -6   3 -17    2.11    0.30 
   6  -3  17    2.19    0.34 
  -7   3 -17    0.81    0.21 
   7  -3  17    0.95    0.28 
  -7  -2  17    0.87    0.24 
  -6  -2  17    0.87    0.22 
  -5  -2  17    1.47    0.26 
  -4  -2  17    2.75    0.31 
  -3  -2  17    1.32    0.22 
  -2  -2  17    0.83    0.17 
  -1  -2  17   15.62    0.72 
   0  -2  17    7.00    0.40 
  -1   2 -17   14.28    0.72 
   1  -2  17   14.58    0.67 
  -2   2 -17    0.58    0.17 
   2  -2  17    0.98    0.17 
  -3   2 -17    1.56    0.23 
   3  -2  17    1.28    0.21 
  -4   2 -17    2.42    0.30 
   4  -2  17    2.39    0.29 
  -5   2 -17    1.55    0.26 
   5  -2  17    1.89    0.27 
  -6   2 -17    0.62    0.19 
   6  -2  17    0.64    0.21 
  -7   2 -17    0.83    0.22 
  -7  -1  17    0.08    0.15 
  -6  -1  17    1.33    0.26 
  -5  -1  17    2.62    0.32 
  -4  -1  17    0.52    0.16 
  -3  -1  17    1.32    0.22 
  -2  -1  17    6.25    0.40 
  -1  -1  17    6.55    0.39 
   0   1 -17    0.03    0.10 
   0  -1  17    0.08    0.09 
  -1   1 -17    6.41    0.42 
   1  -1  17    6.59    0.38 
  -2   1 -17    6.06    0.41 
   2  -1  17    6.21    0.38 
  -3   1 -17    1.19    0.22 
   3  -1  17    1.26    0.20 
  -4   1 -17    0.52    0.16 
   4  -1  17    0.79    0.19 
  -5   1 -17    1.46    0.26 
   5  -1  17    2.50    0.30 
  -6   1 -17    1.66    0.29 
   6  -1  17    1.26    0.27 
  -7   1 -17    0.21    0.17 
  -7   0  17    0.20    0.18 
  -6   0  17    1.37    0.28 
  -5   0  17    0.01    0.12 
  -4   0  17    0.36    0.15 
  -3   0  17    5.22    0.38 
  -2   0  17    0.56    0.16 
  -1   0  17    5.00    0.33 
   0   0 -17    0.19    0.12 
   0   0  17    0.05    0.08 
  -1   0 -17    4.94    0.35 
   1   0  17    4.73    0.31 
  -2   0 -17    0.34    0.15 
   2   0  17    0.49    0.13 
  -3   0 -17    4.30    0.36 
   3   0  17    4.49    0.32 
  -4   0 -17    0.28    0.14 
   4   0  17    0.05    0.11 
  -5   0 -17    0.18    0.15 
   5   0  17    0.16    0.14 
  -6   0 -17    0.83    0.23 
  -7   0 -17    0.34    0.18 
  -7   1  17    0.08    0.17 
  -6   1  17    1.35    0.28 
  -5   1  17    2.53    0.34 
  -4   1  17    0.69    0.18 
  -3   1  17    1.54    0.24 
  -2   1  17    5.95    0.38 
   1  -1 -17    6.19    0.39 
  -1   1  17    6.54    0.38 
   0  -1 -17    0.07    0.08 
   0  -1 -17    0.16    0.12 
   0   1  17    0.14    0.11 
  -1  -1 -17    6.44    0.35 
  -1  -1 -17    5.98    0.40 
   1   1  17    5.97    0.35 
  -2  -1 -17    5.67    0.39 
   2   1  17    5.16    0.33 
  -3  -1 -17    1.50    0.25 
   3   1  17    1.57    0.19 
  -4  -1 -17    0.50    0.17 
   4   1  17    0.34    0.13 
  -5  -1 -17    2.21    0.32 
  -6  -1 -17    1.23    0.27 
  -7  -1 -17    0.56    0.22 
  -7   2  17    0.69    0.23 
  -6   2  17    0.35    0.20 
  -5   2  17    1.71    0.30 
  -4   2  17    2.61    0.33 
  -3   2  17    1.53    0.24 
   2  -2 -17    0.69    0.17 
  -2   2  17    0.69    0.16 
   1  -2 -17   15.75    0.71 
   1  -2 -17   12.05    0.67 
  -1   2  17   16.20    0.69 
   0  -2 -17    6.02    0.37 
   0  -2 -17    5.98    0.39 
   0   2  17    6.56    0.36 
  -1  -2 -17   15.57    0.67 
  -1  -2 -17   14.84    0.73 
   1   2  17   14.53    0.65 
  -2  -2 -17    0.74    0.18 
   2   2  17    0.56    0.12 
  -3  -2 -17    1.39    0.24 
   3   2  17    0.63    0.12 
  -4  -2 -17    1.95    0.30 
  -5  -2 -17    1.66    0.29 
  -6  -2 -17    0.79    0.23 
  -7  -2 -17    1.07    0.27 
  -7   3  17    1.05    0.30 
  -6   3  17    2.45    0.39 
  -5   3  17    2.51    0.35 
  -4   3  17    0.56    0.20 
   3  -3 -17    3.53    0.37 
  -3   3  17    3.68    0.34 
   2  -3 -17    0.95    0.20 
  -2   3  17    0.95    0.18 
   1  -3 -17    8.10    0.46 
   1  -3 -17    8.52    0.50 
  -1   3  17    8.71    0.46 
   0  -3 -17    0.45    0.15 
   0  -3 -17    0.71    0.16 
   0   3  17    0.39    0.12 
  -1  -3 -17    8.16    0.44 
  -1  -3 -17    8.11    0.49 
   1   3  17    8.02    0.41 
  -2  -3 -17    0.97    0.15 
  -2  -3 -17    1.05    0.21 
  -3  -3 -17    3.14    0.34 
  -4  -3 -17    0.67    0.22 
  -5  -3 -17    3.18    0.41 
  -6  -3 -17    2.19    0.34 
  -7  -3 -17    0.44    0.21 
  -7   4  17    0.55    0.26 
  -6   4  17    0.67    0.25 
  -5   4  17    1.66    0.31 
  -4   4  17    0.16    0.16 
   3  -4 -17    4.00    0.40 
  -3   4  17    4.53    0.36 
   2  -4 -17    6.08    0.43 
  -2   4  17    5.38    0.38 
   1  -4 -17    2.93    0.30 
   1  -4 -17    2.99    0.26 
  -1   4  17    3.23    0.27 
   0  -4 -17   21.96    0.95 
   0  -4 -17   22.58    0.97 
   0   4  17   21.28    0.88 
  -1  -4 -17    2.28    0.24 
  -1  -4 -17    2.75    0.29 
  -2  -4 -17    5.59    0.41 
  -2  -4 -17    6.00    0.36 
  -3  -4 -17    4.24    0.40 
  -4  -4 -17    0.28    0.18 
  -5  -4 -17    1.32    0.30 
  -6  -4 -17    0.63    0.26 
  -7  -4 -17    0.56    0.24 
  -7   5  17    0.19    0.24 
  -6   5  17    0.87    0.27 
  -5   5  17    0.34    0.19 
   4  -5 -17    0.78    0.22 
  -4   5  17    0.83    0.23 
   3  -5 -17    1.06    0.24 
  -3   5  17    1.01    0.22 
   2  -5 -17    1.96    0.27 
  -2   5  17    1.89    0.25 
   1  -5 -17    1.75    0.20 
   1  -5 -17    1.73    0.25 
  -1   5  17    1.70    0.21 
   0  -5 -17   19.94    0.88 
   0  -5 -17   19.01    0.87 
   0   5  17   18.64    0.80 
  -1  -5 -17    1.54    0.21 
  -1  -5 -17    1.42    0.23 
  -2  -5 -17    1.46    0.26 
  -2  -5 -17    2.61    0.24 
  -3  -5 -17    0.67    0.21 
  -4  -5 -17    0.83    0.24 
  -5  -5 -17    0.22    0.19 
  -6  -5 -17    0.96    0.30 
  -7  -5 -17    0.12    0.18 
  -6   6  17    0.20    0.19 
   5  -6 -17    0.25    0.18 
  -5   6  17    0.18    0.18 
   4  -6 -17    1.10    0.25 
  -4   6  17    0.91    0.23 
   3  -6 -17    2.52    0.34 
  -3   6  17    2.77    0.32 
   2  -6 -17    0.58    0.17 
  -2   6  17    0.55    0.17 
   1  -6 -17    2.59    0.29 
  -1   6  17    1.96    0.22 
   0  -6 -17    2.04    0.26 
   0  -6 -17    1.90    0.24 
  -1  -6 -17    2.46    0.29 
  -1  -6 -17    2.11    0.25 
  -2  -6 -17    0.77    0.17 
  -2  -6 -17    0.45    0.18 
  -3  -6 -17    3.26    0.38 
  -3  -6 -17    2.97    0.28 
  -4  -6 -17    1.01    0.26 
  -5  -6 -17    0.13    0.19 
  -6  -6 -17    0.41    0.26 
  -6   7  17    0.23    0.23 
   5  -7 -17    0.94    0.26 
  -5   7  17    0.41    0.22 
   4  -7 -17    0.36    0.18 
  -4   7  17    0.35    0.19 
   3  -7 -17   -0.06    0.12 
  -3   7  17    0.26    0.16 
   2  -7 -17    3.99    0.40 
  -2   7  17    4.67    0.36 
   1  -7 -17    0.15    0.14 
   0  -7 -17    0.57    0.16 
  -1  -7 -17    0.21    0.15 
  -1  -7 -17    0.21    0.12 
  -2  -7 -17    4.51    0.34 
  -2  -7 -17    4.16    0.41 
  -3  -7 -17    0.12    0.11 
  -3  -7 -17    0.20    0.18 
  -4  -7 -17    0.20    0.20 
  -5  -7 -17    0.32    0.23 
  -6  -7 -17    0.09    0.25 
   5  -8 -17    0.31    0.19 
  -5   8  17    0.59    0.23 
   4  -8 -17    0.06    0.17 
  -4   8  17    0.26    0.18 
   3  -8 -17    1.32    0.27 
  -3   8  17    0.70    0.21 
   2  -8 -17    0.65    0.20 
   1  -8 -17    1.54    0.26 
   0  -8 -17    0.66    0.17 
  -1  -8 -17    1.83    0.26 
  -1  -8 -17    2.03    0.29 
  -2  -8 -17    0.86    0.24 
  -2  -8 -17    1.12    0.21 
  -3  -8 -17    0.97    0.19 
  -3  -8 -17    1.12    0.28 
  -4  -8 -17    0.20    0.21 
  -5  -8 -17    0.44    0.25 
   5  -9 -17    0.19    0.17 
  -5   9  17    0.16    0.22 
   4  -9 -17    0.65    0.24 
  -4   9  17    0.08    0.19 
   3  -9 -17    0.97    0.25 
   2  -9 -17    0.77    0.22 
   1  -9 -17    1.13    0.23 
   0  -9 -17    0.47    0.18 
  -1  -9 -17    1.18    0.23 
  -2  -9 -17    0.69    0.24 
  -2  -9 -17    0.94    0.21 
  -3  -9 -17    1.36    0.23 
  -3  -9 -17    0.79    0.25 
  -4  -9 -17    0.33    0.17 
  -4  -9 -17    0.40    0.24 
  -5  -9 -17    0.24    0.26 
   4 -10 -17    0.63    0.23 
   3 -10 -17    0.52    0.19 
   2 -10 -17    0.27    0.17 
   1 -10 -17    0.73    0.21 
   0 -10 -17    0.65    0.19 
  -1 -10 -17    1.10    0.23 
  -2 -10 -17    0.15    0.15 
  -3 -10 -17    0.25    0.15 
  -3 -10 -17   -0.17    0.20 
  -4 -10 -17    0.53    0.26 
  -4 -10 -17    0.79    0.20 
   2 -11 -17    0.58    0.21 
   1 -11 -17    1.16    0.27 
   0 -11 -17    0.27    0.18 
  -1 -11 -17    0.39    0.18 
  -2 -11 -17    0.41    0.18 
  -2 -11  18    0.33    0.19 
  -1 -11  18    0.90    0.25 
   0 -11  18    0.29    0.21 
   1 -11  18    0.86    0.25 
   2 -11  18    0.39    0.20 
  -3 -10  18    0.09    0.17 
  -2 -10  18    0.94    0.23 
  -1 -10  18    0.33    0.16 
   0 -10  18   -0.14    0.12 
   1 -10  18    0.58    0.21 
   2 -10  18    0.70    0.22 
   3 -10  18    0.12    0.16 
  -4  -9  18    0.66    0.21 
  -3  -9  18    0.55    0.17 
  -2  -9  18   -0.11    0.12 
  -1  -9  18    0.69    0.21 
   0  -9  18    0.13    0.14 
   1  -9  18    0.46    0.18 
   2  -9  18    0.08    0.12 
   3  -9  18    0.66    0.21 
   4  -9  18    1.14    0.31 
  -5  -8  18    0.80    0.21 
  -5  -8  18    0.85    0.29 
  -4  -8  18    1.89    0.28 
  -4  -8  18    1.35    0.30 
  -3  -8  18    0.88    0.21 
  -2  -8  18    0.14    0.12 
  -1  -8  18    0.95    0.21 
   0  -8  18    2.74    0.33 
   1  -8  18    0.91    0.22 
   2  -8  18    0.44    0.18 
   3  -8  18    0.29    0.19 
   4  -8  18    2.44    0.38 
   5  -8  18    0.88    0.29 
  -5  -7  18    2.60    0.40 
  -5  -7  18    3.09    0.35 
  -4  -7  18    1.79    0.27 
  -4  -7  18    1.47    0.31 
  -3  -7  18    0.27    0.14 
  -3  -7  18    0.73    0.24 
  -2  -7  18    1.93    0.26 
  -1  -7  18    1.88    0.27 
   0  -7  18    2.50    0.30 
   1  -7  18    1.64    0.26 
   2  -7  18    2.59    0.34 
   3  -7  18    0.33    0.17 
   4  -7  18    1.86    0.33 
   5  -7  18    2.84    0.42 
  -6  -6  18    1.24    0.32 
  -6  -6  18    0.97    0.24 
  -5  -6  18    0.28    0.15 
  -5  -6  18    0.29    0.21 
  -4  -6  18    0.08    0.13 
  -4  -6  18    0.00    0.17 
  -3  -6  18    0.25    0.13 
  -3  -6  18    0.27    0.19 
  -2  -6  18    6.08    0.41 
  -1  -6  18    2.75    0.30 
   0  -6  18    0.08    0.12 
   1  -6  18    2.78    0.33 
   2  -6  18    5.76    0.44 
   3  -6  18    0.21    0.16 
  -4   6 -18    0.28    0.14 
   4  -6  18   -0.02    0.16 
  -5   6 -18    0.28    0.17 
   5  -6  18    0.34    0.23 
  -6   6 -18    1.08    0.23 
   6  -6  18    1.90    0.37 
  -6  -5  18    0.44    0.18 
  -5  -5  18    1.30    0.23 
  -4  -5  18    1.10    0.21 
  -3  -5  18    1.44    0.23 
  -2  -5  18    0.80    0.18 
  -2  -5  18    0.86    0.22 
  -1  -5  18    1.40    0.22 
   0  -5  18    2.26    0.27 
   1  -5  18    1.38    0.23 
   2  -5  18    0.97    0.22 
  -3   5 -18    1.55    0.26 
   3  -5  18    2.00    0.29 
  -4   5 -18    1.24    0.23 
   4  -5  18    1.23    0.27 
  -5   5 -18    1.13    0.23 
   5  -5  18    1.48    0.29 
  -6   5 -18    0.66    0.20 
   6  -5  18    0.50    0.24 
  -7  -4  18    0.23    0.17 
  -6  -4  18   -0.10    0.14 
  -5  -4  18    0.98    0.22 
  -4  -4  18    0.25    0.16 
  -3  -4  18    1.47    0.23 
  -2  -4  18    1.48    0.22 
  -1  -4  18    0.18    0.12 
   0  -4  18    4.92    0.36 
   1  -4  18    0.10    0.10 
  -2   4 -18    1.41    0.23 
   2  -4  18    1.24    0.22 
  -3   4 -18    1.48    0.23 
   3  -4  18    1.81    0.27 
  -4   4 -18    0.20    0.13 
   4  -4  18    0.12    0.16 
  -5   4 -18    0.73    0.19 
   5  -4  18    0.89    0.24 
  -6   4 -18    0.20    0.14 
   6  -4  18    0.15    0.19 
  -7   4 -18    0.37    0.18 
   7  -4  18    0.08    0.22 
  -7  -3  18    0.56    0.20 
  -6  -3  18    0.31    0.18 
  -5  -3  18    1.22    0.23 
  -4  -3  18    2.99    0.33 
  -3  -3  18    0.55    0.15 
  -2  -3  18    2.28    0.26 
  -1  -3  18    1.49    0.21 
   0  -3  18    0.07    0.11 
  -1   3 -18    1.79    0.25 
   1  -3  18    1.52    0.22 
  -2   3 -18    1.75    0.25 
   2  -3  18    2.11    0.26 
  -3   3 -18    0.12    0.11 
   3  -3  18    0.37    0.15 
  -4   3 -18    2.48    0.31 
   4  -3  18    2.88    0.33 
  -5   3 -18    0.84    0.20 
   5  -3  18    1.62    0.29 
  -6   3 -18    0.49    0.18 
   6  -3  18    0.09    0.17 
  -7   3 -18    0.38    0.19 
   7  -3  18    0.48    0.24 
  -7  -2  18   -0.07    0.15 
  -6  -2  18    0.82    0.23 
  -5  -2  18    0.63    0.18 
  -4  -2  18    0.44    0.16 
  -3  -2  18    1.12    0.20 
  -2  -2  18    1.20    0.20 
  -1  -2  18    0.67    0.16 
   0  -2  18    0.12    0.11 
  -1   2 -18    0.86    0.20 
   1  -2  18    0.88    0.18 
  -2   2 -18    1.37    0.22 
   2  -2  18    1.47    0.21 
  -3   2 -18    1.16    0.21 
   3  -2  18    1.31    0.22 
  -4   2 -18    0.45    0.16 
   4  -2  18    0.44    0.17 
  -5   2 -18    0.73    0.19 
   5  -2  18    0.56    0.20 
  -6   2 -18    0.99    0.23 
   6  -2  18    0.88    0.24 
  -7   2 -18    0.02    0.14 
  -7  -1  18    0.85    0.24 
  -6  -1  18    0.73    0.21 
  -5  -1  18    0.21    0.15 
  -4  -1  18    0.19    0.13 
  -3  -1  18    1.72    0.24 
  -2  -1  18    2.80    0.28 
  -1  -1  18    0.36    0.13 
   0   1 -18    0.17    0.12 
   0  -1  18    0.18    0.10 
  -1   1 -18    0.27    0.14 
   1  -1  18    0.33    0.12 
  -2   1 -18    2.11    0.27 
   2  -1  18    2.21    0.24 
  -3   1 -18    1.91    0.27 
   3  -1  18    2.22    0.26 
  -4   1 -18    0.22    0.14 
   4  -1  18    0.29    0.14 
  -5   1 -18    0.19    0.15 
   5  -1  18    0.47    0.18 
  -6   1 -18    0.48    0.19 
  -7   1 -18    1.19    0.26 
  -7   0  18   -0.06    0.15 
  -6   0  18    0.15    0.15 
  -5   0  18   -0.09    0.13 
  -4   0  18    0.30    0.15 
  -3   0  18    0.19    0.12 
  -2   0  18   -0.03    0.10 
  -1   0  18    1.35    0.20 
   0   0 -18    0.89    0.18 
   0   0  18    0.80    0.16 
  -1   0 -18    1.33    0.21 
   1   0  18    1.05    0.17 
  -2   0 -18    0.10    0.11 
   2   0  18    0.09    0.10 
  -3   0 -18    0.11    0.13 
   3   0  18    0.32    0.12 
  -4   0 -18    0.23    0.14 
   4   0  18    0.50    0.16 
  -5   0 -18    0.32    0.16 
  -6   0 -18    0.42    0.19 
  -7   0 -18   -0.17    0.15 
  -7   1  18    1.42    0.30 
  -6   1  18    0.52    0.20 
  -5   1  18    0.21    0.17 
  -4   1  18    0.04    0.13 
  -3   1  18    2.19    0.27 
  -2   1  18    3.01    0.29 
   1  -1 -18    0.21    0.12 
  -1   1  18    0.49    0.13 
   0  -1 -18    0.17    0.12 
   0  -1 -18    0.34    0.11 
   0   1  18    0.15    0.09 
  -1  -1 -18    0.41    0.15 
   1   1  18    0.43    0.12 
  -2  -1 -18    3.16    0.32 
   2   1  18    2.40    0.24 
  -3  -1 -18    1.76    0.27 
   3   1  18    1.77    0.21 
  -4  -1 -18    0.00    0.13 
   4   1  18    0.20    0.13 
  -5  -1 -18    0.43    0.17 
  -6  -1 -18    0.48    0.19 
  -7  -1 -18    0.77    0.23 
  -7   2  18    0.04    0.17 
  -6   2  18    0.78    0.25 
  -5   2  18    0.28    0.17 
  -4   2  18    0.25    0.16 
  -3   2  18    1.01    0.20 
  -2   2  18    1.24    0.21 
   1  -2 -18    0.85    0.18 
   1  -2 -18    0.58    0.15 
  -1   2  18    0.68    0.16 
   0  -2 -18   -0.06    0.10 
   0  -2 -18    0.01    0.09 
   0   2  18   -0.01    0.09 
  -1  -2 -18    0.42    0.16 
  -1  -2 -18    0.62    0.14 
   1   2  18    0.58    0.14 
  -2  -2 -18    1.28    0.24 
   2   2  18    1.42    0.18 
  -3  -2 -18    1.24    0.24 
   3   2  18    1.31    0.18 
  -4  -2 -18    0.51    0.19 
  -5  -2 -18    0.73    0.21 
  -6  -2 -18    0.69    0.24 
  -7  -2 -18    0.17    0.19 
  -7   3  18    0.17    0.25 
  -6   3  18    0.53    0.23 
  -5   3  18    0.98    0.25 
  -4   3  18    3.04    0.36 
  -3   3  18    0.40    0.16 
   2  -3 -18    1.75    0.26 
  -2   3  18    2.06    0.25 
   1  -3 -18    2.11    0.26 
   1  -3 -18    2.05    0.23 
  -1   3  18    1.77    0.22 
   0  -3 -18    0.24    0.13 
   0  -3 -18   -0.05    0.11 
   0   3  18   -0.03    0.10 
  -1  -3 -18    1.48    0.23 
  -1  -3 -18    2.12    0.22 
   1   3  18    1.71    0.19 
  -2  -3 -18    2.15    0.29 
  -3  -3 -18    0.49    0.19 
  -4  -3 -18    3.17    0.38 
  -5  -3 -18    1.06    0.26 
  -6  -3 -18    0.32    0.19 
  -7  -3 -18    0.31    0.21 
  -7   4  18    0.33    0.26 
  -6   4  18    0.38    0.24 
  -5   4  18    0.85    0.26 
  -4   4  18    0.14    0.16 
   3  -4 -18    1.56    0.26 
  -3   4  18    1.54    0.25 
   2  -4 -18    1.30    0.24 
  -2   4  18    1.22    0.21 
   1  -4 -18    0.29    0.15 
   1  -4 -18    0.05    0.11 
  -1   4  18    0.27    0.13 
   0  -4 -18    4.70    0.35 
   0  -4 -18    5.13    0.36 
   0   4  18    4.99    0.32 
  -1  -4 -18    0.18    0.13 
  -1  -4 -18    0.07    0.09 
   1   4  18    0.03    0.06 
  -2  -4 -18    0.91    0.17 
  -2  -4 -18    0.85    0.21 
  -3  -4 -18    1.62    0.28 
  -4  -4 -18    0.14    0.16 
  -5  -4 -18    1.18    0.29 
  -6  -4 -18   -0.15    0.16 
  -7  -4 -18    0.23    0.19 
  -6   5  18    0.39    0.22 
  -5   5  18    1.59    0.32 
   4  -5 -18    1.41    0.29 
  -4   5  18    1.67    0.29 
   3  -5 -18    1.95    0.31 
  -3   5  18    1.98    0.29 
   2  -5 -18    1.07    0.22 
  -2   5  18    0.88    0.19 
   1  -5 -18    1.61    0.21 
   1  -5 -18    1.56    0.25 
  -1   5  18    1.52    0.21 
   0  -5 -18    2.26    0.27 
   0  -5 -18    2.90    0.29 
   0   5  18    2.38    0.23 
  -1  -5 -18    1.77    0.23 
  -1  -5 -18    1.59    0.24 
  -2  -5 -18    1.01    0.18 
  -2  -5 -18    1.01    0.22 
  -3  -5 -18    1.63    0.30 
  -4  -5 -18    1.85    0.33 
  -5  -5 -18    1.04    0.29 
  -6  -5 -18    0.30    0.24 
  -6   6  18    1.42    0.33 
  -5   6  18    0.29    0.20 
   4  -6 -18    0.25    0.16 
  -4   6  18    0.19    0.18 
   3  -6 -18    0.07    0.16 
  -3   6  18    0.50    0.19 
   2  -6 -18    6.87    0.48 
  -2   6  18    6.23    0.43 
   1  -6 -18    2.81    0.32 
  -1   6  18    2.37    0.25 
   0  -6 -18    0.14    0.12 
   0  -6 -18    0.01    0.13 
  -1  -6 -18    2.51    0.28 
  -1  -6 -18    2.32    0.29 
  -2  -6 -18    5.71    0.38 
  -2  -6 -18    5.71    0.44 
  -3  -6 -18    0.10    0.17 
  -4  -6 -18    0.24    0.20 
  -5  -6 -18    0.42    0.23 
  -6  -6 -18    1.03    0.32 
   5  -7 -18    2.53    0.39 
  -5   7  18    2.50    0.37 
   4  -7 -18    2.26    0.35 
  -4   7  18    1.73    0.31 
   3  -7 -18    0.58    0.19 
  -3   7  18    0.52    0.20 
   2  -7 -18    2.32    0.33 
  -2   7  18    2.49    0.29 
   1  -7 -18    1.50    0.26 
   0  -7 -18    2.49    0.30 
  -1  -7 -18    1.55    0.26 
  -1  -7 -18    1.76    0.26 
  -2  -7 -18    2.54    0.28 
  -2  -7 -18    2.49    0.33 
  -3  -7 -18    0.57    0.16 
  -3  -7 -18    0.27    0.20 
  -4  -7 -18    1.45    0.33 
  -5  -7 -18    2.35    0.41 
   5  -8 -18    0.71    0.24 
  -5   8  18    0.73    0.26 
   4  -8 -18    1.74    0.32 
  -4   8  18    1.21    0.27 
   3  -8 -18    0.79    0.22 
  -3   8  18    0.87    0.24 
   2  -8 -18    0.47    0.18 
   1  -8 -18    1.33    0.25 
   0  -8 -18    3.02    0.34 
  -1  -8 -18    0.81    0.20 
  -2  -8 -18    0.35    0.15 
  -2  -8 -18    0.29    0.21 
  -3  -8 -18    0.74    0.17 
  -3  -8 -18    0.98    0.27 
  -4  -8 -18    1.08    0.29 
  -5  -8 -18    0.65    0.27 
   4  -9 -18    0.40    0.23 
   3  -9 -18    0.44    0.20 
   2  -9 -18    0.14    0.16 
   1  -9 -18    0.99    0.23 
   0  -9 -18    0.25    0.15 
  -1  -9 -18    0.31    0.15 
  -2  -9 -18    0.11    0.12 
  -3  -9 -18    0.34    0.22 
  -3  -9 -18    0.48    0.18 
  -4  -9 -18    0.35    0.24 
   3 -10 -18    0.02    0.16 
   2 -10 -18    0.79    0.23 
   1 -10 -18    0.33    0.17 
   0 -10 -18    0.30    0.15 
  -1 -10 -18    0.38    0.16 
  -2 -10 -18    1.13    0.24 
  -3 -10 -18    0.09    0.14 
   1 -11 -18    0.38    0.19 
   0 -11 -18    0.12    0.16 
  -1 -11 -18    0.68    0.22 
  -2 -10  19    0.12    0.16 
  -1 -10  19    0.98    0.26 
   0 -10  19    0.97    0.26 
   1 -10  19    0.99    0.26 
   2 -10  19    0.15    0.17 
  -4  -9  19    0.89    0.22 
  -3  -9  19    0.08    0.15 
  -2  -9  19    0.65    0.20 
  -1  -9  19    1.28    0.26 
   0  -9  19    0.07    0.13 
   1  -9  19    1.85    0.30 
   2  -9  19    0.39    0.19 
   3  -9  19    0.13    0.15 
   4  -9  19    0.76    0.31 
  -4  -8  19    0.49    0.19 
  -3  -8  19    1.27    0.24 
  -2  -8  19    1.34    0.24 
  -1  -8  19    0.20    0.15 
   0  -8  19    0.41    0.17 
   1  -8  19   -0.08    0.12 
   2  -8  19    1.61    0.29 
   3  -8  19    0.75    0.25 
   4  -8  19    0.55    0.26 
  -5  -7  19    0.35    0.24 
  -5  -7  19    0.20    0.15 
  -4  -7  19    1.26    0.24 
  -4  -7  19    0.90    0.28 
  -3  -7  19    0.04    0.12 
  -2  -7  19    1.98    0.28 
  -1  -7  19    0.46    0.17 
   0  -7  19    1.91    0.28 
   1  -7  19    0.52    0.19 
   2  -7  19    1.90    0.30 
   3  -7  19    0.10    0.16 
   4  -7  19    0.96    0.26 
   5  -7  19    0.13    0.20 
  -6  -6  19    0.34    0.19 
  -5  -6  19    0.41    0.22 
  -5  -6  19    0.42    0.19 
  -4  -6  19    2.00    0.33 
  -4  -6  19    1.76    0.28 
  -3  -6  19    0.36    0.15 
  -3  -6  19    0.47    0.22 
  -2  -6  19    3.03    0.32 
  -1  -6  19    1.82    0.26 
   0  -6  19    0.26    0.15 
   1  -6  19    2.05    0.29 
   2  -6  19    3.68    0.38 
   3  -6  19    0.49    0.19 
  -4   6 -19    1.95    0.30 
   4  -6  19    2.20    0.34 
  -5   6 -19    0.45    0.18 
   5  -6  19    0.55    0.23 
  -6   6 -19    0.21    0.17 
  -6  -5  19    0.48    0.20 
  -5  -5  19    0.34    0.16 
  -4  -5  19    0.50    0.18 
  -3  -5  19    5.63    0.41 
  -2  -5  19    0.49    0.16 
  -1  -5  19    1.60    0.23 
   0  -5  19    0.82    0.19 
   1  -5  19    1.24    0.24 
   2  -5  19    0.75    0.19 
  -3   5 -19    3.99    0.39 
   3  -5  19    5.08    0.40 
  -4   5 -19    0.49    0.18 
   4  -5  19    0.31    0.19 
  -5   5 -19    0.45    0.17 
   5  -5  19    0.14    0.18 
  -6   5 -19    0.42    0.18 
   6  -5  19    0.40    0.23 
  -6  -4  19    0.80    0.22 
  -5  -4  19    1.90    0.28 
  -4  -4  19    0.18    0.13 
  -3  -4  19    1.60    0.24 
  -2  -4  19    0.87    0.18 
  -1  -4  19    0.08    0.12 
   0  -4  19   -0.12    0.08 
   1  -4  19    0.06    0.11 
  -2   4 -19    1.24    0.23 
   2  -4  19    0.79    0.20 
  -3   4 -19    1.59    0.26 
   3  -4  19    2.08    0.30 
  -4   4 -19    0.21    0.13 
   4  -4  19    0.43    0.18 
  -5   4 -19    1.81    0.28 
   5  -4  19    2.49    0.36 
  -6   4 -19    1.09    0.23 
   6  -4  19    0.70    0.25 
  -6  -3  19    0.91    0.24 
  -5  -3  19    0.90    0.22 
  -4  -3  19    0.78    0.19 
  -3  -3  19    1.58    0.24 
  -2  -3  19    0.93    0.19 
  -1  -3  19    1.01    0.18 
   0  -3  19    0.04    0.10 
  -1   3 -19    0.93    0.21 
   1  -3  19    0.75    0.17 
  -2   3 -19    0.87    0.19 
   2  -3  19    0.81    0.17 
  -3   3 -19    1.87    0.27 
   3  -3  19    2.22    0.29 
  -4   3 -19    0.52    0.17 
   4  -3  19    1.21    0.25 
  -5   3 -19    1.10    0.24 
   5  -3  19    1.02    0.25 
  -6   3 -19    0.40    0.17 
   6  -3  19    0.93    0.26 
  -7  -2  19    0.27    0.20 
  -6  -2  19    0.14    0.15 
  -5  -2  19    0.80    0.20 
  -4  -2  19    2.43    0.31 
  -3  -2  19    1.66    0.25 
  -2  -2  19    0.74    0.17 
  -1  -2  19    2.26    0.25 
   0  -2  19    1.63    0.22 
  -1   2 -19    2.05    0.27 
   1  -2  19    2.34    0.26 
  -2   2 -19    0.69    0.18 
   2  -2  19    0.75    0.17 
  -3   2 -19    1.40    0.24 
   3  -2  19    1.81    0.25 
  -4   2 -19    2.47    0.32 
   4  -2  19    2.20    0.29 
  -5   2 -19    0.47    0.19 
   5  -2  19    0.94    0.24 
  -6   2 -19    0.06    0.13 
   6  -2  19    0.10    0.19 
  -7   2 -19    0.49    0.21 
  -7  -1  19    0.23    0.15 
  -6  -1  19    0.77    0.23 
  -5  -1  19    0.85    0.21 
  -4  -1  19    1.30    0.25 
  -3  -1  19    2.53    0.31 
  -2  -1  19    0.29    0.13 
  -1  -1  19    1.59    0.22 
   0   1 -19    4.45    0.35 
   0  -1  19    4.35    0.32 
  -1   1 -19    1.88    0.26 
   1  -1  19    1.83    0.23 
  -2   1 -19    0.48    0.16 
   2  -1  19    0.54    0.15 
  -3   1 -19    2.57    0.31 
   3  -1  19    2.46    0.28 
  -4   1 -19    1.11    0.23 
   4  -1  19    1.44    0.24 
  -5   1 -19    0.82    0.22 
   5  -1  19    0.79    0.22 
  -6   1 -19    0.70    0.23 
  -7   1 -19   -0.09    0.14 
  -7   0  19    0.39    0.20 
  -6   0  19    0.11    0.15 
  -5   0  19    0.02    0.16 
  -4   0  19   -0.05    0.13 
  -3   0  19    0.30    0.15 
  -2   0  19    7.20    0.45 
  -1   0  19    5.50    0.37 
   0   0 -19   -0.07    0.09 
   0   0  19    0.15    0.10 
  -1   0 -19    5.31    0.39 
   1   0  19    5.54    0.35 
  -2   0 -19    6.61    0.46 
   2   0  19    7.95    0.44 
  -3   0 -19    0.17    0.14 
   3   0  19    0.14    0.12 
  -4   0 -19    0.01    0.11 
   4   0  19    0.33    0.14 
  -5   0 -19    0.00    0.12 
  -6   0 -19    0.09    0.14 
  -7   0 -19    0.33    0.20 
  -7   1  19   -0.10    0.16 
  -6   1  19    0.76    0.23 
  -5   1  19    0.90    0.24 
  -4   1  19    1.38    0.27 
  -3   1  19    2.54    0.30 
  -2   1  19    0.76    0.18 
  -1   1  19    1.93    0.23 
   0  -1 -19    3.89    0.32 
   0   1  19    3.88    0.29 
  -1  -1 -19    1.94    0.25 
   1   1  19    1.63    0.20 
  -2  -1 -19    0.45    0.16 
   2   1  19    0.66    0.15 
  -3  -1 -19    2.36    0.31 
   3   1  19    2.15    0.24 
  -4  -1 -19    1.39    0.26 
  -5  -1 -19    0.70    0.20 
  -6  -1 -19    0.68    0.22 
  -7  -1 -19    0.12    0.18 
  -7   2  19    0.48    0.23 
  -6   2  19    0.23    0.19 
  -5   2  19    0.97    0.25 
  -4   2  19    2.28    0.32 
  -3   2  19    2.05    0.28 
  -2   2  19    0.67    0.16 
   1  -2 -19    2.15    0.26 
   1  -2 -19    2.25    0.26 
  -1   2  19    2.47    0.26 
   0  -2 -19    1.69    0.24 
   0  -2 -19    1.95    0.23 
   0   2  19    1.71    0.21 
  -1  -2 -19    2.25    0.27 
   1   2  19    2.00    0.21 
  -2  -2 -19    0.56    0.18 
   2   2  19    0.60    0.15 
  -3  -2 -19    1.55    0.28 
  -4  -2 -19    3.48    0.40 
  -5  -2 -19    0.47    0.19 
  -6  -2 -19    0.00    0.15 
  -7  -2 -19    0.77    0.23 
  -6   3  19    0.72    0.26 
  -5   3  19    0.85    0.26 
  -4   3  19    1.05    0.23 
  -3   3  19    1.58    0.24 
   2  -3 -19    0.70    0.18 
  -2   3  19    0.91    0.19 
   1  -3 -19    0.91    0.18 
   1  -3 -19    0.82    0.18 
  -1   3  19    0.72    0.17 
   0  -3 -19   -0.07    0.10 
   0  -3 -19    0.11    0.10 
   0   3  19    0.01    0.10 
  -1  -3 -19    1.21    0.19 
  -1  -3 -19    0.74    0.19 
   1   3  19    1.10    0.17 
  -2  -3 -19    0.66    0.19 
  -3  -3 -19    2.10    0.31 
  -4  -3 -19    0.85    0.24 
  -5  -3 -19    0.74    0.26 
  -6  -3 -19    0.30    0.18 
  -6   4  19    0.71    0.26 
  -5   4  19    1.84    0.33 
  -4   4  19    0.40    0.20 
   3  -4 -19    1.57    0.28 
  -3   4  19    1.66    0.26 
   2  -4 -19    0.61    0.17 
  -2   4  19    0.84    0.19 
   1  -4 -19   -0.06    0.10 
   1  -4 -19   -0.06    0.11 
  -1   4  19   -0.06    0.10 
   0  -4 -19   -0.02    0.11 
   0  -4 -19    0.06    0.10 
   0   4  19    0.05    0.10 
  -1  -4 -19   -0.12    0.09 
  -1  -4 -19   -0.04    0.12 
  -2  -4 -19    0.61    0.20 
  -3  -4 -19    1.86    0.32 
  -4  -4 -19    0.12    0.17 
  -5  -4 -19    1.74    0.33 
  -6  -4 -19    0.96    0.30 
  -6   5  19    0.36    0.24 
  -5   5  19    0.57    0.24 
   4  -5 -19    0.59    0.21 
  -4   5  19    0.34    0.20 
   3  -5 -19    4.95    0.47 
  -3   5  19    5.54    0.42 
   2  -5 -19    0.43    0.17 
  -2   5  19    0.35    0.16 
   1  -5 -19    1.64    0.23 
   1  -5 -19    1.66    0.25 
  -1   5  19    1.69    0.22 
   0  -5 -19    0.70    0.19 
   0  -5 -19    0.85    0.19 
   0   5  19    0.70    0.16 
  -1  -5 -19    1.65    0.23 
  -1  -5 -19    1.53    0.25 
  -2  -5 -19    0.41    0.17 
  -3  -5 -19    4.85    0.46 
  -4  -5 -19    0.40    0.22 
  -5  -5 -19    0.25    0.23 
  -6  -5 -19    0.16    0.24 
  -6   6  19    0.08    0.24 
  -5   6  19    0.50    0.23 
   4  -6 -19    2.26    0.36 
  -4   6  19    1.91    0.32 
   3  -6 -19    0.40    0.18 
  -3   6  19    0.13    0.15 
   2  -6 -19    2.88    0.36 
  -2   6  19    2.89    0.30 
   1  -6 -19    1.98    0.30 
  -1   6  19    2.02    0.25 
   0  -6 -19    0.38    0.14 
   0  -6 -19    0.38    0.17 
  -1  -6 -19    2.26    0.29 
  -1  -6 -19    1.78    0.25 
  -2  -6 -19    3.77    0.33 
  -2  -6 -19    3.21    0.37 
  -3  -6 -19    0.04    0.15 
  -4  -6 -19    2.40    0.38 
  -5  -6 -19    0.51    0.23 
  -6  -6 -19    0.21    0.26 
   5  -7 -19   -0.02    0.18 
  -5   7  19    0.16    0.20 
   4  -7 -19    1.24    0.28 
  -4   7  19    1.63    0.30 
   3  -7 -19   -0.10    0.14 
  -3   7  19    0.27    0.19 
   2  -7 -19    2.03    0.32 
   1  -7 -19    0.68    0.19 
   0  -7 -19    1.57    0.26 
  -1  -7 -19    0.49    0.16 
  -1  -7 -19    0.47    0.19 
  -2  -7 -19    1.71    0.29 
  -2  -7 -19    2.11    0.27 
  -3  -7 -19    0.17    0.18 
  -4  -7 -19    0.78    0.26 
  -5  -7 -19    0.07    0.21 
   4  -8 -19    0.10    0.18 
  -4   8  19    0.40    0.23 
   3  -8 -19    1.46    0.30 
   2  -8 -19    1.10    0.25 
   1  -8 -19    0.28    0.15 
   0  -8 -19    0.23    0.14 
  -1  -8 -19    0.12    0.14 
  -2  -8 -19    1.36    0.24 
  -2  -8 -19    1.44    0.28 
  -3  -8 -19    0.88    0.27 
  -4  -8 -19    0.26    0.23 
   4  -9 -19    0.84    0.26 
   3  -9 -19   -0.04    0.16 
   2  -9 -19    0.62    0.20 
   1  -9 -19    1.31    0.26 
   0  -9 -19    0.25    0.16 
  -1  -9 -19    1.44    0.25 
  -2  -9 -19    0.51    0.17 
  -3  -9 -19    0.33    0.19 
  -3  -9 -19   -0.03    0.20 
  -4  -9 -19    0.72    0.29 
   2 -10 -19    0.21    0.18 
   1 -10 -19    1.08    0.25 
   0 -10 -19    0.78    0.22 
  -1 -10 -19    0.48    0.18 
  -2 -10 -19    0.34    0.18 
  -1 -10  20    1.50    0.29 
   0 -10  20    0.14    0.18 
   1 -10  20    1.20    0.27 
  -3  -9  20    1.31    0.27 
  -2  -9  20    0.34    0.18 
  -1  -9  20    1.63    0.31 
   0  -9  20    0.10    0.16 
   1  -9  20    1.11    0.26 
   2  -9  20    0.55    0.19 
   3  -9  20    0.86    0.24 
  -4  -8  20    2.01    0.31 
  -3  -8  20    0.42    0.17 
  -2  -8  20   -0.18    0.12 
  -1  -8  20    0.79    0.20 
   0  -8  20    2.05    0.31 
   1  -8  20    0.86    0.23 
   2  -8  20    0.41    0.20 
   3  -8  20    0.43    0.21 
   4  -8  20    2.58    0.42 
  -5  -7  20    0.50    0.28 
  -5  -7  20    0.87    0.22 
  -4  -7  20    0.10    0.16 
  -3  -7  20    0.23    0.16 
  -2  -7  20    2.02    0.29 
  -1  -7  20    0.81    0.20 
   0  -7  20    1.41    0.25 
   1  -7  20    0.35    0.17 
   2  -7  20    2.72    0.37 
   3  -7  20    0.40    0.21 
   4  -7  20    0.19    0.19 
   5  -7  20    0.61    0.28 
  -5  -6  20   -0.12    0.13 
  -5  -6  20    0.27    0.24 
  -4  -6  20    0.20    0.16 
  -4  -6  20    0.01    0.20 
  -3  -6  20    1.59    0.25 
  -2  -6  20    1.16    0.22 
  -1  -6  20    0.04    0.12 
   0  -6  20    0.15    0.12 
   1  -6  20    0.21    0.15 
   2  -6  20    0.75    0.21 
   3  -6  20    1.37    0.27 
  -4   6 -20    0.02    0.14 
   4  -6  20    0.06    0.16 
  -5   6 -20    0.35    0.17 
   5  -6  20    0.00    0.20 
  -5  -5  20    0.34    0.18 
  -4  -5  20    0.64    0.18 
  -3  -5  20    1.71    0.26 
  -2  -5  20    0.00    0.12 
  -1  -5  20    2.59    0.30 
   0  -5  20    0.84    0.21 
   1  -5  20    2.36    0.31 
   2  -5  20   -0.11    0.11 
  -3   5 -20    1.86    0.29 
   3  -5  20    2.08    0.32 
  -4   5 -20    0.32    0.16 
   4  -5  20    0.84    0.25 
  -5   5 -20    0.48    0.18 
   5  -5  20    0.28    0.20 
  -6  -4  20   -0.08    0.13 
  -5  -4  20    1.27    0.26 
  -4  -4  20    0.98    0.21 
  -3  -4  20    1.68    0.26 
  -2  -4  20    0.09    0.12 
  -1  -4  20    3.14    0.32 
   0  -4  20    0.18    0.13 
   1  -4  20    3.37    0.33 
  -2   4 -20    0.07    0.13 
   2  -4  20    0.39    0.17 
  -3   4 -20    1.35    0.24 
   3  -4  20    1.08    0.23 
  -4   4 -20    1.36    0.25 
   4  -4  20    2.00    0.31 
  -5   4 -20    0.68    0.20 
   5  -4  20    1.18    0.27 
  -6   4 -20    0.00    0.13 
   6  -4  20    0.10    0.22 
  -6  -3  20    0.39    0.18 
  -5  -3  20    0.14    0.14 
  -4  -3  20    1.01    0.22 
  -3  -3  20    1.16    0.22 
  -2  -3  20    1.85    0.26 
  -1  -3  20    1.47    0.23 
   0  -3  20    1.27    0.22 
   1  -3  20    2.13    0.27 
  -2   3 -20    1.35    0.24 
   2  -3  20    2.21    0.28 
  -3   3 -20    1.17    0.23 
   3  -3  20    1.42    0.25 
  -4   3 -20    1.22    0.24 
   4  -3  20    1.40    0.27 
  -5   3 -20    0.18    0.15 
   5  -3  20   -0.19    0.15 
  -6   3 -20    0.47    0.19 
   6  -3  20    0.07    0.20 
  -6  -2  20    0.63    0.21 
  -5  -2  20    1.02    0.24 
  -4  -2  20    0.43    0.17 
  -3  -2  20    2.12    0.29 
  -2  -2  20    1.25    0.22 
  -1  -2  20    2.71    0.29 
   0  -2  20    2.60    0.27 
  -1   2 -20    2.44    0.31 
   1  -2  20    2.49    0.27 
  -2   2 -20    1.19    0.24 
   2  -2  20    1.27    0.21 
  -3   2 -20    1.97    0.29 
   3  -2  20    2.19    0.28 
  -4   2 -20    0.14    0.12 
   4  -2  20    0.37    0.17 
  -5   2 -20    0.84    0.21 
   5  -2  20    1.10    0.25 
  -6   2 -20    0.32    0.18 
  -6  -1  20    0.54    0.21 
  -5  -1  20    0.36    0.17 
  -4  -1  20    0.72    0.20 
  -3  -1  20    1.40    0.25 
  -2  -1  20    2.97    0.30 
  -1  -1  20    0.54    0.15 
   0   1 -20    1.31    0.23 
   0  -1  20    1.21    0.19 
  -1   1 -20    0.38    0.15 
   1  -1  20    0.47    0.14 
  -2   1 -20    3.37    0.35 
   2  -1  20    2.99    0.29 
  -3   1 -20    1.12    0.23 
   3  -1  20    1.25    0.22 
  -4   1 -20    0.87    0.21 
   4  -1  20    0.63    0.18 
  -5   1 -20    0.29    0.15 
   5  -1  20    0.22    0.18 
  -6   1 -20    0.73    0.23 
  -6   0  20    0.08    0.16 
  -5   0  20    0.48    0.20 
  -4   0  20    3.18    0.37 
  -3   0  20    0.25    0.14 
  -2   0  20    1.43    0.22 
  -1   0  20    1.43    0.21 
   0   0 -20    0.51    0.17 
   0   0  20    0.53    0.15 
  -1   0 -20    1.80    0.25 
   1   0  20    1.32    0.20 
  -2   0 -20    1.36    0.24 
   2   0  20    1.83    0.23 
  -3   0 -20    0.04    0.14 
   3   0  20    0.32    0.15 
  -4   0 -20    2.62    0.33 
   4   0  20    2.68    0.30 
  -5   0 -20    0.84    0.23 
  -6   0 -20    0.88    0.24 
  -6   1  20    0.36    0.20 
  -5   1  20    0.40    0.18 
  -4   1  20    0.92    0.24 
  -3   1  20    1.30    0.23 
  -2   1  20    2.71    0.29 
  -1   1  20    0.49    0.15 
   0  -1 -20    1.53    0.23 
   0   1  20    1.30    0.20 
  -1  -1 -20    0.24    0.14 
   1   1  20    0.21    0.11 
  -2  -1 -20    2.94    0.32 
   2   1  20    2.76    0.27 
  -3  -1 -20    1.13    0.23 
   3   1  20    1.06    0.19 
  -4  -1 -20    0.56    0.19 
  -5  -1 -20    0.28    0.15 
  -6  -1 -20    0.48    0.19 
  -6   2  20    0.24    0.21 
  -5   2  20    0.80    0.25 
  -4   2  20    0.32    0.18 
  -3   2  20    2.29    0.30 
  -2   2  20    1.44    0.23 
   1  -2 -20    2.68    0.29 
   1  -2 -20    2.62    0.28 
  -1   2  20    2.37    0.25 
   0  -2 -20    2.79    0.30 
   0  -2 -20    2.69    0.27 
   0   2  20    2.94    0.27 
  -1  -2 -20    2.27    0.28 
   1   2  20    2.15    0.22 
  -2  -2 -20    1.30    0.25 
   2   2  20    1.50    0.21 
  -3  -2 -20    2.36    0.33 
  -4  -2 -20    0.33    0.19 
  -5  -2 -20    0.62    0.23 
  -6  -2 -20    0.70    0.22 
  -6   3  20    0.39    0.24 
  -5   3  20   -0.05    0.18 
  -4   3  20    1.12    0.26 
  -3   3  20    0.82    0.20 
   2  -3 -20    2.19    0.30 
  -2   3  20    1.93    0.26 
   1  -3 -20    2.13    0.27 
   1  -3 -20    1.68    0.25 
  -1   3  20    2.04    0.24 
   0  -3 -20    1.37    0.21 
   0  -3 -20    1.00    0.21 
   0   3  20    1.24    0.19 
  -1  -3 -20    1.23    0.22 
   1   3  20    1.59    0.20 
  -2  -3 -20    2.01    0.29 
  -3  -3 -20    1.05    0.24 
  -4  -3 -20    1.42    0.31 
  -5  -3 -20    0.02    0.18 
  -6  -3 -20    0.04    0.15 
  -6   4  20    0.04    0.22 
  -5   4  20    1.10    0.29 
  -4   4  20    1.58    0.28 
   3  -4 -20    1.19    0.26 
  -3   4  20    1.63    0.27 
   2  -4 -20   -0.03    0.13 
  -2   4  20    0.01    0.10 
   1  -4 -20    3.24    0.31 
   1  -4 -20    3.32    0.35 
  -1   4  20    3.83    0.31 
   0  -4 -20    0.04    0.11 
   0  -4 -20    0.13    0.13 
   0   4  20    0.04    0.10 
  -1  -4 -20    3.20    0.33 
  -2  -4 -20    0.08    0.15 
  -3  -4 -20    1.19    0.26 
  -4  -4 -20    1.29    0.29 
  -5  -4 -20    1.17    0.30 
  -6  -4 -20    0.06    0.23 
  -5   5  20    0.45    0.24 
  -4   5  20    0.74    0.23 
   3  -5 -20    1.55    0.30 
  -3   5  20    1.48    0.27 
   2  -5 -20   -0.02    0.13 
  -2   5  20   -0.01    0.12 
   1  -5 -20    3.22    0.35 
  -1   5  20    2.45    0.27 
   0  -5 -20    0.82    0.19 
   0  -5 -20    0.89    0.21 
  -1  -5 -20    3.03    0.31 
  -1  -5 -20    2.58    0.32 
  -2  -5 -20    0.15    0.15 
  -3  -5 -20    1.82    0.33 
  -4  -5 -20    0.60    0.24 
  -5  -5 -20    0.38    0.22 
  -5   6  20    0.10    0.20 
   4  -6 -20    0.00    0.15 
  -4   6  20    0.03    0.19 
   3  -6 -20    2.13    0.33 
  -3   6  20    1.24    0.26 
   2  -6 -20    1.17    0.25 
  -2   6  20    0.91    0.20 
   1  -6 -20    0.02    0.13 
   0  -6 -20    0.13    0.12 
   0  -6 -20   -0.09    0.14 
  -1  -6 -20   -0.03    0.13 
  -1  -6 -20    0.00    0.12 
  -2  -6 -20    1.01    0.24 
  -3  -6 -20    1.54    0.29 
  -4  -6 -20    0.04    0.18 
  -5  -6 -20    0.07    0.20 
  -5   7  20    0.72    0.27 
   4  -7 -20    0.18    0.18 
  -4   7  20   -0.06    0.17 
   3  -7 -20    0.51    0.21 
  -3   7  20    0.67    0.22 
   2  -7 -20    2.13    0.34 
   1  -7 -20    0.54    0.19 
   0  -7 -20    1.60    0.26 
  -1  -7 -20    0.50    0.16 
  -1  -7 -20    0.25    0.18 
  -2  -7 -20    2.15    0.34 
  -3  -7 -20    0.64    0.23 
  -4  -7 -20    0.09    0.20 
  -5  -7 -20    0.42    0.28 
   4  -8 -20    2.26    0.38 
  -4   8  20    2.02    0.36 
   3  -8 -20    0.32    0.21 
   2  -8 -20   -0.07    0.15 
   1  -8 -20    0.76    0.22 
   0  -8 -20    2.19    0.31 
  -1  -8 -20    0.88    0.20 
  -2  -8 -20    0.14    0.19 
  -2  -8 -20    0.23    0.15 
  -3  -8 -20    0.26    0.21 
  -4  -8 -20    1.73    0.36 
   3  -9 -20    1.55    0.33 
   2  -9 -20    0.59    0.21 
   1  -9 -20    1.33    0.28 
   0  -9 -20    0.36    0.18 
  -1  -9 -20    1.76    0.29 
  -2  -9 -20    0.53    0.20 
  -3  -9 -20    1.52    0.33 
   1 -10 -20    1.30    0.29 
   0 -10 -20    0.15    0.17 
  -1 -10 -20    1.35    0.28 
  -2  -9  21    0.01    0.15 
  -1  -9  21    0.20    0.17 
   0  -9  21    1.93    0.31 
   1  -9  21    0.00    0.17 
   2  -9  21    0.06    0.15 
  -3  -8  21    0.52    0.20 
  -2  -8  21    1.57    0.28 
  -1  -8  21   -0.01    0.15 
   0  -8  21    0.95    0.23 
   1  -8  21    0.35    0.19 
   2  -8  21    1.07    0.28 
   3  -8  21    0.57    0.26 
  -4  -7  21    0.78    0.22 
  -3  -7  21   -0.04    0.14 
  -2  -7  21    1.60    0.28 
  -1  -7  21    0.36    0.17 
   0  -7  21    1.23    0.25 
   1  -7  21    0.15    0.17 
   2  -7  21    1.84    0.32 
   3  -7  21    0.20    0.19 
   4  -7  21    0.97    0.28 
  -5  -6  21    0.30    0.25 
  -5  -6  21    0.65    0.20 
  -4  -6  21    0.80    0.21 
  -3  -6  21    0.99    0.22 
  -2  -6  21    1.18    0.23 
  -1  -6  21    0.78    0.19 
   0  -6  21    0.35    0.16 
   1  -6  21    0.37    0.16 
   2  -6  21    1.27    0.26 
   3  -6  21    1.40    0.29 
   4  -6  21    0.73    0.25 
  -5   6 -21    0.48    0.20 
   5  -6  21    0.21    0.24 
  -5  -5  21    1.22    0.26 
  -4  -5  21    0.15    0.15 
  -3  -5  21    1.10    0.22 
  -2  -5  21    0.41    0.16 
  -1  -5  21    0.94    0.20 
   0  -5  21    0.98    0.22 
   1  -5  21    0.95    0.22 
   2  -5  21   -0.01    0.13 
  -3   5 -21    1.61    0.28 
   3  -5  21    1.42    0.28 
  -4   5 -21    0.22    0.15 
   4  -5  21    0.14    0.18 
  -5   5 -21    1.08    0.24 
   5  -5  21    0.95    0.28 
  -5  -4  21    0.19    0.15 
  -4  -4  21    0.11    0.13 
  -3  -4  21    0.46    0.17 
  -2  -4  21    2.67    0.31 
  -1  -4  21    0.63    0.18 
   0  -4  21    0.38    0.16 
   1  -4  21    0.72    0.19 
  -2   4 -21    2.87    0.35 
   2  -4  21    3.51    0.36 
  -3   4 -21    0.53    0.18 
   3  -4  21    0.39    0.19 
  -4   4 -21    0.25    0.15 
   4  -4  21    0.25    0.17 
  -5   4 -21    0.43    0.19 
   5  -4  21   -0.11    0.18 
  -6  -3  21    0.12    0.17 
  -5  -3  21    1.06    0.23 
  -4  -3  21    0.95    0.20 
  -3  -3  21    0.67    0.18 
  -2  -3  21    1.45    0.24 
  -1  -3  21    0.97    0.20 
   0  -3  21    0.55    0.17 
   1  -3  21    1.64    0.25 
  -2   3 -21    1.02    0.23 
   2  -3  21    1.18    0.23 
  -3   3 -21    0.54    0.19 
   3  -3  21    0.70    0.21 
  -4   3 -21    0.72    0.19 
   4  -3  21    0.75    0.22 
  -5   3 -21    1.26    0.27 
   5  -3  21    1.37    0.30 
  -6   3 -21    0.08    0.15 
   6  -3  21    0.05    0.22 
  -6  -2  21    0.30    0.19 
  -5  -2  21    0.45    0.20 
  -4  -2  21    0.31    0.15 
  -3  -2  21    0.79    0.22 
  -2  -2  21    0.11    0.14 
  -1  -2  21    0.34    0.15 
   0  -2  21    6.16    0.41 
  -1   2 -21    0.45    0.17 
   1  -2  21    0.40    0.15 
  -2   2 -21   -0.06    0.14 
   2  -2  21   -0.04    0.12 
  -3   2 -21    1.07    0.22 
   3  -2  21    1.62    0.26 
  -4   2 -21    0.19    0.15 
   4  -2  21    0.59    0.20 
  -5   2 -21    0.18    0.16 
   5  -2  21    0.42    0.21 
  -6   2 -21    0.44    0.19 
  -6  -1  21    0.57    0.21 
  -5  -1  21    0.36    0.17 
  -4  -1  21    1.65    0.30 
  -3  -1  21    1.40    0.24 
  -2  -1  21    0.44    0.15 
  -1  -1  21    0.57    0.16 
   0  -1  21    0.72    0.17 
  -1   1 -21    0.75    0.19 
   1  -1  21    0.97    0.19 
  -2   1 -21    0.52    0.18 
   2  -1  21    0.78    0.19 
  -3   1 -21    1.25    0.26 
   3  -1  21    1.37    0.23 
  -4   1 -21    1.66    0.28 
   4  -1  21    1.82    0.28 
  -5   1 -21    0.18    0.14 
  -6   1 -21    0.43    0.19 
  -6   0  21    0.50    0.21 
  -5   0  21    0.30    0.19 
  -4   0  21    0.62    0.21 
  -3   0  21   -0.04    0.13 
  -2   0  21    3.47    0.33 
  -1   0  21    0.47    0.16 
   0   0 -21   -0.16    0.10 
   0   0  21   -0.01    0.10 
  -1   0 -21    0.44    0.16 
   1   0  21    0.60    0.16 
  -2   0 -21    3.20    0.35 
   2   0  21    3.87    0.33 
  -3   0 -21   -0.15    0.12 
   3   0  21    0.05    0.12 
  -4   0 -21    0.23    0.14 
  -5   0 -21    0.55    0.20 
  -6   0 -21    0.33    0.21 
  -6   1  21    0.26    0.23 
  -5   1  21    0.57    0.21 
  -4   1  21    1.70    0.29 
  -3   1  21    1.05    0.22 
  -2   1  21    0.74    0.19 
  -1   1  21    0.49    0.15 
   0  -1 -21    0.53    0.17 
   0   1  21    0.69    0.16 
  -1  -1 -21    0.68    0.18 
   1   1  21    0.46    0.15 
  -2  -1 -21    0.44    0.18 
   2   1  21    0.63    0.17 
  -3  -1 -21    1.25    0.25 
   3   1  21    1.20    0.21 
  -4  -1 -21    1.29    0.28 
  -5  -1 -21    0.52    0.20 
  -6  -1 -21    0.50    0.21 
  -6   2  21    0.58    0.28 
  -5   2  21    0.03    0.18 
  -4   2  21    0.49    0.20 
  -3   2  21    1.12    0.23 
  -2   2  21   -0.02    0.12 
   1  -2 -21    0.48    0.17 
  -1   2  21    0.39    0.15 
   0  -2 -21    7.41    0.48 
   0   2  21    7.17    0.43 
  -1  -2 -21    0.45    0.17 
   1   2  21    0.56    0.15 
  -2  -2 -21    0.08    0.13 
   2   2  21    0.10    0.12 
  -3  -2 -21    1.10    0.27 
  -4  -2 -21    0.11    0.18 
  -5  -2 -21    0.18    0.19 
  -6  -2 -21    0.51    0.24 
  -6   3  21    0.28    0.24 
  -5   3  21    1.33    0.30 
  -4   3  21    0.74    0.22 
  -3   3  21    0.80    0.21 
  -2   3  21    0.96    0.22 
   1  -3 -21    1.89    0.28 
   1  -3 -21    1.90    0.26 
  -1   3  21    1.62    0.23 
   0  -3 -21    0.58    0.18 
   0   3  21    0.59    0.15 
  -1  -3 -21    1.70    0.27 
   1   3  21    1.67    0.21 
  -2  -3 -21    1.38    0.26 
  -3  -3 -21    0.80    0.23 
  -4  -3 -21    0.79    0.24 
  -5  -3 -21    1.44    0.33 
  -6  -3 -21    0.03    0.23 
  -5   4  21    0.28    0.20 
  -4   4  21   -0.06    0.17 
  -3   4  21    0.27    0.17 
   2  -4 -21    2.46    0.34 
  -2   4  21    3.01    0.31 
   1  -4 -21    0.59    0.16 
   1  -4 -21    0.71    0.20 
  -1   4  21    0.78    0.18 
   0  -4 -21    0.67    0.19 
   0  -4 -21    0.94    0.20 
   0   4  21    0.78    0.17 
  -1  -4 -21    0.35    0.16 
  -2  -4 -21    3.11    0.36 
  -3  -4 -21    0.38    0.19 
  -4  -4 -21    0.04    0.18 
  -5  -4 -21    0.08    0.21 
  -5   5  21    1.10    0.30 
  -4   5  21    0.22    0.19 
   3  -5 -21    1.41    0.30 
  -3   5  21    1.55    0.27 
   2  -5 -21    0.30    0.16 
  -2   5  21    0.36    0.16 
   1  -5 -21    1.01    0.23 
  -1   5  21    1.02    0.20 
   0  -5 -21    1.53    0.24 
   0  -5 -21    1.12    0.21 
  -1  -5 -21    0.87    0.22 
  -2  -5 -21   -0.07    0.15 
  -3  -5 -21    1.28    0.28 
  -4  -5 -21    0.08    0.21 
  -5  -5 -21    1.07    0.30 
  -5   6  21    0.40    0.22 
   4  -6 -21    0.86    0.25 
  -4   6  21    0.53    0.21 
   3  -6 -21    0.99    0.24 
  -3   6  21    0.59    0.21 
   2  -6 -21    1.46    0.29 
  -2   6  21    0.75    0.22 
   1  -6 -21    0.64    0.21 
   0  -6 -21    0.61    0.18 
  -1  -6 -21    0.92    0.21 
  -1  -6 -21    0.50    0.20 
  -2  -6 -21    0.88    0.24 
  -3  -6 -21    0.87    0.27 
  -4  -6 -21    0.99    0.28 
  -5  -6 -21    0.20    0.25 
   4  -7 -21    0.54    0.23 
  -4   7  21    1.03    0.28 
   3  -7 -21    0.41    0.21 
  -3   7  21    0.22    0.21 
   2  -7 -21    1.78    0.31 
   1  -7 -21    0.48    0.20 
   0  -7 -21    1.43    0.26 
  -1  -7 -21    0.46    0.17 
  -2  -7 -21    1.45    0.28 
  -3  -7 -21    0.31    0.21 
  -4  -7 -21    0.90    0.28 
   3  -8 -21    0.52    0.23 
   2  -8 -21    1.34    0.29 
   1  -8 -21    0.38    0.18 
   0  -8 -21    0.97    0.24 
  -1  -8 -21    0.10    0.16 
  -2  -8 -21    1.58    0.33 
  -3  -8 -21    0.30    0.22 
   2  -9 -21    0.06    0.16 
   1  -9 -21    0.42    0.19 
   0  -9 -21    2.22    0.34 
  -1  -9 -21    0.30    0.18 
   0  -9  22    0.07    0.15 
  -2  -8  22    0.50    0.20 
  -1  -8  22    0.53    0.20 
   0  -8  22    1.32    0.28 
   1  -8  22    0.69    0.21 
   2  -8  22    0.14    0.21 
  -3  -7  22    0.50    0.18 
  -2  -7  22    0.78    0.22 
  -1  -7  22    1.03    0.24 
   0  -7  22    0.28    0.17 
   1  -7  22    1.15    0.25 
   2  -7  22    0.62    0.23 
   3  -7  22    0.44    0.23 
  -4  -6  22   -0.20    0.13 
  -3  -6  22    0.69    0.20 
  -2  -6  22    0.12    0.14 
  -1  -6  22    0.91    0.22 
   0  -6  22   -0.04    0.13 
   1  -6  22    0.75    0.22 
   2  -6  22    0.31    0.19 
   3  -6  22    0.14    0.19 
   4  -6  22    0.11    0.20 
  -5  -5  22    0.48    0.20 
  -4  -5  22    0.51    0.19 
  -3  -5  22    0.63    0.19 
  -2  -5  22    0.43    0.16 
  -1  -5  22    0.41    0.17 
   0  -5  22    0.34    0.17 
   1  -5  22    0.29    0.15 
   2  -5  22    0.35    0.17 
   3  -5  22    0.94    0.24 
  -4   5 -22    0.45    0.18 
   4  -5  22    0.54    0.23 
  -5   5 -22    0.09    0.17 
  -5  -4  22    0.93    0.23 
  -4  -4  22    0.84    0.21 
  -3  -4  22    0.61    0.20 
  -2  -4  22    0.09    0.14 
  -1  -4  22    1.25    0.24 
   0  -4  22    0.53    0.17 
   1  -4  22    0.97    0.21 
   2  -4  22    0.09    0.16 
  -3   4 -22    0.91    0.22 
   3  -4  22    0.86    0.24 
  -4   4 -22    0.63    0.21 
   4  -4  22    0.70    0.25 
  -5   4 -22    0.28    0.16 
   5  -4  22    0.51    0.24 
  -5  -3  22   -0.02    0.15 
  -4  -3  22    1.20    0.25 
  -3  -3  22    0.29    0.16 
  -2  -3  22    1.07    0.22 
  -1  -3  22    0.84    0.20 
   0  -3  22    1.25    0.23 
   1  -3  22    1.34    0.24 
  -2   3 -22    0.89    0.21 
   2  -3  22    1.10    0.23 
  -3   3 -22    0.26    0.15 
   3  -3  22    0.54    0.19 
  -4   3 -22    1.99    0.30 
   4  -3  22    1.72    0.30 
  -5   3 -22    0.23    0.16 
   5  -3  22    0.19    0.20 
  -5  -2  22    0.38    0.19 
  -4  -2  22   -0.05    0.12 
  -3  -2  22    1.72    0.28 
  -2  -2  22    0.93    0.21 
  -1  -2  22    1.76    0.26 
   0  -2  22    0.17    0.12 
  -1   2 -22    1.74    0.29 
   1  -2  22    2.41    0.29 
  -2   2 -22    1.24    0.25 
   2  -2  22    1.03    0.22 
  -3   2 -22    1.44    0.26 
   3  -2  22    1.94    0.28 
  -4   2 -22    0.09    0.13 
   4  -2  22   -0.07    0.15 
  -5   2 -22    0.43    0.19 
   5  -2  22    0.63    0.25 
  -5  -1  22    0.39    0.19 
  -4  -1  22    0.12    0.17 
  -3  -1  22    0.45    0.17 
  -2  -1  22    2.30    0.30 
  -1  -1  22    0.87    0.19 
   0  -1  22    1.38    0.21 
  -1   1 -22    0.95    0.22 
   1  -1  22    0.95    0.21 
  -2   1 -22    1.75    0.29 
   2  -1  22    1.96    0.27 
  -3   1 -22    0.78    0.22 
   3  -1  22    0.57    0.19 
  -4   1 -22    0.06    0.13 
   4  -1  22    0.22    0.17 
  -5   1 -22    0.22    0.15 
  -5   0  22    0.50    0.21 
  -4   0  22    1.42    0.28 
  -3   0  22    0.34    0.16 
  -2   0  22    1.01    0.20 
  -1   0  22    0.34    0.15 
   0   0 -22    2.52    0.31 
   0   0  22    2.53    0.28 
  -1   0 -22    0.50    0.19 
   1   0  22    0.30    0.14 
  -2   0 -22    1.02    0.23 
   2   0  22    1.00    0.20 
  -3   0 -22    0.08    0.16 
   3   0  22    0.10    0.13 
  -4   0 -22    1.16    0.25 
  -5   0 -22    0.34    0.18 
  -6   0 -22    0.15    0.17 
  -5   1  22    0.49    0.23 
  -4   1  22   -0.02    0.15 
  -3   1  22    0.65    0.21 
  -2   1  22    1.75    0.26 
  -1   1  22    1.14    0.22 
   0  -1 -22    1.25    0.24 
   0   1  22    0.87    0.18 
  -1  -1 -22    0.81    0.20 
   1   1  22    0.76    0.17 
  -2  -1 -22    1.85    0.29 
   2   1  22    1.75    0.24 
  -3  -1 -22    0.29    0.17 
  -4  -1 -22   -0.02    0.15 
  -5  -1 -22    0.27    0.18 
  -5   2  22    0.51    0.21 
  -4   2  22    0.11    0.15 
  -3   2  22    2.00    0.30 
  -2   2  22    0.77    0.19 
  -1   2  22    1.70    0.24 
   0  -2 -22    0.24    0.15 
   0   2  22    0.24    0.12 
  -1  -2 -22    1.91    0.28 
   1   2  22    1.94    0.23 
  -2  -2 -22    0.96    0.23 
  -3  -2 -22    2.38    0.34 
  -4  -2 -22    0.19    0.17 
  -5  -2 -22    0.40    0.22 
  -5   3  22    0.28    0.19 
  -4   3  22    1.30    0.27 
  -3   3  22    0.26    0.16 
  -2   3  22    1.30    0.23 
   1  -3 -22    0.93    0.21 
   1  -3 -22    1.57    0.25 
  -1   3  22    0.91    0.19 
   0  -3 -22    0.98    0.22 
   0   3  22    1.06    0.19 
  -1  -3 -22    1.06    0.23 
  -2  -3 -22    0.71    0.22 
  -3  -3 -22    0.00    0.17 
  -4  -3 -22    1.75    0.33 
  -5  -3 -22    0.61    0.26 
  -5   4  22    0.38    0.23 
  -4   4  22    0.68    0.23 
  -3   4  22    0.77    0.21 
   2  -4 -22    0.13    0.14 
  -2   4  22    0.21    0.15 
   1  -4 -22    1.40    0.24 
   1  -4 -22    1.12    0.22 
  -1   4  22    0.75    0.19 
   0  -4 -22    0.53    0.17 
  -1  -4 -22    1.19    0.24 
  -2  -4 -22    0.19    0.16 
  -3  -4 -22    0.51    0.21 
  -4  -4 -22    0.43    0.25 
  -5  -4 -22    0.39    0.25 
  -5   5  22    0.29    0.23 
  -4   5  22    0.32    0.20 
   3  -5 -22    1.50    0.28 
  -3   5  22    0.72    0.22 
   2  -5 -22    0.22    0.16 
  -2   5  22    0.24    0.16 
   1  -5 -22    0.63    0.20 
   0  -5 -22    0.37    0.18 
   0  -5 -22    0.42    0.17 
  -1  -5 -22    0.23    0.17 
  -2  -5 -22    0.28    0.18 
  -3  -5 -22    1.10    0.28 
  -4  -5 -22    0.09    0.19 
  -5  -5 -22    0.38    0.27 
  -4   6  22   -0.01    0.18 
   3  -6 -22    0.21    0.18 
  -3   6  22    0.35    0.18 
   2  -6 -22    0.25    0.18 
   1  -6 -22    0.88    0.23 
   0  -6 -22    0.12    0.16 
  -1  -6 -22    0.67    0.21 
  -2  -6 -22    0.16    0.19 
  -3  -6 -22    0.27    0.21 
  -4  -6 -22   -0.15    0.19 
   3  -7 -22    0.23    0.19 
   2  -7 -22    1.12    0.27 
   1  -7 -22    1.23    0.28 
   0  -7 -22    0.19    0.15 
  -2  -7 -22    0.65    0.24 
  -3  -7 -22    0.03    0.20 
   2  -8 -22    0.41    0.21 
   1  -8 -22    0.79    0.24 
   0  -8 -22    1.39    0.28 
  -1  -8 -22    0.82    0.25 
   0  -9 -22    0.08    0.18 
  -1  -8  23   -0.06    0.14 
   0  -8  23    0.09    0.15 
   1  -8  23   -0.02    0.13 
  -2  -7  23    0.10    0.14 
  -1  -7  23    0.81    0.21 
   0  -7  23    0.16    0.15 
   1  -7  23    0.59    0.23 
   2  -7  23   -0.08    0.20 
  -3  -6  23    1.49    0.28 
  -2  -6  23    0.29    0.16 
  -1  -6  23    0.92    0.22 
   0  -6  23    0.09    0.15 
   1  -6  23    1.28    0.27 
   2  -6  23    0.20    0.18 
   3  -6  23    1.47    0.31 
  -4  -5  23    1.13    0.25 
  -3  -5  23    0.67    0.20 
  -2  -5  23    0.43    0.17 
  -1  -5  23    0.42    0.19 
   0  -5  23    1.54    0.28 
   1  -5  23    0.83    0.22 
   2  -5  23    0.64    0.22 
   3  -5  23    0.49    0.21 
  -4   5 -23    0.67    0.22 
   4  -5  23    1.56    0.34 
  -4  -4  23    0.73    0.21 
  -3  -4  23    0.26    0.16 
  -2  -4  23    1.53    0.28 
  -1  -4  23    0.49    0.19 
   0  -4  23    0.76    0.21 
   1  -4  23    0.25    0.16 
   2  -4  23    1.35    0.27 
  -3   4 -23    0.04    0.13 
   3  -4  23   -0.02    0.17 
  -4   4 -23    0.76    0.22 
   4  -4  23    0.24    0.22 
  -5  -3  23    0.28    0.16 
  -4  -3  23    0.45    0.18 
  -3  -3  23    0.67    0.20 
  -2  -3  23    0.23    0.15 
  -1  -3  23    1.23    0.24 
   0  -3  23   -0.02    0.13 
   1  -3  23    1.76    0.28 
  -2   3 -23    0.18    0.14 
   2  -3  23    0.33    0.18 
  -3   3 -23    0.54    0.19 
   3  -3  23    0.70    0.22 
  -4   3 -23    0.17    0.18 
   4  -3  23    0.43    0.21 
  -5   3 -23    0.61    0.22 
   5  -3  23    0.41    0.23 
  -5  -2  23    0.59    0.20 
  -4  -2  23    0.73    0.22 
  -3  -2  23    1.36    0.27 
  -2  -2  23    0.00    0.13 
  -1  -2  23    0.58    0.18 
   0  -2  23    0.63    0.19 
  -1   2 -23    0.53    0.20 
   1  -2  23    1.09    0.23 
  -2   2 -23    0.13    0.16 
   2  -2  23    0.00    0.14 
  -3   2 -23    1.38    0.26 
   3  -2  23    1.05    0.24 
  -4   2 -23    0.68    0.21 
   4  -2  23    0.52    0.20 
  -5   2 -23    0.29    0.16 
  -5  -1  23    0.33    0.23 
  -4  -1  23    0.66    0.22 
  -3  -1  23    0.57    0.20 
  -2  -1  23    0.12    0.14 
  -1  -1  23    1.34    0.24 
   0  -1  23    1.63    0.25 
  -1   1 -23    2.25    0.32 
   1  -1  23    2.01    0.27 
  -2   1 -23    0.13    0.16 
   2  -1  23   -0.03    0.13 
  -3   1 -23    0.78    0.22 
   3  -1  23    0.98    0.22 
  -4   1 -23    0.99    0.23 
   4  -1  23    0.70    0.23 
  -5   1 -23    0.48    0.20 
  -5   0  23    0.17    0.22 
  -4   0  23   -0.09    0.16 
  -3   0  23    0.55    0.20 
  -2   0  23    3.83    0.37 
  -1   0  23   -0.05    0.13 
   0   0 -23    0.08    0.14 
   0   0  23   -0.05    0.11 
  -1   0 -23    0.02    0.14 
   1   0  23    0.24    0.15 
  -2   0 -23    4.06    0.41 
   2   0  23    3.58    0.34 
  -3   0 -23    0.16    0.18 
   3   0  23    0.66    0.20 
  -4   0 -23   -0.03    0.16 
  -5   0 -23    0.18    0.16 
  -5   1  23    0.35    0.22 
  -4   1  23    1.18    0.27 
  -3   1  23    0.91    0.23 
  -2   1  23    0.10    0.13 
  -1   1  23    1.69    0.25 
   0  -1 -23    2.27    0.31 
   0   1  23    1.69    0.24 
  -1  -1 -23    1.49    0.27 
   1   1  23    1.56    0.23 
  -2  -1 -23    0.15    0.15 
   2   1  23    0.10    0.13 
  -3  -1 -23    0.59    0.21 
  -4  -1 -23    0.91    0.25 
  -5  -1 -23    0.38    0.19 
  -5   2  23    0.45    0.24 
  -4   2  23    0.10    0.17 
  -3   2  23    0.99    0.23 
  -2   2  23    0.08    0.14 
  -1   2  23    0.83    0.19 
   0  -2 -23    0.62    0.20 
   0   2  23    0.92    0.19 
  -1  -2 -23    0.78    0.21 
   1   2  23    0.74    0.18 
  -2  -2 -23   -0.01    0.15 
  -3  -2 -23    0.90    0.26 
  -4  -2 -23    0.54    0.23 
  -5  -2 -23    0.43    0.24 
  -5   3  23    0.42    0.25 
  -4   3  23    0.14    0.19 
  -3   3  23    0.57    0.19 
  -2   3  23    0.07    0.14 
   1  -3 -23    1.33    0.25 
  -1   3  23    1.36    0.23 
   0  -3 -23    0.08    0.14 
   0   3  23   -0.05    0.11 
  -1  -3 -23    1.42    0.26 
  -2  -3 -23    0.20    0.17 
  -3  -3 -23    0.60    0.22 
  -4  -3 -23    0.32    0.21 
  -5  -3 -23    0.66    0.28 
  -4   4  23    0.19    0.20 
  -3   4  23   -0.01    0.15 
   2  -4 -23    2.45    0.34 
  -2   4  23    1.52    0.26 
   1  -4 -23    0.65    0.21 
  -1   4  23    0.48    0.17 
   0  -4 -23    0.34    0.17 
  -1  -4 -23    0.41    0.18 
  -2  -4 -23    1.47    0.29 
  -3  -4 -23    0.12    0.19 
  -4  -4 -23    0.38    0.23 
  -4   5  23    0.80    0.23 
  -3   5  23    0.96    0.24 
   2  -5 -23    0.53    0.21 
  -2   5  23    0.02    0.16 
   1  -5 -23    0.50    0.19 
   0  -5 -23    1.36    0.27 
  -1  -5 -23    0.47    0.20 
  -2  -5 -23    0.26    0.19 
  -3  -5 -23    0.45    0.23 
  -4  -5 -23    1.12    0.32 
   3  -6 -23    1.47    0.33 
  -3   6  23    1.63    0.31 
   2  -6 -23    0.06    0.17 
   1  -6 -23    1.06    0.26 
  -1  -6 -23    0.88    0.25 
  -2  -6 -23    0.45    0.22 
  -3  -6 -23    1.51    0.33 
   2  -7 -23    0.33    0.21 
   1  -7 -23    0.98    0.26 
   0  -7 -23    0.11    0.20 
  -2  -7 -23    0.02    0.21 
   1  -8 -23    0.22    0.20 
   0  -8 -23    0.19    0.19 
  -1  -7  24    0.26    0.16 
   0  -7  24   -0.03    0.13 
   1  -7  24    0.17    0.19 
  -2  -6  24    0.52    0.18 
  -1  -6  24    0.51    0.18 
   0  -6  24    0.64    0.22 
   1  -6  24    0.28    0.20 
   2  -6  24   -0.04    0.19 
  -3  -5  24    0.82    0.22 
  -2  -5  24    0.75    0.21 
  -1  -5  24   -0.12    0.14 
   0  -5  24   -0.11    0.14 
   1  -5  24   -0.16    0.14 
   2  -5  24    0.90    0.24 
   3  -5  24    0.50    0.23 
  -4  -4  24    0.78    0.22 
  -3  -4  24    0.26    0.16 
  -2  -4  24    0.29    0.17 
  -1  -4  24    0.01    0.14 
   0  -4  24    0.86    0.23 
   1  -4  24   -0.08    0.15 
   2  -4  24    0.62    0.22 
  -3   4 -24    0.23    0.17 
   3  -4  24    0.14    0.19 
  -4   4 -24    0.61    0.22 
   4  -4  24    0.67    0.27 
  -4  -3  24    0.39    0.18 
  -3  -3  24    0.78    0.23 
  -2  -3  24    0.69    0.21 
  -1  -3  24    0.37    0.17 
   0  -3  24   -0.03    0.14 
   1  -3  24    0.57    0.18 
  -2   3 -24    0.81    0.25 
   2  -3  24    0.67    0.21 
  -3   3 -24    0.81    0.22 
   3  -3  24    0.80    0.25 
  -4   3 -24    0.38    0.19 
   4  -3  24    0.21    0.21 
  -4  -2  24    0.51    0.24 
  -3  -2  24    2.00    0.32 
  -2  -2  24    0.86    0.22 
  -1  -2  24    1.08    0.23 
   0  -2  24    0.19    0.15 
   1  -2  24    1.42    0.26 
  -2   2 -24    0.24    0.18 
   2  -2  24    0.99    0.24 
  -3   2 -24    1.53    0.28 
   3  -2  24    1.76    0.30 
  -4   2 -24    0.51    0.20 
   4  -2  24    0.96    0.25 
  -4  -1  24    0.09    0.17 
  -3  -1  24    1.62    0.29 
  -2  -1  24    3.32    0.37 
  -1  -1  24    0.39    0.16 
   0  -1  24    0.14    0.14 
  -1   1 -24    0.41    0.19 
   1  -1  24    0.61    0.19 
  -2   1 -24    3.65    0.40 
   2  -1  24    3.26    0.35 
  -3   1 -24    1.38    0.29 
   3  -1  24    1.58    0.27 
  -4   1 -24    0.08    0.14 
  -4   0  24    2.54    0.36 
  -3   0  24    0.19    0.18 
  -2   0  24    0.53    0.19 
  -1   0  24    0.35    0.16 
   0   0  24    5.64    0.41 
  -1   0 -24    0.40    0.18 
   1   0  24    0.51    0.18 
  -2   0 -24    0.38    0.20 
   2   0  24    0.17    0.15 
  -3   0 -24    0.18    0.18 
   3   0  24    0.48    0.21 
  -4   0 -24    2.60    0.38 
  -4   1  24    0.00    0.17 
  -3   1  24    1.45    0.27 
  -2   1  24    2.83    0.34 
  -1   1  24    0.50    0.17 
   0  -1 -24    0.34    0.17 
   0   1  24    0.54    0.18 
  -1  -1 -24    0.32    0.19 
   1   1  24    0.41    0.16 
  -2  -1 -24    2.90    0.37 
   2   1  24    3.04    0.33 
  -3  -1 -24    0.78    0.24 
  -4  -1 -24    0.09    0.20 
  -4   2  24    0.56    0.24 
  -3   2  24    1.50    0.28 
  -2   2  24    0.43    0.18 
  -1   2  24    1.35    0.24 
   0  -2 -24    0.13    0.16 
   0   2  24    0.15    0.14 
  -1  -2 -24    1.15    0.24 
   1   2  24    1.02    0.22 
  -2  -2 -24    0.42    0.20 
  -3  -2 -24    1.35    0.29 
  -4  -2 -24    0.55    0.24 
  -4   3  24    0.30    0.21 
  -3   3  24    0.67    0.22 
  -2   3  24    1.03    0.23 
  -1   3  24    0.44    0.17 
   0  -3 -24    0.46    0.18 
   0   3  24    0.15    0.15 
  -1  -3 -24    0.21    0.17 
  -2  -3 -24    1.08    0.24 
  -3  -3 -24    0.84    0.25 
  -4  -3 -24    0.31    0.24 
  -4   4  24    0.56    0.23 
  -3   4  24   -0.04    0.15 
  -2   4  24    0.64    0.20 
  -1   4  24    0.28    0.17 
   0  -4 -24    0.77    0.23 
  -1  -4 -24    0.26    0.18 
  -2  -4 -24    0.38    0.20 
  -3  -4 -24   -0.06    0.18 
  -4  -4 -24    0.68    0.27 
  -3   5  24    0.34    0.20 
   2  -5 -24    0.66    0.24 
  -2   5  24    0.83    0.24 
  -1  -5 -24   -0.02    0.16 
  -2  -5 -24    0.94    0.26 
  -3  -5 -24    0.59    0.24 
   2  -6 -24    0.22    0.19 
   1  -6 -24    0.17    0.21 
  -2  -6 -24    0.21    0.20 
   1  -7 -24    0.28    0.22 
  -1  -6  25    0.29    0.21 
   0  -6  25    0.03    0.18 
   1  -6  25    0.52    0.25 
  -2  -5  25    0.04    0.15 
  -1  -5  25    0.37    0.19 
   0  -5  25    1.76    0.32 
   1  -5  25    0.40    0.21 
   2  -5  25    0.15    0.19 
  -3  -4  25   -0.09    0.14 
  -2  -4  25    1.03    0.25 
  -1  -4  25    0.54    0.21 
   0  -4  25   -0.16    0.15 
   1  -4  25    0.39    0.19 
   2  -4  25    1.08    0.27 
   3  -4  25    0.04    0.18 
  -3  -3  25    0.09    0.18 
  -2  -3  25    0.34    0.19 
  -1  -3  25    1.80    0.30 
   0  -3  25   -0.01    0.15 
   1  -3  25    1.77    0.30 
   2  -3  25    0.02    0.15 
  -3   3 -25    0.36    0.18 
   3  -3  25    0.29    0.21 
  -4  -2  25    0.90    0.27 
  -3  -2  25    0.63    0.21 
  -2  -2  25    0.44    0.20 
  -1  -2  25    0.86    0.22 
   0  -2  25    0.51    0.19 
   1  -2  25    1.27    0.26 
  -2   2 -25    0.44    0.21 
   2  -2  25    0.44    0.20 
  -3   2 -25    0.82    0.25 
   3  -2  25    0.62    0.23 
  -4   2 -25    0.56    0.18 
  -4  -1  25    0.83    0.26 
  -3  -1  25    0.68    0.23 
  -2  -1  25    0.59    0.21 
  -1  -1  25    0.55    0.21 
   0  -1  25    1.89    0.28 
  -1   1 -25    0.52    0.21 
   1  -1  25    0.75    0.21 
  -2   1 -25    0.38    0.22 
   2  -1  25    0.85    0.23 
  -3   1 -25    0.35    0.23 
   3  -1  25    0.61    0.22 
  -4   1 -25    1.05    0.25 
  -4   0  25    0.39    0.22 
  -3   0  25    0.97    0.25 
  -2   0  25    3.39    0.38 
  -1   0  25    1.02    0.23 
   0   0  25    0.15    0.15 
  -1   0 -25    0.97    0.26 
   1   0  25    1.06    0.23 
  -2   0 -25    2.71    0.38 
   2   0  25    2.81    0.33 
  -3   0 -25    0.50    0.22 
  -4   0 -25   -0.06    0.19 
  -4   1  25    0.67    0.25 
  -3   1  25    0.60    0.22 
  -2   1  25    0.49    0.19 
  -1   1  25    0.50    0.17 
   0  -1 -25    1.70    0.30 
   0   1  25    1.95    0.27 
  -1  -1 -25    0.50    0.22 
   1   1  25    0.12    0.15 
  -2  -1 -25    0.55    0.22 
  -3  -1 -25    0.35    0.20 
  -4  -1 -25    0.88    0.30 
  -4   2  25    0.27    0.23 
  -3   2  25    0.56    0.21 
  -2   2  25    0.39    0.20 
  -1   2  25    1.36    0.25 
   0  -2 -25    0.40    0.20 
   0   2  25    0.47    0.18 
  -1  -2 -25    1.13    0.25 
  -2  -2 -25    0.67    0.23 
  -3  -2 -25    0.56    0.24 
  -4  -2 -25    0.60    0.26 
  -3   3  25    0.51    0.22 
  -2   3  25    0.17    0.17 
  -1   3  25    1.68    0.27 
   0  -3 -25    0.10    0.17 
  -1  -3 -25    1.14    0.27 
  -2  -3 -25    0.37    0.21 
  -3  -3 -25    0.23    0.20 
  -3   4  25    0.07    0.20 
  -2   4  25    0.84    0.23 
   0  -4 -25   -0.08    0.16 
  -1  -4 -25    0.35    0.20 
  -2  -4 -25    0.75    0.24 
  -3  -4 -25    0.00    0.19 
   2  -5 -25    0.20    0.21 
  -1  -5 -25    0.18    0.20 
  -2  -5 -25   -0.06    0.17 
   0  -5  26   -0.03    0.20 
  -2  -4  26    0.05    0.19 
  -1  -4  26    0.12    0.19 
   0  -4  26    0.95    0.27 
   1  -4  26    0.08    0.20 
   2  -4  26    0.18    0.21 
  -2  -3  26    0.35    0.20 
  -1  -3  26    1.16    0.26 
   0  -3  26   -0.01    0.15 
   1  -3  26    0.85    0.24 
   2  -3  26    0.29    0.21 
  -3  -2  26    0.37    0.25 
  -2  -2  26    0.77    0.24 
  -1  -2  26    2.15    0.32 
   0  -2  26    0.24    0.19 
   1  -2  26    2.16    0.33 
  -2   2 -26    0.60    0.24 
   2  -2  26    0.99    0.25 
  -3   2 -26    0.31    0.22 
   3  -2  26    0.51    0.23 
  -3  -1  26    0.09    0.19 
  -2  -1  26    0.78    0.22 
  -1  -1  26    0.66    0.23 
   0  -1  26    0.31    0.18 
   1  -1  26    1.23    0.27 
  -2   1 -26    0.50    0.22 
   2  -1  26    0.64    0.22 
  -3   1 -26    0.26    0.21 
   3  -1  26    0.32    0.22 
  -3   0  26    1.45    0.29 
  -2   0  26    0.51    0.21 
  -1   0  26    0.11    0.17 
   0   0  26    0.76    0.22 
  -1   0 -26    0.18    0.19 
   1   0  26    0.28    0.18 
  -2   0 -26    0.66    0.24 
   2   0  26    0.69    0.22 
  -3   0 -26    1.17    0.31 
  -3   1  26    0.04    0.19 
  -2   1  26    0.62    0.23 
  -1   1  26    0.73    0.22 
   0   1  26    0.29    0.17 
  -1  -1 -26    1.25    0.29 
   1   1  26    1.25    0.25 
  -2  -1 -26    0.50    0.23 
  -3  -1 -26    0.03    0.20 
  -3   2  26    0.16    0.20 
  -2   2  26    0.45    0.20 
  -1   2  26    1.65    0.27 
   0  -2 -26    0.32    0.20 
   0   2  26    0.06    0.16 
  -1  -2 -26    1.76    0.31 
  -2  -2 -26    0.51    0.22 
  -3  -2 -26    0.44    0.23 
  -2   3  26    0.10    0.18 
  -1   3  26    1.19    0.25 
   0  -3 -26    0.22    0.18 
  -1  -3 -26    0.92    0.26 
  -2  -3 -26    0.36    0.21 
  -2   4  26    0.23    0.20 
   0  -4 -26    0.40    0.23 
  -1  -4 -26    0.07    0.19 
  -2  -4 -26    0.20    0.20 
   0  -3  27    1.12    0.28 
  -1  -2  27    0.67    0.24 
   0  -2  27    0.31    0.20 
   1  -2  27    0.66    0.23 
  -1  -1  27    0.42    0.21 
   0  -1  27    0.29    0.19 
   1  -1  27    0.33    0.19 
  -2   1 -27    0.18    0.22 
  -2   0  27    1.87    0.32 
  -1   0  27    0.13    0.18 
   0   0  27    0.02    0.16 
  -1   0 -27    0.08    0.19 
   1   0  27    0.14    0.18 
  -2   0 -27    1.91    0.36 
  -1   1  27    0.38    0.19 
   0   1  27    0.38    0.19 
  -1  -1 -27    0.28    0.22 
  -2  -1 -27    0.17    0.21 
  -1   2  27    0.67    0.21 
   0   2  27    0.01    0.17 
  -1  -2 -27    0.76    0.26 
   0  -3 -27    1.99    0.34 
   0   0   0    0.00    0.00 
;
_shelx_hkl_checksum              41325
loop_
_space_group_symop_operation_xyz
'x, y, z'
'-x+1/2, -y, z+1/2'
'-x, y+1/2, -z+1/2'
'x+1/2, -y+1/2, -z'
loop_
_atom_site_label
_atom_site_type_symbol
_atom_site_fract_x
_atom_site_fract_y
_atom_site_fract_z
_atom_site_U_iso_or_equiv
_atom_site_adp_type
_atom_site_occupancy
_atom_site_site_symmetry_order
_atom_site_calc_flag
_atom_site_refinement_flags_posn
_atom_site_refinement_flags_adp
S1 S 0.12481(10) 0.37324(7) 0.01993(3) 0.0474(2) Uani 1 1 d . .
N1 N 0.3258(4) 0.4152(2) 0.00477(11) 0.0441(6) Uani 1 1 d . .
N2 N 0.0898(5) 0.2315(3) 0.29713(15) 0.0753(9) Uani 1 1 d . .
O1 O 0.0089(3) 0.4716(2) 0.01190(12) 0.0677(7) Uani 1 1 d . .
O2 O 0.0986(4) 0.2687(2) -0.01785(10) 0.0688(7) Uani 1 1 d . .
O3 O 0.1783(6) 0.1478(3) 0.31430(14) 0.1072(11) Uani 1 1 d . .
O4 O -0.0080(6) 0.2884(4) 0.33203(15) 0.1160(13) Uani 1 1 d . .
C1 C 0.6474(6) 0.6742(3) 0.0074(2) 0.0951(15) Uani 1 1 d . .
H1A H 0.5593 0.7362 0.0048 0.143 Uiso 1 1 calc R U
H1B H 0.7444 0.6908 -0.0219 0.143 Uiso 1 1 calc R U
H1C H 0.6932 0.6696 0.0506 0.143 Uiso 1 1 calc R U
C2 C 0.5619(5) 0.5588(3) -0.01043(19) 0.0633(9) Uani 1 1 d . .
H2A H 0.6526 0.4970 -0.0085 0.076 Uiso 1 1 calc R U
H2B H 0.5199 0.5635 -0.0547 0.076 Uiso 1 1 calc R U
C3 C 0.4049(4) 0.5237(2) 0.03253(14) 0.0446(7) Uani 1 1 d . .
H3A H 0.3144 0.5869 0.0311 0.054 Uiso 1 1 calc R U
C4 C 0.4572(4) 0.5032(3) 0.10131(15) 0.0502(7) Uani 1 1 d . .
H4 H 0.5509 0.4504 0.1092 0.060 Uiso 1 1 calc R U
C5 C 0.3815(5) 0.5537(3) 0.15151(15) 0.0513(7) Uani 1 1 d . .
H5 H 0.3007 0.6145 0.1427 0.062 Uiso 1 1 calc R U
C6 C 0.4095(4) 0.5256(3) 0.21995(15) 0.0534(8) Uani 1 1 d . .
C7 C 0.5076(6) 0.4283(3) 0.24094(17) 0.0688(10) Uani 1 1 d . .
H7 H 0.5646 0.3802 0.2107 0.083 Uiso 1 1 calc R U
C8 C 0.5223(7) 0.4015(4) 0.30561(18) 0.0848(13) Uani 1 1 d . .
H8 H 0.5882 0.3356 0.3186 0.102 Uiso 1 1 calc R U
C9 C 0.4398(8) 0.4717(4) 0.35075(19) 0.0901(14) Uani 1 1 d . .
H9 H 0.4490 0.4537 0.3944 0.108 Uiso 1 1 calc R U
C10 C 0.3439(7) 0.5687(4) 0.3310(2) 0.0888(13) Uani 1 1 d . .
H10 H 0.2886 0.6169 0.3615 0.107 Uiso 1 1 calc R U
C11 C 0.3287(5) 0.5953(3) 0.26659(17) 0.0697(10) Uani 1 1 d . .
H11 H 0.2627 0.6614 0.2541 0.084 Uiso 1 1 calc R U
C12 C 0.1083(4) 0.3284(2) 0.10204(14) 0.0457(7) Uani 1 1 d . .
C13 C 0.2039(5) 0.2308(3) 0.12263(15) 0.0545(8) Uani 1 1 d . .
H13 H 0.2719 0.1870 0.0935 0.065 Uiso 1 1 calc R U
C14 C 0.1979(5) 0.1987(3) 0.18705(16) 0.0598(9) Uani 1 1 d . .
H14 H 0.2616 0.1334 0.2021 0.072 Uiso 1 1 calc R U
C15 C 0.0955(5) 0.2660(3) 0.22792(15) 0.0550(8) Uani 1 1 d . .
C16 C -0.0007(5) 0.3628(3) 0.20813(15) 0.0597(8) Uani 1 1 d . .
H16 H -0.0685 0.4065 0.2374 0.072 Uiso 1 1 calc R U
C17 C 0.0054(5) 0.3940(3) 0.14367(16) 0.0554(8) Uani 1 1 d . .
H17 H -0.0596 0.4588 0.1287 0.066 Uiso 1 1 calc R U
H1 H 0.393(5) 0.360(3) 0.0001(14) 0.048(9) Uiso 1 1 d . .
loop_
_atom_site_aniso_label
_atom_site_aniso_U_11
_atom_site_aniso_U_22
_atom_site_aniso_U_33
_atom_site_aniso_U_23
_atom_site_aniso_U_13
_atom_site_aniso_U_12
S1 0.0427(4) 0.0543(4) 0.0451(4) 0.0049(3) -0.0079(3) -0.0080(4)
N1 0.0470(15) 0.0400(12) 0.0454(13) -0.0007(10) -0.0006(11) 0.0005(11)
N2 0.070(2) 0.099(3) 0.0564(17) 0.0126(18) 0.0047(16) -0.023(2)
O1 0.0462(13) 0.0832(15) 0.0738(15) 0.0259(13) -0.0081(12) 0.0090(12)
O2 0.0789(18) 0.0735(14) 0.0541(13) -0.0041(12) -0.0096(13) -0.0321(14)
O3 0.125(3) 0.120(2) 0.0761(18) 0.0448(19) -0.0005(18) 0.004(2)
O4 0.124(3) 0.163(3) 0.0610(17) 0.006(2) 0.023(2) 0.010(3)
C1 0.069(3) 0.069(2) 0.147(4) 0.016(3) 0.004(3) -0.023(2)
C2 0.0536(19) 0.0593(18) 0.077(2) 0.0089(18) 0.0018(17) -0.0099(16)
C3 0.0428(16) 0.0372(14) 0.0539(16) 0.0017(11) -0.0046(13) 0.0002(12)
C4 0.0418(16) 0.0475(16) 0.0613(18) -0.0073(15) -0.0084(15) 0.0025(14)
C5 0.0471(17) 0.0456(15) 0.0613(17) -0.0084(13) -0.0055(16) -0.0003(15)
C6 0.0475(19) 0.0575(18) 0.0554(17) -0.0123(14) -0.0046(14) -0.0068(15)
C7 0.086(3) 0.063(2) 0.058(2) -0.0100(16) -0.002(2) 0.005(2)
C8 0.118(4) 0.070(2) 0.067(2) 0.0004(19) -0.012(2) 0.008(2)
C9 0.123(4) 0.096(3) 0.051(2) -0.002(2) 0.002(2) -0.011(3)
C10 0.102(4) 0.104(3) 0.061(2) -0.023(2) 0.010(2) 0.001(3)
C11 0.066(2) 0.076(2) 0.067(2) -0.0161(18) 0.0023(18) 0.0068(19)
C12 0.0406(16) 0.0470(15) 0.0496(15) 0.0043(12) 0.0000(14) -0.0078(14)
C13 0.0549(19) 0.0540(18) 0.0546(17) 0.0054(14) 0.0098(15) 0.0048(16)
C14 0.058(2) 0.059(2) 0.063(2) 0.0159(16) -0.0002(17) 0.0035(17)
C15 0.049(2) 0.0647(19) 0.0508(16) 0.0096(15) 0.0044(14) -0.0164(17)
C16 0.058(2) 0.063(2) 0.0579(18) -0.0041(17) 0.0173(15) -0.0045(19)
C17 0.0482(18) 0.0517(18) 0.0662(19) 0.0051(15) 0.0062(15) 0.0023(15)
loop_
_atom_type_symbol
_atom_type_description
_atom_type_scat_dispersion_real
_atom_type_scat_dispersion_imag
_atom_type_scat_source
C C 0.0033 0.0016 'International Tables Vol C Tables 4.2.6.8 and 6.1.1.4'
H H 0.0000 0.0000 'International Tables Vol C Tables 4.2.6.8 and 6.1.1.4'
N N 0.0061 0.0033 'International Tables Vol C Tables 4.2.6.8 and 6.1.1.4'
O O 0.0106 0.0060 'International Tables Vol C Tables 4.2.6.8 and 6.1.1.4'
S S 0.1246 0.1234 'International Tables Vol C Tables 4.2.6.8 and 6.1.1.4'
loop_
_geom_angle_atom_site_label_1
_geom_angle_atom_site_label_2
_geom_angle_atom_site_label_3
_geom_angle
O1 S1 O2 120.08(15)
O1 S1 N1 108.20(14)
O2 S1 N1 105.34(15)
O1 S1 C12 107.07(14)
O2 S1 C12 106.22(13)
N1 S1 C12 109.68(14)
C3 N1 S1 122.8(2)
C3 N1 H1 116(2)
S1 N1 H1 112(2)
O3 N2 O4 124.6(4)
O3 N2 C15 118.4(4)
O4 N2 C15 117.0(4)
C2 C1 H1A 109.5
C2 C1 H1B 109.5
H1A C1 H1B 109.5
C2 C1 H1C 109.5
H1A C1 H1C 109.5
H1B C1 H1C 109.5
C1 C2 C3 114.1(3)
C1 C2 H2A 108.7
C3 C2 H2A 108.7
C1 C2 H2B 108.7
C3 C2 H2B 108.7
H2A C2 H2B 107.6
N1 C3 C4 110.2(2)
N1 C3 C2 107.1(2)
C4 C3 C2 113.5(3)
N1 C3 H3A 108.6
C4 C3 H3A 108.6
C2 C3 H3A 108.6
C5 C4 C3 125.2(3)
C5 C4 H4 117.4
C3 C4 H4 117.4
C4 C5 C6 127.7(3)
C4 C5 H5 116.2
C6 C5 H5 116.2
C11 C6 C7 117.3(3)
C11 C6 C5 119.4(3)
C7 C6 C5 123.2(3)
C8 C7 C6 121.3(4)
C8 C7 H7 119.3
C6 C7 H7 119.3
C9 C8 C7 120.1(4)
C9 C8 H8 120.0
C7 C8 H8 120.0
C10 C9 C8 119.5(4)
C10 C9 H9 120.3
C8 C9 H9 120.3
C11 C10 C9 120.6(4)
C11 C10 H10 119.7
C9 C10 H10 119.7
C10 C11 C6 121.3(4)
C10 C11 H11 119.4
C6 C11 H11 119.4
C17 C12 C13 121.6(3)
C17 C12 S1 119.1(2)
C13 C12 S1 119.2(2)
C12 C13 C14 119.4(3)
C12 C13 H13 120.3
C14 C13 H13 120.3
C15 C14 C13 118.0(3)
C15 C14 H14 121.0
C13 C14 H14 121.0
C16 C15 C14 123.2(3)
C16 C15 N2 118.9(3)
C14 C15 N2 117.8(3)
C15 C16 C17 118.4(3)
C15 C16 H16 120.8
C17 C16 H16 120.8
C12 C17 C16 119.3(3)
C12 C17 H17 120.4
C16 C17 H17 120.4
loop_
_geom_bond_atom_site_label_1
_geom_bond_atom_site_label_2
_geom_bond_distance
S1 O1 1.415(2)
S1 O2 1.430(2)
S1 N1 1.597(3)
S1 C12 1.779(3)
N1 C3 1.476(4)
N1 H1 0.80(3)
N2 O3 1.205(5)
N2 O4 1.209(5)
N2 C15 1.487(4)
C1 C2 1.496(5)
C1 H1A 0.9600
C1 H1B 0.9600
C1 H1C 0.9600
C2 C3 1.519(5)
C2 H2A 0.9700
C2 H2B 0.9700
C3 C4 1.495(4)
C3 H3A 0.9800
C4 C5 1.313(4)
C4 H4 0.9300
C5 C6 1.468(4)
C5 H5 0.9300
C6 C11 1.383(5)
C6 C7 1.389(5)
C7 C8 1.378(5)
C7 H7 0.9300
C8 C9 1.371(6)
C8 H8 0.9300
C9 C10 1.368(6)
C9 H9 0.9300
C10 C11 1.373(6)
C10 H10 0.9300
C11 H11 0.9300
C12 C17 1.369(4)
C12 C13 1.379(4)
C13 C14 1.384(5)
C13 H13 0.9300
C14 C15 1.369(5)
C14 H14 0.9300
C15 C16 1.368(5)
C16 C17 1.382(4)
C16 H16 0.9300
C17 H17 0.9300
loop_
_geom_torsion_atom_site_label_1
_geom_torsion_atom_site_label_2
_geom_torsion_atom_site_label_3
_geom_torsion_atom_site_label_4
_geom_torsion
O1 S1 N1 C3 48.1(2)
O2 S1 N1 C3 177.7(2)
C12 S1 N1 C3 -68.4(3)
S1 N1 C3 C4 77.0(3)
S1 N1 C3 C2 -159.1(2)
C1 C2 C3 N1 174.6(3)
C1 C2 C3 C4 -63.5(4)
N1 C3 C4 C5 -113.0(3)
C2 C3 C4 C5 126.9(3)
C3 C4 C5 C6 171.0(3)
C4 C5 C6 C11 174.7(3)
C4 C5 C6 C7 -8.4(5)
C11 C6 C7 C8 0.7(6)
C5 C6 C7 C8 -176.4(4)
C6 C7 C8 C9 -0.3(7)
C7 C8 C9 C10 -0.3(8)
C8 C9 C10 C11 0.5(8)
C9 C10 C11 C6 -0.1(7)
C7 C6 C11 C10 -0.4(6)
C5 C6 C11 C10 176.7(4)
O1 S1 C12 C17 -4.2(3)
O2 S1 C12 C17 -133.7(3)
N1 S1 C12 C17 113.0(3)
O1 S1 C12 C13 177.8(2)
O2 S1 C12 C13 48.4(3)
N1 S1 C12 C13 -65.0(3)
C17 C12 C13 C14 -0.7(5)
S1 C12 C13 C14 177.1(3)
C12 C13 C14 C15 0.2(5)
C13 C14 C15 C16 0.1(5)
C13 C14 C15 N2 -179.8(3)
O3 N2 C15 C16 -178.3(4)
O4 N2 C15 C16 3.6(5)
O3 N2 C15 C14 1.6(5)
O4 N2 C15 C14 -176.6(4)
C14 C15 C16 C17 0.2(5)
N2 C15 C16 C17 -179.9(3)
C13 C12 C17 C16 1.0(5)
S1 C12 C17 C16 -176.9(3)
C15 C16 C17 C12 -0.7(5)
