#------------------------------------------------------------------------------
#$Date: 2017-10-04 19:59:25 +0300 (Wed, 04 Oct 2017) $
#$Revision: 201659 $
#$URL: file:///home/coder/svn-repositories/cod/cif/1/54/75/1547525.cif $
#------------------------------------------------------------------------------
#
# This file is available in the Crystallography Open Database (COD),
# http://www.crystallography.net/
#
# All data on this site have been placed in the public domain by the
# contributors.
#
data_1547525
loop_
_publ_author_name
'Buckley, Laura E. R.'
'Coe, Benjamin J.'
'Rusanova, Daniela'
'Joshi, Vishwas D.'
'S\'anchez, Sergio'
'Jir\'asek, Michael'
'V\'avra, Jan'
'Khobragade, Dushant'
'Severa, Luk\'a\<s'
'C\'isa\<rov\'a, Ivana'
'\<Saman, David'
'Pohl, Radek'
'Clays, Koen'
'Depotter, Griet'
'Brunschwig, Bruce S.'
'Tepl\'y, Filip'
_publ_section_title
;
 Tunable Chiral Second-Order Nonlinear Optical Chromophores Based on
 Helquat Dications.
;
_journal_issue                   31
_journal_name_full               'The journal of physical chemistry. A'
_journal_page_first              5842
_journal_page_last               5855
_journal_paper_doi               10.1021/acs.jpca.7b06057
_journal_volume                  121
_journal_year                    2017
_chemical_compound_source        'synthesized by the authors'
_chemical_formula_moiety         'C37 H34 N2 O, 2(C F3 O3 S)'
_chemical_formula_sum            'C39 H34 F6 N2 O7 S2'
_chemical_formula_weight         820.80
_space_group_crystal_system      triclinic
_space_group_IT_number           2
_space_group_name_Hall           '-P 1'
_space_group_name_H-M_alt        'P -1'
_symmetry_space_group_name_Hall  '-P 1'
_symmetry_space_group_name_H-M   'P -1'
_atom_sites_solution_hydrogens   geom
_audit_creation_method           SHELXL-2014/7
_cell_angle_alpha                89.660(5)
_cell_angle_beta                 89.057(6)
_cell_angle_gamma                76.492(6)
_cell_formula_units_Z            2
_cell_length_a                   8.1458(13)
_cell_length_b                   14.503(3)
_cell_length_c                   15.696(3)
_cell_measurement_reflns_used    1444
_cell_measurement_temperature    150(2)
_cell_measurement_theta_max      22.7597
_cell_measurement_theta_min      2.8883
_cell_volume                     1802.8(6)
_computing_cell_refinement       'SAINT V8.37A (Bruker AXS Inc., 2015)'
_computing_data_collection       'Bruker Instrument Service v2010.11.0.0'
_computing_data_reduction        'SAINT V8.37A (Bruker AXS Inc., 2015)'
_computing_structure_refinement  'SHELXL-2014/7 (Sheldrick, 2014)'
_computing_structure_solution    'XT, VERSION 2014/5'
_diffrn_ambient_temperature      150(2)
_diffrn_measured_fraction_theta_full 0.999
_diffrn_measured_fraction_theta_max 0.999
_diffrn_measurement_device_type  'Bruker APEX-II CCD'
_diffrn_measurement_method       '\f and \w scans'
_diffrn_radiation_type           MoK\a
_diffrn_radiation_wavelength     0.71073
_diffrn_reflns_av_R_equivalents  0.0722
_diffrn_reflns_av_unetI/netI     0.0873
_diffrn_reflns_Laue_measured_fraction_full 0.999
_diffrn_reflns_Laue_measured_fraction_max 0.999
_diffrn_reflns_limit_h_max       9
_diffrn_reflns_limit_h_min       -9
_diffrn_reflns_limit_k_max       17
_diffrn_reflns_limit_k_min       -17
_diffrn_reflns_limit_l_max       18
_diffrn_reflns_limit_l_min       -18
_diffrn_reflns_number            13233
_diffrn_reflns_point_group_measured_fraction_full 0.999
_diffrn_reflns_point_group_measured_fraction_max 0.999
_diffrn_reflns_theta_full        25.016
_diffrn_reflns_theta_max         25.016
_diffrn_reflns_theta_min         2.572
_diffrn_source                   'fine-focus sealed tube'
_exptl_absorpt_coefficient_mu    0.234
_exptl_absorpt_correction_T_max  0.97
_exptl_absorpt_correction_T_min  0.93
_exptl_absorpt_correction_type   multi-scan
_exptl_absorpt_process_details
;
SADABS-2016/2 - Bruker AXS area detector scaling and absorption correction
;
_exptl_crystal_density_diffrn    1.512
_exptl_crystal_description       plate
_exptl_crystal_F_000             848
_exptl_crystal_size_max          0.300
_exptl_crystal_size_mid          0.240
_exptl_crystal_size_min          0.120
_refine_diff_density_max         0.508
_refine_diff_density_min         -0.355
_refine_diff_density_rms         0.086
_refine_ls_extinction_method     none
_refine_ls_goodness_of_fit_ref   1.033
_refine_ls_hydrogen_treatment    constr
_refine_ls_matrix_type           full
_refine_ls_number_parameters     508
_refine_ls_number_reflns         6369
_refine_ls_number_restraints     12
_refine_ls_restrained_S_all      1.034
_refine_ls_R_factor_all          0.1099
_refine_ls_R_factor_gt           0.0726
_refine_ls_shift/su_max          0.003
_refine_ls_shift/su_mean         0.000
_refine_ls_structure_factor_coef Fsqd
_refine_ls_weighting_details
'w=1/[\s^2^(Fo^2^)+(0.0986P)^2^+1.3737P] where P=(Fo^2^+2Fc^2^)/3'
_refine_ls_weighting_scheme      calc
_refine_ls_wR_factor_gt          0.1798
_refine_ls_wR_factor_ref         0.2063
_reflns_Friedel_coverage         0.000
_reflns_number_gt                4063
_reflns_number_total             6369
_reflns_threshold_expression     'I > 2\s(I)'
_cod_data_source_file            jp7b06057_si_003.cif
_cod_data_source_block           vdj_201_teply_uochb
_cod_original_cell_volume        1802.8(5)
_cod_database_code               1547525
_shelx_shelxl_version_number     2014/7
_shelx_space_group_comment
;
The symmetry employed for this shelxl refinement is uniquely defined
by the following loop, which should always be used as a source of
symmetry information in preference to the above space-group names.
They are only intended as comments.
;
_shelx_estimated_absorpt_t_min   0.933
_shelx_estimated_absorpt_t_max   0.972
_shelx_res_file
;

    vdj_201_teply_uochb.res created by SHELXL-2014/7


TITL vdj_201_teply_uochb_0m in P-1
CELL 0.71073 8.1458 14.5032 15.6962 89.660 89.057 76.492
ZERR 2.00 0.0013 0.0026 0.0027 0.005 0.006 0.006
LATT 1
SFAC  C   H   N   O   F   S
UNIT   78 68 4 14 12   4
L.S. 4
ACTA
BOND $H
OMIT 0 0 1
OMIT 0 -1 0
OMIT 0 1 0
OMIT 0 -1 1
OMIT 0 1 1
SIZE 0.3 0.24 0.12
TEMP -123.15
ISOR 0.003 C21 C22
FMAP 2
PLAN -20
WGHT    0.098600    1.373700
FVAR       0.53504
C1    1    1.122030    0.604945    0.858989    11.00000    0.02004    0.02696 =
         0.02305    0.00159   -0.00487   -0.00792
AFIX  43
H1    2    1.112188    0.623457    0.800788    11.00000   -1.20000
AFIX   0
C2    1    1.220828    0.520098    0.880325    11.00000    0.02403    0.02098 =
         0.02905   -0.00188   -0.00149   -0.00261
AFIX  43
H2    2    1.277764    0.479234    0.836639    11.00000   -1.20000
AFIX   0
C3    1    1.241689    0.490498    0.966276    11.00000    0.02778    0.02271 =
         0.03598    0.00591   -0.00698   -0.00339
AFIX  43
H3    2    1.314766    0.431372    0.980409    11.00000   -1.20000
AFIX   0
C4    1    1.156582    0.547253    1.027747    11.00000    0.02976    0.02623 =
         0.02467    0.00797   -0.00402   -0.00452
AFIX  43
H4    2    1.167814    0.526435    1.085311    11.00000   -1.20000
AFIX   0
C5    1    1.051728    0.636280    1.009351    11.00000    0.02305    0.01892 =
         0.02350   -0.00076   -0.00235   -0.00753
C6    1    0.966199    0.697138    1.072651    11.00000    0.02798    0.03290 =
         0.02143    0.00119   -0.00450   -0.01071
AFIX  43
H6    2    0.965849    0.675646    1.129931    11.00000   -1.20000
AFIX   0
C7    1    0.885011    0.785406    1.052754    11.00000    0.03185    0.03221 =
         0.02089   -0.00605   -0.00155   -0.00814
AFIX  43
H7    2    0.834389    0.827594    1.096909    11.00000   -1.20000
AFIX   0
N8    3    0.873253    0.816112    0.970973    11.00000    0.01931    0.02010 =
         0.02424    0.00048   -0.00227   -0.00240
C9    1    0.803531    0.918247    0.952874    11.00000    0.04156    0.02731 =
         0.02912   -0.00162   -0.00109   -0.00165
AFIX  23
H9A   2    0.795266    0.955508    1.006064    11.00000   -1.20000
H9B   2    0.689163    0.927819    0.928835    11.00000   -1.20000
AFIX   0
C10   1    0.920414    0.950164    0.889940    11.00000    0.04464    0.01507 =
         0.04426    0.00618   -0.01070   -0.00569
AFIX  23
H10A  2    0.880159    1.018908    0.878641    11.00000   -1.20000
H10B  2    1.035366    0.938877    0.913556    11.00000   -1.20000
AFIX   0
C11   1    0.924639    0.895575    0.808647    11.00000    0.02186    0.01907 =
         0.02976    0.00681    0.00015   -0.00442
C12   1    0.931494    0.934802    0.727930    11.00000    0.02432    0.02064 =
         0.05144    0.01139    0.00473   -0.00344
C13   1    0.916417    0.881619    0.655458    11.00000    0.03086    0.03203 =
         0.03097    0.01154    0.00258    0.00219
C14   1    0.888121    0.790318    0.664664    11.00000    0.02502    0.03084 =
         0.02040    0.00548   -0.00040   -0.00176
C15   1    0.877198    0.729144    0.588148    11.00000    0.03383    0.04526 =
         0.02221    0.01549    0.00047   -0.01129
AFIX  23
H15A  2    0.761456    0.745884    0.565258    11.00000   -1.20000
H15B  2    0.956541    0.740076    0.542836    11.00000   -1.20000
AFIX   0
N17   3    0.799600    0.612697    0.682157    11.00000    0.02364    0.03716 =
         0.01557   -0.00141   -0.00385   -0.00707
C16   1    0.920798    0.627554    0.614630    11.00000    0.02892    0.04511 =
         0.01967   -0.00237    0.00390   -0.01358
AFIX  23
H16A  2    0.914883    0.586607    0.565074    11.00000   -1.20000
H16B  2    1.037287    0.610497    0.636555    11.00000   -1.20000
AFIX   0
C18   1    0.705430    0.546290    0.676505    11.00000    0.02401    0.02507 =
         0.02748    0.00056   -0.00585   -0.00653
C19   1    0.605931    0.533587    0.745629    11.00000    0.02508    0.02769 =
         0.03407    0.00644   -0.01034   -0.01002
AFIX  43
H19   2    0.543023    0.486135    0.743802    11.00000   -1.20000
AFIX   0
C20   1    0.597111    0.589013    0.817073    11.00000    0.02076    0.04162 =
         0.02232    0.00389   -0.00423   -0.00825
AFIX  43
H20   2    0.530159    0.578950    0.864805    11.00000   -1.20000
AFIX   0
C21   1    0.686071    0.659642    0.819388    11.00000    0.02138    0.02005 =
         0.02516    0.00452   -0.00917   -0.00316
AFIX  43
H21   2    0.675912    0.700083    0.867534    11.00000   -1.20000
AFIX   0
C22   1    0.789099    0.670899    0.751668    11.00000    0.01328    0.02096 =
         0.02085    0.00270   -0.00419    0.00029
C23   1    0.872539    0.751502    0.745789    11.00000    0.01586    0.02161 =
         0.02489    0.00708   -0.00548   -0.00150
C24   1    0.905693    0.801269    0.818791    11.00000    0.01490    0.01839 =
         0.02668    0.00481   -0.00212    0.00024
C25   1    0.933922    0.758953    0.904575    11.00000    0.01395    0.02212 =
         0.02367    0.00100   -0.00306   -0.00995
C26   1    1.033208    0.666485    0.921966    11.00000    0.01614    0.01558 =
         0.02445    0.00230   -0.00268   -0.00441
C27   1    0.963470    1.033842    0.717354    11.00000    0.05281    0.03024 =
         0.06076    0.01156    0.00900   -0.01112
AFIX 137
H27A  2    0.856052    1.079712    0.708100    11.00000   -1.50000
H27B  2    1.039088    1.034536    0.668264    11.00000   -1.50000
H27C  2    1.015803    1.050874    0.768905    11.00000   -1.50000
AFIX   0
C28   1    0.923132    0.923250    0.566474    11.00000    0.06449    0.04646 =
         0.04208    0.01888    0.00752   -0.00671
AFIX 137
H28A  2    1.040157    0.908466    0.545266    11.00000   -1.50000
H28B  2    0.880057    0.992197    0.568759    11.00000   -1.50000
H28C  2    0.853503    0.895865    0.528160    11.00000   -1.50000
AFIX   0
C29   1    0.705523    0.495807    0.595303    11.00000    0.03706    0.04369 =
         0.03030   -0.00392   -0.00559   -0.01742
AFIX  43
H29   2    0.732935    0.525012    0.544377    11.00000   -1.20000
AFIX   0
C30   1    0.669341    0.411941    0.589925    11.00000    0.05132    0.05971 =
         0.03938   -0.01171    0.00335   -0.02863
AFIX  43
H30   2    0.644409    0.382138    0.641008    11.00000   -1.20000
AFIX   0
C31   1    0.665809    0.363452    0.510506    11.00000    0.03943    0.05639 =
         0.04890   -0.01555   -0.00144   -0.01067
AFIX  43
H31   2    0.688915    0.393692    0.459327    11.00000   -1.20000
AFIX   0
C32   1    0.631260    0.277092    0.505193    11.00000    0.05371    0.04869 =
         0.07340   -0.01732   -0.00415   -0.01209
AFIX  43
H32   2    0.610102    0.247508    0.557065    11.00000   -1.20000
AFIX   0
C33   1    0.623674    0.225327    0.426425    11.00000    0.03616    0.05339 =
         0.08793   -0.03288   -0.00293   -0.01019
C34   1    0.656976    0.258075    0.346833    11.00000    0.04808    0.06248 =
         0.07330   -0.02441   -0.02696   -0.00087
AFIX  43
H34   2    0.684725    0.318037    0.342571    11.00000   -1.20000
AFIX   0
C35   1    0.651589    0.205999    0.270868    11.00000    0.05058    0.06416 =
         0.08329   -0.03101   -0.00824    0.01082
AFIX  43
H35   2    0.676284    0.229325    0.216626    11.00000   -1.20000
AFIX   0
C36   1    0.609473    0.121487    0.279790    11.00000    0.06497    0.06553 =
         0.09558   -0.01908   -0.02917    0.01284
C37   1    0.570076    0.084000    0.358036    11.00000    0.04611    0.04577 =
         0.12684   -0.02479   -0.01460   -0.00199
AFIX  43
H37   2    0.537313    0.025333    0.360945    11.00000   -1.20000
AFIX   0
C38   1    0.581086    0.137737    0.433971    11.00000    0.05969    0.05691 =
         0.11075   -0.03176   -0.02316   -0.00244
AFIX  43
H38   2    0.559612    0.113805    0.488461    11.00000   -1.20000
AFIX   0
C39   1    0.551750   -0.007617    0.205184    11.00000    0.08615    0.05850 =
         0.20804   -0.01819   -0.05819   -0.00365
AFIX 137
H39A  2    0.624921   -0.051820    0.243696    11.00000   -1.50000
H39B  2    0.556183   -0.036179    0.148516    11.00000   -1.50000
H39C  2    0.435384    0.006159    0.227296    11.00000   -1.50000
AFIX   0
C40   1    0.829452    0.741590    0.335955    11.00000    0.06510    0.03914 =
         0.02670   -0.00327   -0.00754   -0.01431
C41   1    0.414014    0.750397    0.128105    11.00000    0.04339    0.04861 =
         0.03411   -0.01258    0.00530   -0.00861
O1    4    0.604836    0.073173    0.199768    11.00000    0.09104    0.09438 =
         0.09722   -0.03205   -0.01083   -0.00664
S1    6    0.824517    0.617402    0.334555    11.00000    0.05642    0.03716 =
         0.02414   -0.00008   -0.00513   -0.01397
S2    6    0.389850    0.800463    0.021900    11.00000    0.02679    0.03243 =
         0.03657    0.00334   -0.00111   -0.00424
O11   4    0.959353    0.577700    0.274665    11.00000    0.06062    0.04556 =
         0.03568   -0.00246   -0.00932   -0.00266
O12   4    0.659743    0.617239    0.306545    11.00000    0.05182    0.06976 =
         0.04854   -0.00472   -0.00158   -0.02469
O13   4    0.857895    0.589776    0.421281    11.00000    0.09840    0.04648 =
         0.02926    0.00892   -0.01195   -0.02241
O21   4    0.447863    0.720510   -0.028392    11.00000    0.18831    0.06145 =
         0.03738   -0.00736    0.02820    0.04939
O22   4    0.213840    0.840524    0.016366    11.00000    0.03669    0.06553 =
         0.07582    0.01758   -0.02064   -0.00676
O23   4    0.484644    0.870574    0.022406    11.00000    0.07005    0.10571 =
         0.10753    0.05497   -0.04057   -0.06383
F11   5    0.972383    0.754570    0.367246    11.00000    0.10198    0.07036 =
         0.06591   -0.00090   -0.02042   -0.04728
F12   5    0.813130    0.780178    0.258544    11.00000    0.10102    0.04519 =
         0.03437    0.00686   -0.00359   -0.01690
F13   5    0.706369    0.792151    0.384504    11.00000    0.11652    0.04876 =
         0.05014   -0.01175    0.01343    0.00630
F21   5    0.343548    0.682528    0.141222    11.00000    0.11203    0.13311 =
         0.07809    0.06371   -0.04075   -0.08850
F22   5    0.372654    0.815387    0.186429    11.00000    0.19157    0.11460 =
         0.04422   -0.02437   -0.00341    0.01947
F23   5    0.578505    0.714684    0.142991    11.00000    0.05715    0.11009 =
         0.08563    0.03817   -0.03087   -0.01344
HKLF 4 1 1 0 0 0 1 0 0 0 1

REM  vdj_201_teply_uochb_0m in P-1
REM R1 =  0.0726 for    4063 Fo > 4sig(Fo)  and  0.1099 for all    6369 data
REM    508 parameters refined using     12 restraints

END

WGHT      0.0986      1.3749

REM Highest difference peak  0.508,  deepest hole -0.355,  1-sigma level  0.086
Q1    1   0.2549  0.7809  0.1608  11.00000  0.05    0.51
Q2    1   0.6133  0.0031  0.2643  11.00000  0.05    0.50
Q3    1   0.5292  0.7538 -0.0020  11.00000  0.05    0.41
Q4    1   0.2945  0.7955 -0.0432  11.00000  0.05    0.32
Q5    1   0.5554  0.0533  0.4214  11.00000  0.05    0.32
Q6    1   0.7907  0.8167  0.8261  11.00000  0.05    0.31
Q7    1   0.9451  0.8779  0.4827  11.00000  0.05    0.30
Q8    1   0.6158  0.0016  0.4189  11.00000  0.05    0.29
Q9    1   0.8124  0.5568  0.2874  11.00000  0.05    0.29
Q10   1   0.3835  0.7852 -0.0562  11.00000  0.05    0.29
Q11   1   0.5025  0.7631  0.2014  11.00000  0.05    0.28
Q12   1   1.0232  0.9795  0.5602  11.00000  0.05    0.27
Q13   1   0.7802  0.6343  0.3972  11.00000  0.05    0.27
Q14   1   0.3866  0.9419 -0.0146  11.00000  0.05    0.27
Q15   1   0.7663  0.9244  0.9963  11.00000  0.05    0.27
Q16   1   1.1040  0.5602  0.8626  11.00000  0.05    0.27
Q17   1   1.1493  0.9809  0.8623  11.00000  0.05    0.27
Q18   1   0.5218  0.4606  0.5630  11.00000  0.05    0.26
Q19   1   0.7354  0.6603  0.7812  11.00000  0.05    0.26
Q20   1   0.6061  0.4680  0.4333  11.00000  0.05    0.26
;
_shelx_res_checksum              89611
_shelx_hkl_file
;
  -6   0   0   49.60    6.50
  -6   0   0   58.19    6.50
  -7   0   0   55.99    7.10
  -7   0   0   56.39    7.00
  -8   0   0    6.80    6.80
  -8   0   0   16.20    7.00
  -9   0   0   10.00    8.30
  -8   1   0    8.60    7.40
  -8   1   0    6.90    7.00
  -7   1   0    4.20    6.30
  -7   1   0    4.20    6.40
  -6   1   0  732.33   24.70
  -6   1   0  722.63   24.90
  -5   1   0    9.00    3.90
  -5   1   0    7.20    3.90
  -4   1   0    8.30    2.70
  -1   1   0  223.88    7.90
   0  -1   0    1.40    1.10
   0   1   0    0.00    1.00
  -6  -1   0    2.10    4.30
  -6  -1   0    2.90    4.10
  -7  -1   0   94.79    9.40
  -7  -1   0  107.49    9.20
  -8  -1   0   34.40    7.20
  -8  -1   0   26.30    7.60
  -9  -1   0   39.40    8.50
  -7   2   0    8.90    6.80
  -6   2   0  196.08   12.10
  -5   2   0   10.60    5.00
  -5   2   0    6.70    5.30
  -4   2   0 3068.79   91.09
  -4   2   0 3088.89   91.19
  -3   2   0   70.99    6.80
  -2   2   0 1312.47   40.20
  -1   2   0  406.86   15.00
   0  -2   0 1755.82   58.39
   0   2   0 2143.49   58.59
  -1  -2   0 1110.39   37.80
   1   2   0 1352.66   37.90
  -2  -2   0 3007.50   88.29
  -3  -2   0  117.29    7.10
  -3  -2   0  129.19    7.30
  -4  -2   0  102.89    6.70
  -4  -2   0  114.99    6.70
  -5  -2   0   38.90    4.70
  -5  -2   0   36.00    4.70
  -6  -2   0  105.59    8.60
  -6  -2   0  111.39    8.60
  -7  -2   0   10.20    6.10
  -7  -2   0   -3.40    5.70
  -8  -2   0  -13.20    6.40
  -8  -2   0   -2.20    7.00
  -9  -2   0   19.00    8.50
  -7   3   0   -4.10    6.80
  -6   3   0  620.04   24.70
  -5   3   0    3.90    5.80
  -4   3   0  124.79   10.00
  -3   3   0  103.29    9.50
   2  -3   0    2.20    4.00
  -2   3   0    0.60    5.90
  -1   3   0 1272.27   40.80
   0  -3   0  107.79    9.80
   0   3   0  103.79    8.90
  -1  -3   0   32.00    6.10
   1   3   0   38.60    6.70
  -2  -3   0 2363.16   71.99
   2   3   0 2387.96   71.09
  -3  -3   0  235.28   12.20
  -4  -3   0    7.50    5.80
  -5  -3   0   28.60    5.60
  -5  -3   0   33.40    6.20
  -6  -3   0   14.30    5.80
  -6  -3   0   13.60    5.70
  -7  -3   0   -2.40    6.20
  -7  -3   0    9.00    6.80
  -8  -3   0  134.19   12.60
  -8  -3   0  153.38   12.80
  -9  -3   0   89.39   10.90
  -7   4   0   24.30    9.00
  -6   4   0   24.90    8.90
  -5   4   0    7.60    6.70
  -4   4   0   18.80    6.70
  -3   4   0   11.30    6.60
   2  -4   0   42.00    6.40
  -2   4   0   32.50    7.30
   1  -4   0  160.68   12.10
  -1   4   0  149.69   12.40
   0  -4   0   64.49    8.60
   0   4   0   59.19    9.20
  -1  -4   0   69.89    9.20
   1   4   0   76.49    9.80
  -2  -4   0   58.29    8.80
   2   4   0   71.29    8.00
  -3  -4   0  195.08   13.20
   3   4   0  192.88   10.20
   3   4   0  196.78   10.50
  -4  -4   0   85.39    9.90
  -5  -4   0   -0.40    6.10
  -6  -4   0  405.06   18.60
  -7  -4   0  149.29   13.00
  -8  -4   0  152.08   14.80
  -9  -4   0   12.30    9.60
  -6   5   0   41.90   10.10
  -5   5   0   97.99   11.60
  -4   5   0  133.29   13.30
   3  -5   0   48.20    5.50
   3  -5   0   49.99    6.10
  -3   5   0   63.69    9.50
   2  -5   0    1.30    1.70
  -2   5   0   10.10    7.50
   1  -5   0  731.93   28.10
  -1   5   0  724.63   28.50
   0  -5   0 1178.68   41.10
   0   5   0 1167.78   40.70
  -1  -5   0    4.20    8.70
   1   5   0    2.90    8.30
  -2  -5   0  859.21   32.80
   2   5   0  861.71   31.50
  -3  -5   0  646.34   26.50
   3   5   0  666.53   24.90
  -4  -5   0 1630.24   53.39
   4   5   0 1594.74   48.00
   4   5   0 1608.64   48.00
  -5  -5   0  122.39   12.90
  -6  -5   0   31.60    8.80
  -7  -5   0    2.90    8.80
  -8  -5   0    8.20    9.50
  -9  -5   0   17.20    9.90
  -6   6   0   43.10   11.50
  -5   6   0    5.50    8.20
  -4   6   0   17.80    8.10
   3  -6   0    3.30    5.00
  -3   6   0    3.50    7.70
   2  -6   0   68.09    8.60
  -2   6   0  156.08   14.20
   1  -6   0    8.80    8.60
  -1   6   0    8.30    8.00
   0  -6   0  914.31   35.20
   0   6   0  944.81   35.40
  -1  -6   0 1963.80   64.69
   1   6   0 1953.10   63.99
  -2  -6   0 2927.91   91.09
   2   6   0 2821.72   89.49
  -3  -6   0  321.27   19.90
   3   6   0  302.07   16.50
  -4  -6   0  974.90   37.30
   4   6   0 1002.20   33.70
  -5  -6   0   84.49   11.40
  -6  -6   0   57.49   10.40
  -7  -6   0   99.49   12.90
  -8  -6   0  138.79   16.70
  -9  -6   0   40.90   11.80
  -5   7   0    9.10    8.90
  -4   7   0  180.78   16.40
   3  -7   0   96.39   10.10
  -3   7   0  103.29   13.60
   2  -7   0   18.60    8.40
  -2   7   0   22.30   10.00
   1  -7   0  879.21   34.70
  -1   7   0  885.31   35.20
   0  -7   0 1184.08   43.60
   0   7   0 1171.68   44.00
  -1  -7   0    9.80   11.20
   1   7   0    4.30    8.50
  -2  -7   0 1855.91   63.69
   2   7   0 1832.72   62.29
  -3  -7   0    6.70   10.90
  -4  -7   0    5.20   10.00
  -5  -7   0   14.60    9.40
   5   7   0   11.00    4.40
  -6  -7   0  441.06   23.50
  -7  -7   0  181.88   18.20
  -8  -7   0   22.20   10.90
  -9  -7   0    5.10   11.50
  -5   8   0    2.50   14.00
  -4   8   0   11.10    9.90
   3  -8   0    3.30    6.60
  -3   8   0   16.70   10.20
   2  -8   0  114.49   13.00
  -2   8   0  110.49   14.60
   1  -8   0    6.30    9.40
  -1   8   0    2.30    8.70
   0  -8   0   33.80   12.30
   0   8   0   39.60   10.60
  -1  -8   0   79.99   14.40
  -2  -8   0   52.69   11.90
  -3  -8   0  663.13   31.80
  -4  -8   0  429.66   25.20
  -5  -8   0    9.20   10.40
   5   8   0    5.70    5.90
  -6  -8   0   -4.10    9.70
  -7  -8   0   17.10   11.00
  -8  -8   0  154.98   19.10
  -9  -8   0   16.20   12.30
  -4   9   0   13.60   11.10
   3  -9   0   75.69    9.60
  -3   9   0   97.89   14.90
   2  -9   0   72.19   12.20
  -2   9   0   74.19   12.90
   1  -9   0   22.50   10.50
  -1   9   0   24.40   10.30
   0  -9   0   26.90   12.50
  -1  -9   0    8.30   12.30
  -2  -9   0  556.24   29.10
  -3  -9   0  150.08   19.90
  -4  -9   0   16.80   11.90
  -5  -9   0    4.70   11.40
  -6  -9   0   31.40   12.50
  -7  -9   0   16.70   13.50
  -8  -9   0   -7.50   10.80
  -9  -9   0   10.80   13.30
   3 -10   0    1.40    4.80
  -3  10   0   10.70   10.50
   2 -10   0   36.20   11.50
  -2  10   0   39.50   12.00
   1 -10   0   72.19   13.30
   0 -10   0  281.17   21.50
  -1 -10   0   40.30   14.20
  -2 -10   0   55.39   13.50
  -3 -10   0    5.20   12.90
  -4 -10   0  272.87   24.40
  -5 -10   0   17.70   13.30
  -6 -10   0   11.10   11.30
  -7 -10   0    1.30   12.80
  -8 -10   0   48.90   16.00
   2 -11   0   35.40   11.20
   1 -11   0   -6.70   10.50
   0 -11   0   -9.60   10.00
  -1 -11   0  103.99   17.90
  -2 -11   0   63.49   14.60
  -3 -11   0    7.30   14.20
  -4 -11   0   15.80   12.80
  -5 -11   0   22.20   14.90
  -6 -11   0   -2.30   13.00
  -7 -11   0   -1.80   14.00
  -8 -11   0   16.40   13.80
   2 -12   0    6.50   10.10
   1 -12   0   11.10   11.80
   0 -12   0   55.09   14.00
  -1 -12   0   42.90   16.00
  -2 -12   0   -1.70   13.10
  -3 -12   0   43.20   16.40
  -4 -12   0   40.00   15.00
  -5 -12   0  -13.60   14.60
  -6 -12   0  119.89   19.80
  -7 -12   0   22.70   14.40
  -8 -12   0   14.70   15.60
   1 -13   0    9.50   12.50
   0 -13   0    4.60   12.60
  -1 -13   0   19.10   14.60
  -2 -13   0   11.90   14.10
  -3 -13   0  140.69   21.80
  -4 -13   0   36.70   15.80
  -5 -13   0   51.59   16.00
  -6 -13   0   -1.00   16.10
  -7 -13   0   -3.00   15.20
   0 -14   0    4.80   13.80
  -1 -14   0   96.79   17.30
  -2 -14   0   54.69   16.00
  -3 -14   0    9.10   17.20
  -4 -14   0   38.10   16.40
  -5 -14   0   14.90   15.50
  -6 -14   0  104.99   20.30
  -7 -14   0   37.90   18.40
   0 -15   0   91.39   18.70
  -1 -15   0  -15.60   12.70
  -2 -15   0   15.30   13.70
  -3 -15   0    6.30   17.70
  -4 -15   0   49.90   20.50
  -5 -15   0   15.60   19.30
  -6 -15   0   11.10   18.60
  -1 -16   0   -6.00   13.50
  -2 -16   0    0.00   14.20
  -3 -16   0   84.49   19.90
  -4 -16   0    2.10   18.30
  -5 -16   0   11.30   19.80
  -2 -17   0    0.20   14.40
  -3 -17   0   10.70   17.40
  -3 -17   1    2.80   16.70
  -2 -17   1   -2.90   16.40
  -1 -17   1   31.70   17.90
  -5 -16   1   -6.80   16.40
  -4 -16   1   -5.00   16.70
  -3 -16   1   79.59   20.10
  -2 -16   1   23.90   15.80
  -1 -16   1   12.80   16.40
  -6 -15   1   41.70   20.10
  -5 -15   1  103.99   21.20
  -4 -15   1    0.20   15.90
  -3 -15   1    6.20   18.30
  -2 -15   1    1.90   13.80
  -1 -15   1  131.59   21.60
   0 -15   1   10.60   14.50
  -7 -14   1   24.40   18.50
  -6 -14   1   32.30   16.20
  -5 -14   1    6.80   15.50
  -4 -14   1   54.29   17.80
  -3 -14   1   55.59   19.20
  -2 -14   1   39.60   15.40
  -1 -14   1   48.50   15.40
   0 -14   1   59.49   16.80
   1 -14   1  -11.70   12.00
  -7 -13   1    6.90   14.00
  -6 -13   1   31.10   15.30
  -5 -13   1   -9.00   13.40
  -4 -13   1    7.10   16.50
  -3 -13   1   68.29   17.70
  -2 -13   1   61.49   18.50
  -1 -13   1   11.60   13.30
   0 -13   1   11.40   11.60
   1 -13   1  132.79   18.80
  -8 -12   1   -4.80   14.70
  -7 -12   1   -4.30   14.80
  -6 -12   1   43.40   16.90
  -5 -12   1   34.20   16.10
  -4 -12   1    8.10   15.00
  -3 -12   1   -2.00   12.90
  -2 -12   1  373.76   28.30
  -1 -12   1   63.69   17.20
   0 -12   1    1.50   11.10
   1 -12   1   17.70   12.70
   2 -12   1   -6.40    9.90
  -8 -11   1    6.20   13.90
  -7 -11   1   -8.90   13.00
  -6 -11   1   57.89   15.50
  -5 -11   1   17.70   14.30
  -4 -11   1   32.50   13.80
  -3 -11   1   -3.80   13.90
  -2 -11   1   36.80   13.60
  -1 -11   1  104.29   16.70
   0 -11   1   13.10   13.40
   1 -11   1   92.99   14.90
   2 -11   1   35.70   11.40
  -8 -10   1    7.70   12.60
  -7 -10   1   12.10   12.30
  -6 -10   1   22.70   12.80
  -5 -10   1   60.99   15.80
  -4 -10   1   29.80   14.70
  -3 -10   1    4.20   11.90
  -2 -10   1   43.90   13.90
  -1 -10   1  492.25   28.50
   0 -10   1    0.10   12.30
   1 -10   1    7.20   10.60
   2 -10   1    1.40    9.10
  -3  10  -1   32.00   13.10
   3 -10   1    1.80    3.60
  -9  -9   1   35.40   13.60
  -8  -9   1    5.40   11.30
  -7  -9   1   33.60   13.80
  -6  -9   1   22.20   12.50
  -5  -9   1   29.10   12.90
  -4  -9   1  167.58   18.60
  -3  -9   1    9.90   11.00
  -2  -9   1  136.89   17.90
  -1  -9   1   64.69   13.10
   0  -9   1   29.20   11.20
  -1   9  -1   36.10   11.40
   1  -9   1   39.40   10.60
  -2   9  -1  324.67   22.50
   2  -9   1  367.56   21.60
  -3   9  -1  112.49   15.90
   3  -9   1   12.10    4.30
  -4   9  -1    3.80   10.90
  -9  -8   1    0.00   12.40
  -8  -8   1   -0.60   11.10
  -7  -8   1    0.00    9.80
  -6  -8   1  169.48   18.60
   5   8  -1   22.00    5.90
  -5  -8   1   19.00   11.00
  -4  -8   1  239.78   19.90
  -3  -8   1  429.76   25.30
  -2  -8   1  192.38   20.20
  -1  -8   1  553.94   28.40
   0   8  -1 2005.70   68.89
   0  -8   1 2017.20   69.09
  -1   8  -1   33.20   10.10
   1  -8   1   26.80    9.70
  -2   8  -1  180.88   16.60
   2  -8   1  216.58   16.10
  -3   8  -1    9.30   10.60
   3  -8   1   15.50    5.60
  -4   8  -1  167.08   18.40
   4  -8   1  163.68   10.00
  -9  -7   1    9.00   11.20
  -8  -7   1   28.50   11.70
  -7  -7   1    1.60    9.70
  -6  -7   1  565.94   27.90
  -5  -7   1  100.19   12.90
  -4  -7   1   54.99   10.80
  -3  -7   1  631.64   28.10
   2   7  -1 2098.59   71.09
  -2  -7   1 1929.21   67.29
   1   7  -1   36.60   10.00
  -1  -7   1   24.20   10.50
   0   7  -1    8.70    9.40
   0  -7   1    5.90   11.70
  -1   7  -1  132.09   14.20
   1  -7   1  138.89   15.60
  -2   7  -1  332.17   20.70
   2  -7   1  352.86   19.50
  -3   7  -1   48.90   10.80
   3  -7   1   49.90    8.30
  -4   7  -1  260.87   20.10
   4  -7   1  245.78    9.30
  -5   7  -1   34.50   10.90
  -9  -6   1   20.00   11.00
  -8  -6   1  128.39   15.50
  -7  -6   1   11.40    9.60
  -6  -6   1  144.79   14.40
  -5  -6   1   77.59   10.90
   4   6  -1   51.59    6.60
  -4  -6   1   45.10    9.90
   3   6  -1   45.60    8.20
  -3  -6   1   54.09   10.80
   2   6  -1  119.89   13.80
  -2  -6   1  133.79   16.00
   1   6  -1 1712.43   56.79
  -1  -6   1 1687.83   57.19
   0   6  -1  376.06   21.60
   0  -6   1  410.56   22.80
  -1   6  -1    0.20    7.70
   1  -6   1    3.90    8.80
  -2   6  -1  706.03   29.10
   2  -6   1  666.03   27.00
  -3   6  -1    2.10    7.60
   3  -6   1    5.30    6.00
  -4   6  -1    8.60    9.20
  -5   6  -1   10.30    9.40
  -6   6  -1  141.19   17.90
  -9  -5   1   23.20   10.20
  -8  -5   1  181.38   16.20
  -7  -5   1   58.19   10.30
  -6  -5   1  416.76   19.80
  -5  -5   1   16.90    7.50
  -4  -5   1 1890.31   60.99
   3   5  -1   44.60    7.40
  -3  -5   1   40.70    9.00
   2   5  -1   93.29    9.80
  -2  -5   1   85.39   10.40
   1   5  -1 1687.73   56.19
  -1  -5   1 1773.42   57.49
   0   5  -1  126.29   13.00
   0  -5   1  119.89   12.90
  -1   5  -1   30.80    9.10
   1  -5   1   18.50    9.00
  -2   5  -1  324.97   17.90
  -3   5  -1    8.80    7.40
   3  -5   1    4.20    5.00
   3  -5   1    3.40    4.50
  -4   5  -1  254.17   16.10
  -5   5  -1   20.80    8.90
  -6   5  -1    3.40    8.60
  -9  -4   1   32.50    9.30
  -8  -4   1   33.90    8.50
  -7  -4   1   40.70    8.20
  -6  -4   1  371.96   17.20
  -5  -4   1    3.20    5.90
  -4  -4   1   42.40    7.40
   3   4  -1   15.10    4.20
  -3  -4   1    5.80    7.00
   2   4  -1    9.80    6.80
  -2  -4   1   11.50    7.20
   1   4  -1  384.56   17.60
  -1  -4   1  386.56   18.20
   0   4  -1 1184.18   40.00
   0  -4   1 1188.88   40.50
  -1   4  -1  790.72   29.60
   1  -4   1  845.92   30.10
  -2   4  -1  337.47   16.90
  -3   4  -1  405.96   19.10
   3  -4   1  410.96   14.60
   3  -4   1  414.36   14.50
  -4   4  -1  143.69   12.30
  -5   4  -1  123.79   12.40
  -6   4  -1   38.90    9.40
  -9  -3   1    3.40    7.50
  -8  -3   1  289.57   15.30
  -7  -3   1  155.58   10.40
  -7  -3   1  150.68   11.10
  -6  -3   1   86.29    7.90
  -6  -3   1   89.99    8.70
  -5  -3   1    0.30    4.60
  -4  -3   1  350.26   14.20
  -3  -3   1  268.67   12.40
   2   3  -1 4038.20  120.09
  -2  -3   1 4174.08  121.29
   1   3  -1   58.99    7.30
  -1  -3   1   71.79    8.60
   0   3  -1  200.48   11.90
   0  -3   1  201.98   13.10
  -1   3  -1  348.37   15.60
   1  -3   1  360.76   15.80
  -2   3  -1   38.00    6.90
   2  -3   1   31.70    5.60
   2  -3   1   33.90    5.70
  -3   3  -1  973.70   33.40
  -4   3  -1   11.20    6.70
  -5   3  -1   13.60    6.80
  -6   3  -1  307.57   17.20
  -7   3  -1    6.50    8.50
  -9  -2   1   -4.10    6.80
  -8  -2   1   -0.20    6.10
  -8  -2   1    7.50    5.80
  -7  -2   1    5.60    4.60
  -7  -2   1   14.00    5.00
  -2  -2   1 2882.31   84.29
   1   2  -1  262.47   10.50
  -1  -2   1  239.58   10.70
   0   2  -1  135.39    8.30
   0  -2   1  122.29    8.70
  -1   2  -1  826.92   27.40
  -2   2  -1 1469.05   45.10
   2  -2   1 1423.36   43.30
   2  -2   1 1439.46   43.20
  -3   2  -1  191.08   11.20
  -4   2  -1  337.67   14.80
  -4   2  -1  329.97   14.90
  -5   2  -1   22.70    6.40
  -5   2  -1   15.10    6.20
  -6   2  -1    8.80    6.40
  -7   2  -1   41.90    8.80
  -9  -1   1   29.60    7.30
  -8  -1   1   11.80    5.50
  -8  -1   1    4.20    5.50
   0   1  -1    0.30    1.80
   0  -1   1    1.20    1.80
  -1   1  -1  185.48    8.90
   1  -1   1  195.98    8.00
  -2   1  -1 5565.64  165.38
  -2   1  -1 5578.14  162.78
  -3   1  -1  173.78    9.30
  -3   1  -1  171.88    9.00
  -4   1  -1  564.84   20.20
  -4   1  -1  563.04   19.80
  -5   1  -1  489.25   18.80
  -5   1  -1  486.45   18.60
  -6   1  -1  183.28   12.40
  -6   1  -1  203.58   12.90
  -7   1  -1   74.49    9.50
  -7   1  -1   74.69    9.40
  -8   1  -1   -3.00    8.00
  -9   0   1   93.39   10.90
  -8   0   1   -3.80    5.40
  -8   0   1    0.70    5.30
  -7   0   1  129.29    7.50
  -7   0   1  127.19    7.20
   0   0  -1    0.20    0.60
   0   0  -1    0.20    0.80
   0   0   1    0.50    0.70
   0   0   1    0.10    0.70
   1   0   1   42.40    3.80
  -2   0  -1    5.40    3.70
  -2   0  -1   10.10    3.70
  -3   0  -1  687.13   22.10
  -3   0  -1  688.83   22.00
  -4   0  -1  363.96   13.80
  -4   0  -1  353.76   13.60
  -5   0  -1   52.19    6.30
  -5   0  -1   61.59    7.60
  -6   0  -1   62.39    7.50
  -6   0  -1   62.79    7.40
  -7   0  -1   42.30    8.20
  -7   0  -1   42.10    8.00
  -8   0  -1  111.49   13.20
  -8   0  -1  116.49   13.40
  -9   0  -1    9.30    9.10
  -8   1   1   95.19   10.50
  -8   1   1   96.29   10.10
  -7   1   1   49.90    6.30
  -7   1   1   57.19    6.20
  -1   1   1 1446.76   42.20
   0  -1  -1    0.80    1.90
   0   1   1    0.70    1.70
  -1  -1  -1    4.90    3.00
  -1  -1  -1    7.60    3.00
   1   1   1   12.90    3.30
   1   1   1   -0.10    0.80
  -2  -1  -1 4490.55  132.19
  -2  -1  -1 4467.85  134.09
  -3  -1  -1   94.99    6.80
  -3  -1  -1  100.29    7.10
  -4  -1  -1  238.88   10.80
  -4  -1  -1  235.88   10.90
  -5  -1  -1  126.89    8.60
  -5  -1  -1  128.59    8.90
  -6  -1  -1  406.36   17.30
  -6  -1  -1  410.76   17.10
  -7  -1  -1   -2.60    7.00
  -7  -1  -1    3.00    6.80
  -8  -1  -1   10.90    7.40
  -8  -1  -1    7.30    7.70
  -9  -1  -1   56.29   10.70
  -8   2   1  102.59   12.00
  -7   2   1   74.59    9.20
  -6   2   1   44.80    6.10
  -5   2   1    0.20    4.00
  -5   2   1    1.40    3.90
  -4   2   1  331.77   11.90
  -3   2   1   11.70    3.50
  -2   2   1   19.70    4.20
   1  -2  -1  253.57   10.80
  -1   2   1  356.56   12.20
   0  -2  -1 2368.86   71.19
   0   2   1 2422.46   71.39
  -1  -2  -1  326.87   13.20
   1   2   1  347.27   13.40
  -2  -2  -1 5935.01  175.28
   2   2   1 5763.62  173.08
   2   2   1 5976.80  170.98
  -3  -2  -1  415.36   16.20
  -3  -2  -1  405.16   15.80
  -4  -2  -1  433.16   16.80
  -4  -2  -1  442.56   17.00
  -5  -2  -1   13.40    5.50
  -5  -2  -1   15.40    5.70
  -6  -2  -1   13.00    6.40
  -6  -2  -1   23.10    6.70
  -7  -2  -1  107.69   11.50
  -7  -2  -1  112.89   11.90
  -8  -2  -1   -3.30    7.60
  -8  -2  -1   -0.20    8.30
  -9  -2  -1   44.00   10.20
  -7   3   1   18.50    7.20
  -6   3   1  295.07   15.10
  -5   3   1  111.09    9.70
  -4   3   1   59.49    6.90
  -3   3   1   17.70    5.80
   2  -3  -1  292.17    9.70
  -2   3   1  283.27   13.40
   1  -3  -1    8.00    2.80
  -1   3   1   67.39    8.40
   0  -3  -1 2916.91   87.49
   0   3   1 2913.51   87.59
  -1  -3  -1  288.37   14.00
   1   3   1  286.17   13.60
  -2  -3  -1 1740.53   54.99
   2   3   1 1788.12   54.49
  -3  -3  -1 2902.11   88.69
   3   3   1 2955.40   86.39
   3   3   1 2978.40   86.39
  -4  -3  -1   68.39    8.00
  -5  -3  -1  382.06   16.60
  -5  -3  -1  372.46   17.00
  -6  -3  -1   76.09   10.00
  -6  -3  -1   72.29    9.30
  -7  -3  -1   49.90    9.10
  -7  -3  -1   53.29    8.70
  -8  -3  -1    1.40    8.00
  -8  -3  -1   -4.50    7.20
  -9  -3  -1   29.10   10.80
  -7   4   1   -5.00    7.70
  -6   4   1   10.90    8.10
  -5   4   1   31.30    7.60
  -4   4   1  275.37   14.50
  -3   4   1   10.10    6.30
   2  -4  -1   -3.10    5.10
  -2   4   1    2.20    6.00
   1  -4  -1   48.00    7.50
  -1   4   1   55.49    8.40
   0  -4  -1   83.19    9.90
   0   4   1   86.09    9.70
  -1  -4  -1 1392.36   45.80
   1   4   1 1397.46   45.60
  -2  -4  -1   23.40    7.40
   2   4   1   16.40    7.10
  -3  -4  -1  155.78   12.60
   3   4   1  147.49   10.50
   3   4   1  140.39    9.70
  -4  -4  -1   11.00    7.30
  -5  -4  -1  187.18   13.60
  -6  -4  -1  119.09   12.40
  -7  -4  -1   40.50    9.30
  -8  -4  -1   91.39   12.10
  -9  -4  -1   11.80    9.80
  -6   5   1   12.30    8.20
  -5   5   1  160.38   13.60
  -4   5   1   70.99    9.60
  -3   5   1   88.09   10.40
   2  -5  -1    2.30    4.90
  -2   5   1    3.70    7.00
   1  -5  -1    3.70    7.50
  -1   5   1   -0.40    8.10
   0  -5  -1  187.68   14.00
   0   5   1  182.18   14.50
  -1  -5  -1  743.43   29.70
   1   5   1  732.63   28.20
  -2  -5  -1 1260.07   43.30
   2   5   1 1239.48   42.40
  -3  -5  -1  126.59   14.10
   3   5   1  138.89   11.10
  -4  -5  -1    6.00    7.70
   4   5   1    3.90    5.10
   4   5   1    4.10    5.00
  -5  -5  -1  158.08   14.40
  -6  -5  -1  530.35   24.00
  -7  -5  -1  154.38   16.00
  -8  -5  -1   44.10   11.20
  -9  -5  -1    8.00   10.90
  -6   6   1    4.10    9.20
  -5   6   1    4.10    9.20
  -4   6   1   -3.20    7.40
   3  -6  -1   18.60    4.80
  -3   6   1   16.80    8.00
  -2   6   1   98.29   11.50
   1  -6  -1  119.19   13.60
  -1   6   1  118.69   14.10
   0  -6  -1 2458.05   78.39
   0   6   1 2472.45   78.79
  -1  -6  -1    7.50    9.40
   1   6   1   13.40    8.20
  -2  -6  -1  372.46   20.80
   2   6   1  368.66   19.30
  -3  -6  -1  196.78   17.20
   3   6   1  185.18   13.90
  -4  -6  -1    1.60    9.80
   4   6   1    7.00    6.10
  -5  -6  -1  641.34   28.70
  -6  -6  -1  373.96   21.60
  -7  -6  -1   90.69   12.40
  -8  -6  -1   60.79   12.90
  -9  -6  -1   26.20   11.10
  -5   7   1  128.19   16.90
  -4   7   1   16.20    9.90
   3  -7  -1   63.89    7.70
  -3   7   1   65.59   11.10
   2  -7  -1  316.67   17.90
  -2   7   1  492.05   22.60
   1  -7  -1   34.20   10.10
  -1   7   1   39.10    9.60
   0  -7  -1   40.20   11.50
   0   7   1   50.19   11.00
  -1  -7  -1  208.48   17.60
   1   7   1  221.88   17.90
  -2  -7  -1   49.20   11.30
   2   7   1   48.80   11.20
  -3  -7  -1   74.09   12.90
  -4  -7  -1  141.99   16.60
  -5  -7  -1    9.50   10.00
   5   7   1   18.40    5.80
  -6  -7  -1   44.00   11.20
  -7  -7  -1   16.20   10.90
  -8  -7  -1    7.40   10.80
  -9  -7  -1   -2.60   10.50
  -5   8   1   18.90   18.00
  -4   8   1  395.66   25.50
   3  -8  -1   79.89   10.60
  -3   8   1  105.19   14.00
   2  -8  -1   23.40    7.80
  -2   8   1    8.00    8.70
   1  -8  -1  103.79   13.60
  -1   8   1  109.79   13.20
   0  -8  -1   56.09   11.60
   0   8   1   59.89   11.40
  -1  -8  -1  255.67   19.50
   1   8   1  246.78   23.20
  -2  -8  -1  461.75   25.50
  -3  -8  -1   35.60   11.30
  -4  -8  -1   21.50   11.70
  -5  -8  -1  442.16   26.00
   5   8   1  440.26   19.60
  -6  -8  -1   77.19   13.50
  -7  -8  -1    2.00   11.50
  -8  -8  -1  163.18   20.20
  -9  -8  -1    3.00   12.60
  -4   9   1    3.70   11.20
   3  -9  -1    0.10    6.80
  -3   9   1    0.10   11.10
   2  -9  -1   57.79   10.90
  -2   9   1   53.19   12.00
   1  -9  -1  148.19   16.60
  -1   9   1  145.39   16.40
   0  -9  -1   12.40   10.00
  -1  -9  -1    6.60   10.30
  -2  -9  -1  491.35   28.40
  -3  -9  -1   53.19   12.90
  -4  -9  -1   15.30   10.80
  -5  -9  -1  189.38   20.20
  -6  -9  -1   57.09   14.10
   6   9   1   74.09    8.10
  -7  -9  -1   42.80   14.50
  -8  -9  -1    5.40   12.10
  -9  -9  -1   -1.90   11.90
   3 -10  -1   52.79    9.20
  -3  10   1   61.69   14.60
   2 -10  -1   96.69   12.70
  -2  10   1   87.39   16.10
   1 -10  -1   40.50   11.80
   0 -10  -1   40.00   11.70
  -1 -10  -1    4.60   12.70
  -2 -10  -1   50.59   13.50
  -3 -10  -1   10.80   13.50
  -4 -10  -1   -0.50   11.40
  -5 -10  -1   12.30   11.60
  -6 -10  -1  182.58   21.50
  -7 -10  -1   14.40   12.80
  -8 -10  -1   98.19   18.60
   2 -11  -1   19.90   10.80
   1 -11  -1   85.79   14.70
   0 -11  -1  107.99   16.60
  -1 -11  -1   11.80   12.00
  -2 -11  -1  265.47   23.40
  -3 -11  -1    2.70   12.20
  -4 -11  -1   81.39   17.70
  -5 -11  -1   12.20   12.50
  -6 -11  -1   60.59   16.00
  -7 -11  -1   18.10   14.50
  -8 -11  -1   54.09   16.20
   2 -12  -1   -0.80   12.00
   1 -12  -1   36.60   12.90
   0 -12  -1    2.80   11.00
  -1 -12  -1   62.19   16.00
  -2 -12  -1   27.00   14.10
  -3 -12  -1   87.59   18.70
  -4 -12  -1  125.89   18.70
  -5 -12  -1  271.17   27.40
  -6 -12  -1   -9.50   14.60
  -7 -12  -1   58.99   17.50
  -8 -12  -1    6.30   15.60
   1 -13  -1    2.90   10.00
   0 -13  -1   80.59   16.80
  -1 -13  -1   57.49   15.20
  -2 -13  -1   50.79   17.20
  -3 -13  -1   42.60   16.00
  -4 -13  -1    0.10   15.80
  -5 -13  -1  110.89   20.40
  -6 -13  -1    5.70   16.20
  -7 -13  -1   17.60   16.60
   0 -14  -1   18.90   13.20
  -1 -14  -1   77.29   18.20
  -2 -14  -1   -2.50   13.30
  -3 -14  -1   30.40   18.00
  -4 -14  -1    5.00   14.80
  -5 -14  -1   57.49   18.10
  -6 -14  -1   14.80   15.30
  -7 -14  -1    4.90   17.50
   0 -15  -1   10.10   14.40
  -1 -15  -1   38.80   15.70
  -2 -15  -1   51.19   16.40
  -3 -15  -1    5.90   15.70
  -4 -15  -1   22.60   18.60
  -5 -15  -1    9.20   18.50
  -6 -15  -1   42.70   17.90
  -1 -16  -1   13.60   14.60
  -2 -16  -1   -4.90   16.30
  -3 -16  -1    2.00   15.70
  -4 -16  -1    2.50   16.90
  -5 -16  -1   34.00   18.70
  -2 -17  -1    1.50   16.70
  -3 -17  -1   -4.80   15.80
  -3 -17   2   10.10   19.30
  -2 -17   2    7.60   15.70
  -1 -17   2   -1.70   16.40
  -5 -16   2  -19.00   19.30
  -4 -16   2    1.70   19.30
  -3 -16   2   12.40   17.00
  -2 -16   2   -3.40   15.50
  -1 -16   2   41.70   15.90
  -6 -15   2   17.20   16.70
  -5 -15   2    2.10   15.40
  -4 -15   2    1.00   15.90
  -3 -15   2   27.10   16.90
  -2 -15   2   65.89   18.40
  -1 -15   2   81.89   19.60
   0 -15   2    4.10   14.50
  -7 -14   2    3.40   17.10
  -6 -14   2   20.10   15.90
  -5 -14   2   22.80   15.90
  -4 -14   2   41.60   16.80
  -3 -14   2  168.28   24.00
  -2 -14   2   -3.40   13.60
  -1 -14   2   33.70   15.10
   0 -14   2   27.10   15.40
   1 -14   2    5.70   12.90
  -7 -13   2   14.90   16.00
  -6 -13   2   16.80   16.50
  -5 -13   2   37.30   17.30
  -4 -13   2    8.70   15.90
  -3 -13   2   47.50   16.20
  -2 -13   2   85.69   17.60
  -1 -13   2   88.29   19.10
   0 -13   2    4.00   14.00
   1 -13   2  236.18   22.10
  -8 -12   2   12.50   15.30
  -7 -12   2   34.30   16.00
  -6 -12   2    5.30   14.90
  -5 -12   2   27.70   16.20
  -4 -12   2  219.88   25.20
  -3 -12   2  118.99   19.00
  -2 -12   2   60.89   18.10
  -1 -12   2   15.90   13.20
   0 -12   2   52.29   14.20
   1 -12   2   44.30   14.40
   2 -12   2   11.70   11.10
  -8 -11   2   -1.60   12.90
  -7 -11   2    3.00   14.00
  -6 -11   2   43.70   16.00
  -5 -11   2   11.50   14.10
  -4 -11   2  280.37   24.80
  -3 -11   2   34.80   15.70
  -2 -11   2  204.78   23.10
  -1 -11   2   75.79   15.50
   0 -11   2   27.10   13.30
   1 -11   2   10.10   10.50
   2 -11   2    5.50   11.40
  -8 -10   2   14.20   14.20
  -7 -10   2    8.20   14.60
  -6 -10   2  118.69   17.40
  -5 -10   2    7.80   10.70
  -4 -10   2   23.00   11.80
  -3 -10   2  101.19   16.80
  -2 -10   2   29.30   12.80
  -1 -10   2   19.00   12.10
   0 -10   2    0.50   10.90
   1 -10   2   18.20   11.70
   2 -10   2    5.50    9.60
   3 -10   2  152.58   14.90
  -9  -9   2   26.90   14.20
  -8  -9   2   -1.10   11.90
  -7  -9   2   -3.00   12.70
  -6  -9   2    0.40   10.80
  -5  -9   2   42.50   12.80
  -4  -9   2    7.10    9.90
  -3  -9   2   28.70   11.10
  -2  -9   2   72.09   14.90
  -1  -9   2  330.47   23.10
   0  -9   2   50.19   13.00
   1  -9   2   58.59   12.50
  -2   9  -2   85.59   15.50
   2  -9   2   82.39   12.70
  -3   9  -2   29.50   13.30
   3  -9   2   10.00    6.60
  -4   9  -2    7.10   10.10
  -9  -8   2    4.40   10.80
  -8  -8   2   -7.70   10.60
  -7  -8   2   62.29   13.40
  -6  -8   2   -3.50    9.40
  -5  -8   2   48.70   11.90
  -4  -8   2   66.59   13.10
  -3  -8   2   11.30   11.40
  -2  -8   2    8.10    9.90
  -1  -8   2  212.78   19.90
   0   8  -2    0.60   10.70
   0  -8   2    6.90   11.50
  -1   8  -2   61.29   12.00
   1  -8   2   45.90   11.00
  -2   8  -2  104.09   14.70
   2  -8   2   92.59   13.40
  -3   8  -2   65.09   13.10
   3  -8   2    1.90    3.00
  -4   8  -2   75.99   14.30
   4  -8   2   77.49    8.60
  -9  -7   2   31.50   12.60
  -8  -7   2   -2.10   10.90
  -7  -7   2  127.49   15.70
  -6  -7   2   -2.00    9.70
  -5  -7   2   16.80   10.80
  -4  -7   2   16.40    9.50
  -3  -7   2  488.95   25.40
  -2  -7   2    1.60   11.10
   1   7  -2  153.58   16.90
  -1  -7   2  183.88   19.50
   0   7  -2  130.09   14.00
   0  -7   2  118.39   15.40
  -1   7  -2   24.00   10.00
   1  -7   2   31.50   10.90
  -2   7  -2    5.60    9.90
   2  -7   2    6.40    8.10
  -3   7  -2   27.00   10.70
   3  -7   2    7.70    3.50
  -4   7  -2   43.90   11.30
   4  -7   2   50.49    6.80
  -5   7  -2   92.59   13.90
  -9  -6   2   23.80   10.40
  -8  -6   2   50.99   11.70
  -7  -6   2    1.50    8.30
  -6  -6   2   39.50   10.30
  -5  -6   2  269.67   17.40
   4   6  -2   -0.50    4.60
  -4  -6   2    2.90    7.70
   3   6  -2    8.60    6.20
  -3  -6   2    5.70    8.60
   2   6  -2  140.49   14.40
  -2  -6   2  128.19   15.70
   1   6  -2  333.47   20.00
  -1  -6   2  328.57   20.00
   0   6  -2 2250.57   72.29
   0  -6   2 2184.78   72.39
  -1   6  -2  232.18   18.10
   1  -6   2  224.08   16.10
  -2   6  -2   48.70   10.90
   2  -6   2   54.49    9.70
  -3   6  -2   21.00    9.10
   3  -6   2    6.20    5.80
  -4   6  -2   29.40    9.90
   4  -6   2   29.70    4.70
  -5   6  -2   84.19   12.50
  -9  -5   2   11.90    8.90
  -8  -5   2  210.78   16.20
  -7  -5   2  205.58   15.90
  -6  -5   2  132.39   12.30
  -5  -5   2    2.30    7.10
  -4  -5   2  199.68   14.60
   3   5  -2  752.52   26.70
  -3  -5   2  760.52   29.40
   2   5  -2   99.59   11.40
  -2  -5   2   91.19   11.10
   1   5  -2  490.15   22.80
  -1  -5   2  509.75   22.80
   0   5  -2   80.69   10.70
   0  -5   2   87.49   12.00
  -1   5  -2  112.29   12.50
   1  -5   2   93.99   12.60
  -2   5  -2  150.18   14.90
   2  -5   2  154.38   13.50
  -3   5  -2   16.20    8.50
   3  -5   2    6.90    6.30
  -4   5  -2   17.60    8.90
  -5   5  -2   39.20    9.50
  -6   5  -2  123.69   13.90
  -9  -4   2    3.70    7.80
  -8  -4   2   52.69    8.50
  -7  -4   2   -3.20    6.60
  -6  -4   2  101.19   10.00
  -5  -4   2  183.68   12.00
  -4  -4   2  388.66   17.00
   3   4  -2  119.39    6.70
  -3  -4   2  118.39   11.20
   2   4  -2    4.00    5.70
  -2  -4   2    4.10    7.30
   1   4  -2 1120.59   38.10
  -1  -4   2 1130.99   39.20
   0   4  -2  133.09   12.30
   0  -4   2  126.29   12.70
  -1   4  -2  546.95   23.20
   1  -4   2  559.84   23.90
  -2   4  -2  573.84   24.50
  -3   4  -2   26.80    7.90
   3  -4   2   33.90    6.30
   3  -4   2   29.20    5.70
  -4   4  -2  680.23   27.50
  -5   4  -2   43.60    9.20
  -6   4  -2    4.60    8.30
  -9  -3   2   -0.10    7.00
  -8  -3   2    8.60    6.00
  -7  -3   2  203.08   11.00
  -6  -3   2    2.00    4.20
  -5  -3   2   23.10    4.40
  -4  -3   2   11.60    4.50
  -3  -3   2  104.09    8.60
   2   3  -2   96.49    7.90
  -2  -3   2   90.59    9.80
   1   3  -2   54.19    7.30
  -1  -3   2   47.30    7.80
   0   3  -2    2.60    6.40
   0  -3   2    5.20    6.80
  -1   3  -2   87.49    9.00
   1  -3   2   95.89   11.00
  -2   3  -2    6.90    7.00
   2  -3   2    6.50    5.80
   2  -3   2    1.30    1.90
  -3   3  -2 1211.78   41.10
   3  -3   2 1207.58   37.50
   3  -3   2 1198.98   37.30
  -4   3  -2 1452.15   48.40
  -5   3  -2   -2.90    6.40
  -6   3  -2   73.49   10.80
  -7   3  -2   94.69   12.40
  -9  -2   2   70.59    9.10
  -8  -2   2   17.50    5.00
  -8  -2   2   24.70    5.40
  -2  -2   2    9.90    4.40
   1   2  -2 1697.43   50.69
  -1  -2   2 1630.44   50.79
   0   2  -2 3486.25  105.49
   0  -2   2 3643.64  105.89
  -1   2  -2 9935.91  291.77
   1  -2   2 9999.00  291.47
  -2   2  -2 5066.59  146.79
   2  -2   2 4869.51  145.19
  -3   2  -2  310.27   15.30
   3  -2   2  311.97   10.20
   3  -2   2  316.97   10.30
  -4   2  -2  882.51   31.10
  -4   2  -2  873.61   31.10
  -5   2  -2  388.56   18.10
  -5   2  -2  373.76   18.40
  -6   2  -2  147.49   13.30
  -7   2  -2   38.90   10.00
  -9  -1   2   51.09    7.00
   1   1  -2 6777.32  191.38
  -1  -1   2 6273.27  191.18
   0   1  -2   52.59    5.90
   0  -1   2   34.10    5.00
  -1   1  -2 1056.19   33.20
   1  -1   2 1029.30   32.60
   1  -1   2 1004.70   33.00
  -2   1  -2   68.59    9.10
  -2   1  -2   62.59    7.80
   2  -1   2   66.79    6.90
   2  -1   2   73.49    7.00
  -3   1  -2  239.38   12.80
  -3   1  -2  235.38   12.60
  -4   1  -2  367.06   16.40
  -4   1  -2  377.16   16.60
  -5   1  -2  101.39   10.80
  -5   1  -2  103.59   10.90
  -6   1  -2   -1.20    6.20
  -6   1  -2    4.50    7.40
  -7   1  -2    5.80    8.10
  -7   1  -2   12.60    8.20
  -8   1  -2    8.10    8.40
  -9   0   2   28.40    6.40
   0   0  -2    8.60    3.00
   0   0   2    6.00    3.20
   0   0   2   -0.70    3.10
  -1   0  -2 1495.15   47.80
  -1   0  -2 1649.23   48.20
   1   0   2 1647.64   47.80
   1   0   2 1503.95   47.90
  -2   0  -2  920.01   29.60
  -2   0  -2  921.71   29.70
   2   0   2  922.11   28.60
   2   0   2  865.91   28.70
  -3   0  -2  284.37   13.30
  -3   0  -2  292.37   13.60
  -4   0  -2  124.79   10.10
  -4   0  -2  121.99   10.60
  -5   0  -2  157.78   11.50
  -5   0  -2  154.38   11.00
  -6   0  -2   88.39   11.40
  -6   0  -2   86.39   10.60
  -7   0  -2   30.70    8.80
  -7   0  -2   33.60    8.70
  -8   0  -2   22.80    9.20
  -9   0  -2    9.40    9.20
  -8   1   2   -6.10    4.90
  -1   1   2 4536.25  132.99
   0  -1  -2   27.50    3.90
   0   1   2   33.10    4.20
  -1  -1  -2  359.56   14.30
  -1  -1  -2  380.46   14.50
   1   1   2  385.36   14.60
   1   1   2  384.56   14.80
  -2  -1  -2    3.60    5.00
  -2  -1  -2    3.10    5.70
   2   1   2    1.20    2.80
   2   1   2   -0.90    4.80
  -3  -1  -2   55.49    7.20
  -3  -1  -2   55.29    7.00
  -4  -1  -2  850.91   29.00
  -4  -1  -2  811.32   28.50
  -5  -1  -2   14.80    5.80
  -5  -1  -2   18.60    6.80
  -6  -1  -2   53.09    8.20
  -6  -1  -2   63.09    8.90
  -7  -1  -2    6.40    7.30
  -7  -1  -2   16.40    8.50
  -8  -1  -2   78.59   11.00
  -8  -1  -2   79.09   12.20
  -9  -1  -2   10.30    9.80
  -8   2   2    2.00    6.00
  -7   2   2  111.59    9.40
  -6   2   2  134.89    7.90
  -3   2   2  141.69    6.50
  -2   2   2  353.76   13.00
   1  -2  -2   12.90    3.50
  -1   2   2   14.80    4.80
   0  -2  -2   75.79    7.40
   0   2   2   67.09    8.00
  -1  -2  -2  232.18   11.70
   1   2   2  227.68   12.10
  -2  -2  -2 3059.49   92.89
  -2  -2  -2 3105.99   92.99
   2   2   2 3156.58   92.49
  -3  -2  -2 1522.65   47.90
  -3  -2  -2 1469.25   47.90
   3   2   2 1549.45   45.90
   3   2   2 1527.95   45.70
  -4  -2  -2   26.30    6.80
  -4  -2  -2   33.60    7.30
  -5  -2  -2   17.40    7.40
  -5  -2  -2   10.30    6.30
  -6  -2  -2  203.48   14.00
  -6  -2  -2  189.18   13.20
  -7  -2  -2   20.60    8.10
  -7  -2  -2   22.30    8.80
  -8  -2  -2   36.60    9.80
  -8  -2  -2   25.60    9.80
  -9  -2  -2   29.70   10.70
  -7   3   2   76.39    8.70
  -6   3   2   51.59    7.40
  -5   3   2  475.55   18.40
  -4   3   2   17.80    5.10
  -3   3   2    1.50    4.90
  -2   3   2  380.76   15.80
  -1   3   2  492.95   19.00
   0  -3  -2 3128.09   93.99
   0   3   2 3145.49   94.19
  -1  -3  -2  327.37   15.40
   1   3   2  326.97   15.20
  -2  -3  -2  749.53   27.00
   2   3   2  753.22   26.50
   2   3   2  744.63   26.40
  -3  -3  -2 2082.39   65.39
   3   3   2 2079.79   63.69
   3   3   2 2133.09   63.89
  -4  -3  -2 1123.69   37.80
  -4  -3  -2 1084.99   37.50
  -5  -3  -2    7.70    7.40
  -5  -3  -2    9.00    6.70
  -6  -3  -2    6.80    7.70
  -6  -3  -2    5.10    6.90
  -7  -3  -2   32.50    8.40
  -7  -3  -2   26.90    8.90
  -8  -3  -2   27.50    9.00
  -8  -3  -2   34.90   10.00
  -9  -3  -2    9.20   10.30
  -7   4   2   21.00    8.30
  -6   4   2   58.39    9.60
  -5   4   2    0.40    6.30
  -4   4   2    2.40    5.70
  -3   4   2  203.88   12.30
   2  -4  -2    3.60    4.80
  -2   4   2    8.20    6.90
   1  -4  -2    8.60    6.10
  -1   4   2    4.20    7.10
   0  -4  -2  183.98   12.80
   0   4   2  181.98   12.70
  -1  -4  -2   23.80    8.00
   1   4   2   18.80    7.50
  -2  -4  -2  120.59   13.60
   2   4   2  127.59   12.00
  -3  -4  -2   83.19   10.20
   3   4   2   79.99   10.00
  -4  -4  -2  324.47   18.20
   4   4   2  322.67   13.40
   4   4   2  334.57   13.60
  -5  -4  -2    1.20    7.60
  -6  -4  -2  407.66   21.10
  -7  -4  -2   29.30   10.10
  -8  -4  -2   21.40   10.30
  -9  -4  -2    0.50   10.00
  -6   5   2   59.19    9.80
  -5   5   2   22.60    8.50
  -4   5   2  227.48   15.10
  -3   5   2   -0.90    6.90
   2  -5  -2   81.49    9.00
  -2   5   2   86.59   10.10
   1  -5  -2   99.89   11.60
  -1   5   2  115.79   11.70
   0  -5  -2  514.35   22.90
   0   5   2  473.95   22.50
  -1  -5  -2 2456.85   76.59
   1   5   2 2383.06   75.89
  -2  -5  -2  147.99   15.20
   2   5   2  153.48   12.90
  -3  -5  -2   70.29   10.00
   3   5   2   85.89    9.40
  -4  -5  -2  528.85   24.00
   4   5   2  534.35   20.80
   4   5   2  523.85   20.60
  -5  -5  -2  303.97   19.10
  -6  -5  -2  271.57   18.40
  -7  -5  -2   -1.00    8.90
  -8  -5  -2   17.40   11.20
  -9  -5  -2   -6.40   10.80
  -6   6   2  299.97   19.60
  -5   6   2   -0.40    8.10
  -4   6   2   17.00    8.40
   3  -6  -2    2.90    3.60
  -3   6   2   -4.00    7.90
   2  -6  -2   -1.80    3.00
  -2   6   2    6.40    8.10
   1  -6  -2   29.10    8.90
  -1   6   2   22.20    9.50
   0  -6  -2  144.89   15.60
   0   6   2  150.98   13.60
  -1  -6  -2  483.05   24.80
   1   6   2  500.35   23.30
  -2  -6  -2  181.08   17.40
   2   6   2  186.68   14.60
  -3  -6  -2   13.30    8.80
  -4  -6  -2    3.70    8.90
   4   6   2   -0.60    2.00
  -5  -6  -2  229.18   17.30
   5   6   2  203.68   11.10
  -6  -6  -2   80.29   12.30
  -7  -6  -2    2.90   10.60
  -8  -6  -2  168.38   18.30
  -9  -6  -2   -9.40   11.70
  -5   7   2   -8.90    8.80
  -4   7   2   -5.40    9.20
   3  -7  -2  172.38   10.10
  -3   7   2  169.78   16.20
   2  -7  -2    7.20    4.60
  -2   7   2   52.59   10.60
   1  -7  -2   12.90    9.00
  -1   7   2   13.30    9.80
   0  -7  -2  349.87   20.60
   0   7   2  363.06   21.10
  -1  -7  -2   19.10   10.10
   1   7   2   30.70    9.70
  -2  -7  -2  682.13   30.20
  -3  -7  -2  163.48   16.10
  -4  -7  -2   86.29   12.80
  -5  -7  -2   15.30   10.30
   5   7   2    9.40    6.20
  -6  -7  -2  454.45   26.40
  -7  -7  -2   -2.40   11.30
  -8  -7  -2    2.10   11.10
  -9  -7  -2   29.60   13.30
  -4   8   2  294.77   21.00
   3  -8  -2  310.27   15.70
  -3   8   2  319.77   21.50
   2  -8  -2   26.60    7.50
  -2   8   2   42.10   11.50
   1  -8  -2    5.40    9.10
  -1   8   2   13.80   10.70
   0  -8  -2  125.19   16.80
   0   8   2  127.49   16.60
  -1  -8  -2   35.50   11.20
   1   8   2   31.60   12.10
  -2  -8  -2    6.10   11.60
  -3  -8  -2   13.10   10.10
  -4  -8  -2  548.65   27.70
  -5  -8  -2   26.20   10.60
   5   8   2   16.10    6.60
  -6  -8  -2  144.99   18.90
   6   8   2  145.89    8.50
  -7  -8  -2  180.48   19.60
  -8  -8  -2  288.47   24.20
  -9  -8  -2   14.40   12.90
  -4   9   2    6.30   10.90
   3  -9  -2   11.00    7.10
  -3   9   2   -0.90   10.50
   2  -9  -2  142.09   13.50
  -2   9   2  141.39   16.30
   1  -9  -2   56.29   11.50
  -1   9   2   54.49   13.00
   0  -9  -2   29.00   12.50
  -1  -9  -2   19.60   12.40
  -2  -9  -2  278.77   21.40
  -3  -9  -2   72.49   14.80
  -4  -9  -2  213.08   21.40
  -5  -9  -2  148.19   19.50
  -6  -9  -2   20.30   12.90
   6   9   2   22.50    8.00
  -7  -9  -2  220.08   23.50
  -8  -9  -2    0.80   13.60
  -9  -9  -2   12.10   13.90
  -3  10   2   16.10   12.10
   2 -10  -2  135.49   15.00
  -2  10   2  128.39   16.10
   1 -10  -2   91.09   13.70
   0 -10  -2   12.00   11.90
  -1 -10  -2   40.80   14.30
  -2 -10  -2   -2.50   11.10
  -3 -10  -2    2.10   11.20
  -4 -10  -2   58.89   14.00
  -5 -10  -2  167.38   22.00
  -6 -10  -2   11.80   13.30
  -7 -10  -2   -2.80   13.30
  -8 -10  -2   30.90   14.60
   2 -11  -2  266.97   19.60
   1 -11  -2    9.30   10.60
   0 -11  -2   65.69   13.40
  -1 -11  -2  143.09   18.10
  -2 -11  -2   -7.30   11.70
  -3 -11  -2  247.48   23.50
  -4 -11  -2   40.50   14.20
  -5 -11  -2    2.20   14.50
  -6 -11  -2    9.20   14.00
  -7 -11  -2   48.60   16.10
  -8 -11  -2   -7.40   14.10
   1 -12  -2   42.00   12.90
   0 -12  -2   14.80   11.40
  -1 -12  -2   37.90   15.80
  -2 -12  -2  157.28   20.00
  -3 -12  -2   69.99   18.40
  -4 -12  -2   34.60   15.00
  -5 -12  -2    1.60   13.10
  -6 -12  -2    0.00   15.50
  -7 -12  -2   -5.70   14.60
  -8 -12  -2    1.40   15.90
   1 -13  -2   27.50   12.40
   0 -13  -2  214.28   21.70
  -1 -13  -2   51.09   16.10
  -2 -13  -2    7.70   13.60
  -3 -13  -2   18.70   16.90
  -4 -13  -2  132.69   20.20
  -5 -13  -2    5.40   14.60
  -6 -13  -2    3.60   14.20
  -7 -13  -2   43.80   18.30
   0 -14  -2  170.58   20.80
  -1 -14  -2   21.90   13.70
  -2 -14  -2   47.50   18.10
  -3 -14  -2    3.30   14.70
  -4 -14  -2   13.50   15.50
  -5 -14  -2   20.20   16.70
  -6 -14  -2   22.20   16.20
  -7 -14  -2    4.70   18.50
   0 -15  -2   -6.20   13.60
  -1 -15  -2   27.00   15.70
  -2 -15  -2   28.60   15.20
  -3 -15  -2    4.20   15.10
  -4 -15  -2    1.10   17.70
  -5 -15  -2   31.90   20.20
  -6 -15  -2   13.90   17.00
  -1 -16  -2    7.20   13.00
  -2 -16  -2   -7.80   15.90
  -3 -16  -2    9.00   15.90
  -4 -16  -2   -3.50   16.30
  -5 -16  -2  -19.70   18.50
  -2 -17  -2    2.80   13.90
  -3 -17  -2   14.80   16.60
  -2 -17   3   16.30   16.10
  -5 -16   3  -13.60   15.60
  -4 -16   3    4.90   16.70
  -3 -16   3    6.00   16.60
  -2 -16   3   35.70   19.20
  -1 -16   3   15.40   16.90
  -6 -15   3   -3.40   18.30
  -5 -15   3   15.20   16.40
  -4 -15   3   -3.10   18.50
  -3 -15   3   -8.50   17.20
  -2 -15   3   -3.50   14.40
  -1 -15   3    0.00   13.70
   0 -15   3   10.90   13.40
  -7 -14   3   -8.60   14.10
  -6 -14   3   10.20   17.60
  -5 -14   3   -3.00   16.70
  -4 -14   3    7.60   15.70
  -3 -14   3  -22.00   16.40
  -2 -14   3   45.80   16.10
  -1 -14   3   34.50   15.60
   0 -14   3   11.20   15.00
   1 -14   3    0.30   12.70
  -7 -13   3    5.20   16.30
  -6 -13   3   11.00   17.30
  -5 -13   3   -2.70   17.00
  -4 -13   3   69.99   19.20
  -3 -13   3  103.99   19.60
  -2 -13   3   10.20   14.50
  -1 -13   3    9.90   15.50
   0 -13   3   18.50   14.10
   1 -13   3   24.60   14.80
  -8 -12   3    7.20   15.40
  -7 -12   3   23.50   16.20
  -6 -12   3   14.20   15.90
  -5 -12   3    6.50   13.40
  -4 -12   3   72.09   18.40
  -3 -12   3   20.50   14.40
  -2 -12   3   -6.20   12.70
  -1 -12   3  206.18   26.60
   0 -12   3  181.28   23.30
   1 -12   3   -8.20   10.00
   2 -12   3    7.20   11.60
  -8 -11   3    9.40   15.60
  -7 -11   3   22.90   14.70
  -6 -11   3   35.50   15.10
  -5 -11   3   56.19   14.00
  -4 -11   3   38.30   15.10
  -3 -11   3   36.90   13.80
  -2 -11   3  112.09   17.00
  -1 -11   3    3.60   14.40
   0 -11   3    5.80   13.90
   1 -11   3   16.90   11.00
   2 -11   3    8.30   10.40
  -8 -10   3    3.90   14.50
  -7 -10   3   11.90   12.80
  -6 -10   3   15.10   12.70
  -5 -10   3    8.30   12.90
  -4 -10   3   45.90   13.00
  -3 -10   3   -2.20   12.70
  -2 -10   3   19.60   13.40
  -1 -10   3   18.10   11.60
   0 -10   3   -3.50   12.50
   1 -10   3  230.98   20.30
   2 -10   3   34.10   11.60
   3 -10   3   64.69   12.00
  -9  -9   3   19.40   12.80
  -8  -9   3   13.60   13.20
  -7  -9   3   48.20   13.80
  -6  -9   3  121.59   16.40
  -5  -9   3   20.50   12.80
  -4  -9   3   90.39   15.50
  -3  -9   3   34.50   13.70
  -2  -9   3  248.18   22.00
  -1  -9   3  109.19   16.50
   0  -9   3    2.80   10.10
   1  -9   3    2.60    9.70
  -2   9  -3   -5.50   12.90
   2  -9   3   -1.10    9.00
  -3   9  -3  231.58   20.80
   3  -9   3  226.88   16.70
  -4   9  -3   42.90   13.30
  -9  -8   3    2.80   11.90
  -8  -8   3    9.60   12.10
  -7  -8   3    8.70   11.20
  -6  -8   3   -0.70   11.30
  -5  -8   3   65.59   12.70
  -4  -8   3    5.90    9.20
  -3  -8   3    0.10    9.50
  -2  -8   3   -9.00   11.00
  -1  -8   3    6.80   10.60
   0  -8   3  305.27   21.30
  -1   8  -3    0.90    9.30
   1  -8   3    5.50   10.90
  -2   8  -3   47.80   12.80
   2  -8   3   52.19   11.30
  -3   8  -3   26.20   10.50
   3  -8   3   19.30    8.30
  -4   8  -3    9.90   11.00
   4  -8   3    5.00    6.80
  -9  -7   3   51.59   12.30
  -8  -7   3    5.60    9.90
  -7  -7   3   35.80   12.20
  -6  -7   3  157.48   16.70
  -5  -7   3  201.08   16.90
  -4  -7   3   84.59   13.30
  -3  -7   3   24.20    9.40
  -2  -7   3  736.03   32.60
   1   7  -3  367.46   21.50
  -1  -7   3  404.66   23.90
   0   7  -3  396.96   22.00
   0  -7   3  380.16   23.20
  -1   7  -3   23.20   10.80
   1  -7   3   24.90   11.10
  -2   7  -3   70.39   11.80
   2  -7   3   81.29   12.00
  -3   7  -3    4.70    9.90
   3  -7   3    0.10    5.60
  -4   7  -3  149.59   17.40
   4  -7   3  159.48   11.90
  -5   7  -3   47.90   12.00
  -9  -6   3   22.30   11.40
  -8  -6   3   90.59   12.20
  -7  -6   3  181.98   16.10
  -6  -6   3  179.98   16.00
  -5  -6   3    1.50    8.50
   4   6  -3  150.48    8.60
  -4  -6   3  138.69   15.50
   3   6  -3   -0.80    7.70
  -3  -6   3    3.30    8.90
   2   6  -3   16.50    7.50
  -2  -6   3   28.60   10.60
   1   6  -3  349.07   20.90
  -1  -6   3  357.86   21.00
   0   6  -3    6.40    8.70
   0  -6   3    3.80    9.10
  -1   6  -3  687.83   29.70
   1  -6   3  700.33   29.90
  -2   6  -3  567.04   26.50
   2  -6   3  588.54   26.00
  -3   6  -3   41.50   10.70
   3  -6   3    1.70    2.60
  -4   6  -3   99.59   13.20
   4  -6   3   96.49    9.10
  -5   6  -3   11.20    9.70
  -9  -5   3   -0.60    9.00
  -8  -5   3   34.00    9.50
  -7  -5   3   81.59   10.20
  -6  -5   3  218.88   14.90
  -5  -5   3  118.29   12.60
  -4  -5   3   86.19   10.00
   3   5  -3  315.37   14.80
  -3  -5   3  313.17   18.40
   2   5  -3  455.35   20.50
  -2  -5   3  451.55   22.40
   1   5  -3  217.18   15.30
  -1  -5   3  224.78   16.80
   0   5  -3 1337.87   46.80
   0  -5   3 1342.77   47.30
  -1   5  -3  126.09   15.20
   1  -5   3  123.19   15.00
  -2   5  -3   72.49   11.00
   2  -5   3   62.39   10.00
  -3   5  -3  135.19   14.20
   3  -5   3   45.60    5.90
  -4   5  -3   14.10    8.70
   4  -5   3   14.60    4.90
  -5   5  -3   86.99   12.20
  -6   5  -3    8.30    9.80
  -9  -4   3    2.90    7.70
  -8  -4   3   93.19   11.10
  -7  -4   3  321.87   16.30
  -6  -4   3  270.27   14.00
  -5  -4   3   34.30    6.60
  -4  -4   3  121.29   10.60
   3   4  -3  197.48    8.70
  -3  -4   3  196.48   13.30
   2   4  -3  534.65   21.00
  -2  -4   3  506.65   22.30
   1   4  -3   29.80    8.40
  -1  -4   3   32.40    9.30
   0   4  -3   48.10    8.80
   0  -4   3   49.00    9.40
  -1   4  -3   20.10    8.30
   1  -4   3   17.30    8.10
  -2   4  -3  388.06   20.60
   2  -4   3  400.76   20.30
  -3   4  -3  255.37   16.60
   3  -4   3  214.38   13.10
   3  -4   3  236.48   13.30
  -4   4  -3  118.69   14.90
   4  -4   3  148.99    7.50
   4  -4   3  131.99    7.10
  -5   4  -3  244.98   18.10
  -6   4  -3  151.08   16.50
  -9  -3   3   21.80    6.90
  -8  -3   3   77.39    9.00
  -7  -3   3   70.59    7.90
  -6  -3   3  134.69    7.90
  -5  -3   3   39.70    5.00
  -4  -3   3  506.85   18.30
  -3  -3   3  225.38   12.00
   2   3  -3  295.87   13.00
  -2  -3   3  286.37   15.00
   1   3  -3  525.35   21.10
  -1  -3   3  521.45   21.50
   0   3  -3  445.46   19.70
   0  -3   3  468.75   20.40
  -1   3  -3 2579.24   80.09
   1  -3   3 2593.84   80.29
  -2   3  -3  535.85   23.10
   2  -3   3  518.35   20.90
   2  -3   3  526.25   21.50
  -3   3  -3    1.40    7.30
   3  -3   3    0.10    5.30
   3  -3   3    4.40    5.60
  -4   3  -3   57.19    9.70
  -5   3  -3    0.30    7.50
  -6   3  -3  102.69   12.20
  -9  -2   3    4.60    4.90
  -3  -2   3   22.10    4.20
  -2  -2   3  319.27   13.80
   1   2  -3  409.46   16.20
  -1  -2   3  389.96   16.40
   0   2  -3    9.50    6.20
   0  -2   3   -4.60    6.10
  -1   2  -3 1157.18   38.80
   1  -2   3 1172.68   39.30
  -2   2  -3  565.84   21.50
   2  -2   3  383.86   19.10
   2  -2   3  548.05   19.60
  -3   2  -3   -5.30    6.90
   3  -2   3    0.90    4.80
   3  -2   3    4.00    5.10
  -4   2  -3    4.20    7.40
  -4   2  -3   10.30    6.30
  -5   2  -3   33.00    8.20
  -5   2  -3   26.30    8.50
  -6   2  -3    5.10    7.70
  -7   2  -3    9.20    9.00
   1   1  -3  138.79    8.10
  -1  -1   3  137.39    9.00
   0   1  -3  479.35   18.80
   0  -1   3  494.95   18.90
  -1   1  -3  106.69   10.30
   1  -1   3  101.59    8.80
   1  -1   3  101.09   10.20
  -2   1  -3 1236.78   41.00
  -2   1  -3 1263.27   40.70
   2  -1   3 1224.68   39.60
  -3   1  -3  150.98   12.70
  -3   1  -3  153.38   11.50
   3  -1   3  154.28    9.40
   3  -1   3  161.08    9.60
  -4   1  -3  408.56   19.10
  -4   1  -3  406.86   18.90
  -5   1  -3  308.57   17.30
  -5   1  -3  290.67   16.40
  -6   1  -3  188.68   14.90
  -6   1  -3  188.98   15.50
  -7   1  -3   52.99   10.60
  -7   1  -3   54.79   10.60
  -8   1  -3    9.80    9.60
   0   0  -3 4552.54  133.99
   0   0   3 4586.34  133.89
   0   0   3 4553.54  134.09
  -1   0  -3 1013.40   33.80
  -1   0  -3 1016.50   34.10
   1   0   3 1055.19   33.70
   1   0   3 1054.39   34.20
  -2   0  -3   58.79    7.90
  -2   0  -3   54.39    7.70
   2   0   3   61.79    7.60
   2   0   3   21.10    5.10
  -3   0  -3  585.44   22.60
  -3   0  -3  600.24   23.10
   3   0   3  581.84   20.50
   3   0   3  559.14   19.90
  -4   0  -3    7.10    6.60
  -4   0  -3    0.30    6.50
  -5   0  -3  297.77   16.20
  -5   0  -3  288.47   16.10
  -6   0  -3  104.79   12.70
  -6   0  -3  106.59   13.00
  -7   0  -3    8.20    9.10
  -7   0  -3   22.40    8.80
  -8   0  -3    6.70    9.50
  -9   0  -3   10.00   11.00
  -1   1   3   84.69    7.60
   0  -1  -3   27.70    5.40
   0   1   3   26.60    5.50
  -1  -1  -3 5500.55  160.88
  -1  -1  -3 5508.35  160.98
   1   1   3 5443.56  160.68
   1   1   3 5471.65  160.98
  -2  -1  -3 1054.09   34.00
  -2  -1  -3 1036.00   34.00
   2   1   3  919.51   33.30
   2   1   3 1018.20   33.40
  -3  -1  -3  207.38   13.70
  -3  -1  -3  214.28   12.60
   3   1   3  208.78   11.10
   3   1   3  211.68   11.00
  -4  -1  -3   93.29   11.20
  -4  -1  -3   85.09   10.60
  -5  -1  -3  267.77   15.70
  -5  -1  -3  261.97   15.20
  -6  -1  -3    6.20    7.80
  -6  -1  -3   -1.00    7.10
  -7  -1  -3   -0.70    8.40
  -7  -1  -3    2.00    8.70
  -8  -1  -3  100.09   12.90
  -9  -1  -3   -0.90    9.80
  -8   2   3    1.80    5.70
  -7   2   3    8.40    5.00
  -6   2   3  179.88    8.20
  -4   2   3  458.55   14.70
  -3   2   3  451.35   15.70
  -2   2   3    6.50    4.90
  -1   2   3  843.12   28.30
   0  -2  -3  549.45   20.80
   0   2   3  553.54   21.30
  -1  -2  -3  312.77   15.00
   1   2   3  303.17   14.50
  -2  -2  -3  125.59   11.90
  -2  -2  -3  126.69   11.70
   2   2   3  114.39   11.10
   2   2   3  122.19   10.60
  -3  -2  -3  101.19   11.80
  -3  -2  -3   97.39   11.70
   3   2   3   93.09    9.60
   3   2   3   78.29    8.00
  -4  -2  -3   42.70    8.30
  -4  -2  -3   39.20    8.50
   4   2   3   47.60    4.40
   4   2   3   44.30    4.10
  -5  -2  -3  321.17   17.10
  -5  -2  -3  326.97   17.50
  -6  -2  -3  127.09   13.20
  -6  -2  -3  122.69   13.00
  -7  -2  -3    8.50    8.80
  -7  -2  -3    5.50    9.10
  -8  -2  -3   58.69   11.60
  -9  -2  -3   14.30   10.60
  -7   3   3   79.39    8.90
  -6   3   3   18.40    6.30
  -5   3   3    3.40    5.20
  -4   3   3    1.90    5.00
  -3   3   3  311.57   14.00
  -2   3   3  283.87   14.10
  -1   3   3  331.67   15.50
   0  -3  -3 1474.65   46.90
   0   3   3 1439.96   46.90
  -1  -3  -3   24.40    7.80
   1   3   3   27.90    8.30
  -2  -3  -3   54.89    9.50
   2   3   3   52.79    8.40
   2   3   3   64.89    8.20
  -3  -3  -3  228.58   14.90
   3   3   3  214.68   12.80
  -4  -3  -3   20.30    8.70
  -4  -3  -3   13.80    7.20
   4   3   3   19.70    5.30
   4   3   3   13.10    5.10
  -5  -3  -3  212.48   14.80
  -5  -3  -3  221.38   15.40
  -6  -3  -3   19.70    9.70
  -6  -3  -3   19.70    8.10
  -7  -3  -3    6.10    8.50
  -7  -3  -3    2.60    9.70
  -8  -3  -3    9.80    9.10
  -9  -3  -3    8.40   10.60
  -7   4   3    5.30    8.20
  -6   4   3   63.49    9.20
  -5   4   3   79.89   10.00
  -4   4   3   77.09    9.40
  -3   4   3  110.49   10.00
   2  -4  -3   18.80    4.70
  -2   4   3   16.00    6.60
   1  -4  -3   75.99    8.20
  -1   4   3   90.79   10.70
   0  -4  -3  630.34   25.20
   0   4   3  628.94   24.90
  -1  -4  -3   96.59   10.60
   1   4   3   93.19   11.50
  -2  -4  -3   48.60    9.20
   2   4   3   44.00    9.10
  -3  -4  -3  413.56   20.60
   3   4   3  421.66   18.60
   3   4   3  415.76   19.20
  -4  -4  -3  255.97   16.60
   4   4   3  277.47   13.90
   4   4   3  262.57   14.10
  -5  -4  -3    6.30    8.90
  -6  -4  -3  119.09   14.30
  -7  -4  -3   62.19   12.30
  -8  -4  -3   11.70   11.20
  -9  -4  -3   42.50   12.70
  -6   5   3  129.09   13.80
  -5   5   3  339.47   18.30
  -4   5   3  172.48   13.70
  -3   5   3   44.80    8.60
   2  -5  -3   79.09    9.10
  -2   5   3   86.19   10.10
   1  -5  -3   21.80    8.50
  -1   5   3   11.30    7.40
   0  -5  -3  533.45   22.80
   0   5   3  524.95   23.10
  -1  -5  -3    1.70    8.40
   1   5   3    2.40    7.80
  -2  -5  -3   23.50   10.30
   2   5   3   24.80    9.40
  -3  -5  -3  175.88   14.90
   3   5   3  187.38   14.40
   3   5   3  177.88   13.70
  -4  -5  -3  595.54   26.70
  -5  -5  -3   89.59   12.40
   5   5   3   96.39    8.10
  -6  -5  -3   63.19   12.10
  -7  -5  -3    8.10   10.40
  -8  -5  -3  -11.80   10.30
  -9  -5  -3   12.80   13.00
  -6   6   3  410.16   23.40
  -5   6   3  170.58   15.20
  -4   6   3  185.08   15.10
  -3   6   3    9.90    8.80
   2  -6  -3   63.19    7.60
  -2   6   3  103.39   12.70
   1  -6  -3   12.00    7.90
  -1   6   3    4.30    7.80
   0  -6  -3  342.37   19.20
   0   6   3  346.37   19.50
  -1  -6  -3  437.46   23.40
   1   6   3  447.36   22.10
  -2  -6  -3  256.47   19.30
   2   6   3  246.48   17.20
  -3  -6  -3   22.30    9.60
  -4  -6  -3  128.79   14.00
   4   6   3   73.79    9.30
  -5  -6  -3  288.37   19.90
   5   6   3  287.47   14.90
  -6  -6  -3   17.60    9.90
  -7  -6  -3    3.50   11.00
  -8  -6  -3   83.19   14.40
  -9  -6  -3   -4.40   11.80
  -5   7   3   -2.70    9.90
  -4   7   3  260.27   18.80
   3  -7  -3   21.00    5.10
  -3   7   3   23.70    9.40
  -2   7   3  124.39   15.00
   1  -7  -3  291.67   17.90
  -1   7   3  291.27   19.50
   0  -7  -3   78.29   11.40
   0   7   3   73.19   11.40
  -1  -7  -3  208.48   17.40
   1   7   3  208.28   15.90
  -2  -7  -3    3.40    9.70
  -3  -7  -3  122.19   15.00
  -4  -7  -3   59.09   12.50
   4   7   3   56.29    9.00
  -5  -7  -3  323.57   22.00
   5   7   3  298.27   16.60
  -6  -7  -3  141.99   17.80
  -7  -7  -3   13.60   10.90
  -8  -7  -3   10.30   12.50
  -9  -7  -3   10.20   13.30
  -4   8   3  149.19   17.80
   3  -8  -3    5.70    5.90
  -3   8   3    6.10   10.00
   2  -8  -3   11.20    6.40
  -2   8   3   22.50   10.00
   1  -8  -3   91.09   12.10
  -1   8   3   90.89   12.30
   0  -8  -3   11.30    9.30
   0   8   3    9.40    8.90
  -1  -8  -3  124.09   15.30
  -2  -8  -3   78.19   14.60
  -3  -8  -3  231.78   19.40
  -4  -8  -3   -0.30   10.00
  -5  -8  -3   45.70   13.20
   5   8   3    0.90    2.60
  -6  -8  -3  121.89   16.30
   6   8   3  117.59   10.50
  -7  -8  -3  177.78   21.20
  -8  -8  -3  115.09   17.80
  -9  -8  -3    4.80   13.40
  -4   9   3  224.38   20.80
   3  -9  -3   68.69    8.90
  -3   9   3   66.49   14.10
   2  -9  -3   16.40    7.80
  -2   9   3   13.50   11.90
   1  -9  -3   -7.30    8.50
  -1   9   3   -1.80   10.00
   0  -9  -3  151.08   18.20
  -1  -9  -3   42.30   12.10
  -2  -9  -3  259.77   22.90
  -3  -9  -3   23.90   11.80
  -4  -9  -3  252.57   23.20
  -5  -9  -3    6.20   12.60
   5   9   3   15.50    7.70
  -6  -9  -3  107.29   17.00
  -7  -9  -3  198.58   22.20
  -8  -9  -3   23.60   13.90
  -9  -9  -3    0.50   14.70
  -3  10   3  -10.00   11.10
   2 -10  -3  267.97   18.00
  -2  10   3  256.17   21.90
   1 -10  -3  389.56   23.30
   0 -10  -3   60.19   13.80
  -1 -10  -3   -8.50   10.80
  -2 -10  -3  -10.90   13.20
  -3 -10  -3   35.40   13.10
  -4 -10  -3  303.87   26.10
  -5 -10  -3    1.30   11.60
  -6 -10  -3   14.60   14.00
  -7 -10  -3  -18.90   12.80
  -8 -10  -3   -8.60   13.30
   2 -11  -3  308.87   21.10
   1 -11  -3  123.69   15.70
   0 -11  -3  158.28   20.00
  -1 -11  -3  192.78   20.50
  -2 -11  -3  312.27   25.20
  -3 -11  -3  106.89   18.80
  -4 -11  -3    6.10   13.30
  -5 -11  -3   91.29   18.50
  -6 -11  -3    5.50   15.40
  -7 -11  -3   -7.10   14.60
  -8 -11  -3   -4.60   13.70
   1 -12  -3   51.29   13.30
   0 -12  -3  200.18   20.30
  -1 -12  -3   92.69   17.50
  -2 -12  -3   29.00   14.70
  -3 -12  -3   34.90   15.00
  -4 -12  -3  -12.00   15.50
  -5 -12  -3   -2.50   13.30
  -6 -12  -3    7.70   14.00
  -7 -12  -3   12.50   16.00
  -8 -12  -3   -6.00   14.80
   1 -13  -3   14.50   11.80
   0 -13  -3    6.30   11.20
  -1 -13  -3   18.00   14.30
  -2 -13  -3  222.58   24.20
  -3 -13  -3   13.30   15.00
  -4 -13  -3   35.40   18.10
  -5 -13  -3    8.90   17.00
  -6 -13  -3   19.70   17.50
  -7 -13  -3    9.80   15.00
   0 -14  -3   32.90   15.00
  -1 -14  -3   10.60   14.80
  -2 -14  -3   69.89   16.90
  -3 -14  -3    5.30   15.10
  -4 -14  -3   16.80   18.30
  -5 -14  -3   -8.10   17.40
  -6 -14  -3  106.89   20.90
  -7 -14  -3  -16.60   17.90
  -1 -15  -3    7.10   15.30
  -2 -15  -3    3.60   13.20
  -3 -15  -3    7.90   15.70
  -4 -15  -3   72.79   21.30
  -5 -15  -3   20.20   17.40
  -6 -15  -3   11.90   16.70
  -1 -16  -3   17.70   15.70
  -2 -16  -3   47.20   16.40
  -3 -16  -3   15.40   18.20
  -4 -16  -3   24.50   20.10
  -5 -16  -3  -11.80   18.20
  -2 -17  -3   18.90   17.40
  -4 -16   4   12.00   17.30
  -3 -16   4   33.70   17.80
  -2 -16   4    4.30   15.20
  -1 -16   4    6.30   16.60
  -6 -15   4    2.50   18.50
  -5 -15   4   30.00   19.90
  -4 -15   4   10.30   19.70
  -3 -15   4    7.80   16.20
  -2 -15   4   26.90   18.60
  -1 -15   4   34.20   17.50
   0 -15   4    2.60   15.20
  -6 -14   4   13.70   18.50
  -5 -14   4   19.60   17.80
  -4 -14   4   -5.30   17.50
  -3 -14   4    6.30   15.60
  -2 -14   4   49.60   19.20
  -1 -14   4   -1.90   15.40
   0 -14   4   12.40   15.30
   1 -14   4   19.40   15.10
  -7 -13   4    8.00   14.30
  -6 -13   4    2.20   14.50
  -5 -13   4   15.60   14.80
  -4 -13   4   -1.10   15.50
  -3 -13   4  159.58   21.40
  -2 -13   4    0.80   16.20
  -1 -13   4   28.00   17.10
   0 -13   4   18.50   15.10
   1 -13   4   71.99   16.50
  -7 -12   4   -3.50   14.80
  -6 -12   4   14.70   15.00
  -5 -12   4   75.09   17.80
  -4 -12   4    1.70   15.00
  -3 -12   4   67.39   16.40
  -2 -12   4   21.60   13.60
  -1 -12   4   87.19   18.80
   0 -12   4   19.30   14.80
   1 -12   4  -11.30   12.60
   2 -12   4   57.19   14.70
  -8 -11   4   45.80   15.80
  -7 -11   4   12.70   13.80
  -6 -11   4   12.00   14.40
  -5 -11   4   22.00   14.40
  -4 -11   4   30.90   13.70
  -3 -11   4  148.39   20.30
  -2 -11   4  128.79   19.90
  -1 -11   4    7.40   12.20
   0 -11   4    3.60   11.50
   1 -11   4  233.48   23.90
   2 -11   4   80.79   14.70
  -8 -10   4    1.70   13.50
  -7 -10   4   70.39   15.90
  -6 -10   4   53.39   15.30
  -5 -10   4   20.00   13.80
  -4 -10   4   77.39   15.10
  -3 -10   4    9.40   14.00
  -2 -10   4    7.80   11.70
  -1 -10   4   61.09   14.20
   0 -10   4    1.30   12.70
   1 -10   4   86.29   14.70
   2 -10   4   58.59   13.30
   3 -10   4   10.30   10.40
  -8  -9   4    0.10   12.20
  -7  -9   4  113.29   16.60
  -6  -9   4   62.79   15.30
  -5  -9   4   15.00   11.90
  -4  -9   4   -9.70    9.50
  -3  -9   4   14.30   12.40
  -2  -9   4  283.27   22.90
  -1  -9   4   37.30   12.90
   0  -9   4   29.00   12.10
   1  -9   4   17.00   11.50
   2  -9   4   42.10   12.10
   3  -9   4    4.60    9.60
  -4   9  -4   94.69   15.60
  -9  -8   4    9.50   12.30
  -8  -8   4   -1.80   11.30
  -7  -8   4   11.80   11.70
  -6  -8   4   73.99   13.70
  -5  -8   4    2.00   10.20
  -4  -8   4   87.39   14.10
  -3  -8   4   11.50   11.40
  -2  -8   4    3.40    9.70
  -1  -8   4  443.36   26.80
   0  -8   4  145.39   17.20
   1  -8   4  111.49   15.40
  -2   8  -4    3.60   11.10
   2  -8   4    8.60    9.80
  -3   8  -4   -0.70    9.70
   3  -8   4   -7.10    8.30
  -4   8  -4   46.00   13.60
   4  -8   4   37.70    8.80
  -9  -7   4   -5.70   10.70
  -8  -7   4    4.50   10.70
  -7  -7   4   -5.60   10.20
  -6  -7   4   66.49   12.30
  -5  -7   4   88.39   13.40
  -4  -7   4   40.10   11.20
  -3  -7   4   42.70   11.50
  -2  -7   4   16.50   11.40
  -1  -7   4   -1.90   11.10
   0   7  -4   63.89   11.70
   0  -7   4   36.30   12.30
  -1   7  -4    0.60    9.10
   1  -7   4    5.70    9.50
  -2   7  -4   12.70    9.40
   2  -7   4   13.70    9.30
  -3   7  -4   -3.80    8.90
   3  -7   4   -1.90    7.40
  -4   7  -4    8.90   10.90
   4  -7   4    7.20    7.30
  -5   7  -4   17.40   11.80
  -9  -6   4   -5.80    9.00
  -8  -6   4    0.70    9.10
  -7  -6   4   17.80   10.00
  -6  -6   4   30.70   10.20
  -5  -6   4    8.80    8.60
   4   6  -4  212.18   10.10
  -4  -6   4  216.58   16.40
  -3  -6   4    9.60    7.90
  -2  -6   4   -0.20    8.60
   1   6  -4  167.18   15.00
  -1  -6   4  172.08   17.20
   0   6  -4   13.90    9.00
   0  -6   4   18.10    9.70
  -1   6  -4   14.40    9.30
   1  -6   4   17.60    9.20
  -2   6  -4  109.79   14.10
   2  -6   4   94.99   12.70
  -3   6  -4  198.78   18.10
   3  -6   4  160.28   14.30
  -4   6  -4   18.60   10.40
   4  -6   4    7.20    6.90
  -5   6  -4   -2.10    9.60
  -9  -5   4   13.80    9.00
  -8  -5   4   -4.20    8.50
  -7  -5   4   14.00    8.10
  -6  -5   4   10.00    7.90
  -5  -5   4   10.10    7.30
  -4  -5   4   58.99    9.60
   3   5  -4  250.47   13.70
  -3  -5   4  262.07   16.90
   2   5  -4    2.50    7.20
  -2  -5   4    7.20    7.90
   1   5  -4  607.84   25.70
  -1  -5   4  594.14   26.40
   0   5  -4  150.68   14.60
   0  -5   4  145.89   15.90
  -1   5  -4  107.09   12.20
   1  -5   4  104.39   12.20
  -2   5  -4   58.99   10.40
   2  -5   4   43.70    9.00
  -3   5  -4   59.49   10.10
   3  -5   4   17.00    6.90
  -4   5  -4   61.09   11.30
   4  -5   4   53.69    7.80
  -5   5  -4   10.40    9.50
  -6   5  -4    7.00   12.80
  -9  -4   4    8.50    7.90
  -8  -4   4   70.69    9.40
  -7  -4   4   32.00    7.50
  -6  -4   4   15.60    6.40
  -5  -4   4  170.78   11.80
  -4  -4   4   41.00    7.50
   3   4  -4    1.10    3.80
  -3  -4   4    6.50    7.40
   2   4  -4    7.00    6.20
  -2  -4   4    6.40    7.60
   1   4  -4  227.78   15.80
  -1  -4   4  216.98   16.70
   0   4  -4    7.40    9.00
   0  -4   4    3.10    8.40
  -1   4  -4   39.90    9.00
   1  -4   4   34.40   10.60
  -2   4  -4   29.70    8.80
   2  -4   4   35.00    9.40
  -3   4  -4  953.70   36.90
  -4   4  -4  364.66   21.10
   4  -4   4  383.56   16.40
  -5   4  -4   73.09   11.40
  -6   4  -4   -1.40    9.70
  -9  -3   4   11.80    5.80
  -8  -3   4   74.19    8.90
  -7  -3   4    3.30    4.80
  -6  -3   4   47.20    5.60
  -5  -3   4   27.60    5.30
  -4  -3   4   79.59    9.00
  -3  -3   4  105.89   10.10
   2   3  -4   16.20    6.20
  -2  -3   4   19.60    7.10
   1   3  -4   20.30    7.50
  -1  -3   4    4.40    7.20
   0   3  -4 1859.81   59.29
   0  -3   4 1799.12   58.89
  -1   3  -4  956.20   35.20
   1  -3   4  980.20   35.80
  -2   3  -4 1069.29   38.60
   2  -3   4 1078.09   38.00
   2  -3   4 1031.50   36.80
  -3   3  -4  196.28   15.60
   3  -3   4  216.28   13.30
  -4   3  -4  456.25   22.70
   4  -3   4  469.25   18.10
  -5   3  -4   33.50    9.30
  -6   3  -4   27.70   10.70
  -4  -2   4   64.49    5.90
  -3  -2   4  419.66   16.30
  -2  -2   4   10.70    6.10
   1   2  -4 1339.57   43.50
  -1  -2   4 1367.66   44.40
   0   2  -4  228.38   14.40
   0  -2   4  228.38   14.70
  -1   2  -4   51.89    8.70
   1  -2   4   52.19    9.60
  -2   2  -4  304.97   16.80
   2  -2   4  303.47   16.70
   2  -2   4  285.47   15.30
  -3   2  -4  214.38   15.50
   3  -2   4  196.28   12.30
  -4   2  -4   56.09    9.40
   4  -2   4   55.69    6.90
   4  -2   4   50.99    6.70
  -5   2  -4   -0.10    8.00
  -6   2  -4   -0.50    8.60
  -7   2  -4   27.10   12.30
  -2  -1   4 1318.37   41.30
   1   1  -4  501.15   18.90
  -1  -1   4  500.45   19.80
   0   1  -4   29.70    7.70
   0  -1   4   14.60    7.00
  -1   1  -4 2555.44   79.19
   1  -1   4 2555.54   78.59
   1  -1   4 2613.04   79.39
  -2   1  -4  153.08   12.70
  -2   1  -4  157.08   11.90
   2  -1   4  149.59   12.70
   2  -1   4  156.18   11.90
  -3   1  -4  545.35   22.90
  -3   1  -4  540.15   23.40
   3  -1   4  540.75   21.00
  -4   1  -4   -1.10    6.90
  -4   1  -4    6.20    8.10
   4  -1   4   -2.70    4.50
   4  -1   4    1.90    4.40
  -5   1  -4  104.29   11.90
  -5   1  -4  101.39   13.30
  -6   1  -4   77.99   11.30
  -6   1  -4   80.19   12.30
  -7   1  -4    6.10    9.20
  -7   1  -4   -2.60    8.80
  -8   1  -4   11.40   10.70
  -1   0   4 1317.87   41.90
   0   0  -4    6.40    5.80
   0   0   4    1.40    6.70
   0   0   4   -0.20    7.10
  -1   0  -4    1.90    7.70
  -1   0  -4   -4.80    6.40
   1   0   4    6.50    6.40
   1   0   4    0.50    6.70
  -2   0  -4    8.50    7.60
  -2   0  -4   13.00    7.80
   2   0   4   12.70    7.00
   2   0   4   17.30    7.60
  -3   0  -4   99.59   12.00
  -3   0  -4  100.69   11.90
   3   0   4  110.59   10.10
  -4   0  -4  283.07   17.00
  -4   0  -4  286.17   17.20
   4   0   4  289.07   12.10
   4   0   4  286.67   12.30
  -5   0  -4  109.99   13.30
  -5   0  -4  119.29   13.40
  -6   0  -4    8.00    9.00
  -6   0  -4    6.00    8.10
  -7   0  -4    4.80    8.40
  -7   0  -4    5.60    9.90
  -8   0  -4   35.90   11.00
  -9   0  -4    8.10   11.60
  -1   1   4  253.27   12.70
   0  -1  -4 1697.43   53.49
   0   1   4 1697.23   54.09
   0   1   4 1740.03   53.99
  -1  -1  -4   54.09    8.10
  -1  -1  -4   55.79    8.30
   1   1   4   57.69    8.20
   1   1   4   54.09    8.30
  -2  -1  -4    8.90    7.90
  -2  -1  -4    4.50    7.70
   2   1   4   -3.30    7.30
   2   1   4    2.30    7.10
  -3  -1  -4   14.60    7.80
  -3  -1  -4   -0.80    7.20
   3   1   4    0.60    2.10
   3   1   4    2.10    6.50
  -4  -1  -4   10.10    7.50
  -4  -1  -4   24.30    8.30
   4   1   4   19.70    5.50
   4   1   4   17.90    5.20
  -5  -1  -4   74.29   10.30
  -5  -1  -4   78.39   10.60
  -6  -1  -4   24.80    8.80
  -6  -1  -4   30.40    9.20
  -7  -1  -4   26.10   10.60
  -7  -1  -4   37.70   10.50
  -8  -1  -4    3.30   11.00
  -9  -1  -4   27.70   12.50
  -8   2   4   -2.50    5.50
  -7   2   4  128.79    8.40
  -6   2   4  156.78    8.20
  -5   2   4   23.30    4.20
  -4   2   4   61.99    6.30
  -3   2   4  300.27   12.90
  -2   2   4 2090.89   63.79
  -1   2   4  112.59   10.30
   0  -2  -4    3.20    7.20
   0   2   4    5.90    6.60
  -1  -2  -4   34.40    7.90
   1   2   4   43.60    8.20
   1   2   4   39.70    8.80
  -2  -2  -4   -1.40    7.50
  -2  -2  -4    0.10    8.10
   2   2   4    4.70    6.50
   2   2   4    1.20    7.50
  -3  -2  -4  168.58   13.70
  -3  -2  -4  169.38   12.60
   3   2   4  164.38   11.40
   3   2   4   87.29   10.70
  -4  -2  -4  251.27   15.80
  -4  -2  -4  240.28   15.60
   4   2   4  236.38   12.20
   4   2   4  256.87   13.10
  -5  -2  -4   37.10    9.60
  -5  -2  -4   39.40    8.70
  -6  -2  -4    5.00    8.80
  -6  -2  -4    7.90    8.30
  -7  -2  -4  160.58   16.80
  -7  -2  -4  125.69   15.10
  -8  -2  -4   23.10   11.00
  -9  -2  -4   -0.50   11.90
  -7   3   4   54.79    8.10
  -6   3   4    7.40    5.80
  -5   3   4    4.20    5.40
  -4   3   4  242.38   12.30
  -3   3   4  157.38   10.60
  -2   3   4   49.50    7.70
   1  -3  -4   66.29    7.60
  -1   3   4  212.48   12.80
   0  -3  -4  115.49   10.70
   0   3   4   97.59   11.20
  -1  -3  -4   44.80    8.80
   1   3   4   38.60    8.40
  -2  -3  -4  493.35   22.80
   2   3   4  491.55   21.60
   2   3   4  487.55   22.10
  -3  -3  -4   75.09   11.10
   3   3   4   83.89   10.00
   3   3   4   78.89    9.50
  -4  -3  -4   58.29   10.20
  -4  -3  -4   51.99    9.30
   4   3   4   50.99    7.40
   4   3   4   60.79    8.00
  -5  -3  -4  572.84   26.20
  -5  -3  -4  561.94   25.60
  -6  -3  -4   21.80   10.20
  -6  -3  -4   26.00    9.40
  -7  -3  -4   69.99   11.70
  -7  -3  -4   73.39   12.20
  -8  -3  -4   14.70   11.40
  -9  -3  -4    0.70   11.70
  -7   4   4   33.60    8.90
  -6   4   4  129.69   12.10
  -5   4   4  120.09   11.20
  -4   4   4   18.40    6.70
  -3   4   4   29.70    7.70
   2  -4  -4  647.94   22.10
  -2   4   4  652.13   25.20
   1  -4  -4  177.68   11.80
  -1   4   4  183.18   13.70
   0  -4  -4   70.49   10.20
   0   4   4   68.09    9.60
  -1  -4  -4   13.90    8.50
   1   4   4   13.80    9.20
  -2  -4  -4  141.49   13.80
   2   4   4  152.18   14.20
  -3  -4  -4  146.59   13.80
   3   4   4  144.29   13.00
   3   4   4  136.79   12.80
  -4  -4  -4  272.77   18.00
  -5  -4  -4   13.30    9.10
   5   4   4    5.00    4.90
  -6  -4  -4   19.50   10.90
  -7  -4  -4   12.60   10.80
  -8  -4  -4    7.20   10.40
  -9  -4  -4   28.80   12.10
  -6   5   4    5.10    8.60
  -5   5   4  213.58   15.30
  -4   5   4   29.80    8.70
  -3   5   4  110.49   11.10
   2  -5  -4  203.98   11.50
  -2   5   4  188.88   13.90
   1  -5  -4  356.76   17.60
  -1   5   4  346.97   19.00
   0  -5  -4    0.30    7.80
   0   5   4   -0.50    9.30
  -1  -5  -4   40.30    9.80
   1   5   4   43.20   10.70
  -2  -5  -4   45.60   11.40
   2   5   4   44.70   10.30
  -3  -5  -4  182.18   15.70
   3   5   4  176.98   14.70
  -4  -5  -4   48.30   11.00
   4   5   4   23.90    6.30
  -5  -5  -4   57.79   12.50
   5   5   4   51.39    7.50
  -6  -5  -4   43.10   11.20
  -7  -5  -4   47.60   11.90
  -8  -5  -4   45.10   13.40
  -9  -5  -4   24.80   12.50
  -5   6   4   15.70    9.80
  -4   6   4  424.16   21.90
  -3   6   4   40.60    9.90
   2  -6  -4   39.20    6.80
  -2   6   4   39.20    9.50
   1  -6  -4  532.25   23.20
  -1   6   4  487.65   23.70
   0  -6  -4  682.13   28.20
   0   6   4  647.84   28.30
  -1  -6  -4   37.90   10.20
   1   6   4   39.70   11.10
  -2  -6  -4   55.79   12.50
   2   6   4   57.09   11.60
  -3  -6  -4   -4.40    9.00
  -4  -6  -4    7.90   10.50
   4   6   4    1.40    6.80
  -5  -6  -4  119.79   14.70
   5   6   4  102.99   11.60
  -6  -6  -4   62.79   12.90
  -7  -6  -4    6.00   11.70
  -8  -6  -4    3.20   12.40
  -9  -6  -4   29.00   13.00
  -5   7   4   -0.10    9.40
  -4   7   4  116.49   14.50
   3  -7  -4   88.69    7.30
  -3   7   4   90.69   12.40
  -2   7   4  246.08   18.20
   1  -7  -4   44.40   10.10
  -1   7   4   48.80   11.50
   0  -7  -4  125.59   15.50
   0   7   4  125.99   15.90
  -1  -7  -4   30.10   10.50
   1   7   4   37.90   11.40
  -2  -7  -4  193.48   19.10
  -3  -7  -4   35.00   11.10
  -4  -7  -4  231.68   19.80
   4   7   4  227.58   16.20
  -5  -7  -4   40.00   12.60
   5   7   4    1.60    3.20
  -6  -7  -4   11.50   11.70
   6   7   4    1.00    5.40
  -7  -7  -4   95.19   16.10
  -8  -7  -4   -2.00   12.70
  -9  -7  -4   14.90   14.40
  -4   8   4  640.64   30.90
   3  -8  -4   73.69    8.40
  -3   8   4   80.09   14.20
   2  -8  -4    3.90    3.80
  -2   8   4   37.00   11.20
   1  -8  -4  345.37   20.60
  -1   8   4  354.76   22.60
   0  -8  -4  287.67   19.10
   0   8   4  289.87   20.90
  -1  -8  -4  244.68   19.20
  -2  -8  -4   52.09   13.50
  -3  -8  -4   29.90   10.80
  -4  -8  -4   54.39   13.80
  -5  -8  -4  229.08   20.90
   5   8   4  175.08   14.00
  -6  -8  -4   91.29   14.50
   6   8   4   96.29   11.00
  -7  -8  -4    8.50   12.50
  -8  -8  -4    7.20   12.40
  -9  -8  -4   -4.00   14.30
  -4   9   4  155.78   23.10
   3  -9  -4  180.88   12.50
  -3   9   4  179.08   19.20
   2  -9  -4  509.45   26.30
  -2   9   4  922.01   35.30
   1  -9  -4  133.19   15.80
  -1   9   4  150.98   16.90
   0  -9  -4  125.79   15.50
  -1  -9  -4   19.20   12.90
  -2  -9  -4   89.09   15.70
  -3  -9  -4  295.97   22.30
  -4  -9  -4  116.39   17.20
  -5  -9  -4  217.78   21.00
   5   9   4  206.98   16.20
  -6  -9  -4  105.89   17.30
  -7  -9  -4  221.78   23.40
  -8  -9  -4   50.79   15.30
  -9  -9  -4    2.00   15.40
  -3  10   4   42.40   14.70
   2 -10  -4   42.50   10.40
  -2  10   4   69.99   15.30
   1 -10  -4  118.59   15.70
   0 -10  -4   -2.20    9.80
  -1 -10  -4  136.99   18.40
  -2 -10  -4  118.29   17.70
  -3 -10  -4  140.79   17.80
  -4 -10  -4   68.69   15.00
  -5 -10  -4  282.57   25.90
   5  10   4  280.27   19.40
  -6 -10  -4  111.59   16.80
  -7 -10  -4   11.80   14.60
  -8 -10  -4    0.50   14.30
   2 -11  -4   74.49   12.90
   1 -11  -4   21.00   10.90
   0 -11  -4  245.78   20.70
  -1 -11  -4  130.29   17.20
  -2 -11  -4   19.20   14.70
  -3 -11  -4  493.45   30.70
  -4 -11  -4  174.38   22.10
  -5 -11  -4  -13.60   14.20
  -6 -11  -4   17.10   15.10
  -7 -11  -4   24.50   15.70
  -8 -11  -4    4.40   15.20
   1 -12  -4    8.80   11.20
   0 -12  -4   43.20   13.90
  -1 -12  -4  586.24   34.50
  -2 -12  -4  325.47   26.60
  -3 -12  -4    4.20   12.90
  -4 -12  -4   82.29   18.80
  -5 -12  -4   25.90   16.80
  -6 -12  -4   -2.40   15.40
  -7 -12  -4   53.09   18.30
  -8 -12  -4   -0.10   16.10
   0 -13  -4  108.59   17.50
  -1 -13  -4  202.08   22.40
  -2 -13  -4    1.60   14.90
  -3 -13  -4   20.00   14.60
  -4 -13  -4   -1.20   13.60
  -5 -13  -4   44.70   16.90
  -6 -13  -4    3.30   16.80
  -7 -13  -4   17.90   18.00
   0 -14  -4   66.39   16.40
  -1 -14  -4   80.59   18.60
  -2 -14  -4  158.88   21.30
  -3 -14  -4   13.50   16.90
  -4 -14  -4   12.00   17.60
  -5 -14  -4   70.99   19.90
  -6 -14  -4   25.80   16.50
  -7 -14  -4    8.10   18.40
  -1 -15  -4  114.39   20.50
  -2 -15  -4    4.50   14.00
  -3 -15  -4   38.70   16.50
  -4 -15  -4   22.70   18.70
  -5 -15  -4    4.80   16.70
  -6 -15  -4  125.09   22.40
  -1 -16  -4   22.90   18.60
  -2 -16  -4    9.40   14.20
  -3 -16  -4   87.49   21.50
  -4 -16  -4  261.77   33.70
  -5 -16  -4   82.29   21.80
  -4 -16   5   -3.10   17.50
  -3 -16   5   -5.70   16.50
  -2 -16   5    2.10   15.60
  -1 -16   5   99.19   21.60
  -5 -15   5    6.20   19.10
  -4 -15   5   -6.90   16.40
  -3 -15   5   57.59   18.80
  -2 -15   5    9.80   16.70
  -1 -15   5   89.29   21.30
   0 -15   5   -4.30   14.90
  -6 -14   5    3.00   17.40
  -5 -14   5   32.40   18.90
  -4 -14   5    3.40   14.70
  -3 -14   5   23.70   16.00
  -2 -14   5   37.70   16.70
  -1 -14   5   15.90   15.10
   0 -14   5  133.89   20.60
   1 -14   5    3.30   12.20
  -7 -13   5    0.80   15.20
  -6 -13   5   -3.00   15.10
  -5 -13   5    3.00   15.60
  -4 -13   5   -1.40   14.00
  -3 -13   5   15.70   17.20
  -2 -13   5  127.89   19.30
  -1 -13   5   23.20   14.20
   0 -13   5    0.00   12.70
   1 -13   5   26.70   13.00
  -7 -12   5    5.20   15.10
  -6 -12   5   -1.20   15.00
  -5 -12   5    0.80   13.30
  -4 -12   5   15.70   16.40
  -3 -12   5  145.29   20.70
  -2 -12   5   31.10   16.90
  -1 -12   5  -15.10   13.60
   0 -12   5   10.30   13.80
   1 -12   5   12.30   14.00
   2 -12   5  104.99   16.80
  -8 -11   5    7.30   15.30
  -7 -11   5   -1.70   13.80
  -6 -11   5   34.00   16.50
  -5 -11   5  115.49   19.70
  -4 -11   5  142.39   19.20
  -3 -11   5   68.19   17.80
  -2 -11   5   10.60   15.80
  -1 -11   5  205.38   24.10
   0 -11   5   19.70   12.60
   1 -11   5  148.59   19.60
   2 -11   5   82.69   15.60
  -8 -10   5   -9.70   13.90
  -7 -10   5   74.79   17.70
  -6 -10   5  258.87   24.90
  -5 -10   5   17.30   13.10
  -4 -10   5    6.80   13.20
  -3 -10   5  274.27   23.60
  -2 -10   5   53.19   15.80
  -1 -10   5  313.27   25.60
   0 -10   5   -5.70   11.80
   1 -10   5   26.00   13.00
   2 -10   5   34.80   11.80
   3 -10   5  144.79   18.00
  -8  -9   5  -25.00   12.20
  -7  -9   5  -11.30   12.70
  -6  -9   5    9.40   13.20
  -5  -9   5  224.48   22.70
  -4  -9   5  206.28   22.20
  -3  -9   5  111.49   16.70
  -2  -9   5   55.19   13.20
  -1  -9   5  203.98   22.60
   0  -9   5  117.19   16.20
   1  -9   5  136.89   17.80
   2  -9   5   -1.20   10.00
   3  -9   5   51.69   12.40
  -8  -8   5   59.69   14.80
  -7  -8   5  415.86   26.30
  -6  -8   5   30.10   12.60
  -5  -8   5  170.58   20.80
  -4  -8   5  312.37   22.10
  -3  -8   5  221.38   21.30
  -2  -8   5  334.97   23.30
  -1  -8   5  161.28   20.60
   0  -8   5   24.90   12.60
   1  -8   5    3.40   10.10
   2  -8   5   -6.10    9.70
  -3   8  -5   27.40   11.50
   3  -8   5   27.20   11.00
  -4   8  -5   -9.90    9.60
  -9  -7   5   85.49   14.80
  -8  -7   5   -2.50   10.20
  -7  -7   5  255.07   20.70
  -6  -7   5   14.30   11.30
  -5  -7   5   73.19   12.90
  -4  -7   5   20.90   11.60
  -3  -7   5   60.09   12.50
  -2  -7   5   10.90    9.80
  -1  -7   5   80.09   13.20
   0  -7   5   72.49   12.70
  -1   7  -5   -2.60   10.20
   1  -7   5   -5.10   10.50
  -2   7  -5   20.00   11.30
   2  -7   5    5.90    9.80
  -3   7  -5  153.58   18.60
   3  -7   5  135.49   15.40
  -4   7  -5    4.70   10.90
   4  -7   5    2.60    6.20
  -9  -6   5   26.80   11.30
  -8  -6   5   54.99   11.80
  -7  -6   5  134.69   16.20
  -6  -6   5  379.36   21.90
  -5  -6   5   95.79   12.10
  -4  -6   5    1.00    8.50
  -3  -6   5    1.50    9.10
  -2  -6   5  349.17   21.70
  -1  -6   5   81.79   13.60
   0   6  -5    6.40    9.80
   0  -6   5   -1.60    9.30
  -1   6  -5   18.00    9.30
   1  -6   5   21.30   10.00
  -2   6  -5   75.69   13.00
   2  -6   5   68.39   12.20
  -3   6  -5   13.00   10.60
   3  -6   5   31.00    9.20
  -4   6  -5  342.37   23.30
   4  -6   5  333.37   18.10
  -5   6  -5    8.70   11.10
  -9  -5   5    3.60    9.30
  -8  -5   5   85.29   11.20
  -7  -5   5   -2.50    8.30
  -6  -5   5  196.28   15.10
  -5  -5   5    1.90    7.80
  -4  -5   5  132.89   13.80
   3   5  -5  307.07   15.00
  -3  -5   5  300.67   18.10
   2   5  -5   71.89    9.70
  -2  -5   5   64.59   10.20
   1   5  -5  109.89   13.40
  -1  -5   5  114.09   15.10
   0   5  -5  174.28   16.30
   0  -5   5  204.68   16.90
  -1   5  -5   23.10    9.50
   1  -5   5   26.90   11.20
  -2   5  -5  370.66   22.80
   2  -5   5  397.36   21.20
  -3   5  -5   25.00    9.40
   3  -5   5   21.40    8.60
  -4   5  -5  409.06   24.30
   4  -5   5  388.36   19.20
  -5   5  -5   24.60   11.30
   5  -5   5   30.60    4.90
  -9  -4   5    1.50    7.80
  -8  -4   5   15.40    7.70
  -7  -4   5   -1.50    6.30
  -6  -4   5   -0.30    7.10
  -5  -4   5  264.37   15.30
  -4  -4   5    5.00    7.30
   3   4  -5   27.20    5.00
  -3  -4   5   26.10    7.90
   2   4  -5  211.88   14.10
  -2  -4   5  197.78   14.60
   1   4  -5  235.18   16.80
  -1  -4   5  233.28   16.30
   0   4  -5 1268.77   44.30
   0  -4   5 1232.78   44.70
  -1   4  -5  183.78   16.00
   1  -4   5  176.88   15.90
  -2   4  -5  163.28   15.10
   2  -4   5  144.79   15.70
  -3   4  -5  385.56   21.10
   3  -4   5  364.86   19.30
  -4   4  -5  121.29   15.90
   4  -4   5  117.19   11.50
  -5   4  -5   15.70   10.90
  -6   4  -5   35.30   11.60
  -9  -3   5   -1.60    6.10
  -8  -3   5   69.59    9.20
  -7  -3   5   16.30    5.90
  -6  -3   5   23.60    5.90
  -5  -3   5    1.20    5.60
  -4  -3   5   -2.40    5.50
  -3  -3   5  369.36   17.80
   2   3  -5   21.00    6.60
  -2  -3   5   15.20    7.80
   1   3  -5  293.37   16.50
  -1  -3   5  299.77   17.30
   0   3  -5 3856.61  117.49
   0  -3   5 3855.71  117.79
  -1   3  -5  120.99   15.40
   1  -3   5  123.09   13.80
  -2   3  -5  477.45   23.90
   2  -3   5  461.95   21.70
   2  -3   5  482.35   23.10
  -3   3  -5   -3.40    7.40
   3  -3   5    3.70    7.30
  -4   3  -5   -4.40    8.30
   4  -3   5    4.00    6.10
  -5   3  -5   -7.60    8.60
  -6   3  -5   41.50   11.20
  -5  -2   5   69.69    6.90
  -4  -2   5   18.30    5.20
  -3  -2   5  338.87   15.60
  -2  -2   5  143.29   12.50
   1   2  -5  196.48   13.60
  -1  -2   5  189.88   15.20
   0   2  -5  235.38   14.80
   0  -2   5  226.98   17.30
  -1   2  -5    3.20    7.70
   1  -2   5    0.30    8.00
   1  -2   5    6.50    7.50
  -2   2  -5  128.29   13.50
   2  -2   5  127.09   14.20
   2  -2   5  117.09   11.60
  -3   2  -5   -2.30    8.00
   3  -2   5    6.00    6.90
  -4   2  -5   12.30    8.80
   4  -2   5   18.10    6.60
  -5   2  -5   19.10    9.20
  -6   2  -5    2.50    9.90
  -2  -1   5  219.78   13.10
   1   1  -5  335.07   15.90
  -1  -1   5  345.27   17.30
   0   1  -5 1051.69   37.00
   0  -1   5 1086.79   37.60
  -1   1  -5  948.81   35.10
   1  -1   5  992.60   34.80
   1  -1   5 1004.60   35.80
  -2   1  -5   61.39   10.40
  -2   1  -5   53.69    9.20
   2  -1   5   51.59    8.90
   2  -1   5   50.29    9.00
  -3   1  -5   10.00    8.60
  -3   1  -5    1.50    8.60
   3  -1   5   11.20    7.40
   3  -1   5    3.50    7.40
  -4   1  -5   47.00    9.80
  -4   1  -5   59.19   10.10
   4  -1   5   54.49    7.80
  -5   1  -5   43.70   10.70
  -5   1  -5   38.60   10.70
  -6   1  -5   44.10   11.70
  -6   1  -5   51.99   11.50
  -7   1  -5    2.90   10.20
  -7   1  -5  -18.90   11.50
  -8   1  -5   32.80   12.40
  -1   0   5   88.69   11.10
   0   0  -5  665.13   26.10
   0   0   5  663.13   25.90
   0   0   5  671.93   25.40
  -1   0  -5 1570.54   52.09
  -1   0  -5 1572.24   51.69
   1   0   5 1599.04   51.69
   1   0   5 1593.04   52.69
  -2   0  -5   76.09    9.60
  -2   0  -5   69.89   10.60
   2   0   5   55.69   10.00
   2   0   5   62.49    9.60
  -3   0  -5   24.90    8.80
  -3   0  -5   17.10    8.60
   3   0   5   18.70    7.30
   3   0   5   31.00    7.80
  -4   0  -5  143.59   14.10
  -4   0  -5  125.39   13.80
   4   0   5  136.69   11.10
  -5   0  -5   11.30    9.50
  -5   0  -5    1.00    8.60
  -6   0  -5  126.79   15.80
  -6   0  -5  130.49   15.70
  -7   0  -5    9.50   10.10
  -7   0  -5    6.70   10.50
  -8   0  -5    5.50   11.70
  -9   0  -5    4.00   11.20
  -2   1   5   -1.80    6.30
  -1   1   5  181.08   12.50
   0  -1  -5   -2.70    6.40
   0   1   5    9.10    7.10
   0   1   5   -2.30    6.80
  -1  -1  -5   25.50    8.00
  -1  -1  -5   25.60    8.00
   1   1   5   23.20    8.90
   1   1   5   19.90    9.10
  -2  -1  -5   25.10    8.20
  -2  -1  -5   13.80    7.70
   2   1   5   17.60    7.90
   2   1   5   21.10    7.80
  -3  -1  -5   -1.50    7.20
  -3  -1  -5   -1.60    8.20
   3   1   5    2.40    7.50
   3   1   5   -5.80    7.00
  -4  -1  -5  391.76   20.40
  -4  -1  -5  384.16   20.20
   4   1   5  388.76   17.80
  -5  -1  -5   37.70    9.60
  -5  -1  -5   60.29   10.10
   5   1   5   48.00    5.00
  -6  -1  -5   81.19   11.70
  -6  -1  -5   75.39   12.00
  -7  -1  -5   74.49   12.60
  -7  -1  -5   56.39   12.80
  -8  -1  -5   37.50   11.80
  -9  -1  -5    0.10   11.00
  -8   2   5   22.10    7.10
  -7   2   5   66.09    7.90
  -6   2   5   -2.80    4.80
  -5   2   5   50.69    6.10
  -4   2   5   14.70    5.40
  -3   2   5  192.98   11.80
  -2   2   5  202.88   13.00
   1  -2  -5   37.80    5.90
  -1   2   5   66.69    8.70
   0  -2  -5  138.99   11.70
   0   2   5  149.39   12.20
  -1  -2  -5  260.77   16.80
   1   2   5  270.47   15.90
   1   2   5  274.77   17.50
  -2  -2  -5  272.87   17.60
  -2  -2  -5  282.17   16.90
   2   2   5  283.07   16.20
   2   2   5  298.17   16.80
  -3  -2  -5  107.59   13.60
  -3  -2  -5  105.99   13.90
   3   2   5   99.29   12.70
   3   2   5  113.49   11.90
  -4  -2  -5   45.90    9.60
  -4  -2  -5   45.20    9.90
   4   2   5   24.70    6.00
  -5  -2  -5   84.89   11.20
  -5  -2  -5   65.99   10.90
   5   2   5   74.29    7.40
  -6  -2  -5   25.00   10.60
  -6  -2  -5   15.00    9.70
  -7  -2  -5  121.69   16.30
  -7  -2  -5  122.19   14.80
  -8  -2  -5   13.60   11.20
  -9  -2  -5  -10.50   11.30
  -7   3   5  -10.40    6.40
  -6   3   5    8.10    6.50
  -5   3   5   51.29    7.60
  -4   3   5   14.50    6.20
  -3   3   5   -1.50    6.40
  -2   3   5  908.41   32.50
   1  -3  -5    7.30    6.50
  -1   3   5    0.60    7.70
   0  -3  -5  110.79   11.30
   0   3   5   93.59   10.80
  -1  -3  -5    6.70    9.20
   1   3   5   17.20    8.40
  -2  -3  -5    5.90    8.20
   2   3   5   -2.40    7.50
   2   3   5   -4.60    8.50
  -3  -3  -5  127.99   14.30
   3   3   5  109.99   13.20
   3   3   5  108.49   13.20
  -4  -3  -5  275.97   18.40
  -4  -3  -5  307.77   17.90
  -5  -3  -5  197.68   17.30
  -5  -3  -5  197.08   17.40
   5   3   5  184.78   11.60
  -6  -3  -5   13.40    9.60
  -6  -3  -5   25.40   10.20
  -7  -3  -5  243.28   19.80
  -7  -3  -5  221.78   19.50
  -8  -3  -5    0.30   11.20
  -9  -3  -5   81.59   15.20
  -6   4   5  267.77   15.70
  -5   4   5    7.10    7.20
  -4   4   5  126.59   11.80
  -3   4   5  401.86   19.60
   2  -4  -5  609.74   21.40
  -2   4   5  593.94   24.90
   1  -4  -5  174.98   13.20
  -1   4   5  168.28   14.50
   0  -4  -5  949.40   34.80
   0   4   5  934.21   35.40
  -1  -4  -5 1059.29   38.10
   1   4   5 1024.90   38.40
  -2  -4  -5  136.49   14.70
   2   4   5  114.39   12.90
   2   4   5  121.49   14.90
  -3  -4  -5   -2.20    8.50
   3   4   5    8.40    8.40
  -4  -4  -5   40.60   11.00
   4   4   5   27.60    7.80
  -5  -4  -5    4.20    9.90
   5   4   5   -3.10    6.00
  -6  -4  -5    3.60   10.10
  -7  -4  -5   58.49   13.30
  -8  -4  -5   -4.80   10.40
  -9  -4  -5    2.50   12.50
  -6   5   5    7.20    8.90
  -5   5   5   39.20    9.20
  -4   5   5  145.69   13.10
  -3   5   5    5.60    7.90
   2  -5  -5   82.99    8.70
  -2   5   5   79.49   10.70
   1  -5  -5  132.69   13.40
  -1   5   5  146.49   14.40
   0  -5  -5  139.49   13.40
   0   5   5  117.89   15.20
  -1  -5  -5   20.50    9.70
   1   5   5   20.60   10.40
  -2  -5  -5   17.70   11.10
   2   5   5   15.50    8.80
  -3  -5  -5  199.28   18.30
   3   5   5  204.68   16.20
  -4  -5  -5   36.60   10.30
   4   5   5   32.10    8.40
  -5  -5  -5  163.68   17.60
   5   5   5  160.28   13.30
  -6  -5  -5   50.39   12.70
   6   5   5   57.29    6.10
  -7  -5  -5   -2.30   10.90
  -8  -5  -5    2.50   10.90
  -9  -5  -5   41.30   14.60
  -5   6   5   44.80   10.30
  -4   6   5   47.90   10.00
  -3   6   5   92.39   12.20
   2  -6  -5    6.70    5.80
  -2   6   5   16.10    8.70
   1  -6  -5  340.67   18.60
  -1   6   5  343.77   20.50
   0  -6  -5  192.98   17.00
   0   6   5  191.98   17.50
  -1  -6  -5   29.60   11.70
   1   6   5   42.30   10.40
  -2  -6  -5  -10.80    9.30
  -3  -6  -5  113.99   15.30
  -4  -6  -5   73.99   13.40
   4   6   5   94.39   11.20
  -5  -6  -5   28.80   11.80
   5   6   5   -1.60    3.00
  -6  -6  -5    7.90   11.40
   6   6   5   14.60    6.00
  -7  -6  -5   -4.00   11.20
  -8  -6  -5   -7.50   12.10
  -9  -6  -5    7.20   13.50
  -5   7   5  -20.20    9.30
  -4   7   5   19.20    9.60
   3  -7  -5  763.12   24.90
  -3   7   5  760.32   33.40
   2  -7  -5   21.20    4.80
  -2   7   5   55.49   11.50
   1  -7  -5   41.70    9.40
  -1   7   5   31.60    9.90
   0  -7  -5  -10.10    9.60
   0   7   5   -0.40   10.30
  -1  -7  -5   35.80   10.90
   1   7   5   48.60   11.00
  -2  -7  -5  295.07   21.80
  -3  -7  -5   43.10   11.40
  -4  -7  -5    3.50   11.60
   4   7   5   19.50    8.50
  -5  -7  -5  128.59   16.70
   5   7   5   78.39   10.60
  -6  -7  -5  240.48   21.80
   6   7   5  215.98   14.60
  -7  -7  -5   21.20   13.00
  -8  -7  -5   52.09   14.80
  -9  -7  -5    2.40   13.10
  -4   8   5  167.68   18.40
   3  -8  -5  191.18   11.10
  -3   8   5  174.08   18.40
  -2   8   5  221.28   19.30
   1  -8  -5  139.49   14.90
  -1   8   5  164.48   17.90
   0  -8  -5  187.38   18.40
   0   8   5  201.78   19.20
  -1  -8  -5  273.97   20.30
  -2  -8  -5   76.09   13.30
  -3  -8  -5   27.70   11.70
  -4  -8  -5  323.77   24.80
   4   8   5  336.07   21.00
  -5  -8  -5    9.20   11.40
   5   8   5   10.50    8.30
  -6  -8  -5   14.00   13.30
  -7  -8  -5   40.00   14.60
  -8  -8  -5   38.20   15.10
  -9  -8  -5   54.89   16.20
   3  -9  -5   -1.70    6.40
  -3   9   5    6.60   11.60
  -2   9   5  891.11   39.90
   1  -9  -5  106.69   13.70
  -1   9   5  113.79   16.20
   0  -9  -5   40.20   10.90
  -1  -9  -5  123.79   16.70
  -2  -9  -5  105.99   16.60
  -3  -9  -5   -3.80   11.60
  -4  -9  -5   63.09   16.20
  -5  -9  -5  196.48   21.30
   5   9   5  180.38   16.70
  -6  -9  -5    5.60   13.60
  -7  -9  -5   53.19   16.00
  -8  -9  -5   30.30   15.90
  -3  10   5   -2.20   11.60
   2 -10  -5   59.59   10.40
  -2  10   5   96.99   15.30
   1 -10  -5   44.50   12.10
   0 -10  -5  484.65   26.90
  -1 -10  -5    6.60   10.90
  -2 -10  -5  323.27   25.10
  -3 -10  -5    7.90   13.00
  -4 -10  -5   24.20   15.70
  -5 -10  -5   41.20   14.10
   5  10   5   28.30   11.40
  -6 -10  -5   36.30   14.40
  -7 -10  -5   -1.00   14.50
  -8 -10  -5   77.09   16.70
   1 -11  -5  711.73   34.60
   0 -11  -5  252.57   22.40
  -1 -11  -5  110.99   17.50
  -2 -11  -5   76.29   18.30
  -3 -11  -5  134.39   19.00
  -4 -11  -5   -0.20   13.40
  -5 -11  -5   -5.00   15.10
  -6 -11  -5  196.88   25.90
  -7 -11  -5   17.00   15.80
  -8 -11  -5   11.40   15.80
   1 -12  -5   15.50   11.20
   0 -12  -5   71.09   15.80
  -1 -12  -5  142.99   19.70
  -2 -12  -5  262.07   26.90
  -3 -12  -5    9.00   13.60
  -4 -12  -5   94.69   18.50
  -5 -12  -5  -13.00   13.30
  -6 -12  -5   88.79   18.70
  -7 -12  -5   13.20   16.80
   0 -13  -5  195.08   22.50
  -1 -13  -5  151.38   20.50
  -2 -13  -5   35.10   14.80
  -3 -13  -5   21.30   15.00
  -4 -13  -5  104.89   21.10
  -5 -13  -5    4.30   17.20
  -6 -13  -5    2.50   15.70
  -7 -13  -5    3.80   17.60
   0 -14  -5   -9.60   12.40
  -1 -14  -5  120.69   18.80
  -2 -14  -5  129.79   21.30
  -3 -14  -5    4.20   14.30
  -4 -14  -5   -1.90   15.30
  -5 -14  -5   13.30   18.90
  -6 -14  -5   -3.50   16.00
  -1 -15  -5   65.69   16.10
  -2 -15  -5    5.60   13.90
  -3 -15  -5   14.50   17.70
  -4 -15  -5   19.50   19.30
  -5 -15  -5   45.00   18.30
  -2 -16  -5   17.10   14.60
  -3 -16  -5    3.90   15.60
  -4 -16  -5   90.59   21.40
  -3 -16   6    3.60   17.40
  -2 -16   6   79.69   23.40
  -1 -16   6    3.30   17.20
  -5 -15   6    3.90   18.60
  -4 -15   6   85.79   22.60
  -3 -15   6    4.40   15.90
  -2 -15   6   24.40   17.40
  -1 -15   6    0.30   17.20
   0 -15   6    0.90   13.80
  -6 -14   6   17.50   18.20
  -5 -14   6   84.59   21.90
  -4 -14   6   27.00   16.60
  -3 -14   6   37.80   18.70
  -2 -14   6    6.30   14.60
  -1 -14   6   78.89   17.90
   0 -14   6   -7.50   13.10
   1 -14   6   27.40   19.00
  -7 -13   6   15.90   14.70
  -6 -13   6   11.20   14.50
  -5 -13   6    0.60   14.20
  -4 -13   6   16.10   18.30
  -3 -13   6  145.69   21.60
  -2 -13   6   -2.20   16.20
  -1 -13   6   18.80   16.00
   0 -13   6    8.30   14.70
   1 -13   6   27.50   15.60
  -7 -12   6    6.50   16.60
  -6 -12   6   13.10   16.30
  -5 -12   6   26.60   16.90
  -4 -12   6    4.20   14.60
  -3 -12   6   91.89   20.50
  -2 -12   6   -2.10   14.10
  -1 -12   6   -4.20   12.80
   0 -12   6   30.20   13.70
   1 -12   6   -0.20   11.70
   2 -12   6   26.00   14.70
  -7 -11   6   32.00   16.10
  -6 -11   6   28.20   15.70
  -5 -11   6    5.10   14.50
  -4 -11   6   25.60   13.70
  -3 -11   6   38.20   16.40
  -2 -11   6   18.90   14.20
  -1 -11   6  102.99   18.40
   0 -11   6  110.79   18.00
   1 -11   6  229.38   23.60
   2 -11   6  120.49   17.60
  -8 -10   6   27.30   16.10
  -7 -10   6   25.40   14.10
  -6 -10   6   50.49   16.60
  -5 -10   6   27.70   14.20
  -4 -10   6  282.47   24.80
  -3 -10   6    1.00   14.50
  -2 -10   6   98.89   17.70
  -1 -10   6  322.47   25.90
   0 -10   6   81.59   16.00
   1 -10   6   -3.60   12.90
   2 -10   6    4.10   11.60
   3 -10   6    1.70   12.90
  -8  -9   6   12.50   13.60
  -7  -9   6    4.70   13.30
  -6  -9   6   65.79   14.70
  -5  -9   6  232.58   23.70
  -4  -9   6   13.20   11.70
  -3  -9   6  460.95   30.10
  -2  -9   6  207.08   21.40
  -1  -9   6  131.09   18.70
   0  -9   6  216.28   21.70
   1  -9   6    3.90   10.80
   2  -9   6    0.00   11.30
   3  -9   6  129.49   17.10
  -8  -8   6  102.59   15.90
  -7  -8   6  -10.60   12.10
  -6  -8   6   22.40   11.90
  -5  -8   6  101.29   15.30
  -4  -8   6  896.81   40.00
  -3  -8   6   -0.70   10.30
  -2  -8   6  139.89   17.70
  -1  -8   6    7.40   11.60
   0  -8   6  307.37   23.10
   1  -8   6  238.18   22.10
   2  -8   6    6.40   11.50
   3  -8   6   -3.60    8.70
  -8  -7   6   -6.30   11.20
  -7  -7   6    8.70   11.80
  -6  -7   6  206.88   19.90
  -5  -7   6   40.90   11.90
  -4  -7   6    8.30   10.00
  -3  -7   6    4.20    9.00
  -2  -7   6   -1.80   11.00
  -1  -7   6  236.08   21.80
   0  -7   6   53.49   14.10
   1  -7   6   35.20   13.00
   2  -7   6   -3.90   10.00
  -3   7  -6   16.40   10.80
   3  -7   6   19.10   10.00
  -4   7  -6  321.67   24.00
  -9  -6   6    1.10   10.90
  -8  -6   6   10.60   10.60
  -7  -6   6   73.29   12.20
  -6  -6   6   15.30    9.60
  -5  -6   6   -5.70    9.00
  -4  -6   6   48.20   11.50
  -3  -6   6   34.20   10.80
  -2  -6   6  124.49   15.70
  -1  -6   6  278.37   19.80
   0  -6   6    0.00   11.00
  -1   6  -6   81.49   12.80
   1  -6   6   80.39   13.20
  -2   6  -6    7.70    9.60
   2  -6   6   17.00   10.50
  -3   6  -6  164.68   17.60
   3  -6   6  149.88   16.10
  -4   6  -6   17.20   10.40
   4  -6   6   -0.30    2.50
  -5   6  -6  205.38   22.40
  -9  -5   6    5.20    9.70
  -8  -5   6   38.90   10.00
  -7  -5   6    8.70    8.80
  -6  -5   6   13.50    8.70
  -5  -5   6   63.19   10.80
  -4  -5   6    2.80    8.90
  -3  -5   6  263.27   17.90
  -2  -5   6   34.30   10.40
  -1  -5   6   64.79   12.60
   0   5  -6   64.39   11.00
   0  -5   6   42.60   12.60
  -1   5  -6  747.93   32.90
   1  -5   6  791.22   34.10
  -2   5  -6   -2.00   10.40
   2  -5   6    2.30   10.10
  -3   5  -6 1033.70   42.10
   3  -5   6  992.10   39.70
  -4   5  -6   76.99   13.80
   4  -5   6    7.40    3.60
  -5   5  -6  538.95   30.90
   5  -5   6  598.44   25.40
  -9  -4   6    3.30    7.80
  -8  -4   6    2.90    7.60
  -7  -4   6   13.10    7.70
  -6  -4   6   28.90    8.00
  -5  -4   6   15.70    7.60
  -4  -4   6   18.50    8.00
   3   4  -6    9.00    5.20
  -3  -4   6    1.80    7.80
   2   4  -6   30.60    8.60
  -2  -4   6   32.50    9.90
   1   4  -6 2182.48   70.59
  -1  -4   6 2174.78   71.29
   0   4  -6   15.10   10.10
   0  -4   6    3.70   10.20
  -1   4  -6  509.05   25.30
   1  -4   6  512.95   25.60
  -2   4  -6   11.00    8.80
   2  -4   6   -3.30    9.40
  -3   4  -6  551.74   28.80
   3  -4   6  598.14   27.40
  -4   4  -6   -3.70    9.80
   4  -4   6   -0.40    3.40
  -5   4  -6  249.58   21.20
   5  -4   6  232.48   13.60
  -9  -3   6   -0.20    6.40
  -8  -3   6   42.80    7.70
  -7  -3   6    1.40    6.40
  -6  -3   6   -0.80    6.20
  -5  -3   6  164.78   12.90
  -4  -3   6   19.80    6.90
  -3  -3   6  232.58   16.00
   2   3  -6    2.20    6.70
  -2  -3   6    6.90    8.50
   1   3  -6 1867.01   60.69
  -1  -3   6 1845.72   61.69
   0   3  -6   28.80    9.10
   0  -3   6   20.20    9.80
  -1   3  -6  768.72   31.50
   1  -3   6  751.92   32.10
  -2   3  -6  208.28   18.20
   2  -3   6  225.18   17.00
  -3   3  -6  527.05   26.60
   3  -3   6  530.85   25.50
  -4   3  -6  150.98   16.00
  -5   3  -6   21.90   10.30
   5  -3   6    2.70    5.10
  -6   3  -6  239.18   22.90
  -9  -2   6   -4.20    5.20
  -8  -2   6    8.10    5.30
  -7  -2   6  246.08   12.30
  -6  -2   6   33.30    6.00
  -5  -2   6   30.50    6.30
  -4  -2   6    3.40    6.20
  -3  -2   6 2386.46   74.29
  -2  -2   6  706.73   27.60
   1   2  -6 2226.18   70.29
  -1  -2   6 2224.48   71.19
   0   2  -6 1511.35   51.79
   0  -2   6 1546.75   52.29
  -1   2  -6  270.57   17.30
   1  -2   6  275.37   18.20
   1  -2   6  262.07   18.10
  -2   2  -6   87.19   11.50
   2  -2   6   79.09   11.00
   2  -2   6   68.49   11.40
  -3   2  -6   38.70   10.30
   3  -2   6   28.90    8.90
  -4   2  -6  346.67   21.80
  -5   2  -6    5.80   10.60
   5  -2   6   -0.20    5.00
  -6   2  -6    3.50   10.30
  -3  -1   6   61.69    8.10
  -2  -1   6   25.70    7.50
   1   1  -6    9.20    7.00
  -1  -1   6    7.40    8.40
   0   1  -6   95.89   10.70
   0  -1   6   82.89   11.90
   0  -1   6   86.19   11.40
  -1   1  -6  353.36   19.10
   1  -1   6  331.57   19.80
   1  -1   6  337.47   18.40
  -2   1  -6  401.06   21.60
   2  -1   6  420.16   21.20
   2  -1   6  388.56   19.80
  -3   1  -6   12.40    8.30
  -3   1  -6   20.60    9.60
   3  -1   6   10.60    8.00
  -4   1  -6   -1.80    8.80
  -4   1  -6    5.30    8.60
   4  -1   6    0.20    2.60
  -5   1  -6    5.80    9.70
  -5   1  -6   17.20    9.60
   5  -1   6   16.60    5.50
  -6   1  -6  196.28   18.60
  -6   1  -6  201.68   18.00
  -7   1  -6   51.39   12.40
  -2   0   6  105.89   11.00
  -1   0   6  351.16   17.20
  -1   0   6  356.76   18.60
   0   0  -6  753.12   29.20
   0   0   6  771.72   30.50
   0   0   6  770.52   29.90
  -1   0  -6 1782.92   58.79
  -1   0  -6 1752.12   57.79
   1   0   6 1784.82   58.19
   1   0   6 1758.42   58.59
  -2   0  -6  151.08   15.80
  -2   0  -6  154.08   14.00
   2   0   6  131.09   14.50
   2   0   6  145.99   14.20
  -3   0  -6  145.49   14.40
  -3   0  -6  143.99   15.10
   3   0   6  153.48   14.70
  -4   0  -6   -2.10    8.50
  -4   0  -6    1.50    9.00
   4   0   6    0.30    1.80
  -5   0  -6  179.28   18.30
  -5   0  -6  184.68   17.00
   5   0   6  175.18   11.10
  -6   0  -6   -4.60    8.80
  -6   0  -6    3.40   10.50
  -7   0  -6   25.30   10.90
  -8   0  -6   20.40   12.40
  -8   1   6   31.20    5.90
  -3   1   6   67.49    8.10
  -2   1   6   -2.10    6.20
  -1   1   6  255.97   15.80
   0  -1  -6    6.30    7.90
   0   1   6   -2.80    8.70
   0   1   6    3.10    7.50
  -1  -1  -6  511.15   22.90
  -1  -1  -6  545.65   24.50
   1   1   6  513.95   23.20
   1   1   6  507.15   23.70
  -2  -1  -6  240.28   17.60
  -2  -1  -6  244.38   16.90
   2   1   6  244.38   18.30
   2   1   6  229.68   16.70
  -3  -1  -6  454.15   23.10
  -3  -1  -6  418.06   21.80
   3   1   6  428.86   22.00
  -4  -1  -6  304.27   19.50
  -4  -1  -6  298.77   19.50
  -5  -1  -6   51.29   11.00
  -5  -1  -6   45.80   11.20
   5   1   6   53.19    7.40
  -6  -1  -6    0.30    9.70
  -6  -1  -6   -4.30    8.90
  -7  -1  -6   31.20   15.90
  -7  -1  -6   22.80   12.50
  -8  -1  -6   70.29   15.10
  -9  -1  -6   -0.60   12.10
  -7   2   6   -4.70    6.00
  -6   2   6   28.10    6.90
  -5   2   6    8.80    6.20
  -4   2   6  302.77   14.80
  -3   2   6  146.69   11.80
  -2   2   6  291.07   16.60
  -1   2   6  202.08   14.70
   0  -2  -6   26.90    8.70
   0   2   6   13.80    8.20
  -1  -2  -6  129.19   14.80
   1   2   6  142.49   14.10
   1   2   6  121.89   14.60
  -2  -2  -6  322.47   19.80
  -2  -2  -6  336.47   19.20
   2   2   6  347.37   19.80
   2   2   6  339.37   20.10
  -3  -2  -6   -1.90    8.90
  -3  -2  -6    2.70    9.20
   3   2   6   -2.90    8.20
  -4  -2  -6  303.67   19.30
  -4  -2  -6  318.37   19.30
   4   2   6  197.68   15.00
  -5  -2  -6    5.50    9.50
  -5  -2  -6   17.90    9.30
   5   2   6    4.30    6.20
  -6  -2  -6   51.79   12.70
  -6  -2  -6   36.00   10.80
  -7  -2  -6   14.70   10.90
  -7  -2  -6   -5.80   10.80
  -8  -2  -6   13.70   13.20
  -9  -2  -6   18.30   13.50
  -7   3   6   46.30    8.80
  -6   3   6    4.20    6.80
  -5   3   6   13.50    7.40
  -4   3   6   -4.20    6.40
  -3   3   6  996.20   35.40
  -2   3   6  372.56   18.40
   1  -3  -6  369.56   17.30
  -1   3   6  369.36   19.50
   0  -3  -6   37.00    9.80
   0   3   6   41.70   10.60
  -1  -3  -6  943.01   35.10
   1   3   6  922.81   36.20
   1   3   6  921.91   35.30
  -2  -3  -6  281.17   19.40
   2   3   6  277.97   17.70
   2   3   6  261.87   17.20
  -3  -3  -6   91.39   11.60
   3   3   6   84.89   11.70
  -4  -3  -6   45.30   11.30
  -4  -3  -6   64.99   11.40
   4   3   6   66.79   10.40
  -5  -3  -6   11.00    8.40
  -5  -3  -6    6.10    9.80
   5   3   6    7.20    6.80
  -6  -3  -6  151.58   17.20
  -6  -3  -6  133.19   16.90
  -7  -3  -6   14.70   11.80
  -7  -3  -6   -4.00   10.20
  -8  -3  -6   43.70   12.80
  -9  -3  -6    8.50   13.40
  -6   4   6    2.30    8.00
  -5   4   6  138.99   13.40
  -4   4   6    8.80    7.90
  -3   4   6   93.49   12.20
  -2   4   6  176.28   14.50
   1  -4  -6   40.00    8.10
  -1   4   6   40.10   10.00
   0  -4  -6 3585.24  109.99
   0   4   6 3552.54  110.69
  -1  -4  -6 1266.17   45.20
   1   4   6 1271.47   45.40
  -2  -4  -6  449.66   23.10
   2   4   6  452.55   22.60
   2   4   6  457.65   22.90
  -3  -4  -6  330.67   21.20
   3   4   6  343.77   20.60
  -4  -4  -6 1006.70   39.60
   4   4   6 1031.60   38.10
  -5  -4  -6    1.00   10.10
   5   4   6    0.20    6.10
  -6  -4  -6   61.89   13.30
   6   4   6   75.59    7.80
  -7  -4  -6   22.10   11.60
  -8  -4  -6    8.90   13.10
  -9  -4  -6    3.10   12.20
  -6   5   6   18.40   10.10
  -5   5   6    7.10    8.70
  -4   5   6   19.00    8.80
  -3   5   6    3.30    7.60
   2  -5  -6  582.64   22.50
  -2   5   6  611.34   26.60
   1  -5  -6  488.15   21.90
  -1   5   6  476.15   23.80
   0  -5  -6  409.86   21.00
   0   5   6  407.26   21.70
  -1  -5  -6  611.24   27.30
   1   5   6  585.94   27.10
  -2  -5  -6  373.16   21.70
  -3  -5  -6   -9.80    9.40
   3   5   6   -0.10    7.80
  -4  -5  -6   69.79   13.80
   4   5   6   80.09   11.10
  -5  -5  -6    2.30   10.90
   5   5   6    1.10    2.30
  -6  -5  -6   22.90   12.00
   6   5   6   30.40    7.10
  -7  -5  -6   31.00   12.70
  -8  -5  -6   -1.80   11.90
  -9  -5  -6    0.30   14.30
  -5   6   6  132.79   16.30
  -4   6   6  297.57   19.20
  -3   6   6   71.19   12.10
   2  -6  -6   18.80    5.80
  -2   6   6   35.30   10.20
   1  -6  -6  105.09   11.80
  -1   6   6   98.69   12.30
   0  -6  -6  172.88   16.40
   0   6   6  174.98   15.60
  -1  -6  -6   29.90   10.40
   1   6   6   28.60   10.20
  -2  -6  -6    1.60   10.00
  -3  -6  -6   13.30   10.10
   3   6   6    6.20    9.80
  -4  -6  -6   37.30   11.60
   4   6   6   40.60    9.70
  -5  -6  -6   -3.80   11.70
   5   6   6    3.50    6.50
  -6  -6  -6   80.69   15.60
   6   6   6   86.39   10.00
  -7  -6  -6   34.60   15.40
  -8  -6  -6   19.40   13.00
  -9  -6  -6    4.30   13.20
  -4   7   6  172.48   17.10
  -3   7   6   29.00   11.10
   2  -7  -6    4.30    4.40
  -2   7   6    8.40   10.30
   1  -7  -6  337.27   19.50
  -1   7   6  333.17   22.20
   0  -7  -6   93.39   12.40
   0   7   6   94.09   13.20
  -1  -7  -6   47.10   11.80
  -2  -7  -6  405.86   24.20
  -3  -7  -6   26.80   11.60
  -4  -7  -6  179.78   20.70
   4   7   6  160.88   16.30
  -5  -7  -6   39.20   12.90
   5   7   6   49.99   10.50
  -6  -7  -6   61.59   15.60
   6   7   6   81.79   12.50
  -7  -7  -6   19.30   13.40
  -8  -7  -6    8.40   15.10
  -9  -7  -6   67.79   18.40
  -4   8   6   19.10   11.50
   3  -8  -6   82.99    8.20
  -3   8   6   93.99   14.60
   2  -8  -6    2.00    2.50
  -2   8   6   23.60   12.00
   1  -8  -6  207.28   16.70
  -1   8   6  229.28   18.80
   0  -8  -6    6.70   10.50
   0   8   6    1.70   11.40
  -1  -8  -6  230.18   19.50
  -2  -8  -6   14.40   11.10
  -3  -8  -6   56.49   13.70
  -4  -8  -6  234.58   23.20
   4   8   6  237.18   19.10
  -5  -8  -6    7.50   13.50
   5   8   6    3.70    8.20
  -6  -8  -6   87.79   15.60
  -7  -8  -6  112.19   18.80
  -8  -8  -6   86.09   18.40
  -3   9   6   -6.80   11.10
   2  -9  -6    1.80    4.20
  -2   9   6   -1.60   11.80
   1  -9  -6  138.39   16.50
  -1   9   6  135.99   17.00
   0  -9  -6   79.39   14.20
  -1  -9  -6    9.40   12.70
  -2  -9  -6   83.89   16.40
  -3  -9  -6    5.70   13.70
  -4  -9  -6  304.87   24.50
  -5  -9  -6  304.07   25.10
   5   9   6  306.17   20.90
  -6  -9  -6  237.18   25.30
  -7  -9  -6    7.10   15.30
  -8  -9  -6   30.20   16.60
   2 -10  -6    7.50    6.40
  -2  10   6   31.70   15.60
   1 -10  -6    9.10    9.50
   0 -10  -6  115.19   16.50
  -1 -10  -6  105.39   16.00
  -2 -10  -6  688.03   36.70
  -3 -10  -6 1060.99   47.90
  -4 -10  -6  906.31   42.90
  -5 -10  -6   -5.20   12.70
   5  10   6   -7.10    8.80
  -6 -10  -6  201.58   23.40
  -7 -10  -6  104.39   19.90
  -8 -10  -6    0.60   15.60
   1 -11  -6   12.00   10.40
   0 -11  -6  889.71   40.70
  -1 -11  -6  390.56   28.60
  -2 -11  -6  704.73   37.10
  -3 -11  -6    2.40   13.40
  -4 -11  -6   54.09   15.60
  -5 -11  -6   67.39   16.80
   5  11   6   89.49   14.00
  -6 -11  -6    0.80   13.40
  -7 -11  -6    1.50   16.00
  -8 -11  -6   25.40   17.80
   1 -12  -6  347.47   27.10
   0 -12  -6  259.47   24.00
  -1 -12  -6  161.38   20.60
  -2 -12  -6  118.59   19.80
  -3 -12  -6  158.78   22.40
  -4 -12  -6   31.30   15.50
  -5 -12  -6   -0.80   14.10
  -6 -12  -6   36.80   18.50
  -7 -12  -6  -13.30   14.10
   0 -13  -6   35.90   14.10
  -1 -13  -6   40.80   16.00
  -2 -13  -6   98.99   19.50
  -3 -13  -6    3.80   15.90
  -4 -13  -6   40.70   16.80
  -5 -13  -6    4.30   16.20
  -6 -13  -6   10.70   15.50
  -7 -13  -6    0.30   17.70
  -1 -14  -6   -5.30   13.90
  -2 -14  -6   59.99   16.50
  -3 -14  -6   -7.30   14.00
  -4 -14  -6   59.79   18.70
  -5 -14  -6    8.00   15.70
  -6 -14  -6   51.99   18.50
  -1 -15  -6    2.80   12.70
  -2 -15  -6   16.90   14.60
  -3 -15  -6    1.20   16.40
  -4 -15  -6   18.20   19.60
  -5 -15  -6   21.20   17.30
  -2 -16  -6   44.20   16.90
  -3 -16  -6   16.90   15.90
  -4 -16  -6   59.59   19.90
  -4 -15   7   26.90   20.20
  -3 -15   7   44.30   18.50
  -2 -15   7   11.70   18.40
  -1 -15   7  -21.20   15.50
   0 -15   7  110.29   22.40
  -5 -14   7   25.40   19.60
  -4 -14   7   18.70   17.20
  -3 -14   7    4.80   15.70
  -2 -14   7  101.29   20.50
  -1 -14   7    7.20   14.10
   0 -14   7   26.60   15.10
  -6 -13   7   12.20   15.50
  -5 -13   7    5.10   16.10
  -4 -13   7   60.29   20.70
  -3 -13   7   74.79   18.80
  -2 -13   7   27.30   18.40
  -1 -13   7   20.50   16.30
   0 -13   7   -5.00   14.40
   1 -13   7    5.20   14.10
  -7 -12   7  -15.80   15.60
  -6 -12   7    2.10   16.10
  -5 -12   7   49.60   17.90
  -4 -12   7   -3.40   13.40
  -3 -12   7    8.40   16.50
  -2 -12   7  -12.80   13.60
  -1 -12   7    6.20   14.50
   0 -12   7   29.60   14.10
   1 -12   7  329.87   28.40
   2 -12   7   28.80   17.60
  -7 -11   7   14.20   16.30
  -6 -11   7   49.50   16.50
  -5 -11   7   38.30   16.40
  -4 -11   7  235.88   25.10
  -3 -11   7   10.20   15.50
  -2 -11   7  229.38   27.50
  -1 -11   7  702.83   38.60
   0 -11   7   88.19   17.20
   1 -11   7   15.10   12.20
   2 -11   7    4.10   12.70
  -8 -10   7   20.50   15.90
  -7 -10   7  154.88   21.10
  -6 -10   7   20.00   14.70
  -5 -10   7   -7.40   13.40
  -4 -10   7    6.50   14.70
  -3 -10   7  937.91   44.00
  -2 -10   7  187.38   22.90
  -1 -10   7  155.48   21.20
   0 -10   7  134.29   19.80
   1 -10   7   61.89   16.40
   2 -10   7  -18.30   11.30
  -8  -9   7   16.80   14.90
  -7  -9   7   56.29   14.80
  -6  -9   7   30.00   14.20
  -5  -9   7  369.46   28.10
  -4  -9   7   23.60   14.40
  -3  -9   7  466.15   30.10
  -2  -9   7   86.59   17.50
  -1  -9   7   24.10   13.30
   0  -9   7  515.35   31.40
   1  -9   7  922.91   43.00
   2  -9   7  197.78   22.20
   3  -9   7    4.80   10.20
  -8  -8   7   11.90   14.40
  -7  -8   7   94.39   16.40
  -6  -8   7    2.00   11.20
  -5  -8   7  425.36   27.40
  -4  -8   7    9.40   12.10
  -3  -8   7   91.69   15.50
  -2  -8   7   23.30   12.00
  -1  -8   7 1382.96   55.29
   0  -8   7   72.19   14.80
   1  -8   7  100.09   17.00
   2  -8   7   25.40   11.00
   3  -8   7  143.79   17.60
  -8  -7   7  -12.20   11.70
  -7  -7   7   88.19   14.30
  -6  -7   7  107.59   15.00
  -5  -7   7  195.58   20.50
  -4  -7   7    8.90   10.80
  -3  -7   7  192.78   20.40
  -2  -7   7   28.10   11.30
  -1  -7   7   16.20   10.90
   0  -7   7    9.60   12.60
   1  -7   7   67.39   15.20
   2  -7   7   13.00   11.20
   3  -7   7   37.00   11.60
   4  -7   7    1.00    8.40
  -8  -6   7   49.40   12.00
  -7  -6   7   -5.60   10.10
  -6  -6   7   -0.10    9.30
  -5  -6   7    4.60    9.90
  -4  -6   7   62.99   11.80
  -3  -6   7   57.99   11.10
  -2  -6   7  205.78   18.30
  -1  -6   7   31.70   12.30
   0  -6   7   15.90   12.00
   1  -6   7  171.68   20.50
   2  -6   7  129.99   16.70
  -3   6  -7  456.65   27.40
   3  -6   7  446.46   25.10
  -4   6  -7   31.90   13.70
   4  -6   7   34.80    9.80
  -5   6  -7  114.59   27.60
  -8  -5   7   14.80    9.60
  -7  -5   7  137.99   15.60
  -6  -5   7   23.60    8.90
  -5  -5   7  110.69   14.80
  -4  -5   7    4.70    8.60
  -3  -5   7   91.39   12.50
  -2  -5   7  154.88   17.70
  -1  -5   7   76.29   12.10
   0  -5   7  203.18   18.40
   1  -5   7   87.49   13.30
  -2   5  -7  169.28   18.00
   2  -5   7  172.18   17.50
  -3   5  -7   61.29   12.80
   3  -5   7   64.79   12.20
  -4   5  -7   42.60   13.70
   4  -5   7   28.30    9.20
  -5   5  -7  124.49   17.60
  -8  -4   7   10.30    8.40
  -7  -4   7   80.19   10.80
  -6  -4   7    2.50    8.30
  -5  -4   7  128.79   14.50
  -4  -4   7   24.90    9.30
  -3  -4   7  310.67   19.10
  -2  -4   7   -5.00    9.50
  -1  -4   7 1422.26   51.09
   0   4  -7   -1.80   11.00
   0  -4   7   -4.30    9.10
  -1   4  -7  131.09   16.00
   1  -4   7  152.08   16.60
  -2   4  -7  110.99   14.60
   2  -4   7   86.79   13.50
  -3   4  -7  254.77   20.30
   3  -4   7  272.97   20.10
  -4   4  -7   68.79   12.80
   4  -4   7   43.30    9.90
  -5   4  -7  363.86   26.20
   5  -4   7  371.46   18.90
  -8  -3   7    6.40    7.40
  -7  -3   7   19.20    7.80
  -6  -3   7  196.48   14.50
  -5  -3   7   60.69    9.30
  -4  -3   7  116.89   13.80
  -3  -3   7  162.78   14.70
  -2  -3   7    8.10    9.10
   1   3  -7  527.15   24.60
  -1  -3   7  523.35   26.30
   0   3  -7   74.89   11.90
   0  -3   7   59.49   13.00
  -1   3  -7 1060.99   41.10
   1  -3   7 1106.59   41.00
   1  -3   7 1095.99   42.60
  -2   3  -7  116.79   15.40
   2  -3   7  123.19   15.00
  -3   3  -7  635.04   30.10
   3  -3   7  652.83   29.40
  -4   3  -7   66.99   13.30
   4  -3   7   48.10    9.40
  -5   3  -7   67.39   14.20
   5  -3   7   81.39   10.00
  -6   3  -7  -10.50   17.90
  -8  -2   7   36.90    7.30
  -7  -2   7    6.90    6.30
  -6  -2   7   15.40    7.20
  -5  -2   7   70.49    9.00
  -4  -2   7   11.80    6.60
  -3  -2   7   -6.50    7.80
  -2  -2   7   27.10    9.00
   1   2  -7 2420.86   76.69
  -1  -2   7 2408.16   77.99
   0   2  -7  271.17   17.60
   0  -2   7  283.77   19.60
  -1   2  -7 3395.96  107.49
   1  -2   7 3476.55  108.19
   1  -2   7 3452.15  107.29
  -2   2  -7  101.19   13.10
   2  -2   7   81.89   11.90
  -3   2  -7   46.20   10.30
   3  -2   7   35.20   10.50
  -4   2  -7   60.79   12.40
   4  -2   7   46.90    9.20
  -5   2  -7  114.29   15.10
   5  -2   7   84.79   10.30
  -6   2  -7   35.60   13.50
  -8  -1   7   13.50    6.10
  -5  -1   7   34.60    7.20
  -4  -1   7   49.10    7.70
  -3  -1   7   48.50    8.50
  -2  -1   7    4.40    7.80
  -1  -1   7  931.51   35.80
   0   1  -7  216.48   17.00
   0  -1   7  208.08   15.80
   0  -1   7  210.88   17.00
  -1   1  -7  489.55   23.60
   1  -1   7  457.35   24.10
   1  -1   7  477.05   25.70
  -2   1  -7    1.90    8.40
   2  -1   7   -1.30    9.80
  -3   1  -7    5.00    9.50
  -3   1  -7   10.30    8.70
   3  -1   7   -3.30    8.70
  -4   1  -7  172.08   17.10
  -4   1  -7  145.99   16.80
   4  -1   7  165.68   14.80
  -5   1  -7   15.90   10.60
  -5   1  -7    4.90    9.80
   5  -1   7   -4.80    6.60
  -6   1  -7   35.00   11.70
  -6   1  -7   24.70   12.00
  -7   1  -7   48.50   13.40
  -2   0   7   -1.10    7.20
  -1   0   7    1.00    8.40
  -1   0   7    0.10    7.50
   0   0  -7  694.83   28.90
   0   0   7  682.53   28.90
   0   0   7  689.13   28.40
  -1   0  -7  781.82   31.30
  -1   0  -7  777.92   31.70
   1   0   7  788.12   32.30
   1   0   7  798.62   31.70
  -2   0  -7    9.30    8.60
  -2   0  -7   -1.10    8.30
   2   0   7    3.90    9.90
   2   0   7    0.40   11.20
  -3   0  -7    7.70    9.60
  -3   0  -7    1.10    8.20
   3   0   7    3.90    9.00
  -4   0  -7  104.79   13.60
  -4   0  -7   97.89   12.40
   4   0   7   92.39   11.30
  -5   0  -7   10.00   10.10
  -5   0  -7   -0.20   10.00
   5   0   7    5.70    6.70
  -6   0  -7  100.39   14.50
  -6   0  -7  105.99   14.80
  -7   0  -7    2.60   11.00
  -8   0  -7   15.10   12.20
  -7   1   7   16.90    6.80
  -6   1   7   10.60    6.20
  -5   1   7   41.00    7.40
  -4   1   7   59.89    8.40
  -3   1   7   46.00    8.30
  -2   1   7   15.60    8.30
  -1   1   7    3.50    8.40
  -1   1   7    6.30    8.50
   0   1   7   46.80    9.80
   0   1   7   57.99   11.20
  -1  -1  -7    9.20    8.40
  -1  -1  -7    2.50    9.60
   1   1   7    7.50    8.70
   1   1   7   11.90   10.40
  -2  -1  -7   57.49   10.80
  -2  -1  -7   70.79   12.20
   2   1   7   57.59   11.80
   2   1   7   49.10   11.10
  -3  -1  -7   17.30   10.10
  -3  -1  -7    0.90    8.30
   3   1   7   10.90    8.30
  -4  -1  -7   -6.20    8.00
  -4  -1  -7    4.30    9.00
   4   1   7    1.50    8.40
  -5  -1  -7  257.97   20.60
  -5  -1  -7  262.47   19.50
   5   1   7  266.67   16.20
  -6  -1  -7   50.39   12.70
  -6  -1  -7   40.60   12.30
   6   1   7   44.00    5.20
  -7  -1  -7   33.30   13.00
  -8  -1  -7   34.70   13.20
  -7   2   7   32.10    8.10
  -6   2   7   14.70    7.40
  -5   2   7   14.70    7.60
  -4   2   7    8.00    7.00
  -3   2   7  116.89   12.20
  -2   2   7  831.72   31.80
  -1   2   7  123.39   14.00
   0  -2  -7   -1.90    8.50
   0   2   7   -1.30    8.00
   0   2   7   -0.20    9.80
  -1  -2  -7  802.82   32.10
   1   2   7  808.42   33.20
   1   2   7  831.82   33.90
  -2  -2  -7  103.39   13.80
   2   2   7  108.79   13.90
   2   2   7  110.49   13.80
  -3  -2  -7  740.83   31.70
  -3  -2  -7  731.23   31.40
   3   2   7  745.93   31.70
  -4  -2  -7  405.66   24.10
  -4  -2  -7  419.66   24.10
   4   2   7  427.06   22.00
  -5  -2  -7   20.30   11.30
  -5  -2  -7   16.30   10.70
   5   2   7   22.40    7.00
  -6  -2  -7  103.49   14.70
  -6  -2  -7   94.49   14.90
   6   2   7   97.49    8.60
  -7  -2  -7   86.19   14.70
  -8  -2  -7   -2.40   11.30
  -6   3   7   -6.20    6.80
  -5   3   7   12.10    7.50
  -4   3   7  171.58   14.00
  -3   3   7   56.19    9.80
  -2   3   7   66.29   10.20
   1  -3  -7  235.18   14.50
  -1   3   7  228.98   16.80
   0  -3  -7  105.79   12.40
   0   3   7  102.49   12.30
  -1  -3  -7 1138.59   41.60
   1   3   7 1133.79   42.00
   1   3   7 1096.89   41.80
  -2  -3  -7  298.17   19.10
   2   3   7  286.87   19.20
  -3  -3  -7   10.60    9.20
   3   3   7   10.10    8.70
  -4  -3  -7  172.98   17.70
  -4  -3  -7  167.88   17.80
   4   3   7  168.88   16.90
  -5  -3  -7  456.75   25.70
  -5  -3  -7  416.36   24.20
  -6  -3  -7   -1.50   10.70
  -6  -3  -7    1.00   10.20
   6   3   7   -3.00    5.50
  -7  -3  -7    1.20   11.50
  -8  -3  -7   63.49   15.90
  -9  -3  -7    0.30   13.90
  -6   4   7   -3.80    8.00
  -5   4   7  197.88   16.40
  -4   4   7   -0.40    8.40
  -3   4   7   47.90    9.40
  -2   4   7  265.97   17.60
   1  -4  -7  374.76   18.90
  -1   4   7  395.56   21.90
   0  -4  -7   -2.40    7.80
   0   4   7   12.80    9.20
  -1  -4  -7   41.00   10.10
   1   4   7   37.50   11.40
  -2  -4  -7    9.80    9.50
   2   4   7    5.10    9.10
  -3  -4  -7  115.59   14.60
   3   4   7  118.99   15.90
  -4  -4  -7   95.69   14.10
   4   4   7   92.09   12.60
  -5  -4  -7    3.10    9.60
   5   4   7    7.50    4.80
  -6  -4  -7   66.29   14.60
   6   4   7   73.99    8.80
  -7  -4  -7   50.49   14.30
  -8  -4  -7   25.00   14.70
  -9  -4  -7   13.50   14.60
  -5   5   7    2.30    9.00
  -4   5   7  136.89   14.80
  -3   5   7  182.18   16.50
   2  -5  -7    0.20    5.00
  -2   5   7   -1.00    8.90
   1  -5  -7 1223.98   43.10
  -1   5   7 1222.38   45.00
   0  -5  -7   16.30    8.50
   0   5   7    3.10   10.30
  -1  -5  -7   68.39   11.70
   1   5   7   73.19   11.90
  -2  -5  -7  211.28   19.30
   2   5   7  214.78   19.10
  -3  -5  -7   68.79   12.50
   3   5   7   84.09   12.90
  -4  -5  -7   10.90   11.70
   4   5   7   15.40    9.00
  -5  -5  -7    4.30   11.70
   5   5   7    7.20    7.10
  -6  -5  -7   44.30   13.60
   6   5   7   42.20    9.10
  -7  -5  -7   80.39   16.10
  -8  -5  -7    5.00   13.10
  -9  -5  -7   -6.40   12.80
  -5   6   7    9.40    9.60
  -4   6   7    1.00    9.50
  -3   6   7   83.19   13.30
   2  -6  -7    7.40    5.50
  -2   6   7    6.90    9.80
   1  -6  -7   78.29   10.90
  -1   6   7   66.69   11.60
   0  -6  -7   56.79   11.70
   0   6   7   43.40   11.10
  -1  -6  -7  101.49   13.40
  -2  -6  -7   42.60   11.40
  -3  -6  -7   93.69   15.40
   3   6   7  120.39   14.60
  -4  -6  -7  139.19   17.40
   4   6   7  136.59   16.20
  -5  -6  -7  102.59   16.50
   5   6   7   98.09   12.30
  -6  -6  -7   -4.10   12.60
  -7  -6  -7   65.79   16.00
  -8  -6  -7    2.70   13.30
  -4   7   7    0.40    9.90
  -3   7   7   -0.50    9.90
   2  -7  -7  118.39    9.40
  -2   7   7  244.28   18.70
   1  -7  -7  149.49   14.30
  -1   7   7  150.08   17.50
   0  -7  -7  201.08   16.40
   0   7   7  188.38   17.80
  -1  -7  -7   -6.20    9.50
  -2  -7  -7  171.38   18.20
  -3  -7  -7   32.40   12.90
   3   7   7   33.50   11.50
  -4  -7  -7   -0.40   11.40
   4   7   7   -1.20    9.10
  -5  -7  -7   26.00   14.70
   5   7   7   36.00   10.80
  -6  -7  -7   19.40   14.20
  -7  -7  -7    1.60   13.70
  -8  -7  -7   21.60   15.20
  -3   8   7    1.10   11.00
   2  -8  -7   10.00    3.80
  -2   8   7   58.99   13.60
   1  -8  -7  119.29   14.50
  -1   8   7  139.69   17.10
   0  -8  -7   38.40   11.60
  -1  -8  -7  185.48   19.80
  -2  -8  -7   13.50   13.50
  -3  -8  -7   15.70   13.90
  -4  -8  -7   -3.50   11.80
   4   8   7   11.50    9.90
  -5  -8  -7  159.98   21.00
   5   8   7  154.68   17.00
  -6  -8  -7   24.40   13.70
  -7  -8  -7   72.19   16.70
  -8  -8  -7   36.00   16.10
  -3   9   7   51.79   12.70
  -2   9   7  125.69   17.30
   1  -9  -7  195.18   17.10
   0  -9  -7  121.29   15.80
  -1  -9  -7   75.79   14.20
  -2  -9  -7    1.30   11.50
  -3  -9  -7   21.50   13.60
  -4  -9  -7  270.67   24.70
   4   9   7  254.57   21.80
  -5  -9  -7  318.27   26.50
   5   9   7  296.67   21.60
  -6  -9  -7   98.99   18.00
  -7  -9  -7   19.60   14.60
  -8  -9  -7   -7.30   14.80
   1 -10  -7   29.20   10.60
   0 -10  -7   51.69   13.40
  -1 -10  -7   79.59   16.50
  -2 -10  -7  151.98   20.60
  -3 -10  -7   12.60   16.00
  -4 -10  -7   39.70   15.10
  -5 -10  -7   24.50   14.80
   5  10   7   21.60   11.20
  -6 -10  -7   12.00   16.30
  -7 -10  -7   21.30   16.30
  -8 -10  -7   16.70   18.00
   1 -11  -7   45.60   12.10
   0 -11  -7   12.40   12.20
  -1 -11  -7   -4.70   13.80
  -2 -11  -7   13.90   15.60
  -3 -11  -7  174.98   23.10
  -4 -11  -7    8.10   14.20
  -5 -11  -7   54.59   16.60
   5  11   7   41.80   12.60
  -6 -11  -7   10.60   17.50
  -7 -11  -7  -17.60   14.20
   0 -12  -7   29.40   12.40
  -1 -12  -7   -6.40   11.40
  -2 -12  -7   69.99   16.60
  -3 -12  -7    4.40   14.00
  -4 -12  -7    6.90   14.50
  -5 -12  -7    8.30   15.10
  -6 -12  -7    2.50   15.00
  -7 -12  -7    5.20   15.70
   0 -13  -7   42.80   14.60
  -1 -13  -7    0.50   13.90
  -2 -13  -7   77.59   17.00
  -3 -13  -7   28.00   15.60
  -4 -13  -7   22.50   16.20
  -5 -13  -7   24.50   16.90
  -6 -13  -7   -6.50   18.20
  -1 -14  -7   -1.90   12.50
  -2 -14  -7   85.49   18.20
  -3 -14  -7    3.00   14.30
  -4 -14  -7   24.50   16.90
  -5 -14  -7   14.00   17.00
  -6 -14  -7   -8.20   16.40
  -2 -15  -7  -30.50   14.30
  -3 -15  -7    4.80   16.80
  -4 -15  -7  -18.40   15.60
  -5 -15  -7  -18.50   15.50
  -2 -16  -7   36.90   16.50
  -4 -15   8   -1.70   16.30
  -3 -15   8  126.69   23.40
  -2 -15   8   11.60   16.20
  -1 -15   8    6.80   15.00
   0 -15   8   14.50   15.60
  -5 -14   8   83.09   20.90
  -4 -14   8   69.09   22.20
  -3 -14   8   -9.90   15.80
  -2 -14   8   -7.30   18.70
  -1 -14   8   20.70   17.90
   0 -14   8   35.70   17.50
  -6 -13   8   -4.70   16.60
  -5 -13   8    0.80   17.50
  -4 -13   8  113.79   21.00
  -3 -13   8   33.80   19.40
  -2 -13   8   40.90   18.20
  -1 -13   8   11.60   15.00
   0 -13   8    0.50   15.90
   1 -13   8    8.80   14.10
  -6 -12   8   -4.30   15.30
  -5 -12   8   20.70   16.70
  -4 -12   8  116.89   19.40
  -3 -12   8   12.70   16.80
  -2 -12   8  107.69   19.70
  -1 -12   8   30.90   15.80
   0 -12   8   16.90   14.40
   1 -12   8   -6.10   14.50
  -7 -11   8   14.40   15.50
  -6 -11   8   31.10   17.00
  -5 -11   8    5.70   15.20
  -4 -11   8   37.70   15.20
  -3 -11   8  123.99   21.00
  -2 -11   8  500.85   34.10
  -1 -11   8  198.58   24.50
   0 -11   8   33.20   14.50
   1 -11   8  167.98   22.20
   2 -11   8  125.69   19.00
  -7 -10   8   -3.80   13.70
  -6 -10   8   19.90   14.90
  -5 -10   8   14.20   15.40
  -4 -10   8   63.99   17.50
  -3 -10   8  449.16   31.40
  -2 -10   8  680.53   37.90
  -1 -10   8  907.41   45.50
   0 -10   8  552.24   35.10
   1 -10   8  177.18   23.80
   2 -10   8   46.60   15.20
  -8  -9   8    0.70   14.20
  -7  -9   8   38.30   16.30
  -6  -9   8   51.39   15.30
  -5  -9   8  378.36   28.60
  -4  -9   8  194.28   24.20
  -3  -9   8  227.28   23.50
  -2  -9   8  673.53   37.70
  -1  -9   8  343.67   27.40
   0  -9   8   62.29   16.00
   1  -9   8   -7.00   11.60
   2  -9   8   35.00   12.40
   3  -9   8   35.70   12.80
  -8  -8   8   57.19   15.40
  -7  -8   8  206.08   23.50
  -6  -8   8   41.20   14.20
  -5  -8   8   62.19   14.10
  -4  -8   8  281.97   24.50
  -3  -8   8  204.88   22.90
  -2  -8   8  297.37   23.80
  -1  -8   8   54.59   16.20
   0  -8   8  157.88   20.90
   1  -8   8   29.40   13.20
   2  -8   8   -6.60   11.80
   3  -8   8   62.79   14.10
  -8  -7   8   29.70   12.50
  -7  -7   8   10.40   11.80
  -6  -7   8  108.39   15.90
  -5  -7   8  218.58   22.10
  -4  -7   8   71.49   14.00
  -3  -7   8  155.38   20.60
  -2  -7   8   94.09   14.80
  -1  -7   8   99.19   15.10
   0  -7   8  197.78   22.40
   1  -7   8   37.30   13.00
   2  -7   8   16.70   12.80
   3  -7   8  180.78   19.30
  -8  -6   8   10.00   11.30
  -7  -6   8   64.59   12.60
  -6  -6   8   26.50   11.30
  -5  -6   8    6.30   10.70
  -4  -6   8    8.90   10.20
  -3  -6   8   10.00   10.80
  -2  -6   8  257.67   21.70
  -1  -6   8   47.90   13.70
   0  -6   8  104.79   16.40
   1  -6   8   21.60   12.60
   2  -6   8  194.78   19.70
   3  -6   8  563.44   30.00
   4  -6   8    6.50    9.90
  -8  -5   8    9.50    9.90
  -7  -5   8   70.39   12.20
  -6  -5   8    2.10    9.10
  -5  -5   8    4.60    9.90
  -4  -5   8   23.40   10.10
  -3  -5   8   44.60   11.50
  -2  -5   8   42.60   10.80
  -1  -5   8    4.60   11.10
   0  -5   8  143.99   17.60
   1  -5   8  112.09   15.40
   2  -5   8  199.78   19.90
   3  -5   8   10.70   10.30
  -4   5  -8  415.76   34.70
   4  -5   8  415.56   23.80
  -5   5  -8   30.20   13.20
  -8  -4   8    3.10    9.10
  -7  -4   8    0.30    9.10
  -6  -4   8    9.10    9.00
  -5  -4   8   51.39   10.60
  -4  -4   8   17.70   10.20
  -3  -4   8    4.20    9.30
  -2  -4   8  428.66   24.50
  -1  -4   8   73.19   12.50
   0  -4   8 1425.46   53.19
   1  -4   8   29.40   10.80
   2  -4   8    2.80    9.80
  -3   4  -8    2.40    9.80
   3  -4   8   -8.50    9.20
  -4   4  -8  223.88   23.30
   4  -4   8  259.57   19.80
  -5   4  -8  224.98   23.60
  -8  -3   8    0.90    7.90
  -7  -3   8   53.29   10.10
  -6  -3   8   45.10   10.00
  -5  -3   8   -3.80    8.30
  -4  -3   8   18.60    9.20
  -3  -3   8   77.59   12.20
  -2  -3   8  417.06   23.30
  -1  -3   8  397.66   24.10
   0  -3   8   91.49   13.20
   1  -3   8  638.74   30.40
  -2   3  -8  311.97   20.80
   2  -3   8  309.27   21.00
  -3   3  -8   91.69   13.50
   3  -3   8   80.79   13.20
  -4   3  -8  218.98   20.40
   4  -3   8  240.18   19.10
  -5   3  -8    1.20   12.00
   5  -3   8   15.80    7.40
  -8  -2   8   13.50    7.60
  -7  -2   8   -1.80    7.30
  -6  -2   8    4.90    7.30
  -5  -2   8    6.70    7.80
  -4  -2   8   30.60    8.70
  -3  -2   8  156.68   14.70
  -2  -2   8  161.28   14.80
  -1  -2   8   90.39   12.00
   0  -2   8  585.54   28.20
   0  -2   8  590.54   27.20
  -1   2  -8  928.91   37.50
   1  -2   8  925.41   38.20
   1  -2   8  984.00   41.60
  -2   2  -8    1.90    8.90
   2  -2   8    7.10   10.60
  -3   2  -8   36.40   11.60
   3  -2   8   41.10   11.10
  -4   2  -8   50.59   11.60
   4  -2   8   50.99   11.30
  -5   2  -8  328.37   23.20
   5  -2   8  328.67   18.80
  -8  -1   8    7.80    7.20
  -7  -1   8    2.00    6.90
  -6  -1   8  231.98   15.30
  -5  -1   8   -0.70    7.40
  -4  -1   8    4.40    7.80
  -3  -1   8   19.40    8.00
  -2  -1   8  148.09   15.00
  -1  -1   8  235.68   18.30
  -1  -1   8  215.98   16.30
   0  -1   8  250.77   19.10
   0  -1   8  246.98   20.20
  -1   1  -8   24.40    9.60
   1  -1   8   16.80    9.30
   1  -1   8   14.50   10.30
  -2   1  -8  105.99   13.20
   2  -1   8  102.19   13.10
  -3   1  -8  416.96   25.30
   3  -1   8  445.36   24.40
  -4   1  -8    1.60   10.60
  -4   1  -8   -1.30   10.60
   4  -1   8   -6.60    9.00
  -5   1  -8   10.30   11.50
  -5   1  -8    5.10   10.10
   5  -1   8    7.40    6.70
  -6   1  -8   77.99   15.60
  -6   1  -8   88.69   15.30
  -3   0   8   18.60    8.30
  -2   0   8   16.90    8.40
  -2   0   8   25.70    8.70
  -1   0   8   70.79   11.80
  -1   0   8   85.99   11.80
   0   0  -8   17.30    9.40
   0   0   8   44.40   11.50
   0   0   8   10.70   10.40
  -1   0  -8  395.66   22.00
   1   0   8  396.26   22.90
   1   0   8  398.36   22.80
  -2   0  -8    8.00    8.90
  -2   0  -8   13.00    9.10
   2   0   8    9.10   10.50
  -3   0  -8    5.40    9.20
  -3   0  -8    6.70   10.60
   3   0   8    6.40    8.70
  -4   0  -8  131.79   15.80
  -4   0  -8  125.69   14.80
   4   0   8  133.09   14.70
  -5   0  -8  165.08   18.60
  -5   0  -8  190.78   18.00
   5   0   8   66.29    8.80
  -6   0  -8   85.79   15.60
  -6   0  -8   94.19   15.60
  -7   0  -8   58.99   15.00
  -8   0  -8    5.90   12.70
  -7   1   8    3.70    7.70
  -6   1   8   -8.10    6.80
  -5   1   8  125.39   12.60
  -4   1   8   11.00    7.20
  -3   1   8   61.49    9.70
  -2   1   8   75.69   10.60
  -2   1   8   83.89   10.90
  -1   1   8  305.77   19.90
  -1   1   8  295.67   19.10
   0   1   8  141.99   14.80
   0   1   8  146.19   15.80
  -1  -1  -8    3.40    8.50
  -1  -1  -8    9.80    8.50
   1   1   8    2.40    9.10
   1   1   8    1.20    8.90
  -2  -1  -8    6.20    8.80
  -2  -1  -8    9.40    8.90
   2   1   8    5.60   10.50
  -3  -1  -8  142.09   15.80
  -3  -1  -8  156.98   15.80
   3   1   8  149.69   17.60
  -4  -1  -8   86.49   14.00
  -4  -1  -8   76.39   13.30
   4   1   8   78.99   12.00
  -5  -1  -8  120.59   15.30
  -5  -1  -8  124.49   16.20
  -6  -1  -8   -7.40   10.50
  -6  -1  -8   11.90   12.20
  -7  -1  -8   -0.70   11.90
  -8  -1  -8   -2.70   14.00
  -6   2   8   20.80    8.60
  -5   2   8   25.40    9.30
  -4   2   8    4.30    8.20
  -3   2   8  130.49   12.90
  -2   2   8   31.40    9.30
  -1   2   8  304.47   18.70
  -1   2   8  300.17   19.40
   0  -2  -8   69.19   10.30
   0   2   8   54.79   10.80
   0   2   8   60.09   11.10
  -1  -2  -8  165.88   16.50
   1   2   8  140.49   16.50
   1   2   8  161.08   15.70
  -2  -2  -8  325.47   20.00
   2   2   8  307.47   20.50
  -3  -2  -8  171.88   17.00
  -3  -2  -8  145.79   16.50
   3   2   8  160.18   18.00
  -4  -2  -8    3.40    9.50
  -4  -2  -8    1.80   10.40
   4   2   8    0.90    8.50
  -5  -2  -8  -11.80   10.60
  -5  -2  -8   -2.50   11.50
   5   2   8    0.50    3.80
  -6  -2  -8   -3.70   11.90
  -6  -2  -8   -1.70    9.40
  -7  -2  -8  121.69   17.50
  -8  -2  -8   -6.40   12.50
  -6   3   8   -6.00    8.20
  -5   3   8   24.20    9.30
  -4   3   8   84.99   11.10
  -3   3   8   49.00   10.60
  -2   3   8  221.18   16.70
   1  -3  -8   92.49   11.70
  -1   3   8   93.39   12.50
   0  -3  -8    3.60    7.30
   0   3   8   -8.70    9.80
   0   3   8    0.00    9.80
  -1  -3  -8  520.15   26.20
   1   3   8  529.95   26.10
   1   3   8  533.25   27.30
  -2  -3  -8  168.78   16.90
   2   3   8  165.38   18.50
  -3  -3  -8   -2.20   10.90
   3   3   8   -3.80    8.30
  -4  -3  -8  186.78   19.30
   4   3   8  167.78   17.30
  -5  -3  -8  314.07   23.50
  -5  -3  -8  324.77   23.30
   5   3   8  280.77   18.60
  -6  -3  -8   26.60   12.50
  -6  -3  -8   22.50   12.90
  -7  -3  -8    1.90   12.80
  -8  -3  -8    4.20   13.00
  -5   4   8    7.90    9.60
  -4   4   8    2.30    9.70
  -3   4   8   18.10    9.00
  -2   4   8   11.50    9.20
   1  -4  -8   53.49   10.10
  -1   4   8   56.59   10.90
   0  -4  -8   46.90    9.80
   0   4   8   46.20   11.30
  -1  -4  -8    1.60    9.00
   1   4   8    5.00    9.40
   1   4   8    5.60    9.30
  -2  -4  -8   23.90   10.30
   2   4   8   31.90   10.30
  -3  -4  -8   31.60   10.90
   3   4   8   25.90   10.00
  -4  -4  -8   29.30   12.50
   4   4   8   41.90   10.40
  -5  -4  -8  150.98   19.60
   5   4   8  127.29   14.60
  -6  -4  -8   26.10   11.80
  -7  -4  -8  126.29   17.80
  -8  -4  -8  -20.50   12.40
  -5   5   8   68.19   12.00
  -4   5   8   11.20   10.30
  -3   5   8  187.98   17.00
  -2   5   8   22.60   10.60
   1  -5  -8  275.67   16.90
  -1   5   8  281.37   20.80
   0  -5  -8   25.30    9.50
   0   5   8   34.30   10.70
  -1  -5  -8   60.29   12.40
  -2  -5  -8   23.40   10.70
   2   5   8   28.70   10.40
  -3  -5  -8    5.70   11.70
   3   5   8    7.60    8.80
  -4  -5  -8   38.00   13.30
   4   5   8   54.99   10.80
  -5  -5  -8   14.20   12.90
   5   5   8    5.80    8.10
  -6  -5  -8   71.39   15.80
  -7  -5  -8   20.70   14.10
  -8  -5  -8   45.80   15.50
  -4   6   8   48.80   12.40
  -3   6   8    1.30    9.70
   2  -6  -8   -0.70    5.40
  -2   6   8   10.30   10.20
   1  -6  -8   43.30    9.60
  -1   6   8   45.20   12.20
   0  -6  -8    9.70    8.50
   0   6   8    3.40    9.80
  -1  -6  -8   54.69   13.10
  -2  -6  -8   93.09   13.90
   2   6   8   97.99   13.90
  -3  -6  -8    4.60   10.90
   3   6   8   12.00   10.80
  -4  -6  -8  328.27   23.60
   4   6   8  330.17   21.40
  -5  -6  -8   -8.70   10.90
   5   6   8   -2.80    9.20
  -6  -6  -8   48.30   15.60
  -7  -6  -8   60.49   16.80
  -8  -6  -8   13.00   14.70
  -4   7   8   31.30   14.50
  -3   7   8  130.79   17.40
   2  -7  -8    1.30    4.40
  -2   7   8   -7.80   10.90
   1  -7  -8   32.10    9.70
  -1   7   8   34.90   12.30
   0  -7  -8   51.49   12.00
  -1  -7  -8   12.30   11.60
  -2  -7  -8  131.29   16.20
  -3  -7  -8    4.60   11.00
   3   7   8   -3.50   10.50
  -4  -7  -8    0.20   11.30
   4   7   8   -7.70    9.30
  -5  -7  -8  138.39   19.30
   5   7   8  159.68   17.20
  -6  -7  -8   28.10   14.80
  -7  -7  -8  -10.10   12.20
  -8  -7  -8  106.89   19.50
  -3   8   8   19.10   12.50
   2  -8  -8   21.10    5.60
  -2   8   8  116.19   16.10
   1  -8  -8    4.10    8.30
  -1   8   8   -1.30   11.80
   0  -8  -8   51.39   12.40
  -1  -8  -8  131.59   15.90
  -2  -8  -8    9.80   10.90
  -3  -8  -8  326.47   24.80
  -4  -8  -8  -10.40   11.80
   4   8   8    8.30   11.00
  -5  -8  -8   53.79   15.90
   5   8   8   73.79   13.20
  -6  -8  -8  105.79   19.20
  -7  -8  -8   77.29   18.20
  -8  -8  -8   -4.10   13.00
   2  -9  -8    8.10    4.10
  -2   9   8   73.09   16.20
   1  -9  -8   26.70   10.80
   0  -9  -8   14.00   10.80
  -1  -9  -8  196.78   19.60
  -2  -9  -8    6.30   11.80
  -3  -9  -8  351.16   26.80
  -4  -9  -8   78.49   16.70
   4   9   8   74.09   14.70
  -5  -9  -8    5.30   13.50
   5   9   8   -8.50    9.50
  -6  -9  -8   30.30   16.60
  -7  -9  -8   22.20   16.00
  -8  -9  -8   26.10   17.20
   1 -10  -8  120.19   15.70
   0 -10  -8   37.50   12.60
  -1 -10  -8   26.90   13.60
  -2 -10  -8   -3.90   14.50
  -3 -10  -8   -1.50   15.50
  -4 -10  -8   -9.10   15.80
   4  10   8   -0.30   10.90
  -5 -10  -8   37.60   17.80
   5  10   8   25.90   10.10
  -6 -10  -8   10.00   15.10
  -7 -10  -8    5.70   17.10
   0 -11  -8   -3.20   10.70
  -1 -11  -8   65.69   15.60
  -2 -11  -8    1.90   14.20
  -3 -11  -8   10.30   16.60
  -4 -11  -8   15.80   17.10
  -5 -11  -8   12.60   15.10
   5  11   8   -0.70   12.10
  -6 -11  -8   -0.90   14.90
  -7 -11  -8   27.00   17.40
   0 -12  -8    0.60   11.70
  -1 -12  -8    5.30   13.40
  -2 -12  -8   17.10   15.60
  -3 -12  -8   13.40   14.60
  -4 -12  -8  -18.70   16.20
  -5 -12  -8   12.70   18.00
  -6 -12  -8   48.60   18.50
  -7 -12  -8   -7.50   15.10
  -1 -13  -8   -7.60   11.40
  -2 -13  -8   20.70   14.10
  -3 -13  -8    6.50   16.50
  -4 -13  -8   16.80   16.50
  -5 -13  -8   13.30   16.20
  -6 -13  -8   32.60   20.40
  -1 -14  -8   26.60   13.90
  -2 -14  -8   21.00   14.90
  -3 -14  -8   -8.10   14.20
  -4 -14  -8   10.50   16.10
  -5 -14  -8   10.40   19.50
  -2 -15  -8   -1.10   15.50
  -3 -15  -8   14.00   15.80
  -4 -15  -8   -9.40   15.80
  -2 -15   9  -13.20   15.80
  -4 -14   9   -0.40   19.50
  -3 -14   9   80.49   21.10
  -2 -14   9   91.99   22.00
  -1 -14   9  137.59   23.40
   0 -14   9   25.10   15.60
  -5 -13   9   -4.30   14.70
  -4 -13   9   12.40   18.00
  -3 -13   9  118.29   21.40
  -2 -13   9  120.69   23.60
  -1 -13   9   14.90   17.40
   0 -13   9  147.09   22.20
   1 -13   9   15.20   15.80
  -6 -12   9    7.90   14.70
  -5 -12   9   -2.00   14.70
  -4 -12   9    7.10   17.20
  -3 -12   9    0.30   15.30
  -2 -12   9   92.29   21.00
  -1 -12   9   10.30   16.50
   0 -12   9   35.80   17.10
   1 -12   9   20.20   13.90
  -7 -11   9    1.10   17.40
  -6 -11   9    3.90   15.70
  -5 -11   9   -3.10   15.60
  -4 -11   9   23.90   17.20
  -3 -11   9   30.10   16.00
  -2 -11   9    6.50   14.30
  -1 -11   9    4.40   14.40
   0 -11   9   27.60   14.60
   1 -11   9   10.10   13.20
   2 -11   9   25.50   14.30
  -7 -10   9   10.50   15.20
  -6 -10   9    3.90   15.10
  -5 -10   9   12.70   14.90
  -4 -10   9    3.30   15.30
  -3 -10   9  100.99   19.40
  -2 -10   9   58.99   18.80
  -1 -10   9   -2.00   13.60
   0 -10   9   43.40   15.10
   1 -10   9    5.70   14.30
   2 -10   9    7.60   13.10
  -7  -9   9    9.90   15.30
  -6  -9   9  148.89   20.00
  -5  -9   9   -1.40   13.70
  -4  -9   9  131.79   19.10
  -3  -9   9  143.49   20.10
  -2  -9   9   14.50   13.70
  -1  -9   9  120.99   19.00
   0  -9   9   54.09   16.10
   1  -9   9   94.69   17.30
   2  -9   9   82.09   15.60
   3  -9   9   94.39   17.60
  -7  -8   9    9.90   13.50
  -6  -8   9    6.70   13.30
  -5  -8   9   13.00   12.80
  -4  -8   9   15.70   13.20
  -3  -8   9    2.70   11.80
  -2  -8   9   32.70   14.90
  -1  -8   9   31.30   13.60
   0  -8   9  508.75   31.70
   1  -8   9  767.72   40.40
   2  -8   9   37.70   14.50
   3  -8   9   14.70   11.50
  -8  -7   9   79.59   15.80
  -7  -7   9   -3.30   12.50
  -6  -7   9    4.10   12.30
  -5  -7   9   20.50   12.00
  -4  -7   9    6.40   11.80
  -3  -7   9  312.17   23.60
  -2  -7   9  213.98   23.30
  -1  -7   9  165.48   20.70
   0  -7   9    7.20   11.40
   1  -7   9   63.29   14.50
   2  -7   9  339.07   26.80
   3  -7   9   67.09   14.80
  -8  -6   9    1.50   11.50
  -7  -6   9    2.30   10.80
  -6  -6   9   20.80   11.80
  -5  -6   9    8.60   10.70
  -4  -6   9  160.78   19.70
  -3  -6   9   52.09   13.40
  -2  -6   9    8.50   11.80
  -1  -6   9   40.60   12.50
   0  -6   9   37.10   12.90
   1  -6   9    6.20   12.80
   2  -6   9   57.79   13.00
   3  -6   9  271.17   23.30
   4  -6   9   23.50   10.40
  -8  -5   9   -9.10   10.30
  -7  -5   9   54.39   12.20
  -6  -5   9   30.30   11.30
  -5  -5   9    6.50   10.40
  -4  -5   9   62.59   12.80
  -3  -5   9    4.40    9.40
  -2  -5   9   78.69   14.40
  -1  -5   9    0.70   12.10
   0  -5   9   -2.80   11.90
   1  -5   9  101.39   16.40
   2  -5   9    6.30   11.70
   3  -5   9   81.19   14.40
   4  -5   9  122.09   15.50
  -8  -4   9   -1.00    9.50
  -7  -4   9    9.70    9.80
  -6  -4   9  111.89   13.90
  -5  -4   9   -1.20    9.90
  -4  -4   9    3.90    9.20
  -3  -4   9    2.90   10.20
  -2  -4   9   -0.70   10.80
  -1  -4   9  395.66   25.60
   0  -4   9   56.39   12.60
   1  -4   9   10.90   10.70
   2  -4   9   29.90   12.80
   3  -4   9   28.90   11.50
   4  -4   9   35.20   12.40
  -8  -3   9   11.90    9.40
  -7  -3   9   26.80   10.20
  -6  -3   9   26.30   10.10
  -5  -3   9  212.88   18.60
  -4  -3   9   26.00   10.50
  -3  -3   9  123.89   16.30
  -2  -3   9   35.70   11.80
  -1  -3   9   21.40   11.70
   0  -3   9  213.38   21.00
   1  -3   9  131.29   17.60
   2  -3   9   25.40   10.70
   3  -3   9   22.00   11.30
   4  -3   9  462.35   26.70
  -5   3  -9   61.59   17.50
  -8  -2   9   10.10    8.20
  -7  -2   9  131.49   14.50
  -6  -2   9   -0.30    8.30
  -5  -2   9  220.98   16.90
  -4  -2   9  103.79   13.90
  -3  -2   9   57.79   12.10
  -2  -2   9   -5.10    9.40
  -1  -2   9  186.38   19.10
   0  -2   9    8.80    9.60
   0  -2   9    8.40   10.20
   1  -2   9   22.60   10.80
   2  -2   9  191.88   19.10
   3  -2   9   83.29   13.80
  -4   2  -9  309.97   23.30
   4  -2   9  314.17   21.70
  -5   2  -9    3.10   12.80
   5  -2   9   -0.50    3.60
  -8  -1   9    8.10    8.50
  -7  -1   9   10.20    8.80
  -6  -1   9   -2.20    8.20
  -5  -1   9   52.99   10.10
  -4  -1   9   -6.70    8.30
  -3  -1   9   11.50    8.80
  -2  -1   9   -0.70    8.00
  -1  -1   9   33.10    9.70
  -1  -1   9   19.40    9.80
   0  -1   9  501.45   26.60
   0  -1   9  532.55   25.80
   1  -1   9   23.70   12.10
   2  -1   9  228.48   19.60
  -3   1  -9    4.20    9.60
   3  -1   9    2.60    9.20
  -4   1  -9   -0.90   10.10
   4  -1   9   -2.70    8.70
  -5   1  -9  511.25   30.70
  -8   0   9   -6.70    8.40
  -7   0   9   11.20    8.50
  -6   0   9   45.60    9.70
  -5   0   9   -0.50    8.20
  -4   0   9   57.19   10.40
  -3   0   9   50.29   10.50
  -3   0   9   49.80   10.00
  -2   0   9  124.49   15.70
  -2   0   9  125.59   14.80
  -1   0   9   12.20    8.70
  -1   0   9    8.20   10.20
   0   0   9    0.00    9.40
   0   0   9   -6.80    8.70
   1   0   9   -4.90    9.30
  -2   0  -9   -5.20    9.20
   2   0   9    2.30   11.30
  -3   0  -9  732.83   33.00
  -3   0  -9  695.53   33.20
   3   0   9  758.82   33.30
  -4   0  -9   28.10   11.10
  -4   0  -9   19.00   12.50
   4   0   9   26.20   10.30
  -5   0  -9  201.18   21.10
  -5   0  -9  200.58   20.20
   5   0   9  128.09   13.70
  -6   0  -9   47.40   23.50
  -6   0  -9   39.20   14.10
  -7   0  -9    2.70   12.70
  -8   0  -9   38.40   15.40
  -6   1   9   94.99   11.80
  -5   1   9   -0.30    8.00
  -4   1   9  172.18   14.70
  -3   1   9   37.90   10.40
  -3   1   9   41.20    9.70
  -2   1   9  199.88   17.30
  -2   1   9  200.48   16.60
  -1   1   9   -5.00    9.30
  -1   1   9   -7.40    8.20
   0   1   9  322.27   21.00
   0   1   9  303.27   20.00
  -1  -1  -9  113.89   14.60
   1   1   9  116.09   15.20
  -2  -1  -9  301.37   20.30
   2   1   9  299.37   21.20
  -3  -1  -9  720.83   33.70
  -3  -1  -9  714.83   38.60
   3   1   9  735.53   33.90
  -4  -1  -9   30.40   11.10
  -4  -1  -9   41.40   11.60
   4   1   9   40.00   11.00
  -5  -1  -9   76.19   14.80
  -5  -1  -9   72.59   15.20
   5   1   9   72.79   11.00
  -6  -1  -9   57.09   14.40
  -6  -1  -9   56.09   15.10
  -7  -1  -9   10.70   12.70
  -8  -1  -9  -10.10   13.00
  -6   2   9   15.40    8.80
  -5   2   9    6.70    8.90
  -4   2   9   55.69   10.80
  -3   2   9  122.19   14.30
  -2   2   9   -4.90    8.80
  -1   2   9  266.77   19.50
  -1   2   9  274.47   20.20
   0  -2  -9  167.98   16.10
   0   2   9  153.08   16.80
   0   2   9  173.98   16.50
  -1  -2  -9  205.18   17.00
   1   2   9  188.28   18.10
  -2  -2  -9   23.00   10.30
   2   2   9   20.80   10.40
  -3  -2  -9  341.77   22.30
   3   2   9  346.57   23.50
  -4  -2  -9  183.38   20.00
  -4  -2  -9  178.48   19.90
   4   2   9  158.48   17.70
  -5  -2  -9  172.68   21.10
  -5  -2  -9  177.58   20.20
   5   2   9  150.28   16.00
  -6  -2  -9    2.60   12.30
  -6  -2  -9    8.60   12.60
  -7  -2  -9    7.90   13.50
  -8  -2  -9   27.10   14.60
  -5   3   9    7.10    9.00
  -4   3   9  150.38   15.80
  -3   3   9  290.47   19.40
  -2   3   9    8.50    9.70
  -1   3   9  152.78   15.40
   0  -3  -9   57.69   11.50
   0   3   9   43.10   12.10
   0   3   9   43.50   12.30
  -1  -3  -9  174.28   17.70
   1   3   9  168.18   19.10
  -2  -3  -9  110.19   15.50
   2   3   9  122.19   15.30
  -3  -3  -9    0.20    9.80
   3   3   9    6.00    9.20
  -4  -3  -9   14.30   12.70
   4   3   9   16.10   10.10
  -5  -3  -9    0.00   13.10
  -5  -3  -9    9.40   12.10
   5   3   9    0.60    8.30
  -6  -3  -9   13.50   14.10
  -6  -3  -9   36.70   14.20
  -7  -3  -9   30.50   14.90
  -8  -3  -9    1.60   13.90
  -5   4   9   98.69   13.10
  -4   4   9   44.40   11.40
  -3   4   9  321.17   20.70
  -2   4   9   11.30   10.10
   1  -4  -9  100.69   11.90
  -1   4   9   77.99   13.30
   0  -4  -9   92.29   12.70
   0   4   9   69.29   13.70
  -1  -4  -9   -0.60   10.60
   1   4   9   -0.30    9.30
  -2  -4  -9  114.39   14.90
   2   4   9  111.69   15.60
  -3  -4  -9   36.30   13.50
   3   4   9   42.20   11.00
  -4  -4  -9    6.00   10.90
   4   4   9   20.20   10.10
  -5  -4  -9   91.79   15.20
   5   4   9  117.09   14.70
  -6  -4  -9   -0.70   11.30
  -7  -4  -9   89.59   17.90
  -8  -4  -9   -3.60   14.40
  -4   5   9    8.40   10.90
  -3   5   9    7.80   10.40
  -2   5   9   71.79   13.00
   1  -5  -9    3.80    7.30
  -1   5   9    6.10   11.20
   0  -5  -9   28.50   10.40
   0   5   9   26.20   10.90
  -1  -5  -9   86.29   14.10
   1   5   9   65.39   13.90
  -2  -5  -9    4.30   11.80
   2   5   9    1.20   10.00
  -3  -5  -9  126.59   17.00
   3   5   9  141.89   17.30
  -4  -5  -9   83.39   15.00
   4   5   9  111.49   14.80
  -5  -5  -9   13.70   12.10
   5   5   9   42.50   10.90
  -6  -5  -9   57.89   14.20
  -7  -5  -9   53.79   16.70
  -8  -5  -9   -2.40   14.50
  -4   6   9   19.40   11.20
  -3   6   9   16.60   11.10
   2  -6  -9  120.69   10.70
  -2   6   9  189.68   19.10
   1  -6  -9   21.20    8.70
  -1   6   9   10.90   10.20
   0  -6  -9   10.70   10.20
  -1  -6  -9   42.40   12.50
  -2  -6  -9   37.70   12.20
   2   6   9   37.00   11.80
  -3  -6  -9   12.30   11.60
   3   6   9   26.90   10.40
  -4  -6  -9   76.89   14.90
   4   6   9   92.19   13.60
  -5  -6  -9  132.69   18.00
   5   6   9  143.59   17.10
  -6  -6  -9  249.38   25.70
  -7  -6  -9  206.08   25.40
  -8  -6  -9   19.90   15.40
  -3   7   9    3.40   11.10
   2  -7  -9   11.10    5.10
  -2   7   9   15.50   12.40
   1  -7  -9  114.79   13.20
  -1   7   9  115.59   15.30
   0  -7  -9   -7.30    9.20
  -1  -7  -9    0.20   11.40
  -2  -7  -9  346.07   24.10
  -3  -7  -9   60.79   14.10
   3   7   9   70.89   14.20
  -4  -7  -9   85.49   16.20
   4   7   9  131.19   15.40
  -5  -7  -9  546.95   32.60
   5   7   9  560.44   29.80
  -6  -7  -9  203.08   24.80
  -7  -7  -9   11.80   15.30
  -8  -7  -9   10.70   15.90
   2  -8  -9   13.00    5.60
  -2   8   9   49.30   14.30
   1  -8  -9   65.19   11.80
   0  -8  -9    3.70   10.20
  -1  -8  -9   -2.50   10.00
  -2  -8  -9    6.10   13.30
  -3  -8  -9  152.48   20.00
   3   8   9  171.48   19.70
  -4  -8  -9   61.19   16.80
   4   8   9   60.39   13.90
  -5  -8  -9  146.09   21.00
   5   8   9  178.88   19.30
  -6  -8  -9   26.40   14.90
  -7  -8  -9    2.40   14.90
  -8  -8  -9    5.10   16.70
   1  -9  -9  128.79   15.10
   0  -9  -9   14.00   11.50
  -1  -9  -9   31.00   12.20
  -2  -9  -9   24.60   14.90
  -3  -9  -9    4.10   14.90
  -4  -9  -9  225.88   25.80
   4   9   9  196.38   20.00
  -5  -9  -9   85.39   19.20
   5   9   9   97.79   15.40
  -6  -9  -9    3.30   13.70
  -7  -9  -9   -3.00   16.10
   1 -10  -9   82.19   13.30
   0 -10  -9   -3.00   10.80
  -1 -10  -9   39.80   12.90
  -2 -10  -9   70.99   15.50
  -3 -10  -9   23.90   14.10
  -4 -10  -9  120.99   19.40
   4  10   9  119.19   16.80
  -5 -10  -9   15.10   14.40
   5  10   9   17.10   11.40
  -6 -10  -9  -11.60   16.30
  -7 -10  -9   -6.90   16.60
   0 -11  -9    2.10   11.00
  -1 -11  -9   86.39   15.80
  -2 -11  -9   22.90   13.20
  -3 -11  -9    1.80   13.00
  -4 -11  -9   29.70   15.80
   4  11   9    5.70   12.10
  -5 -11  -9   51.89   19.60
  -6 -11  -9   -3.20   14.90
  -7 -11  -9    3.80   15.40
  -1 -12  -9    0.30   11.10
  -2 -12  -9   -5.40   12.30
  -3 -12  -9   52.49   16.50
  -4 -12  -9    6.60   14.60
  -5 -12  -9   46.60   19.50
  -6 -12  -9  -20.90   15.10
  -1 -13  -9   -9.40   12.20
  -2 -13  -9    5.40   14.40
  -3 -13  -9    3.40   16.30
  -4 -13  -9    3.20   15.90
  -5 -13  -9   -7.00   15.90
  -6 -13  -9    1.10   16.90
  -2 -14  -9    9.10   12.90
  -3 -14  -9   -0.70   14.20
  -4 -14  -9    1.20   15.60
  -5 -14  -9  -11.80   19.40
  -3 -15  -9   13.90   15.40
  -3 -14  10   50.99   19.60
  -2 -14  10   64.29   20.10
  -1 -14  10   22.10   17.50
   0 -14  10   37.50   19.20
  -5 -13  10   12.60   18.80
  -4 -13  10   21.60   19.00
  -3 -13  10   93.39   20.80
  -2 -13  10   33.60   17.40
  -1 -13  10   14.10   15.60
   0 -13  10   31.60   16.90
   1 -13  10   12.50   16.10
  -5 -12  10    5.10   17.70
  -4 -12  10    5.70   17.60
  -3 -12  10   -2.60   15.20
  -2 -12  10   14.90   16.20
  -1 -12  10   35.80   16.30
   0 -12  10    8.00   13.80
   1 -12  10   29.90   17.00
  -6 -11  10    2.20   16.50
  -5 -11  10   44.80   18.60
  -4 -11  10   -9.90   14.10
  -3 -11  10    2.60   17.30
  -2 -11  10   13.60   15.60
  -1 -11  10  108.49   19.80
   0 -11  10   -1.50   13.40
   1 -11  10   11.30   14.70
   2 -11  10    8.20   13.30
  -6 -10  10   11.60   15.40
  -5 -10  10   -1.60   15.30
  -4 -10  10   19.80   16.50
  -3 -10  10    8.60   14.50
  -2 -10  10   21.70   17.10
  -1 -10  10    6.10   16.50
   0 -10  10  -10.70   15.60
   1 -10  10   35.30   14.50
   2 -10  10   -6.50   13.20
  -7  -9  10    9.10   14.20
  -6  -9  10    8.30   14.00
  -5  -9  10    4.60   14.40
  -4  -9  10   31.80   15.30
  -3  -9  10   66.59   15.90
  -2  -9  10   23.40   16.30
  -1  -9  10   23.40   14.20
   0  -9  10   21.60   14.60
   1  -9  10  299.07   28.80
   2  -9  10   -8.10   13.20
  -7  -8  10   -0.80   12.40
  -6  -8  10   28.80   15.20
  -5  -8  10   10.00   13.50
  -4  -8  10    8.50   13.90
  -3  -8  10   41.20   14.40
  -2  -8  10    5.90   14.40
  -1  -8  10  327.57   27.10
   0  -8  10    5.00   13.20
   1  -8  10  318.57   26.90
   2  -8  10  246.18   25.60
   3  -8  10  201.48   22.40
  -7  -7  10   12.10   13.50
  -6  -7  10   26.60   14.30
  -5  -7  10   53.59   14.50
  -4  -7  10   14.10   12.70
  -3  -7  10  349.07   25.40
  -2  -7  10    4.00   11.30
  -1  -7  10   73.79   17.20
   0  -7  10   14.10   12.60
   1  -7  10   37.80   13.20
   2  -7  10   80.89   16.10
   3  -7  10   94.19   17.00
  -7  -6  10   28.10   12.70
  -6  -6  10   26.00   12.10
  -5  -6  10  133.89   17.80
  -4  -6  10   -8.60   11.20
  -3  -6  10   12.80   13.10
  -2  -6  10   31.20   13.90
  -1  -6  10   72.39   15.90
   0  -6  10   -4.20   11.10
   1  -6  10   -6.40   13.40
   2  -6  10   82.19   16.50
   3  -6  10  137.89   18.40
  -8  -5  10   27.20   11.90
  -7  -5  10  217.48   20.70
  -6  -5  10    9.10   11.20
  -5  -5  10    4.90   11.60
  -4  -5  10   14.30   11.80
  -3  -5  10  153.98   18.20
  -2  -5  10   57.69   13.20
  -1  -5  10   10.20   11.20
   0  -5  10  444.66   27.60
   1  -5  10   76.69   14.80
   2  -5  10  209.78   21.20
   3  -5  10  159.18   20.30
   4  -5  10  145.89   19.00
  -8  -4  10   15.30   10.60
  -7  -4  10   -3.90   10.20
  -6  -4  10   12.20   10.90
  -5  -4  10   -7.40   10.60
  -4  -4  10   29.40   12.60
  -3  -4  10   10.40   11.60
  -2  -4  10   29.70   11.10
  -1  -4  10    0.50   12.30
   0  -4  10   31.20   14.10
   1  -4  10   46.10   13.70
   2  -4  10    6.50   11.80
   3  -4  10   86.49   14.00
   4  -4  10   12.30   10.70
  -8  -3  10    7.00   10.10
  -7  -3  10    6.40   10.70
  -6  -3  10    3.30   10.00
  -5  -3  10   90.79   13.60
  -4  -3  10   21.60   11.30
  -3  -3  10    3.50   10.60
  -2  -3  10   54.19   13.30
  -1  -3  10  155.38   20.20
   0  -3  10  213.48   20.30
   1  -3  10  200.48   20.50
   2  -3  10   61.79   13.50
   3  -3  10  252.77   21.90
   4  -3  10   64.19   13.00
  -8  -2  10   35.10   10.30
  -7  -2  10   29.10   10.70
  -6  -2  10  -11.70    9.40
  -5  -2  10   53.59   12.40
  -4  -2  10    7.60    9.40
  -3  -2  10   42.30   11.40
  -2  -2  10   61.89   12.10
  -1  -2  10   29.00   12.20
  -1  -2  10   37.90   11.60
   0  -2  10  371.26   24.60
   1  -2  10  211.38   22.10
   2  -2  10   17.90   11.30
   3  -2  10   37.10   11.40
   4  -2  10  143.99   18.30
  -7  -1  10   -0.50    9.30
  -6  -1  10   12.40    9.70
  -5  -1  10  161.08   17.70
  -4  -1  10  107.79   13.60
  -3  -1  10   -1.30    9.50
  -2  -1  10   85.99   13.10
  -2  -1  10   72.29   12.00
  -1  -1  10  587.84   28.90
  -1  -1  10  621.44   30.70
   0  -1  10   16.80   12.20
   0  -1  10    6.50   10.40
   1  -1  10  205.48   22.00
   2  -1  10   25.80   11.80
   3  -1  10   56.69   13.50
   4  -1  10  650.13   31.90
   5  -1  10   11.00   10.40
  -7   0  10   29.70    9.90
  -6   0  10   -4.70    8.90
  -5   0  10    6.50    9.80
  -5   0  10   16.00    8.80
  -4   0  10   46.00   11.20
  -4   0  10   32.80    9.80
  -3   0  10  459.05   24.60
  -3   0  10  469.35   25.10
  -2   0  10    1.60    9.70
  -2   0  10    5.10    9.90
  -1   0  10   14.20    9.90
  -1   0  10    2.40    9.70
   0   0  10   20.50   12.20
   0   0  10   26.30   12.00
   1   0  10   62.19   12.90
   2   0  10   37.80   13.40
  -3   0 -10  133.59   17.80
   3   0  10  163.08   17.90
  -4   0 -10   12.50   11.40
   4   0  10   -0.40   10.30
  -5   0 -10   86.39   16.70
   5   0  10   91.89   13.80
  -6   0 -10   58.09   14.80
  -7   0 -10   38.90   15.00
  -5   1  10   70.99   11.50
  -4   1  10   60.29   11.10
  -4   1  10   62.29   11.70
  -3   1  10    6.40   11.00
  -3   1  10   21.80   10.20
  -2   1  10   18.90   10.20
  -2   1  10   10.10   10.30
  -1   1  10   17.70   11.70
  -1   1  10   25.00   10.00
   0   1  10   27.60   12.20
   0   1  10   38.20   12.50
   1   1  10  120.69   15.00
  -2  -1 -10   86.99   13.30
   2   1  10   54.59   12.70
  -3  -1 -10   27.10   13.10
   3   1  10   31.30   12.30
  -4  -1 -10   89.79   14.90
   4   1  10  100.69   14.40
  -5  -1 -10  194.88   22.30
   5   1  10  207.18   18.50
  -6  -1 -10   -0.30   11.30
  -7  -1 -10    0.80   13.80
  -8  -1 -10   12.50   15.20
  -5   2  10    9.70   10.30
  -4   2  10   18.70   10.00
  -3   2  10   55.09   12.70
  -2   2  10    0.20   10.00
  -2   2  10    1.50   10.10
  -1   2  10  246.38   20.30
  -1   2  10  253.87   19.90
   0   2  10    2.40    9.70
   0   2  10   14.20    9.90
  -1  -2 -10   76.99   12.50
   1   2  10   59.89   14.10
  -2  -2 -10    3.10    9.80
   2   2  10    6.10   11.90
  -3  -2 -10   57.99   14.00
   3   2  10   67.29   13.60
  -4  -2 -10   10.40   11.20
   4   2  10   19.90   11.00
  -5  -2 -10   -1.20   12.90
   5   2  10    9.00   10.30
  -6  -2 -10    5.80   13.70
  -7  -2 -10   97.69   17.60
  -8  -2 -10    7.70   14.60
  -5   3  10   -3.30   10.90
  -4   3  10   10.60   10.90
  -3   3  10    0.60   11.50
  -2   3  10  119.29   14.00
  -1   3  10   28.70   10.70
  -1   3  10   26.80   10.60
   0  -3 -10  167.08   15.30
   0   3  10  181.88   17.90
   0   3  10  166.28   18.50
  -1  -3 -10  394.66   24.00
   1   3  10  366.76   25.80
  -2  -3 -10   -9.50   11.20
   2   3  10   -4.90   11.20
  -3  -3 -10   31.60   11.70
   3   3  10   30.10   11.80
  -4  -3 -10   21.50   14.00
   4   3  10   16.70   10.00
  -5  -3 -10  167.58   20.70
   5   3  10  145.09   18.50
  -6  -3 -10    6.20   13.70
  -7  -3 -10   30.40   15.50
  -8  -3 -10    9.50   15.10
  -4   4  10   92.49   13.50
  -3   4  10   13.50   11.00
  -2   4  10   12.40   11.10
  -1   4  10  229.98   19.20
   0  -4 -10   63.89   12.10
   0   4  10   45.50   13.40
  -1  -4 -10   -4.20    9.20
   1   4  10    0.50   10.10
  -2  -4 -10   13.50   11.10
   2   4  10   14.30   10.80
  -3  -4 -10  104.09   16.80
   3   4  10  115.39   16.20
  -4  -4 -10   53.89   14.20
   4   4  10   65.99   13.20
  -5  -4 -10    3.30   12.30
   5   4  10    7.80    9.80
  -6  -4 -10   72.89   17.50
  -7  -4 -10   29.10   15.80
  -8  -4 -10   43.40   17.20
  -4   5  10   -4.80   10.30
  -3   5  10   -2.50   11.10
  -2   5  10   47.00   13.80
   1  -5 -10  102.39   12.90
  -1   5  10  105.99   16.30
   0  -5 -10   22.00    9.40
  -1  -5 -10  323.67   23.20
   1   5  10  306.67   23.40
  -2  -5 -10   19.60   11.70
   2   5  10   19.20   11.30
  -3  -5 -10   19.60   11.90
   3   5  10   30.00   12.90
  -4  -5 -10   34.30   14.70
   4   5  10   41.80   12.50
  -5  -5 -10    0.90   14.10
   5   5  10   -2.40    9.40
  -6  -5 -10  112.99   18.00
  -7  -5 -10   11.60   15.10
  -8  -5 -10   -0.40   15.60
  -3   6  10   17.90   12.00
  -2   6  10  -13.90   11.20
   1  -6 -10   -5.50    7.70
  -1   6  10   -6.10   12.10
   0  -6 -10  171.68   17.50
  -1  -6 -10   -2.90    9.80
  -2  -6 -10   34.20   13.60
   2   6  10   24.40   12.10
  -3  -6 -10   -5.60   13.10
   3   6  10    0.70   11.50
  -4  -6 -10    2.00   12.30
   4   6  10   -5.50   10.50
  -5  -6 -10   28.00   13.50
   5   6  10   17.10   10.80
  -6  -6 -10   18.90   15.80
  -7  -6 -10   71.89   15.90
  -8  -6 -10    4.10   15.90
   2  -7 -10   68.09    9.20
  -2   7  10  121.59   17.40
   1  -7 -10    9.50    9.60
   0  -7 -10   26.10   10.50
  -1  -7 -10   10.40   10.30
  -2  -7 -10  140.69   18.90
   2   7  10  148.59   18.40
  -3  -7 -10   34.40   15.40
   3   7  10   32.50   13.60
  -4  -7 -10   18.70   15.00
   4   7  10    4.80   10.10
  -5  -7 -10   50.39   15.70
   5   7  10   60.29   13.30
  -6  -7 -10   29.40   17.10
  -7  -7 -10  110.09   19.40
   1  -8 -10   34.10   11.10
   0  -8 -10   20.30   11.80
  -1  -8 -10   38.70   13.60
  -2  -8 -10   66.39   14.90
  -3  -8 -10   11.90   13.50
   3   8  10   40.30   14.00
  -4  -8 -10   63.89   16.10
   4   8  10   52.59   12.90
  -5  -8 -10  101.49   19.70
   5   8  10  109.99   16.00
  -6  -8 -10    4.50   14.20
  -7  -8 -10    1.30   16.80
   1  -9 -10  260.97   19.60
   0  -9 -10   17.60   10.50
  -1  -9 -10  -14.00   11.50
  -2  -9 -10   19.10   12.80
  -3  -9 -10  215.78   22.90
   3   9  10  200.58   23.20
  -4  -9 -10   94.69   18.10
   4   9  10  118.89   17.80
  -5  -9 -10   -2.40   15.50
   5   9  10   11.20   11.60
  -6  -9 -10   -6.00   14.20
  -7  -9 -10   13.80   17.70
   0 -10 -10    5.80   10.80
  -1 -10 -10  279.87   24.60
  -2 -10 -10  125.79   19.20
  -3 -10 -10   -9.60   14.20
  -4 -10 -10   -2.20   13.80
   4  10  10   15.00   13.00
  -5 -10 -10   -9.80   13.60
  -6 -10 -10   10.20   17.40
  -7 -10 -10    9.90   17.40
   0 -11 -10   16.30   12.40
  -1 -11 -10   17.70   13.50
  -2 -11 -10   14.60   12.90
  -3 -11 -10   -3.10   12.70
  -4 -11 -10    1.70   14.50
   4  11  10   20.10   11.90
  -5 -11 -10   -0.80   17.50
  -6 -11 -10   -2.70   15.30
  -1 -12 -10    0.60   12.90
  -2 -12 -10   11.70   13.00
  -3 -12 -10    8.10   13.50
  -4 -12 -10   -8.70   14.00
   4  12  10   -9.70   12.60
  -5 -12 -10   -3.70   17.30
  -6 -12 -10    7.60   16.30
  -2 -13 -10   -8.20   13.90
  -3 -13 -10   23.70   16.80
  -4 -13 -10  -19.20   13.90
  -5 -13 -10   26.80   17.10
  -2 -14 -10   18.10   13.70
  -3 -14 -10   38.50   16.20
  -4 -14 -10  -23.90   14.30
  -4 -13  11   54.59   22.00
  -3 -13  11   62.99   20.30
  -2 -13  11   95.59   23.30
  -1 -13  11   20.40   19.30
   0 -13  11   15.50   14.90
  -5 -12  11   14.30   18.70
  -4 -12  11   43.60   20.30
  -3 -12  11    1.80   15.90
  -2 -12  11   -3.10   18.20
  -1 -12  11   25.50   19.20
   0 -12  11    2.70   13.80
   1 -12  11   18.60   16.10
  -5 -11  11   14.90   18.00
  -4 -11  11   17.70   18.40
  -3 -11  11   16.00   16.20
  -2 -11  11    2.50   15.30
  -1 -11  11  217.78   28.20
   0 -11  11    2.30   14.00
   1 -11  11   -1.10   14.20
  -6 -10  11   11.50   16.00
  -5 -10  11   16.70   14.70
  -4 -10  11   11.20   16.50
  -3 -10  11   72.69   20.00
  -2 -10  11    4.30   16.60
  -1 -10  11  126.69   21.00
   0 -10  11  127.49   22.40
   1 -10  11   12.90   13.70
   2 -10  11    3.40   14.10
  -6  -9  11    3.70   14.00
  -5  -9  11   47.50   16.60
  -4  -9  11  -10.30   12.10
  -3  -9  11    0.20   15.10
  -2  -9  11   92.29   17.60
  -1  -9  11   22.80   14.80
   0  -9  11  113.29   19.50
   1  -9  11   49.70   17.40
   2  -9  11    8.10   12.20
  -7  -8  11   78.29   16.80
  -6  -8  11   13.10   15.80
  -5  -8  11    9.90   13.70
  -4  -8  11   47.00   16.00
  -3  -8  11    9.00   15.40
  -2  -8  11  121.89   18.90
  -1  -8  11   20.80   14.40
   0  -8  11   10.40   13.50
   1  -8  11   17.20   13.70
   2  -8  11  -14.50   13.90
   3  -8  11   48.80   14.90
  -7  -7  11  -12.70   13.00
  -6  -7  11   10.10   12.50
  -5  -7  11    6.90   12.70
  -4  -7  11   79.99   15.10
  -3  -7  11    8.60   13.90
  -2  -7  11    0.60   14.10
  -1  -7  11   15.20   13.60
   0  -7  11  255.07   25.50
   1  -7  11   13.70   13.00
   2  -7  11    4.90   11.80
   3  -7  11    6.30   13.30
  -7  -6  11   10.30   12.80
  -6  -6  11   95.99   16.80
  -5  -6  11   10.30   13.50
  -4  -6  11    5.40   12.70
  -3  -6  11  143.39   18.90
  -2  -6  11   91.09   17.10
  -1  -6  11   60.99   14.60
   0  -6  11   14.00   14.20
   1  -6  11   30.70   13.90
   2  -6  11   74.29   16.50
   3  -6  11  453.55   31.00
  -7  -5  11   89.29   15.60
  -6  -5  11   19.70   12.20
  -5  -5  11    4.70   11.70
  -4  -5  11    4.10   12.00
  -3  -5  11   32.70   13.90
  -2  -5  11   -1.30   13.10
  -1  -5  11   19.40   12.20
   0  -5  11   15.10   12.40
   1  -5  11  441.76   29.10
   2  -5  11   15.90   13.60
   3  -5  11   35.70   13.50
   4  -5  11  228.08   22.50
  -7  -4  11    0.00   12.10
  -6  -4  11   43.50   13.30
  -5  -4  11   42.30   13.60
  -4  -4  11   21.70   12.40
  -3  -4  11   66.89   14.60
  -2  -4  11   39.90   12.30
  -1  -4  11  230.38   22.10
   0  -4  11   80.99   15.50
   1  -4  11   13.70   13.90
   2  -4  11   24.20   12.30
   3  -4  11   -1.60   10.00
   4  -4  11   46.40   12.60
  -7  -3  11   94.59   14.90
  -6  -3  11    2.70   11.00
  -5  -3  11   47.70   12.30
  -4  -3  11   12.50   12.40
  -3  -3  11   13.10   11.70
  -2  -3  11   71.79   13.70
  -1  -3  11   79.79   15.50
   0  -3  11   13.40   13.50
   1  -3  11   10.50   13.50
   2  -3  11  155.28   19.90
   3  -3  11   97.69   16.00
   4  -3  11    2.30   10.80
  -7  -2  11   13.40   10.70
  -6  -2  11  139.79   17.50
  -5  -2  11   26.20   10.70
  -4  -2  11   -4.20   10.00
  -3  -2  11   -5.90   10.50
  -2  -2  11   20.00   12.20
  -2  -2  11   18.30   10.70
  -1  -2  11  105.39   16.60
  -1  -2  11   99.49   15.50
   0  -2  11  264.27   22.90
   1  -2  11   10.50   11.50
   2  -2  11  107.49   15.80
   3  -2  11   73.79   15.30
   4  -2  11   89.29   14.90
  -7  -1  11   14.50   10.40
  -6  -1  11   36.80   11.50
  -5  -1  11   21.10   11.10
  -4  -1  11   33.70   11.20
  -4  -1  11    6.80   10.90
  -3  -1  11  378.06   24.50
  -3  -1  11  344.37   23.00
  -2  -1  11  213.48   19.60
  -2  -1  11  223.18   20.60
  -1  -1  11  103.09   14.50
  -1  -1  11   99.49   15.20
   0  -1  11   89.89   16.00
   1  -1  11   60.99   13.40
   2  -1  11    0.60   11.00
   3  -1  11   81.29   14.10
   4  -1  11   79.09   14.70
  -7   0  11    4.20    9.80
  -6   0  11   -2.20   10.30
  -5   0  11   14.90   10.70
  -5   0  11   27.80   10.60
  -4   0  11    4.30   10.60
  -4   0  11   -8.40   10.10
  -3   0  11  639.14   30.60
  -3   0  11  648.14   31.80
  -2   0  11  631.24   31.00
  -2   0  11  650.93   31.60
  -1   0  11  368.46   23.30
  -1   0  11  364.26   24.10
   0   0  11    3.90   10.70
   1   0  11    4.50   12.30
   2   0  11  116.99   16.40
   3   0  11    6.30   10.40
   4   0  11  151.18   19.80
  -5   0 -11   33.90   14.10
   5   0  11   55.79   13.30
  -7   1  11   49.20   12.00
  -6   1  11    2.80   10.50
  -5   1  11   18.90   10.70
  -4   1  11   -3.60   10.50
  -4   1  11   -0.40   10.60
  -3   1  11  163.88   17.70
  -3   1  11  155.68   18.70
  -2   1  11  365.56   25.00
  -2   1  11  369.66   23.10
  -1   1  11  153.58   20.20
  -1   1  11  138.89   17.60
   0   1  11  540.35   29.30
   1   1  11   46.60   14.30
  -2  -1 -11   19.00   11.10
   2   1  11   16.80   11.80
  -3  -1 -11   76.69   14.40
   3   1  11   90.39   14.60
  -4  -1 -11  253.27   22.40
   4   1  11  243.28   20.50
  -5  -1 -11   56.79   16.20
   5   1  11   78.99   14.30
  -6  -1 -11    5.20   14.30
  -7  -1 -11   -7.50   14.00
  -4   2  11   10.50   11.70
  -4   2  11   24.20   11.90
  -3   2  11  207.08   19.50
  -3   2  11  212.58   20.50
  -2   2  11  668.53   33.30
  -2   2  11  674.33   32.50
  -1   2  11  135.99   17.20
  -1   2  11  141.19   17.10
   0   2  11   49.20   12.60
  -1  -2 -11   -0.20    9.80
   1   2  11    0.20   12.20
  -2  -2 -11  220.68   20.00
   2   2  11  216.88   21.10
  -3  -2 -11    0.80   12.30
   3   2  11   -1.10    9.70
  -4  -2 -11  146.29   19.40
   4   2  11  154.38   18.10
  -5  -2 -11   12.80   12.00
   5   2  11    3.60    9.90
  -6  -2 -11    5.70   14.30
  -7  -2 -11   -7.50   14.30
  -4   3  11  501.15   27.60
  -3   3  11   19.30   12.00
  -2   3  11  171.88   19.70
  -2   3  11  168.38   20.20
  -1   3  11   -0.70   10.40
  -1   3  11   10.90   10.30
   0   3  11   99.39   15.00
  -1  -3 -11  130.99   15.50
   1   3  11  104.89   15.70
  -2  -3 -11    6.60   10.40
   2   3  11   12.20   12.90
  -3  -3 -11    7.80   13.10
   3   3  11   -7.50   10.90
  -4  -3 -11   15.70   12.60
   4   3  11   14.30   11.80
  -5  -3 -11  114.79   19.00
   5   3  11  142.99   18.40
  -6  -3 -11   15.20   13.20
  -7  -3 -11   40.60   17.30
  -3   4  11  146.59   18.80
  -2   4  11  255.37   20.80
  -1   4  11  133.39   16.50
  -1   4  11  140.89   17.60
   0  -4 -11   68.99   11.70
   0   4  11   68.69   13.70
  -1  -4 -11  405.56   25.40
   1   4  11  380.96   26.00
  -2  -4 -11   49.70   12.90
   2   4  11   60.99   14.10
  -3  -4 -11  120.39   16.80
   3   4  11  148.19   18.10
  -4  -4 -11   15.00   12.80
   4   4  11    5.30    9.70
  -5  -4 -11    5.60   15.00
   5   4  11   29.00   13.00
  -6  -4 -11  143.69   20.00
  -7  -4 -11   -8.10   14.50
  -3   5  11  269.17   23.00
  -2   5  11   21.20   13.90
   1  -5 -11  135.69   14.90
  -1   5  11  146.09   22.60
   0  -5 -11   11.50    9.20
   0   5  11    2.10   12.90
  -1  -5 -11  392.36   25.70
   1   5  11  378.36   26.60
  -2  -5 -11   38.60   13.10
   2   5  11   49.40   15.00
  -3  -5 -11   30.90   13.70
   3   5  11   46.60   14.30
  -4  -5 -11   75.69   17.80
   4   5  11   80.49   14.40
  -5  -5 -11    0.40   13.30
   5   5  11    6.60   10.30
  -6  -5 -11  318.47   30.10
  -7  -5 -11   48.70   16.50
  -2   6  11    3.40   13.20
   1  -6 -11  327.07   20.40
   0  -6 -11    4.10   10.10
  -1  -6 -11   49.99   13.80
   1   6  11   38.10   13.50
  -2  -6 -11   25.50   12.80
   2   6  11   21.90   12.30
  -3  -6 -11   31.60   15.10
   3   6  11   37.80   12.80
  -4  -6 -11  178.78   21.90
   4   6  11  164.08   21.20
  -5  -6 -11   -8.90   12.40
   5   6  11   -4.30   10.00
  -6  -6 -11   26.80   16.70
  -7  -6 -11   27.30   17.80
  -2   7  11    9.00   16.40
   1  -7 -11   -4.50    8.00
   0  -7 -11   50.89   12.90
  -1  -7 -11   -5.50   11.60
  -2  -7 -11  137.69   18.00
   2   7  11  153.38   20.20
  -3  -7 -11   35.50   15.50
   3   7  11   27.10   12.00
  -4  -7 -11   67.69   17.90
   4   7  11   72.89   15.50
  -5  -7 -11  260.97   25.70
   5   7  11  258.57   23.00
  -6  -7 -11   11.20   16.50
  -7  -7 -11    7.50   17.00
   1  -8 -11   18.80    9.50
   0  -8 -11  225.48   21.00
  -1  -8 -11   -2.20   10.20
  -2  -8 -11   11.20   13.40
   2   8  11    2.80   12.10
  -3  -8 -11    1.40   12.80
   3   8  11   -3.50   12.80
  -4  -8 -11   23.40   14.70
   4   8  11   37.10   13.80
  -5  -8 -11   23.00   16.90
   5   8  11   30.60   13.30
  -6  -8 -11    0.00   14.60
  -7  -8 -11   27.70   18.50
   0  -9 -11  113.89   16.70
  -1  -9 -11   55.39   14.90
  -2  -9 -11   41.40   15.60
  -3  -9 -11  -17.00   12.00
   3   9  11   10.30   11.60
  -4  -9 -11   10.80   14.40
   4   9  11    9.60   11.10
  -5  -9 -11   -3.40   16.70
  -6  -9 -11    0.00   14.90
  -7  -9 -11   23.90   16.40
   0 -10 -11    2.60   11.50
  -1 -10 -11  111.39   16.50
  -2 -10 -11   -4.70   13.60
  -3 -10 -11   66.79   18.40
   3  10  11   84.09   17.90
  -4 -10 -11    1.30   16.80
   4  10  11   13.00   11.90
  -5 -10 -11   65.29   17.80
  -6 -10 -11    7.00   16.60
  -1 -11 -11   51.89   15.40
  -2 -11 -11   10.10   14.40
  -3 -11 -11   88.39   18.00
   3  11  11  117.19   19.60
  -4 -11 -11   38.60   15.70
   4  11  11   27.50   14.10
  -5 -11 -11  -20.90   16.50
  -6 -11 -11   13.90   16.10
  -1 -12 -11   28.00   14.60
  -2 -12 -11    7.10   14.40
  -3 -12 -11   43.00   16.10
  -4 -12 -11   -0.90   14.80
   4  12  11   18.70   14.00
  -5 -12 -11   33.80   19.30
  -2 -13 -11   17.10   15.40
  -3 -13 -11   -5.40   14.80
  -4 -13 -11    2.40   15.70
   4  13  11   15.90   24.00
  -2 -13  12    7.10   17.60
  -1 -13  12   47.90   21.20
  -4 -12  12    8.10   16.60
  -3 -12  12   53.79   22.40
  -2 -12  12    2.00   15.90
  -1 -12  12    9.80   16.60
   0 -12  12   19.50   17.10
   1 -12  12    7.00   15.70
  -5 -11  12   36.30   17.30
  -4 -11  12   21.60   19.20
  -3 -11  12    6.70   18.50
  -2 -11  12   29.90   19.70
  -1 -11  12   -3.80   17.70
   0 -11  12   22.20   15.30
   1 -11  12    8.00   16.80
  -5 -10  12  -18.40   15.40
  -4 -10  12   44.50   18.50
  -3 -10  12   23.90   15.90
  -2 -10  12   50.79   17.60
  -1 -10  12    9.80   15.90
   0 -10  12   11.60   14.80
   1 -10  12    7.10   15.90
   2 -10  12  -15.90   14.20
  -6  -9  12   10.10   15.50
  -5  -9  12   42.50   17.40
  -4  -9  12   17.30   16.60
  -3  -9  12   32.90   15.60
  -2  -9  12    7.10   16.50
  -1  -9  12   37.20   18.10
   0  -9  12   15.70   16.30
   1  -9  12    2.90   13.60
   2  -9  12   -6.50   15.00
  -6  -8  12   -2.80   13.90
  -5  -8  12   24.70   15.50
  -4  -8  12    4.60   14.90
  -3  -8  12  114.39   19.20
  -2  -8  12   44.90   17.90
  -1  -8  12   71.19   17.50
   0  -8  12   18.50   14.20
   1  -8  12    2.80   15.20
   2  -8  12   -0.50   12.80
  -6  -7  12    9.60   13.10
  -5  -7  12   53.49   15.20
  -4  -7  12  159.28   21.40
  -3  -7  12   67.39   17.40
  -2  -7  12   40.20   16.60
  -1  -7  12   33.40   16.50
   0  -7  12    9.20   13.80
   1  -7  12    2.30   14.70
   2  -7  12  129.69   19.30
   3  -7  12   -4.10   12.70
  -7  -6  12    6.40   13.80
  -6  -6  12    4.90   12.80
  -5  -6  12   35.60   14.60
  -4  -6  12  135.09   19.20
  -3  -6  12   38.20   13.50
  -2  -6  12   26.20   13.90
  -1  -6  12   -6.30   12.30
   0  -6  12   69.99   17.90
   1  -6  12   -9.30   14.00
   2  -6  12   47.50   14.90
   3  -6  12  -13.00   13.10
  -7  -5  12  113.49   18.40
  -6  -5  12   17.10   14.20
  -5  -5  12    3.70   13.60
  -4  -5  12    4.10   13.00
  -3  -5  12  196.88   22.00
  -2  -5  12  224.08   23.20
  -1  -5  12    8.40   14.60
   0  -5  12   79.89   16.50
   1  -5  12   36.50   13.90
   2  -5  12   85.29   16.30
   3  -5  12   64.49   15.90
  -7  -4  12    5.20   11.70
  -6  -4  12   -3.90   11.10
  -5  -4  12   11.00   12.50
  -4  -4  12  177.88   22.10
  -3  -4  12   91.79   16.80
  -2  -4  12   77.49   15.10
  -1  -4  12   36.70   13.60
   0  -4  12  100.69   18.90
   1  -4  12   24.70   13.30
   2  -4  12    0.80   11.20
   3  -4  12  -12.30   11.90
   4  -4  12    5.10   11.20
  -7  -3  12    2.40   12.40
  -6  -3  12   13.40   12.50
  -5  -3  12  248.18   22.60
  -4  -3  12   23.30   13.30
  -3  -3  12    3.40   12.30
  -2  -3  12    2.60   12.90
  -1  -3  12   51.09   15.70
   0  -3  12    7.30   14.00
   1  -3  12   80.99   15.80
   2  -3  12   33.70   14.40
   3  -3  12   24.10   13.10
   4  -3  12   77.29   15.70
  -7  -2  12   47.20   13.70
  -6  -2  12   41.70   12.50
  -5  -2  12  187.58   19.90
  -4  -2  12  173.68   21.80
  -3  -2  12   50.79   14.20
  -3  -2  12   63.99   14.30
  -2  -2  12  317.77   24.30
  -2  -2  12  305.47   24.10
  -1  -2  12  188.08   23.70
   0  -2  12   14.50   14.20
   1  -2  12   39.20   13.60
   2  -2  12    9.30   12.00
   3  -2  12   48.90   13.40
   4  -2  12  108.99   16.70
  -7  -1  12   -1.50   12.00
  -6  -1  12   18.70   11.50
  -5  -1  12   22.70   11.50
  -4  -1  12  256.77   22.30
  -4  -1  12  239.38   21.00
  -3  -1  12    4.10   11.90
  -3  -1  12    7.10   10.60
  -2  -1  12    3.90   12.40
  -2  -1  12    3.30   12.50
  -1  -1  12    7.90   13.40
   0  -1  12   56.59   15.70
   1  -1  12    0.60   13.40
   2  -1  12   94.99   16.40
   3  -1  12   92.99   16.60
   4  -1  12  325.47   25.50
  -7   0  12   40.90   13.10
  -6   0  12   47.00   13.00
  -5   0  12    6.50   10.30
  -4   0  12   -8.60   10.50
  -4   0  12   -7.80   11.90
  -3   0  12  129.99   16.70
  -3   0  12  119.29   16.70
  -2   0  12  -11.50   11.90
  -2   0  12   -0.60   10.80
  -1   0  12  188.28   21.00
   0   0  12  287.97   25.80
   1   0  12   11.20   13.60
   2   0  12  156.88   20.10
   3   0  12  492.65   29.60
   4   0  12  100.79   16.80
  -6   1  12    7.40   10.90
  -5   1  12   47.20   13.10
  -4   1  12    1.30   11.20
  -4   1  12   -5.10   11.90
  -3   1  12   -3.20   11.30
  -3   1  12    5.30   12.10
  -2   1  12  283.57   24.00
  -2   1  12  282.77   25.20
  -1   1  12  311.87   26.20
   0   1  12  302.17   24.60
   1   1  12  231.78   22.60
   2   1  12  267.67   23.70
  -3  -1 -12   72.29   15.20
   3   1  12   63.19   15.30
  -4  -1 -12  140.19   19.80
   4   1  12  139.19   18.40
  -5  -1 -12   32.10   14.50
  -6  -1 -12   -5.40   12.90
  -7  -1 -12    4.00   13.60
  -6   2  12    3.70   11.30
  -5   2  12   55.09   14.00
  -4   2  12   92.19   14.90
  -3   2  12  238.08   22.00
  -3   2  12  250.77   23.20
  -2   2  12   37.80   14.00
  -2   2  12   29.60   13.40
  -1   2  12 1849.52   68.39
   0   2  12  129.59   17.10
   1   2  12  113.79   18.20
  -2  -2 -12   -0.10   11.40
   2   2  12    9.00   13.50
  -3  -2 -12   97.39   17.80
   3   2  12   96.59   15.80
  -4  -2 -12  111.79   17.50
   4   2  12  132.79   17.70
  -5  -2 -12   12.90   15.20
   5   2  12   16.10   13.50
  -6  -2 -12   10.40   13.90
  -7  -2 -12   11.80   14.30
  -3   3  12  291.37   24.30
  -3   3  12  249.38   23.00
  -2   3  12   42.30   14.00
  -2   3  12   41.00   13.10
  -1   3  12   78.79   15.90
   0   3  12  122.49   16.70
  -1  -3 -12  208.58   19.40
   1   3  12  207.28   24.10
  -2  -3 -12   75.19   14.60
   2   3  12   58.09   14.50
  -3  -3 -12    5.60   13.30
   3   3  12   -7.40   10.00
  -4  -3 -12    9.90   12.60
   4   3  12   24.90   12.70
  -5  -3 -12   -2.10   14.40
   5   3  12    4.20   11.00
  -6  -3 -12   44.50   15.40
  -7  -3 -12   30.40   15.20
  -3   4  12   -5.70   12.10
  -2   4  12   -5.10   10.90
  -2   4  12   -4.00   10.90
  -1   4  12    1.60   11.30
   0  -4 -12  431.66   25.40
   0   4  12  413.86   29.50
  -1  -4 -12   36.60   12.40
   1   4  12   31.10   15.00
  -2  -4 -12    4.40   12.50
   2   4  12   10.80   13.70
  -3  -4 -12    1.10   11.70
   3   4  12   -1.60   10.90
  -4  -4 -12   -2.50   14.60
   4   4  12    6.60   11.60
  -5  -4 -12  170.98   21.20
   5   4  12  163.38   20.50
  -6  -4 -12   -5.80   15.60
  -7  -4 -12    0.30   16.10
  -2   5  12  246.08   22.70
  -1   5  12  135.09   18.70
   0  -5 -12    3.60    9.90
   0   5  12   -0.10   11.40
  -1  -5 -12   81.49   15.50
   1   5  12   94.89   16.30
  -2  -5 -12   10.30   11.90
   2   5  12   11.90   12.50
  -3  -5 -12  396.06   28.90
   3   5  12  390.06   28.60
  -4  -5 -12    1.40   13.20
   4   5  12  -10.30   10.80
  -5  -5 -12   60.79   18.50
   5   5  12   70.79   15.10
  -6  -5 -12  120.99   20.10
  -7  -5 -12  185.98   24.70
   1  -6 -12   -3.60    8.40
   0  -6 -12    9.90   10.80
   0   6  12    8.50   14.20
  -1  -6 -12  110.69   15.90
   1   6  12  100.99   18.60
  -2  -6 -12   54.99   15.60
   2   6  12   49.40   14.40
  -3  -6 -12  109.29   19.20
   3   6  12   88.89   16.20
  -4  -6 -12  155.28   20.70
   4   6  12  188.28   21.10
  -5  -6 -12  434.86   33.50
   5   6  12  404.16   33.20
  -6  -6 -12  103.99   19.90
  -7  -6 -12    2.30   15.70
   1  -7 -12  209.68   18.50
   0  -7 -12    8.30   11.10
  -1  -7 -12    5.90   11.80
   1   7  12    6.70   12.80
  -2  -7 -12   36.00   13.50
   2   7  12   49.20   15.00
  -3  -7 -12  388.26   29.80
   3   7  12  340.27   28.50
  -4  -7 -12   33.30   15.20
   4   7  12   60.19   15.90
  -5  -7 -12  -10.40   13.50
  -6  -7 -12   79.89   18.60
  -7  -7 -12    2.60   15.00
   0  -8 -12   56.79   13.80
  -1  -8 -12  236.38   21.60
   1   8  12  262.37   25.70
  -2  -8 -12  241.68   24.90
   2   8  12  242.58   24.70
  -3  -8 -12   15.30   13.20
   3   8  12   11.70   11.70
  -4  -8 -12   75.69   17.50
   4   8  12  133.79   19.20
  -5  -8 -12   -4.30   16.50
  -6  -8 -12   64.89   18.00
   0  -9 -12    0.40   10.90
  -1  -9 -12   -4.80   12.40
  -2  -9 -12    5.70   13.60
   2   9  12   -9.30   14.40
  -3  -9 -12   41.20   14.70
   3   9  12   38.40   14.70
  -4  -9 -12   89.49   18.40
   4   9  12  119.79   19.10
  -5  -9 -12    0.10   17.10
  -6  -9 -12   26.00   18.70
  -1 -10 -12    3.40   11.10
  -2 -10 -12   56.69   15.10
   2  10  12   85.49   17.50
  -3 -10 -12   47.00   17.20
   3  10  12   76.49   17.60
  -4 -10 -12   -7.00   13.90
   4  10  12   -0.60   13.10
  -5 -10 -12   11.40   15.50
  -6 -10 -12   -0.40   16.10
  -1 -11 -12   21.90   14.30
  -2 -11 -12   27.30   15.50
  -3 -11 -12   -3.70   13.30
   3  11  12   -2.40   12.20
  -4 -11 -12    0.00   15.00
   4  11  12    4.00   11.30
  -5 -11 -12    3.40   16.10
  -2 -12 -12   34.50   15.60
  -3 -12 -12  133.49   20.60
   3  12  12  138.69   20.70
  -4 -12 -12    9.10   15.30
   4  12  12   20.60   13.60
  -3 -13 -12   -4.90   13.40
  -3 -12  13  123.49   23.80
  -2 -12  13   22.70   21.00
  -1 -12  13    8.00   17.00
   0 -12  13   23.60   16.40
  -4 -11  13   -0.20   18.00
  -3 -11  13   -4.60   16.00
  -2 -11  13    9.30   16.90
  -1 -11  13    2.80   17.00
   0 -11  13   28.40   16.90
   1 -11  13   12.50   14.80
  -5 -10  13   -8.40   16.30
  -4 -10  13    5.30   14.90
  -3 -10  13   78.09   21.10
  -2 -10  13   87.29   20.40
  -1 -10  13   19.30   16.80
   0 -10  13    8.30   17.80
   1 -10  13   17.20   14.90
  -5  -9  13    2.90   16.60
  -4  -9  13   -1.00   16.90
  -3  -9  13   26.70   16.10
  -2  -9  13  -12.50   16.90
  -1  -9  13    2.80   16.60
   0  -9  13   13.40   14.80
   1  -9  13   10.00   16.30
   2  -9  13    2.40   15.40
  -6  -8  13   74.69   18.80
  -5  -8  13  -15.40   14.30
  -4  -8  13    6.00   15.70
  -3  -8  13    4.80   13.90
  -2  -8  13   59.39   19.70
  -1  -8  13   40.00   16.10
   0  -8  13    7.10   16.10
   1  -8  13    8.70   13.50
   2  -8  13   28.60   15.70
  -6  -7  13    8.50   14.00
  -5  -7  13   -2.50   13.80
  -4  -7  13   -0.80   14.40
  -3  -7  13   45.40   15.30
  -2  -7  13   69.89   18.90
  -1  -7  13   -0.50   13.80
   0  -7  13   49.40   16.00
   1  -7  13   30.40   16.60
   2  -7  13   22.60   13.30
   3  -7  13   -2.70   14.40
  -6  -6  13    5.40   14.70
  -5  -6  13   26.00   14.60
  -4  -6  13   65.59   17.40
  -3  -6  13   16.80   15.10
  -2  -6  13  133.39   21.20
  -1  -6  13  298.47   29.60
   0  -6  13   -7.70   13.20
   1  -6  13   25.40   15.80
   2  -6  13  -13.80   11.50
   3  -6  13    5.60   13.40
  -6  -5  13   35.00   15.90
  -5  -5  13   21.60   14.20
  -4  -5  13   16.50   14.70
  -3  -5  13  129.29   18.60
  -2  -5  13   24.50   13.80
  -1  -5  13   16.60   15.70
   0  -5  13   20.90   15.80
   1  -5  13  -11.90   13.90
   2  -5  13    4.50   12.30
   3  -5  13   73.69   16.90
  -6  -4  13   13.00   13.90
  -5  -4  13   18.10   14.70
  -4  -4  13   -5.90   13.00
  -3  -4  13    0.70   13.50
  -2  -4  13    7.60   12.80
  -1  -4  13   11.20   13.40
   0  -4  13   17.60   14.00
   1  -4  13  126.69   18.70
   2  -4  13   17.00   12.30
   3  -4  13    0.30   12.60
  -6  -3  13    9.00   12.20
  -5  -3  13  198.08   23.00
  -4  -3  13   23.40   15.30
  -3  -3  13   63.09   15.90
  -2  -3  13   12.40   14.10
  -1  -3  13   75.09   16.30
   0  -3  13   -3.40   12.60
   1  -3  13   -5.90   12.50
   2  -3  13   -2.80   11.50
   3  -3  13   52.39   15.20
   4  -3  13    9.70   12.50
  -6  -2  13   11.50   12.80
  -5  -2  13   22.40   12.70
  -4  -2  13   60.29   14.90
  -3  -2  13  240.68   23.10
  -3  -2  13  246.78   24.60
  -2  -2  13   -4.30   13.60
  -1  -2  13   17.70   14.50
   0  -2  13   44.50   14.80
   1  -2  13   82.59   18.30
   2  -2  13    9.60   14.20
   3  -2  13   -4.30   12.80
   4  -2  13  129.09   18.40
  -6  -1  13   -4.30   11.10
  -5  -1  13   53.99   15.20
  -4  -1  13   -6.50   11.90
  -3  -1  13   15.50   13.00
  -3  -1  13   -1.10   12.40
  -2  -1  13  354.16   27.80
  -2  -1  13  307.87   31.70
  -1  -1  13   -1.90   12.10
   0  -1  13   -5.50   14.70
   1  -1  13   47.60   15.20
   2  -1  13  490.25   32.50
   3  -1  13   21.40   13.40
   4  -1  13   73.29   14.90
  -6   0  13   -5.10   12.00
  -5   0  13    6.60   12.80
  -4   0  13  380.76   27.10
  -3   0  13  404.96   28.30
  -3   0  13  382.16   27.00
  -2   0  13    7.00   14.30
  -2   0  13   16.10   13.90
  -1   0  13  133.99   18.50
   0   0  13  660.13   35.70
   1   0  13  247.28   24.60
   2   0  13   53.39   14.70
   3   0  13   40.70   13.60
   4   0  13   56.29   14.00
  -6   1  13   94.49   15.80
  -5   1  13   85.09   16.00
  -4   1  13    3.70   12.00
  -3   1  13   15.60   13.70
  -3   1  13    6.30   12.80
  -2   1  13  945.51   43.70
  -2   1  13  901.51   43.00
  -1   1  13  165.28   20.60
   0   1  13   33.80   14.10
   1   1  13   17.90   14.70
   2   1  13   18.50   13.10
   3   1  13   71.39   15.10
   4   1  13   65.09   13.90
  -6   2  13   21.40   13.10
  -5   2  13   -0.50   11.80
  -4   2  13  175.08   21.40
  -3   2  13   15.00   22.20
  -3   2  13   24.00   13.70
  -2   2  13  167.48   20.50
  -2   2  13  160.58   21.00
  -1   2  13  316.27   27.70
   0   2  13   14.30   14.90
   1   2  13  236.18   26.30
   2   2  13   78.79   15.80
  -3  -2 -13  134.99   20.00
   3   2  13  153.38   19.20
  -4  -2 -13   17.40   13.30
   4   2  13    1.20   10.40
  -5  -2 -13    7.60   15.60
  -6  -2 -13    5.50   16.40
  -7  -2 -13   43.70   18.50
  -6   3  13   31.70   12.80
  -5   3  13   19.20   12.90
  -4   3  13   41.90   13.90
  -3   3  13  283.37   25.60
  -2   3  13   35.90   14.90
  -2   3  13   53.39   16.60
  -1   3  13    1.80   13.70
   0   3  13  446.16   30.30
   1   3  13  569.94   35.00
  -2  -3 -13   28.80   12.80
   2   3  13   24.00   13.10
  -3  -3 -13   58.19   15.30
   3   3  13   79.29   15.60
  -4  -3 -13   23.00   14.10
   4   3  13   23.00   12.20
  -5  -3 -13    6.90   15.40
  -6  -3 -13   13.10   14.50
  -7  -3 -13   -3.20   16.60
  -4   4  13    1.60   12.20
  -3   4  13   13.80   13.50
  -2   4  13  114.29   18.40
  -1   4  13   19.30   14.80
   0   4  13  110.29   19.10
  -1  -4 -13   28.00   11.90
   1   4  13   31.30   14.10
  -2  -4 -13   36.10   14.70
   2   4  13   34.30   15.30
  -3  -4 -13   46.50   14.60
   3   4  13   48.80   15.20
  -4  -4 -13   28.90   14.10
   4   4  13   28.00   13.60
  -5  -4 -13    9.10   14.10
  -6  -4 -13   -8.90   16.40
  -7  -4 -13   70.29   20.20
  -2   5  13  197.78   23.00
  -1   5  13   -6.90   14.10
   0  -5 -13  123.79   16.50
   0   5  13  118.29   19.50
  -1  -5 -13   65.69   13.80
   1   5  13   77.29   16.00
  -2  -5 -13   26.40   13.70
   2   5  13   16.00   15.10
  -3  -5 -13   77.29   16.20
   3   5  13   80.09   17.40
  -4  -5 -13    5.10   15.90
   4   5  13    2.70   11.10
  -5  -5 -13    0.50   13.70
  -6  -5 -13   -3.70   14.70
  -1   6  13   20.40   13.50
   0  -6 -13  255.07   21.40
   0   6  13  258.17   25.70
  -1  -6 -13    8.10   10.80
   1   6  13    8.50   15.00
  -2  -6 -13  123.89   18.90
   2   6  13  156.18   21.10
  -3  -6 -13   55.99   15.00
   3   6  13   77.79   17.00
  -4  -6 -13   43.70   17.70
   4   6  13   49.10   14.20
  -5  -6 -13   93.79   19.00
  -6  -6 -13    6.20   15.50
   0  -7 -13    8.50    9.40
   0   7  13   -1.00   15.20
  -1  -7 -13   18.80   11.40
   1   7  13   27.60   14.40
  -2  -7 -13   84.69   17.40
   2   7  13   88.59   17.30
  -3  -7 -13   50.99   17.50
   3   7  13   71.39   16.20
  -4  -7 -13  101.99   19.60
   4   7  13   87.89   17.80
  -5  -7 -13    3.20   18.00
  -6  -7 -13    5.40   18.30
   0  -8 -13   -1.50   10.70
  -1  -8 -13  171.68   21.10
   1   8  13  136.49   20.50
  -2  -8 -13   -7.00   13.80
   2   8  13    3.60   12.80
  -3  -8 -13    2.20   12.80
   3   8  13    9.40   14.30
  -4  -8 -13  188.28   24.70
   4   8  13  193.38   23.00
  -5  -8 -13  212.28   26.50
  -6  -8 -13    0.90   15.60
  -1  -9 -13   -1.90   12.10
   1   9  13    0.70   16.00
  -2  -9 -13   87.69   18.50
   2   9  13  111.49   20.60
  -3  -9 -13   65.19   17.20
   3   9  13   68.09   17.40
  -4  -9 -13   43.20   18.40
   4   9  13   34.30   16.20
  -5  -9 -13    2.10   15.10
  -1 -10 -13   16.70   12.50
  -2 -10 -13    1.70   14.20
   2  10  13   -1.00   13.80
  -3 -10 -13    0.70   15.30
   3  10  13   -1.20   12.80
  -4 -10 -13   29.80   16.30
   4  10  13   30.20   13.40
  -5 -10 -13   17.60   18.50
  -2 -11 -13   21.30   13.70
   2  11  13    8.40   14.80
  -3 -11 -13  -12.90   12.40
   3  11  13   11.30   12.90
  -4 -11 -13   10.00   17.10
   4  11  13    6.00   14.00
  -3 -12 -13   29.30   15.40
   3  12  13   37.30   15.80
  -2 -11  14    3.90   17.00
  -1 -11  14    5.00   17.40
   0 -11  14   35.70   20.40
  -4 -10  14   -7.00   14.80
  -3 -10  14   17.60   16.90
  -2 -10  14   16.40   16.90
  -1 -10  14   18.80   17.30
   0 -10  14  -10.00   16.80
   1 -10  14    8.90   17.30
  -4  -9  14    4.60   18.00
  -3  -9  14   42.20   20.20
  -2  -9  14   10.20   18.00
  -1  -9  14   19.50   18.40
   0  -9  14   21.80   15.90
   1  -9  14  -16.80   15.70
   2  -9  14   37.70   18.60
  -5  -8  14   13.00   16.50
  -4  -8  14   63.89   17.30
  -3  -8  14   -6.30   16.40
  -2  -8  14   22.50   17.00
  -1  -8  14   45.80   17.70
   0  -8  14   32.00   16.20
   1  -8  14    7.50   14.10
   2  -8  14   49.99   16.20
  -5  -7  14    3.30   15.00
  -4  -7  14   57.69   16.80
  -3  -7  14   11.10   15.80
  -2  -7  14    1.00   14.10
  -1  -7  14   -4.40   14.30
   0  -7  14    5.80   14.40
   1  -7  14   24.60   16.90
   2  -7  14    4.70   14.70
  -5  -6  14    5.90   14.70
  -4  -6  14   -4.60   15.40
  -3  -6  14    5.70   16.00
  -2  -6  14   46.70   16.30
  -1  -6  14  167.58   23.50
   0  -6  14    2.40   13.70
   1  -6  14   -4.10   12.60
   2  -6  14  100.99   18.60
   3  -6  14  159.18   22.20
  -6  -5  14   -4.20   14.10
  -5  -5  14    8.50   14.60
  -4  -5  14   17.50   14.90
  -3  -5  14   32.10   16.30
  -2  -5  14   32.30   15.20
  -1  -5  14    8.00   16.30
   0  -5  14  116.79   20.90
   1  -5  14   59.39   16.20
   2  -5  14   17.80   14.70
   3  -5  14   37.50   16.10
  -6  -4  14   40.70   14.90
  -5  -4  14   26.10   15.20
  -4  -4  14   21.50   15.10
  -3  -4  14   14.40   13.20
  -2  -4  14   41.70   17.00
  -1  -4  14  133.59   19.80
   0  -4  14   -4.40   13.60
   1  -4  14   34.40   15.00
   2  -4  14   32.10   15.40
   3  -4  14    2.70   12.50
  -6  -3  14    3.80   14.60
  -5  -3  14    7.80   15.00
  -4  -3  14   11.20   14.10
  -3  -3  14   11.60   15.10
  -2  -3  14   -5.10   12.40
  -1  -3  14   15.80   13.90
   0  -3  14  126.99   19.40
   1  -3  14    2.30   13.40
   2  -3  14   -3.20   11.80
   3  -3  14   44.10   14.20
  -6  -2  14   41.80   15.50
  -5  -2  14   25.20   13.80
  -4  -2  14   16.00   13.80
  -3  -2  14    6.60   14.00
  -2  -2  14   25.60   16.00
  -1  -2  14   65.09   18.20
   0  -2  14  165.58   20.80
   1  -2  14  122.29   19.30
   2  -2  14   13.80   13.00
   3  -2  14   12.80   14.00
   4  -2  14    6.60   14.00
  -6  -1  14    1.10   13.30
  -5  -1  14    3.00   12.50
  -4  -1  14   42.60   15.40
  -3  -1  14   56.89   15.30
  -2  -1  14  209.58   26.00
  -1  -1  14   92.89   17.50
   0  -1  14   11.70   13.50
   1  -1  14   72.39   17.00
   2  -1  14    2.10   12.10
   3  -1  14   73.19   17.10
   4  -1  14   15.30   13.60
  -6   0  14   53.39   15.50
  -5   0  14    7.70   12.70
  -4   0  14   67.09   16.00
  -3   0  14   75.49   17.10
  -2   0  14  369.46   28.00
  -1   0  14   67.19   16.00
   0   0  14  157.48   21.10
   1   0  14   44.70   15.30
   2   0  14   47.40   14.60
   3   0  14   76.99   17.40
   4   0  14  159.08   21.00
  -5   1  14   13.60   13.20
  -4   1  14    7.60   15.10
  -3   1  14   44.60   14.90
  -2   1  14  520.85   32.00
  -1   1  14  462.75   30.90
   0   1  14   29.90   14.20
   1   1  14   31.60   14.30
   2   1  14  302.67   26.70
   3   1  14   54.19   16.30
   4   1  14   13.60   13.10
  -5   2  14   -2.50   12.10
  -4   2  14   25.20   15.00
  -3   2  14   57.89   15.50
  -2   2  14   -2.50   12.20
  -1   2  14   63.79   16.10
   0   2  14  242.28   25.30
   1   2  14    2.60   14.90
   2   2  14   -1.80   14.10
   3   2  14   84.79   16.50
  -4  -2 -14   -2.30   15.30
   4   2  14   18.90   13.40
  -5  -2 -14   -1.20   12.90
  -6  -2 -14    3.40   14.50
  -5   3  14    0.00   13.00
  -4   3  14    6.20   13.70
  -3   3  14   -9.90   13.10
  -2   3  14  131.59   19.90
  -1   3  14   -0.40   14.70
   0   3  14   86.79   18.80
   1   3  14   -7.30   12.70
  -2  -3 -14   24.70   12.70
   2   3  14   21.00   12.90
  -3  -3 -14   51.29   16.50
   3   3  14   39.10   15.50
  -4  -3 -14   26.00   14.80
   4   3  14   18.90   12.50
  -5  -3 -14    4.40   16.00
  -6  -3 -14   -6.20   16.50
  -5   4  14    0.60   13.00
  -4   4  14   36.40   14.90
  -3   4  14    1.60   11.90
  -2   4  14   24.50   15.80
  -1   4  14   22.60   15.20
   0   4  14   -0.90   15.10
   1   4  14   30.10   15.00
  -2  -4 -14    8.50   11.80
   2   4  14    5.50   12.60
  -3  -4 -14   15.10   12.90
   3   4  14   22.30   14.20
  -4  -4 -14    4.00   14.00
   4   4  14   16.60   13.60
  -5  -4 -14   16.60   15.00
  -6  -4 -14   62.89   17.50
  -4   5  14    3.80   13.50
  -3   5  14   12.70   14.50
  -2   5  14   22.50   15.60
  -1   5  14   77.59   16.80
   0   5  14   26.50   16.20
  -1  -5 -14   63.29   13.70
   1   5  14   68.49   17.20
  -2  -5 -14  233.08   24.60
   2   5  14  204.08   24.90
  -3  -5 -14   52.09   15.20
   3   5  14   70.59   17.30
  -4  -5 -14   36.80   15.40
   4   5  14   36.10   15.00
  -5  -5 -14    0.30   14.50
  -6  -5 -14   -1.40   15.00
  -2   6  14   26.90   16.40
  -1   6  14  137.19   21.60
   0  -6 -14   65.19   14.00
   0   6  14   59.29   17.00
  -1  -6 -14   -1.60   12.20
   1   6  14   19.00   13.90
  -2  -6 -14  316.27   25.50
   2   6  14  353.66   29.60
  -3  -6 -14  100.79   19.50
   3   6  14   88.19   18.50
  -4  -6 -14    6.60   14.80
   4   6  14    3.70   13.40
  -5  -6 -14    5.80   14.70
  -6  -6 -14   12.80   18.50
  -1   7  14   17.50   16.10
   0   7  14  227.58   26.20
  -1  -7 -14   12.40   12.60
   1   7  14   18.40   14.40
  -2  -7 -14   73.19   17.30
   2   7  14   93.99   18.00
  -3  -7 -14   26.60   14.30
   3   7  14   37.40   14.50
  -4  -7 -14    3.10   16.10
   4   7  14   18.80   12.80
  -5  -7 -14   25.00   15.70
   0   8  14   49.10   16.90
  -1  -8 -14   75.79   16.30
   1   8  14   74.69   18.70
  -2  -8 -14    8.50   12.70
   2   8  14   17.80   14.60
  -3  -8 -14   14.50   16.00
   3   8  14   32.40   14.30
  -4  -8 -14   -6.00   14.30
   4   8  14    5.40   12.20
  -5  -8 -14   65.19   21.60
   0   9  14   -7.30   14.60
  -1  -9 -14   67.19   26.30
   1   9  14   71.29   18.30
  -2  -9 -14   53.79   15.30
   2   9  14   52.09   17.20
  -3  -9 -14   -6.40   15.30
   3   9  14   -8.10   12.40
  -4  -9 -14   16.70   16.50
   4   9  14   20.70   12.80
  -5  -9 -14    8.40   19.10
   1  10  14    7.60   17.80
  -2 -10 -14   -1.80   13.90
   2  10  14   -9.10   13.60
  -3 -10 -14   51.19   16.70
   3  10  14   54.89   16.40
  -4 -10 -14   -7.30   16.60
   4  10  14    4.00   16.70
   1  11  14   11.60   16.10
   2  11  14   36.20   16.80
  -3 -11 -14    0.80   16.20
   3  11  14   -1.30   15.80
  -2 -10  15   61.49   19.60
  -1 -10  15   85.39   21.90
  -3  -9  15   69.59   22.10
  -2  -9  15   38.30   18.30
  -1  -9  15   24.70   17.40
   0  -9  15   13.80   18.10
   1  -9  15    0.80   16.70
  -4  -8  15   10.20   17.40
  -3  -8  15   48.90   17.40
  -2  -8  15  -12.30   17.90
  -1  -8  15  -14.80   17.00
   0  -8  15   21.90   16.20
   1  -8  15    2.00   16.20
   2  -8  15   56.09   19.10
  -4  -7  15   -3.30   14.10
  -3  -7  15   10.20   17.10
  -2  -7  15  102.29   20.00
  -1  -7  15    8.50   15.60
   0  -7  15   42.60   19.30
   1  -7  15    1.40   14.40
   2  -7  15   41.50   15.80
  -5  -6  15    0.50   15.40
  -4  -6  15   47.80   16.80
  -3  -6  15   68.39   19.50
  -2  -6  15   25.80   15.70
  -1  -6  15  -10.20   13.80
   0  -6  15   23.20   15.50
   1  -6  15    4.20   15.50
   2  -6  15    2.30   15.70
  -5  -5  15    8.90   15.60
  -4  -5  15  -22.30   12.40
  -3  -5  15   51.89   18.00
  -2  -5  15   77.49   18.10
  -1  -5  15   19.90   16.90
   0  -5  15   14.90   17.00
   1  -5  15    2.40   13.00
   2  -5  15    8.50   13.00
   3  -5  15   49.40   16.60
  -5  -4  15    0.40   14.30
  -4  -4  15   54.89   17.70
  -3  -4  15   12.30   15.90
  -2  -4  15   29.00   15.00
  -1  -4  15  -17.40   15.80
   0  -4  15  -17.10   16.00
   1  -4  15  270.77   27.70
   2  -4  15    4.30   14.10
   3  -4  15    5.80   14.10
  -5  -3  15    7.30   13.80
  -4  -3  15   -2.80   14.90
  -3  -3  15   -1.50   15.10
  -2  -3  15   -0.10   13.60
  -1  -3  15   29.70   17.10
   0  -3  15   29.00   15.70
   1  -3  15   24.70   17.10
   2  -3  15   89.09   17.80
   3  -3  15    9.30   12.70
  -5  -2  15   -1.70   14.80
  -4  -2  15   17.70   14.90
  -3  -2  15   -3.20   14.60
  -2  -2  15   15.70   14.00
  -1  -2  15    0.20   15.70
   0  -2  15   91.39   18.40
   1  -2  15   -2.10   15.30
   2  -2  15   25.40   13.90
   3  -2  15  114.29   19.80
  -5  -1  15    3.10   13.50
  -4  -1  15   39.10   15.70
  -3  -1  15    5.20   12.50
  -2  -1  15    2.60   12.80
  -1  -1  15   22.90   16.50
   0  -1  15  154.88   21.00
   1  -1  15   -3.50   13.50
   2  -1  15    8.00   15.10
   3  -1  15    3.40   13.50
  -5   0  15   11.50   13.80
  -4   0  15    8.40   14.60
  -3   0  15   17.40   13.30
  -2   0  15   33.70   14.20
  -1   0  15    6.90   13.70
   0   0  15  106.49   18.60
   1   0  15   60.59   16.70
   2   0  15   -6.20   12.10
   3   0  15   -4.10   11.20
   4   0  15   11.30   12.80
  -5   1  15   -1.10   13.50
  -4   1  15   54.79   16.20
  -3   1  15   38.20   16.10
  -2   1  15   36.10   16.00
  -1   1  15   30.20   14.60
   0   1  15   -2.30   15.30
   1   1  15  155.78   22.20
   2   1  15   40.30   16.70
   3   1  15    6.80   13.90
   4   1  15   45.70   16.00
  -5   2  15   19.10   14.10
  -4   2  15   35.60   15.90
  -3   2  15    4.30   14.90
  -2   2  15   -3.60   12.30
  -1   2  15   98.09   19.50
   0   2  15   93.19   18.40
   1   2  15    3.50   13.20
   2   2  15   70.89   17.20
   3   2  15   28.10   14.20
   4   2  15   15.40   13.50
  -4   3  15    3.10   14.20
  -3   3  15   24.00   15.20
  -2   3  15    8.40   15.80
  -1   3  15   14.10   15.90
   0   3  15  276.87   27.60
   1   3  15  235.78   26.30
   2   3  15   -1.50   12.50
   3   3  15   22.90   13.50
  -4  -3 -15   14.70   15.00
   4   3  15   19.80   12.80
  -5  -3 -15  -13.50   13.70
  -4   4  15   -5.20   14.40
  -3   4  15    7.50   14.80
  -2   4  15   -4.40   14.90
  -1   4  15   -0.80   15.20
   0   4  15   30.40   15.50
   1   4  15   44.60   16.00
  -2  -4 -15   91.19   17.80
   2   4  15   97.19   18.70
  -3  -4 -15   -0.10   12.30
   3   4  15    0.20   12.00
  -4  -4 -15    7.70   14.40
   4   4  15    5.20   11.60
  -5  -4 -15   94.49   19.80
  -4   5  15   -3.20   14.70
  -3   5  15   14.10   15.70
  -2   5  15   37.70   17.20
  -1   5  15   19.10   14.80
   0   5  15   12.90   16.50
   1   5  15    2.20   16.60
  -2  -5 -15   26.10   12.90
   2   5  15   11.90   13.90
  -3  -5 -15   73.29   18.70
   3   5  15   64.09   16.50
  -4  -5 -15    7.10   14.60
   4   5  15    4.60   11.40
  -5  -5 -15   12.10   14.80
  -3   6  15    8.40   13.90
  -2   6  15   42.40   16.40
  -1   6  15   13.40   15.30
   0   6  15   12.60   14.50
  -1  -6 -15   14.10   12.80
   1   6  15   28.50   15.80
  -2  -6 -15    6.00   12.50
   2   6  15    6.20   15.90
  -3  -6 -15   38.90   16.70
   3   6  15   69.59   17.70
  -4  -6 -15  119.19   20.00
   4   6  15  118.99   20.10
  -5  -6 -15    6.40   18.20
  -3   7  15   13.90   16.70
  -2   7  15    0.60   16.50
  -1   7  15   68.49   18.10
   0   7  15   13.80   15.30
  -1  -7 -15    6.50   11.10
   1   7  15    9.20   15.40
  -2  -7 -15   25.20   14.60
   2   7  15    8.30   16.80
  -3  -7 -15   32.10   15.30
   3   7  15   38.00   16.80
  -4  -7 -15    8.40   14.90
   4   7  15   28.50   13.20
  -5  -7 -15    6.10   16.60
  -1   8  15   -3.20   17.10
   0   8  15   30.20   19.30
   1   8  15    9.90   15.10
  -2  -8 -15   13.10   14.10
   2   8  15   16.10   17.30
  -3  -8 -15   57.39   16.30
   3   8  15   51.99   18.40
  -4  -8 -15   19.50   18.00
   4   8  15   46.80   17.30
  -1   9  15   -6.70   14.90
   0   9  15   -5.60   14.70
   1   9  15   -6.10   14.80
  -2  -9 -15    3.00   14.70
   2   9  15   11.50   15.30
  -3  -9 -15   17.60   14.00
   3   9  15  -11.50   12.20
  -4  -9 -15   99.09   21.90
   0  10  15   10.60   15.90
   1  10  15  -13.10   15.20
   2  10  15   56.99   18.30
  -2  -8  16   -0.30   18.70
  -1  -8  16    8.70   16.70
   0  -8  16   20.70   16.40
   1  -8  16    4.80   15.20
  -3  -7  16   82.49   21.60
  -2  -7  16   -0.10   15.30
  -1  -7  16    7.20   16.00
   0  -7  16   16.20   19.20
   1  -7  16   -8.40   16.90
   2  -7  16    4.10   17.30
  -4  -6  16    6.60   17.10
  -3  -6  16   12.70   15.30
  -2  -6  16   -3.50   17.70
  -1  -6  16   36.80   19.30
   0  -6  16   -0.30   15.00
   1  -6  16   -1.00   13.70
   2  -6  16   -8.10   13.70
  -4  -5  16   14.80   17.50
  -3  -5  16    4.90   17.30
  -2  -5  16   26.50   18.80
  -1  -5  16   20.60   16.10
   0  -5  16    4.50   17.20
   1  -5  16   14.70   14.50
   2  -5  16   -9.30   12.70
  -4  -4  16   21.00   17.10
  -3  -4  16   -1.80   16.60
  -2  -4  16   11.30   15.00
  -1  -4  16   -0.90   15.20
   0  -4  16    4.80   15.20
   1  -4  16   44.60   18.60
   2  -4  16   56.89   17.80
   3  -4  16    5.40   17.00
  -4  -3  16    9.90   16.40
  -3  -3  16    7.70   16.40
  -2  -3  16    2.60   14.40
  -1  -3  16   65.99   19.70
   0  -3  16   57.09   19.60
   1  -3  16    9.70   14.50
   2  -3  16   26.80   14.80
   3  -3  16  108.79   18.90
  -4  -2  16  -13.10   15.30
  -3  -2  16   47.70   17.90
  -2  -2  16   14.20   17.20
  -1  -2  16    7.80   14.90
   0  -2  16    5.80   15.00
   1  -2  16   14.70   16.40
   2  -2  16    3.90   15.60
   3  -2  16   29.30   15.50
  -4  -1  16   -5.60   12.70
  -3  -1  16   -5.30   12.60
  -2  -1  16    3.10   16.50
  -1  -1  16    3.10   14.70
   0  -1  16   54.49   17.10
   1  -1  16   79.69   18.20
   2  -1  16    6.00   13.40
   3  -1  16   25.50   13.90
  -4   0  16    9.90   15.00
  -3   0  16   24.90   16.30
  -2   0  16   34.20   15.50
  -1   0  16   21.10   17.10
   0   0  16   14.90   14.90
   1   0  16   -0.30   16.50
   2   0  16    7.80   12.90
   3   0  16   -5.90   11.50
  -4   1  16    5.20   14.70
  -3   1  16   -7.00   12.60
  -2   1  16   51.39   17.90
  -1   1  16    3.10   15.80
   0   1  16   30.90   17.40
   1   1  16   12.30   14.60
   2   1  16    6.60   15.20
   3   1  16   21.40   15.20
  -4   2  16   -4.80   14.60
  -3   2  16   21.00   16.10
  -2   2  16   58.49   18.20
  -1   2  16   33.80   16.10
   0   2  16   -5.40   13.70
   1   2  16   17.50   15.20
   2   2  16   18.30   16.30
   3   2  16   20.50   15.80
  -4   3  16   18.00   16.00
  -3   3  16   -3.00   16.00
  -2   3  16    8.10   15.60
  -1   3  16   29.50   15.90
   0   3  16   17.30   17.40
   1   3  16  100.99   19.80
   2   3  16   11.70   15.70
   3   3  16    1.00   14.20
  -3   4  16   37.30   15.80
  -2   4  16   -3.30   13.70
  -1   4  16   16.60   17.50
   0   4  16    1.80   16.50
   1   4  16  -11.60   16.90
   2   4  16   16.40   14.40
  -3  -4 -16   20.50   13.60
   3   4  16   15.30   15.60
  -4  -4 -16   -2.30   16.20
   4   4  16   -5.30   15.40
  -5  -4 -16   -2.10   15.40
  -3   5  16   34.70   17.90
  -2   5  16  -14.90   15.30
  -1   5  16   12.40   14.90
   0   5  16   -1.00   14.60
   1   5  16   -3.90   14.80
  -2  -5 -16    0.20   11.60
   2   5  16   11.70   14.60
  -3  -5 -16   35.40   17.00
   3   5  16   39.50   14.60
  -4  -5 -16   -2.50   14.00
   4   5  16  -10.50   15.50
  -2   6  16   -5.50   17.10
  -1   6  16    6.00   14.60
   0   6  16   32.60   16.90
   1   6  16   16.60   15.90
  -2  -6 -16    7.10   13.70
   2   6  16    3.40   14.10
  -3  -6 -16    1.70   13.30
   3   6  16    7.10   13.20
  -4  -6 -16   14.60   15.60
  -2   7  16    4.40   15.20
  -1   7  16    6.90   15.40
   0   7  16   12.20   15.80
   1   7  16   62.69   18.60
  -2  -7 -16   -5.70   11.50
   2   7  16   -2.30   15.20
  -3  -7 -16   68.99   18.40
   3   7  16  106.29   20.40
  -4  -7 -16    9.10   14.80
  -1   8  16    6.90   15.30
   0   8  16   -1.40   17.30
   1   8  16   35.40   17.30
  -2  -8 -16   56.79   17.50
   2   8  16   52.69   18.50
  -3  -8 -16   -0.80   15.00
   3   8  16   18.10   14.70
  -1  -7  17   14.70   17.20
  -2  -6  17   27.40   19.10
  -1  -6  17   52.69   20.80
   0  -6  17  -20.30   14.80
   1  -6  17   22.10   15.70
  -3  -5  17   46.90   17.60
  -2  -5  17   -5.20   15.80
  -1  -5  17   -5.30   15.10
   0  -5  17   13.60   16.20
   1  -5  17   58.79   17.60
   2  -5  17   64.99   17.60
  -3  -4  17   -6.90   17.50
  -2  -4  17    8.10   16.30
  -1  -4  17   -2.60   15.50
   0  -4  17   -6.70   17.70
   1  -4  17   66.29   18.40
   2  -4  17    4.10   15.00
  -3  -3  17   -3.40   15.00
  -2  -3  17   21.10   18.40
  -1  -3  17   -5.90   17.70
   0  -3  17   69.69   19.40
   1  -3  17   39.60   18.50
   2  -3  17   -5.70   15.00
  -3  -2  17   50.59   19.10
  -2  -2  17   14.10   15.60
  -1  -2  17   69.79   18.90
   0  -2  17    7.90   15.30
   1  -2  17    6.90   14.90
   2  -2  17   16.00   15.10
   3  -2  17   62.89   16.70
  -3  -1  17  115.89   19.90
  -2  -1  17    9.70   17.40
  -1  -1  17    2.70   14.90
   0  -1  17    5.30   17.90
   1  -1  17   82.59   19.00
   2  -1  17   47.90   16.90
   3  -1  17   33.30   15.00
  -3   0  17   -8.10   15.50
  -2   0  17   17.10   15.90
  -1   0  17   40.70   18.90
   0   0  17   92.09   21.80
   1   0  17   55.49   18.00
   2   0  17    3.20   14.00
   3   0  17   -7.30   14.90
  -3   1  17   48.90   18.70
  -2   1  17    3.10   14.30
  -1   1  17   12.50   17.00
   0   1  17   15.00   15.80
   1   1  17   29.20   16.80
   2   1  17  106.99   20.40
   3   1  17   10.90   15.70
  -3   2  17   19.90   17.10
  -2   2  17    7.10   15.20
  -1   2  17    6.20   17.60
   0   2  17  131.79   22.80
   1   2  17    7.70   15.40
   2   2  17   44.70   17.10
   3   2  17   30.40   15.00
  -3   3  17   20.40   17.70
  -2   3  17   14.50   17.50
  -1   3  17   10.50   17.80
   0   3  17   41.40   19.40
   1   3  17    5.90   14.90
   2   3  17   87.79   19.10
   3   3  17   18.00   14.40
  -2   4  17   -1.10   15.10
  -1   4  17   20.70   16.60
   0   4  17  -12.00   14.80
   1   4  17   36.10   19.30
   2   4  17    2.10   14.50
   3   4  17   -3.70   14.90
  -2   5  17   -2.20   17.70
  -1   5  17   -5.50   15.20
   0   5  17   17.30   16.70
   1   5  17   14.70   18.30
   2   5  17   13.40   17.10
   3   5  17   -2.20   13.30
  -1   6  17    1.50   15.40
   0   6  17    2.60   16.20
   1   6  17    4.30   15.70
   2   6  17   58.59   18.40
  -3  -6 -17   29.70   14.80
   3   6  17   32.90   15.60
   1   7  17   -1.40   18.80
   2   7  17   12.70   19.10
  -1  -4  18  -15.70   18.30
   0  -4  18   20.00   17.80
  -2  -3  18   25.30   19.90
  -1  -3  18   72.79   21.70
   0  -3  18   -2.60   16.40
   1  -3  18   25.50   16.90
  -2  -2  18   67.99   21.90
  -1  -2  18    7.10   18.60
   0  -2  18   26.40   17.00
   1  -2  18   34.30   18.10
   2  -2  18   11.60   15.20
  -2  -1  18  -14.30   14.90
  -1  -1  18   -9.90   15.30
   0  -1  18    1.30   16.10
   1  -1  18   15.20   17.10
   2  -1  18    6.60   14.80
  -2   0  18   47.60   17.70
  -1   0  18   68.19   19.50
   0   0  18   21.20   17.60
   1   0  18   14.30   16.50
   2   0  18   -2.90   14.70
  -2   1  18    5.50   17.60
  -1   1  18    2.60   18.00
   0   1  18  -18.40   14.40
   1   1  18   50.09   20.50
   2   1  18   24.10   16.30
  -1   2  18   65.39   20.80
   0   2  18   38.50   20.00
   1   2  18    3.80   15.70
   2   2  18   51.99   20.10
  -1   3  18    9.20   16.00
   0   3  18   23.90   16.50
   1   3  18   28.10   17.90
   2   3  18  112.49   21.10
   0   4  18   22.90   19.90
   1   4  18   50.09   18.60
   0   0 -10    5.28    4.28
   0   0 -11   11.14    4.05
   0   0 -12  178.71    6.13
   0   0 -13  500.42    8.39
   0   0 -14  194.57    5.43
   0   0 -15  128.02    4.75
   0   0 -16   -0.72    3.71
   0   0 -17   88.73    4.55
   0   0 -18   17.66    3.84
   0   0  -9   -0.05    4.09
   0  10   0  240.05    6.25
   0  10   1   52.42    4.46
   0  10  -1   -0.47    3.96
   0  10  10   -0.22    3.77
   0  10 -10   -1.20    3.77
   0  10  11    7.07    3.78
   0  10 -11  116.75    5.35
   0  10  12   11.56    3.83
   0  10 -12    1.47    3.71
   0 -10 -12    4.13    3.83
   0  10  13   71.71    4.70
   0  10 -13   18.12    3.84   
   0 -10 -13   59.95    4.70   
   0  10  14    9.00    3.73   
   0  10 -14   -0.27    3.65   
   0 -10 -14    4.50    3.73   
   0 -10 -15   -1.31    3.63   
   0  10   2   -8.07    4.01   
   0  10  -2    9.96    4.04   
   0  10   3   61.46    4.53   
   0  10  -3    0.43    3.93   
   0  10   4    0.96    3.93   
   0  10  -4    3.23    3.93   
   0  10   5  393.23    7.90   
   0  10  -5    7.49    3.97   
   0  10   6   74.39    4.93   
   0  10  -6   74.63    4.81   
   0  10   7   86.26    4.54   
   0  10  -7  135.52    5.61   
   0  10   8   15.98    4.13   
   0  10  -8  600.03    8.62   
   0  10   9    0.81    3.79   
   0  10  -9   78.34    4.48   
   0   1 -10   20.84    4.31   
   0  -1 -10   39.61    4.50   
   0  11   0   -3.76    3.90   
   0   1 -11   71.38    4.94   
   0  -1 -11  628.17    8.52   
   0  11   1  136.74    5.05   
   0  11  -1   17.44    4.10   
   0  11  10    8.79    3.78   
   0  11 -10    3.23    3.77   
   0  11  11   11.96    3.94   
   0  11 -11    1.84    3.70   
   0 -11 -11   19.00    3.94   
   0  11  12   -0.57    3.67   
   0  11 -12   11.38    3.81   
   0 -11 -12    0.48    3.67   
   0  11  13   22.16    3.99   
   0  11 -13   34.62    4.02   
   0 -11 -13    4.59    3.99   
   0  11  14    1.49    3.63   
   0  11 -14   15.63    4.00   
   0 -11 -14    5.12    3.63   
   0   1 -12   75.08    4.74   
   0  -1 -12  326.49    6.64   
   0  11   2   56.18    4.49   
   0  11  -2   32.12    4.19   
   0   1 -13   -1.85    3.88   
   0  -1 -13   21.19    4.09   
   0  11   3  134.60    5.18   
   0  11  -3    2.20    3.94   
   0   1 -14   19.19    4.11   
   0  -1 -14   30.06    4.06   
   0  11   4  244.02    6.06   
   0  11  -4    1.82    3.91   
   0   1 -15  162.76    5.44   
   0  -1 -15    0.01    3.76   
   0  11   5  258.41    6.07   
   0  11  -5   16.07    4.10   
   0   1 -16   81.13    4.33   
   0  -1 -16   30.68    4.09   
   0  11   6  681.25    9.60   
   0  11  -6   66.64    5.02   
   0   1 -17    0.30    3.67   
   0  -1 -17   14.60    3.86   
   0  11   7    2.09    3.88   
   0  11  -7   17.76    4.37   
   0   1 -18    1.95    3.65   
   0  -1 -18    8.15    3.80   
   0  11   8    0.82    3.78   
   0  11  -8   34.55    4.08   
   0  11   9    3.86    3.79   
   0  11  -9    0.38    3.82   
   0  12   0   63.02    4.50   
   0  12   1    0.58    3.84   
   0  12  -1    1.46    3.84   
   0  12  10   -0.49    3.71   
   0  12 -10    3.57    3.70   
   0 -12 -10    2.02    3.71   
   0  12  11   45.23    4.23   
   0  12 -11    5.05    3.69   
   0 -12 -11   48.15    4.23   
   0  12  12    4.02    3.66   
   0  12 -12   10.24    3.71   
   0 -12 -12    0.70    3.66   
   0  12  13    3.57    3.69   
   0  12 -13   -0.99    3.63   
   0 -12 -13   -2.89    3.69   
   0  12   2    0.18    4.00   
   0  12  -2   34.50    4.26   
   0  12   3  152.76    5.87   
   0  12  -3  161.29    5.47   
   0  12   4   24.00    4.24   
   0  12  -4   -5.17    3.92   
   0  12   5   42.35    4.36   
   0  12  -5    0.67    3.81   
   0  12   6  372.89    6.95   
   0  12  -6   43.42    4.12   
   0  12   7   36.28    4.11   
   0  12  -7   29.35    4.08   
   0  12   8    0.75    3.74   
   0  12  -8    7.09    3.83   
   0  12   9    4.64    3.72   
   0  12  -9   62.34    4.60   
   0 -12  -9    1.60    3.72   
   0  13   0    1.97    3.82   
   0  13   1   43.45    4.50   
   0  13  -1    2.67    3.87   
   0  13  10    2.47    3.92   
   0  13 -10   76.60    4.35   
   0 -13 -10    5.22    3.92   
   0  13  11   36.86    3.99   
   0  13 -11    7.47    3.85   
   0 -13 -11    8.81    3.99   
   0  13   2  238.66    5.82   
   0  13  -2    9.78    3.86   
   0  13   3   12.84    3.91   
   0  13  -3    1.50    3.89   
   0  13   4   51.51    4.80   
   0  13  -4    3.52    3.78   
   0  13   5  159.63    5.64   
   0  13  -5   16.10    3.91   
   0  13   6   52.76    4.23   
   0  13  -6    9.04    3.84   
   0  13   7   17.00    4.20   
   0  13  -7    2.37    3.74   
   0  13   8   20.03    3.81   
   0  13  -8    3.30    3.71   
   0 -13  -8    6.23    3.81   
   0  13   9    0.41    3.68   
   0  13  -9  119.52    5.09   
   0 -13  -9   -0.24    3.68   
   0  14   0    1.20    3.79   
   0  14   1   50.08    4.25   
   0  14  -1   66.61    4.49   
   0  14  10    3.06    3.63   
   0  14 -10   27.08    4.13   
   0 -14 -10    2.11    3.63   
   0  14   2  187.68    5.56   
   0  14  -2   16.37    3.91   
   0  14   3   11.21    3.92   
   0  14  -3   14.82    3.86   
   0  14   4   80.92    4.38   
   0  14  -4    0.58    3.92   
   0  14   5   13.60    3.83   
   0  14  -5  133.68    5.11   
   0  14   6   59.78    4.33   
   0  14  -6   -0.05    3.69   
   0 -14  -6   63.09    4.33   
   0  14   7   10.92    3.80   
   0  14  -7   15.55    3.79   
   0 -14  -7   11.16    3.80   
   0  14   8   11.04    3.95   
   0  14  -8   18.04    4.06   
   0 -14  -8   18.57    3.95   
   0  14   9   41.71    4.28   
   0  14  -9   12.02    3.84   
   0 -14  -9   47.73    4.28   
   0  15   0   93.41    4.76   
   0  15   1   18.40    3.85   
   0  15  -1    0.26    3.69   
   0  15   2    0.58    3.68   
   0  15  -2   -0.20    3.74   
   0  15   3    4.60    3.69   
   0  15  -3   -0.45    3.80   
   0 -15  -3    2.32    3.69   
   0  15   4    9.02    3.72   
   0  15  -4    1.05    3.67   
   0 -15  -4    0.15    3.72   
   0  15   5   62.54    4.54   
   0  15  -5    2.44    3.80   
   0 -15  -5   80.28    4.54   
   0  15   6    1.92    3.66   
   0  15  -6    3.48    3.74   
   0 -15  -6   -2.36    3.66   
   0  15   7   17.79    3.87   
   0  15  -7  102.87    4.48   
   0 -15  -7   27.41    3.87   
   0  15   8   12.07    3.70   
   0  15  -8   12.19    3.82   
   0 -15  -8   11.20    3.70   
   0  16   0   16.85    3.78   
   0 -16   0   11.59    3.78   
   0  16   1    0.47    3.68   
   0  16  -1    8.45    3.78   
   0 -16   1   20.33    3.78   
   0 -16  -1    2.07    3.68   
   0  16   2    1.47    3.71   
   0  16  -2   -1.24    3.66   
   0 -16   2   -1.53    3.66   
   0 -16  -2   14.22    3.71   
   0  16   3   93.98    4.43   
   0  16  -3   30.99    3.89   
   0 -16   3   12.44    3.89   
   0 -16  -3   79.58    4.43   
   0  16   4    0.53    3.64   
   0  16  -4   13.11    3.71   
   0 -16   4    3.48    3.71   
   0 -16  -4   -0.97    3.64   
   0  16   5   16.55    3.81   
   0  16  -5    2.40    3.66   
   0 -16   5    2.03    3.66   
   0 -16  -5    7.92    3.81   
   0  -1  -7   30.49    4.77   
   0   1  -8  202.24    6.27   
   0  -1  -8  135.76    5.51   
   0   1  -9  435.27    7.78   
   0  -1  -9  260.92    6.76   
   0   2 -10  332.70    6.87   
   0  -2 -10    0.97    4.02   
   0   2 -11  281.73    6.41   
   0  -2 -11   44.04    4.41   
   0   2 -12    8.58    4.04   
   0  -2 -12  108.43    5.23   
   0   2 -13   33.85    4.32   
   0  -2 -13   10.68    3.94   
   0   2 -14  186.42    5.36   
   0  -2 -14  215.52    5.88   
   0   2 -15   69.04    4.62   
   0  -2 -15   72.25    4.82   
   0   2 -16    6.58    3.89   
   0  -2 -16    0.14    3.71   
   0   2 -17   21.02    3.93   
   0  -2 -17   96.63    5.00   
   0   2 -18   33.84    3.81   
   0  -2 -18   25.28    3.91   
   0   2  -8  665.61    8.92   
   0   2  -9    7.32    4.16   
   0   3 -10  215.09    5.84   
   0   3 -11    3.63    4.10   
   0  -3 -11  138.02    5.39   
   0   3 -12   13.92    4.02   
   0  -3 -12  140.65    5.23   
   0   3 -13    1.11    3.83   
   0  -3 -13  476.04    7.75   
   0   3 -14  148.24    5.34   
   0  -3 -14  104.21    4.60   
   0   3 -15   32.48    4.14   
   0  -3 -15  273.41    6.20   
   0   3 -16   35.86    4.35   
   0  -3 -16    0.00    3.70   
   0   3 -17   77.07    4.45   
   0  -3 -17   28.68    3.95   
   0   3 -18    4.89    3.68   
   0  -3 -18   22.73    3.83   
   0   3  -8   69.65    4.94   
   0   3  -9  181.90    6.05   
   0   4 -10   46.15    4.37   
   0   4 -11   68.61    4.79   
   0   4 -12  102.15    4.94   
   0   4 -13    1.16    4.01   
   0  -4 -13  109.29    4.97   
   0   4 -14   17.83    3.90   
   0  -4 -14   12.37    3.95   
   0   4 -15    4.66    3.76   
   0  -4 -15   35.71    4.13   
   0   4 -16   12.79    3.83   
   0  -4 -16    2.04    3.79   
   0   4 -17    0.67    3.66   
   0  -4 -17    0.97    3.68   
   0   4 -18   11.26    3.82   
   0  -4 -18    7.54    3.83   
   0   4  -8 1109.22   11.86   
   0   4  -9   55.16    4.55   
   0   5  10   20.83    4.17   
   0   5 -10  413.37    7.51   
   0   5 -11    8.30    4.05   
   0   5 -12  125.78    4.86   
   0   5 -13   29.17    3.99   
   0   5 -14  112.87    4.82   
   0  -5 -14   -1.09    3.94   
   0   5 -15    0.68    3.77   
   0  -5 -15    3.86    3.78   
   0   5 -16    0.01    3.68   
   0  -5 -16    0.75    3.68   
   0   5 -17   27.64    3.96   
   0  -5 -17   13.72    3.80   
   0   5  -7  194.21    5.97   
   0   5  -8  169.04    5.54   
   0   5  -9    3.55    4.00   
   0   6  10  173.51    5.99   
   0   6 -10    0.55    3.92   
   0   6  11    4.49    4.02   
   0   6 -11    8.29    3.89   
   0   6 -12   26.51    4.80   
   0   6 -13    4.69    3.80   
   0   6 -14    0.53    3.83   
   0   6 -15   23.06    3.86   
   0  -6 -15    5.82    3.75   
   0   6 -16    0.61    3.68   
   0  -6 -16   10.48    3.90   
   0   6 -17   -0.74    3.64   
   0  -6 -17    7.77    3.70   
   0   6  -6    1.75    4.11   
   0   6  -7    3.97    4.23   
   0   6  -8   56.26    4.99   
   0   6   9   14.24    4.13   
   0   6  -9   44.90    4.35   
   0   7  10   31.49    4.25   
   0   7 -10   10.39    4.03   
   0   7  11   34.59    4.31   
   0   7 -11  153.89    5.76   
   0   7  12   20.76    3.99   
   0   7 -12    4.12    3.81   
   0   7 -13   49.64    4.39   
   0   7 -14   -2.70    3.80   
   0  -7 -14  222.67    5.95   
   0   7 -15   20.15    3.97   
   0  -7 -15   -2.73    3.68   
   0   7 -16   33.78    4.00   
   0  -7 -16    6.70    3.74   
   0   7  -5   66.41    4.85   
   0   7  -6   39.51    4.36   
   0   7  -7   15.96    4.15   
   0   7   8   18.38    4.48   
   0   7  -8  220.70    6.11   
   0   7   9    1.57    3.92   
   0   7  -9    2.48    3.92   
   0   8  10   26.81    4.16   
   0   8 -10   10.78    3.94   
   0   8  11  288.65    6.91   
   0   8 -11   37.02    4.24   
   0   8  12   90.81    4.43   
   0   8 -12    5.17    3.93   
   0   8  13   -0.36    3.74   
   0   8 -13    0.72    3.72   
   0   8 -14   36.40    3.94   
   0  -8 -14   39.46    4.22   
   0   8 -15    0.04    4.01   
   0  -8 -15   24.73    3.91   
   0   8 -16    0.60    3.63   
   0  -8 -16    5.79    3.66   
   0   8  -3  217.05    6.67   
   0   8  -4  139.72    5.50   
   0   8  -5   10.62    4.22   
   0   8  -6  268.00    6.67   
   0   8   7   43.97    4.31   
   0   8  -7  104.68    4.99   
   0   8   8   52.71    4.34   
   0   8  -8  144.00    5.20   
   0   8   9   -1.30    3.91   
   0   8  -9  473.13    8.02   
   0   9   0   14.25    4.55   
   0   9   1   12.32    4.19   
   0   9  -1   28.73    4.26   
   0   9  10   16.85    4.00   
   0   9 -10   -2.31    4.09   
   0   9  11   93.38    4.82   
   0   9 -11   75.26    4.75   
   0   9  12    4.63    3.75   
   0   9 -12   10.53    3.79   
   0   9  13   -1.67    3.73   
   0   9 -13    7.82    3.87   
   0  -9 -13    6.05    3.73   
   0   9 -14    1.49    3.68   
   0  -9 -14   -0.70    3.79   
   0   9 -15   -0.17    3.64   
   0  -9 -15    1.14    3.69   
   0   9   2   50.55    4.51   
   0   9  -2   78.04    4.67   
   0   9   3  154.26    5.53   
   0   9  -3   -0.42    4.02   
   0   9   4  104.80    5.31   
   0   9  -4   12.95    4.33   
   0   9   5   32.33    4.29   
   0   9  -5  132.68    5.25   
   0   9   6   72.79    4.93   
   0   9  -6  215.68    6.04   
   0   9   7  109.85    4.95   
   0   9  -7  574.10    7.92   
   0   9   8    1.13    4.02   
   0   9  -8   39.54    4.40   
   0   9   9   12.80    4.00   
   0   9  -9   41.69    4.40   
   1   0   0  330.35    7.49   
  -1   0   0  397.32    7.49   
   1   0  -1   55.67    5.06   
  -1   0   1   63.44    5.06   
  -1   0  -1   97.78    5.21   
   1   0 -10   11.79    4.12   
  -1   0 -10   72.76    4.91   
   1   0 -11  344.87    7.27   
  -1   0 -11   12.22    4.06   
   1   0 -12  150.15    5.80   
  -1   0 -12   30.45    4.11   
   1   0 -13  119.09    5.15   
  -1   0 -13  288.83    6.22   
   1   0 -14   66.25    4.58   
  -1   0 -14   11.19    3.98   
   1   0 -15   15.14    4.04   
  -1   0 -15   89.17    4.68   
   1   0 -16   10.00    3.85   
  -1   0 -16    2.24    3.72   
   1   0 -17   22.63    4.17   
  -1   0 -17   73.56    4.47   
   1   0 -18   80.82    4.38   
  -1   0 -18    2.95    3.70   
   1   0  -2  672.66    8.67   
  -1   0   2  535.65    8.67   
   1   0  -3 1798.50   14.62   
  -1   0   3 2106.30   14.62   
   1   0  -4 1379.27   11.75   
   1   0  -5   86.74    5.13   
   1   0  -6  272.54    6.94   
   1   0  -7    3.87    4.26   
   1   0  -8   78.14    4.93   
   1   0  -9    3.07    4.14   
  -1   0  -9    1.83    4.10   
   1   1   0 1372.44   12.47   
   1  -1   0  327.36    7.38   
  -1  -1   0 1329.28   12.47   
   1  10   0   32.67    4.46   
  -1  10   0   23.36    4.47   
   1  10   1    9.78    4.07   
   1  10  -1  524.99    8.31   
  -1  10   1   32.74    4.23   
  -1  10  -1   -0.12    3.92   
   1  10  10  175.05    5.87   
   1  10 -10   -1.31    3.79   
   1 -10 -10   23.52    4.14   
  -1  10  10   37.07    4.14   
  -1  10 -10   20.59    3.85   
   1  10  11   74.81    4.90   
   1  10 -11  138.01    5.17   
   1 -10 -11    6.06    3.89   
  -1  10  11    6.60    3.89   
  -1  10 -11    4.27    3.76   
   1  10  12    3.79    3.72   
   1  10 -12   11.35    3.79   
   1 -10 -12   -0.04    3.70   
  -1  10  12   -0.97    3.70   
  -1  10 -12   -1.31    3.70   
   1  10  13   27.86    4.12   
   1  10 -13   30.44    3.87   
   1 -10 -13   17.23    4.01   
  -1  10  13   21.99    4.01   
  -1  10 -13    7.90    3.75   
   1  10 -14   23.78    3.90   
   1 -10 -14    5.62    3.70   
  -1  10  14    4.36    3.70   
  -1  10 -14   -0.26    3.65   
  -1 -10 -14   -1.93    3.71   
   1  10 -15   99.54    4.63   
  -1 -10 -15   -0.64    3.63   
   1  10   2   17.99    4.39   
   1  10  -2    5.23    3.98   
  -1  10   2   34.91    4.54   
  -1  10  -2    2.42    4.02   
   1  10   3    2.58    4.02   
   1  10  -3   20.25    4.14   
  -1  10   3  355.88    6.97   
  -1  10  -3  206.54    6.20   
   1  10   4  113.48    5.34   
   1  10  -4   45.20    4.54   
  -1  10   4  127.10    5.07   
  -1  10  -4   83.59    4.80   
   1  10   5    0.49    3.91   
   1  10  -5  262.87    6.60   
  -1  10   5   14.61    4.22   
  -1  10  -5   10.23    3.92   
   1  10   6  100.70    4.84   
   1  10  -6  329.99    6.87   
  -1  10   6    3.42    3.88   
  -1  10  -6    2.31    3.86   
   1  10   7   61.98    4.55   
   1  10  -7   82.05    4.68   
  -1  10   7   12.60    3.91   
  -1  10  -7   58.90    4.67   
   1  10   8   57.49    4.27   
   1  10  -8  913.39    9.92   
  -1  10   8   83.25    4.99   
  -1  10  -8  139.66    5.32   
   1  10   9   44.42    4.23   
   1  10  -9   20.38    4.00   
  -1  10   9   74.22    4.78   
  -1  10  -9    3.83    3.93   
   1   1  -1  534.24    8.69   
   1  -1  -1 1546.48   13.68   
  -1  -1   1  561.01    8.69   
   1   1 -10  683.07    8.63   
   1  -1 -10   45.72    4.47   
   1  11   0   82.49    5.01   
  -1   1 -10  189.04    5.83   
  -1  -1 -10   92.84    5.01   
  -1  11   0    4.84    3.92   
   1   1 -11  110.49    5.12   
   1  -1 -11  152.49    5.51   
   1  11   1    0.91    3.91   
   1  11  -1  130.86    5.08   
  -1   1 -11   51.48    4.59   
  -1  -1 -11   37.02    4.41   
  -1  11   1   75.51    4.84   
  -1  11  -1   77.19    4.80   
   1  11  10    6.91    3.76   
   1  11 -10  113.39    4.86   
   1 -11 -10   -0.32    3.70   
  -1  11  10   -0.10    3.70   
  -1  11 -10    8.58    3.79   
   1  11  11   56.25    4.29   
   1  11 -11  139.73    5.36   
   1 -11 -11   85.24    4.40   
  -1  11  11   22.05    4.40   
  -1  11 -11   -0.69    3.68   
   1  11  12   64.67    4.34   
   1  11 -12    9.27    3.74   
   1 -11 -12   -0.15    3.66   
  -1  11  12   -0.28    3.66   
  -1  11 -12    3.13    3.71   
   1  11  13   -1.48    3.68   
   1  11 -13    5.58    3.76   
   1 -11 -13   -1.79    3.66   
  -1  11  13   -1.92    3.66   
  -1  11 -13   -3.54    3.66   
  -1 -11 -13    4.96    3.68   
   1  11 -14    0.66    3.71   
  -1 -11 -14    7.46    3.79   
   1   1 -12   21.22    4.08   
   1  -1 -12  287.35    6.65   
   1  11   2  144.99    5.37   
   1  11  -2   57.99    4.61   
  -1   1 -12    0.06    3.91   
  -1  -1 -12  257.58    6.34   
  -1  11   2   10.92    4.07   
  -1  11  -2   -0.27    3.89   
   1   1 -13   -2.81    3.85   
   1  -1 -13  230.16    5.90   
   1  11   3  158.78    5.57   
   1  11  -3   27.04    4.09   
  -1   1 -13   16.80    4.10   
  -1  -1 -13   22.27    4.18   
  -1  11   3  132.96    5.26   
  -1  11  -3   17.40    4.10   
   1   1 -14   77.84    4.65   
   1  -1 -14  416.62    7.67   
   1  11   4  130.14    5.21   
   1  11  -4    4.84    3.91   
  -1   1 -14   95.22    4.56   
  -1  -1 -14   53.98    4.35   
  -1  11   4    0.75    3.86   
  -1  11  -4  181.14    5.66   
   1   1 -15   21.12    3.89   
   1  -1 -15   30.44    4.13   
   1  11   5  126.46    5.07   
   1  11  -5  177.23    5.80   
  -1   1 -15   -0.68    3.75   
  -1  -1 -15  104.82    5.31   
  -1  11   5  675.41    8.86   
  -1  11  -5   95.50    5.07   
   1   1 -16    1.45    3.73   
   1  -1 -16    4.57    3.73   
   1  11   6  274.34    6.88   
   1  11  -6  133.14    5.11   
  -1   1 -16   80.77    4.57   
  -1  -1 -16    2.90    3.82   
  -1  11   6    1.75    3.85   
  -1  11  -6  241.08    6.08   
   1   1 -17    9.52    3.83   
   1  -1 -17   24.16    3.87   
   1  11   7    1.32    3.82   
   1  11  -7  613.48    8.47   
  -1   1 -17   93.65    4.67   
  -1  -1 -17   18.87    3.84   
  -1  11   7   19.37    4.28   
  -1  11  -7    1.01    3.81   
   1   1 -18    7.06    3.71   
   1  -1 -18    6.65    3.83   
   1  11   8   56.41    4.55   
   1  11  -8  221.46    5.70   
   1 -11  -8   22.70    3.92   
  -1   1 -18    8.68    3.77   
  -1  -1 -18   44.20    3.98   
  -1  11   8   20.50    3.92   
  -1  11  -8  101.36    5.29   
   1  11   9   94.83    4.62   
   1  11  -9    9.12    4.02   
   1 -11  -9   25.12    4.02   
  -1  11   9   29.54    4.02   
  -1  11  -9   13.64    4.07   
   1  -1  -2 4626.03   21.10   
   1  12   0   43.54    4.48   
  -1  12   0   11.10    3.91   
   1  12   1   55.21    4.43   
   1  12  -1   63.00    4.62   
  -1  12   1   -1.66    4.08   
  -1  12  -1    0.55    3.85   
   1  12  10    1.08    3.70   
   1  12 -10   38.10    4.10   
   1 -12 -10    5.42    3.75   
  -1  12  10    2.24    3.75   
  -1  12 -10   17.65    4.00   
   1  12  11   36.63    4.28   
   1  12 -11   31.16    3.96   
   1 -12 -11    3.65    3.68   
  -1  12  11   11.11    3.68   
  -1  12 -11   13.26    3.82   
   1  12  12    6.53    3.89   
   1  12 -12   -2.59    3.70   
   1 -12 -12   14.98    3.96   
  -1  12  12    8.53    3.96   
  -1  12 -12    0.90    3.64   
  -1 -12 -12    5.10    3.89   
   1  12  13    1.06    3.65   
   1  12 -13    6.42    3.73   
  -1 -12 -13    0.86    3.65   
   1  12   2   40.26    4.48   
   1  12  -2   24.30    4.09   
  -1  12   2   14.71    4.12   
  -1  12  -2   14.29    4.20   
   1  12   3   65.20    4.79   
   1  12  -3  159.59    5.43   
  -1  12   3   58.67    4.51   
  -1  12  -3    3.49    3.80   
   1  12   4  521.69    8.24   
   1  12  -4   88.07    4.88   
  -1  12   4    9.41    3.98   
  -1  12  -4    0.40    3.78   
   1  12   5  160.10    5.15   
   1  12  -5   -1.35    3.81   
  -1  12   5   20.80    3.85   
  -1  12  -5   13.97    3.88   
   1  12   6  175.88    5.36   
   1  12  -6    1.61    3.79   
  -1  12   6  377.08    6.47   
  -1  12  -6    7.89    3.82   
   1  12   7    3.76    3.81   
   1  12  -7    6.06    3.96   
   1 -12  -7    1.70    3.80   
  -1  12   7   -4.42    3.80   
  -1  12  -7  221.89    6.45   
   1  12   8    6.92    3.82   
   1  12  -8   21.24    3.97   
   1 -12  -8    9.66    3.97   
  -1  12   8   16.39    3.97   
  -1  12  -8   13.53    3.76   
   1  12   9    0.57    3.73   
   1  12  -9   -4.35    3.77   
   1 -12  -9    4.52    3.70   
  -1  12   9    1.67    3.70   
  -1  12  -9    4.48    3.78   
   1  -1  -3   66.45    5.18   
   1  13   0    7.16    3.84   
  -1  13   0    7.28    3.95   
   1  13   1   51.54    4.37   
   1  13  -1   29.34    4.05   
  -1  13   1    2.17    3.79   
  -1  13  -1  190.68    5.15   
   1  13  10    0.09    3.67   
   1  13 -10    0.85    3.69   
   1 -13 -10   20.71    3.87   
  -1  13  10   32.04    3.87   
  -1  13 -10    0.59    3.65   
  -1 -13 -10    0.44    3.67   
   1  13  11    6.51    3.68   
   1  13 -11   15.99    3.87   
   1 -13  11   -0.70    3.73   
   1 -13 -11    4.18    3.68   
  -1  13  11    3.70    3.68   
  -1  13 -11   -0.46    3.73   
  -1 -13 -11    9.66    3.68   
   1  13  12   -1.03    3.70   
   1  13 -12   58.95    4.30   
  -1 -13 -12    1.12    3.70   
   1  13   2   36.52    4.08   
   1  13  -2  116.46    4.86   
  -1  13   2    2.96    3.93   
  -1  13  -2  258.49    5.91   
   1  13   3    7.51    3.97   
   1  13  -3    3.42    3.93   
  -1  13   3    8.69    3.79   
  -1  13  -3   34.79    4.08   
   1  13   4  208.69    5.91   
   1  13  -4   28.75    4.18   
   1 -13  -4  238.46    6.06   
  -1  13   4  301.61    6.06   
  -1  13  -4   95.62    4.71   
   1  13   5  208.03    5.68   
   1  13  -5   35.69    4.11   
   1 -13  -5    4.46    3.78   
  -1  13   5   12.51    3.78   
  -1  13  -5   58.07    4.28   
   1  13   6   23.01    4.30   
   1  13  -6   -4.05    3.77   
   1 -13  -6    2.01    3.76   
  -1  13   6    3.96    3.76   
  -1  13  -6   26.12    4.02   
   1  13   7   10.53    3.79   
   1  13  -7    4.34    3.93   
   1 -13  -7    8.69    3.73   
  -1  13   7   -0.90    3.73   
  -1  13  -7   20.58    3.79   
   1  13   8    0.05    3.74   
   1  13  -8    9.91    3.78   
   1 -13  -8    0.94    3.68   
  -1  13   8    1.90    3.68   
  -1  13  -8    2.48    3.73   
   1  13   9    1.28    3.69   
   1  13  -9    1.13    3.71   
   1 -13  -9   -5.05    3.68   
  -1  13   9    3.43    3.68   
  -1  13  -9    0.44    3.69   
   1  -1  -4  194.34    6.24   
   1  14   0   75.91    4.66   
   1 -14   0   24.79    3.93   
  -1  14   0   22.02    3.93   
   1  14   1   26.99    4.25   
   1  14  -1   53.89    4.42   
   1 -14  -1    3.65    3.73   
  -1  14   1    0.64    3.73   
  -1  14  -1    3.39    3.72   
   1  14  10   -0.94    3.65   
   1  14 -10    6.90    3.78   
  -1 -14 -10    0.22    3.65   
   1  14   2   20.47    3.86   
   1  14  -2   31.25    4.05   
   1 -14  -2   -1.50    3.80   
  -1  14   2    8.73    3.80   
  -1  14  -2   -0.01    3.70   
   1  14   3   11.56    3.90   
   1  14  -3   40.07    4.31   
   1 -14  -3  126.03    5.35   
  -1  14   3  153.93    5.35   
  -1  14  -3    7.35    3.79   
   1  14   4   82.00    4.55   
   1  14  -4   11.32    3.88   
   1 -14  -4   27.07    4.16   
  -1  14   4   47.81    4.16   
  -1  14  -4   13.06    3.92   
   1  14   5  137.84    5.11   
   1  14  -5    4.49    3.79   
   1 -14  -5  122.42    5.11   
  -1  14   5  141.96    5.11   
  -1  14  -5   -0.62    3.70   
   1  14   6    0.52    3.71   
   1  14  -6   77.87    4.60   
   1 -14  -6    1.29    3.69   
  -1  14   6    4.55    3.69   
  -1  14  -6    8.80    3.87   
   1  14   7    8.74    3.80   
   1  14  -7   19.53    3.87   
   1 -14   7   29.14    3.86   
   1 -14  -7   49.23    4.21   
  -1  14   7   47.33    4.21   
  -1  14  -7   20.96    3.86   
   1  14   8    0.74    3.77   
   1  14  -8   12.79    3.85   
   1 -14   8   -0.72    3.70   
   1 -14  -8    1.65    3.71   
  -1  14   8    6.16    3.71   
  -1  14  -8    8.40    3.70   
   1  14   9    1.82    3.66   
   1  14  -9  103.93    5.21   
   1 -14   9    5.02    3.64   
   1 -14  -9    3.17    3.68   
  -1  14   9    7.66    3.68   
  -1  14  -9    0.67    3.64   
  -1 -14  -9    2.23    3.66   
   1  -1  -5  247.30    6.41   
   1  15   0    3.51    3.72   
   1 -15   0   93.80    4.59   
  -1  15   0   77.82    4.59   
   1  15   1   34.15    4.22   
   1  15  -1   94.20    4.90   
   1 -15   1   16.33    4.20   
   1 -15  -1    6.58    3.98   
  -1  15   1   18.35    3.98   
  -1  15  -1   47.18    4.20   
   1  15   2   -0.50    3.71   
   1  15  -2   90.85    4.65   
   1 -15   2   20.52    3.87   
   1 -15  -2   38.82    4.14   
  -1  15   2   33.72    4.14   
  -1  15  -2    3.56    3.87   
   1  15   3   14.13    3.81   
   1  15  -3   -2.30    3.74   
   1 -15   3   36.45    4.07   
   1 -15  -3   78.67    4.60   
  -1  15   3   99.46    4.60   
  -1  15  -3   29.01    4.07   
   1  15   4   88.52    4.89   
   1  15  -4   44.01    4.17   
   1 -15   4   14.69    3.89   
   1 -15  -4    4.61    3.69   
  -1  15   4    1.17    3.69   
  -1  15  -4   11.57    3.89   
   1  15   5   64.15    4.73   
   1  15  -5   81.16    4.40   
   1 -15   5    8.07    3.87   
   1 -15  -5   46.48    4.12   
  -1  15   5   59.80    4.12   
  -1  15  -5   21.02    3.87   
   1  15   6    1.20    3.68   
   1  15  -6   11.03    3.84   
   1 -15   6   53.92    4.31   
   1 -15  -6   -4.53    3.73   
  -1  15   6   -4.00    3.73   
  -1  15  -6   53.27    4.31   
   1  15   7   34.86    4.33   
   1  15  -7    4.38    3.68   
   1 -15   7   -2.61    3.63   
   1 -15  -7   -2.17    3.67   
  -1  15   7    2.65    3.67   
  -1  15  -7   -2.38    3.63   
  -1 -15  -7   67.74    4.33   
   1  15   8   -2.82    3.66   
   1  15  -8    2.92    3.71   
  -1 -15  -8    1.35    3.66   
   1  15   9   36.28    4.02   
  -1 -15  -9   19.71    4.02   
   1  -1  -6  172.27    6.12   
   1  16   0   -0.35    3.67   
   1 -16   0   33.65    4.01   
  -1  16   0   43.14    4.01   
   1  16   1   10.25    3.90   
   1  16  -1    2.15    4.04   
   1 -16   1   26.63    4.04   
   1 -16  -1   73.60    4.16   
  -1  16   1   67.42    4.16   
  -1  16  -1   28.99    4.04   
   1  16   2   -1.31    3.66   
   1  16  -2   39.58    4.09   
   1 -16   2   50.69    4.19   
   1 -16  -2    9.55    3.95   
  -1  16   2   26.31    3.95   
  -1  16  -2   34.15    4.19   
   1  16   3   12.36    3.75   
   1  16  -3    8.56    3.73   
   1 -16   3    4.62    3.64   
   1 -16  -3   13.28    3.88   
  -1  16   3   13.60    3.88   
  -1  16  -3    0.59    3.64   
   1  16   4    3.75    3.75   
   1  16  -4    4.92    3.69   
   1  16   5   24.48    3.83   
   1  16  -5  104.72    4.86   
  -1 -16  -5    9.00    3.83   
   1  16   6    1.12    3.63   
   1  16  -6   -0.06    3.62   
  -1 -16  -6    2.75    3.63   
   1   1  -7  929.79   10.36   
   1  -1  -7    2.84    4.35   
   1  17   0   -2.61    3.72   
  -1 -17   0    2.23    3.72   
   1  17   1    0.47    3.64   
   1  17  -1   44.26    3.89   
  -1 -17  -1    1.52    3.64   
   1  17   2    6.48    3.73   
   1  17  -2    3.17    3.62   
  -1 -17  -2   12.02    3.73   
   1   1  -8  140.23    6.13   
   1  -1  -8  295.72    6.67   
   1   1  -9   22.04    4.35   
   1  -1  -9    2.06    4.08   
  -1   1  -9   28.16    4.50   
   1  -2   0  326.46    7.22   
   1   2 -10   47.98    4.33   
   1  -2 -10  226.91    6.32   
  -1   2 -10  214.68    5.82   
   1   2 -11   94.20    5.17   
   1  -2 -11  139.98    5.46   
  -1   2 -11   13.02    4.01   
   1   2 -12  174.51    5.50   
   1  -2 -12 1810.17   13.55   
  -1   2 -12   72.82    4.30   
  -1  -2 -12  169.73    5.22   
   1   2 -13    6.93    3.91   
   1  -2 -13  304.05    6.71   
  -1   2 -13  114.61    4.83   
  -1  -2 -13  196.38    5.93   
   1   2 -14   75.45    4.71   
   1  -2 -14   70.71    4.70   
  -1   2 -14   85.95    4.85   
  -1  -2 -14   21.91    3.95   
   1   2 -15   13.60    3.83   
   1  -2 -15  107.76    4.95   
  -1   2 -15    0.00    3.75   
  -1  -2 -15    5.90    3.76   
   1   2 -16    3.69    3.74   
   1  -2 -16   11.14    3.96   
  -1   2 -16    4.05    3.93   
  -1  -2 -16   33.24    3.99   
   1   2 -17   55.94    4.39   
   1  -2 -17   13.23    3.95   
  -1   2 -17    5.33    3.69   
  -1  -2 -17   -3.42    3.69   
   1   2 -18    2.12    3.69   
   1  -2 -18   64.85    4.30   
  -1   2 -18   25.94    4.13   
  -1  -2 -18    0.99    3.64   
   1  -2  -3  780.10    9.83   
   1  -2  -4   62.66    5.07   
   1  -2  -6  269.58    6.61   
   1  -2  -7  134.02    5.32   
   1   2  -8  100.85    4.99   
   1  -2  -8  301.23    6.90   
   1   2  -9  173.70    5.73   
   1  -2  -9  262.54    6.71   
  -1   2  -9   33.24    4.33   
   1  -3   0 1099.17   11.29   
   1   3 -10  155.44    5.19   
   1  -3 -10   22.13    4.22   
  -1   3 -10  203.34    6.17   
   1   3 -11   71.77    4.72   
   1  -3 -11    4.76    4.00   
  -1   3 -11   10.08    3.96   
   1   3 -12   47.55    4.59   
   1  -3 -12   62.85    4.57   
  -1   3 -12   86.91    4.81   
   1   3 -13   64.67    4.60   
   1  -3 -13    0.05    3.82   
  -1   3 -13    0.03    3.82   
  -1  -3 -13  564.68    8.48   
   1   3 -14   11.83    3.92   
   1  -3 -14    3.72    3.80   
  -1   3 -14   -2.11    3.83   
  -1  -3 -14    4.70    3.86   
   1   3 -15   48.99    4.16   
   1  -3 -15    0.08    3.73   
  -1   3 -15   37.27    4.25   
  -1  -3 -15  257.23    5.92   
   1   3 -16   68.46    4.49   
   1  -3 -16    6.58    3.73   
  -1   3 -16   28.58    3.97   
  -1  -3 -16   78.52    4.68   
   1   3 -17    2.72    3.67   
   1  -3 -17    1.29    3.70   
  -1   3 -17   18.03    3.89   
  -1  -3 -17   -1.23    3.72   
   1   3 -18   60.16    4.40   
   1  -3 -18   -0.51    3.64   
  -1   3 -18   28.38    3.78   
  -1  -3 -18    6.47    3.75   
   1  -3  -2  468.24    8.16   
   1  -3  -3  380.31    7.36   
   1   3  -8  270.45    6.90   
  -1   3  -8  615.97    8.93   
   1   3  -9    0.50    4.25   
   1  -3  -9  177.96    5.71   
  -1   3  -9  100.05    5.37   
   1   4 -10    8.58    4.04   
   1  -4 -10  271.56    6.30   
  -1   4 -10   34.69    4.23   
   1   4 -11  136.11    5.93   
   1  -4 -11  182.83    5.70   
  -1   4 -11  -17.61    4.02   
   1   4 -12   39.14    4.06   
   1  -4 -12    2.08    3.87   
  -1   4 -12   24.27    4.23   
   1   4 -13   -2.48    3.84   
   1  -4 -13   32.02    4.14   
  -1   4 -13   73.72    5.01   
   1   4 -14  167.56    5.35   
   1  -4 -14   17.28    3.92   
  -1   4 -14   54.95    4.33   
  -1  -4 -14   33.44    4.18   
   1   4 -15    4.26    3.74   
   1  -4 -15    4.24    3.74   
  -1   4 -15  194.11    6.09   
  -1  -4 -15   54.97    4.24   
   1   4 -16   -2.12    3.75   
   1  -4 -16   31.07    4.11   
  -1   4 -16   48.34    4.14   
  -1  -4 -16   -2.26    3.70   
   1   4 -17    6.10    3.79   
   1  -4 -17   31.32    4.16   
  -1   4 -17   62.09    4.21   
  -1  -4 -17   -1.68    3.99   
   1   4 -18    4.50    3.66   
  -1  -4 -18   30.30    4.00   
   1   4  -7 1089.00   11.35   
   1   4  -8   25.03    4.73   
  -1   4  -8   32.03    4.42   
   1   4  -9  419.35    7.42   
  -1   4  -9   21.73    4.17   
   1   5 -10    2.48    4.05   
  -1   5 -10   82.70    4.80   
   1   5 -11    9.99    4.08   
  -1   5 -11  440.14    7.45   
   1   5 -12   21.16    4.09   
   1  -5 -12  145.10    5.27   
  -1   5 -12   24.16    4.02   
   1   5 -13   13.87    3.98   
   1  -5 -13    0.64    3.78   
  -1   5 -13    5.76    3.88   
   1   5 -14    8.83    4.00   
   1  -5 -14   96.78    4.58   
  -1   5 -14   64.15    4.57   
   1   5 -15    6.26    3.75   
   1  -5 -15   25.33    3.99   
  -1   5 -15    3.90    3.82   
  -1  -5 -15   -0.09    3.72   
   1   5 -16   16.39    3.95   
   1  -5 -16   -0.38    3.67   
  -1   5 -16    6.23    3.70   
  -1  -5 -16    5.01    3.74   
   1   5 -17   -0.14    3.65   
   1  -5 -17   19.13    3.70   
  -1   5 -17   66.33    4.57   
  -1  -5 -17    2.99    3.73   
   1   5  -6   47.48    4.74   
   1   5  -7   66.38    4.89   
  -1   5  -7   49.96    4.77   
   1   5   8   36.10    4.49   
   1   5  -8    3.47    4.05   
  -1   5  -8   65.72    4.94   
   1   5  -9    9.00    4.05   
  -1   5  -9  117.92    5.34   
   1   6  10    9.95    3.95   
   1   6 -10   55.09    4.76   
  -1   6 -10   -1.31    3.89   
   1   6 -11   57.90    4.36   
  -1   6  11  359.21    6.77   
  -1   6 -11   61.41    4.34   
   1   6 -12    4.44    3.83   
  -1   6  12    7.13    3.83   
  -1   6 -12    2.76    3.82   
   1   6 -13  285.61    6.60   
   1  -6 -13    7.89    3.89   
  -1   6 -13   44.03    4.05   
   1   6 -14  188.04    5.72   
   1  -6 -14  168.21    5.25   
  -1   6 -14   -0.60    3.73   
   1   6 -15    0.32    3.70   
   1  -6 -15    3.86    3.97   
  -1   6 -15    4.87    3.83   
   1   6 -16   26.54    4.23   
   1  -6 -16   -0.47    3.67   
  -1   6 -16    8.10    3.71   
  -1  -6 -16   18.50    3.91   
   1   6 -17   66.78    4.53   
   1  -6 -17    2.98    3.66   
  -1   6 -17    4.06    3.69   
  -1  -6 -17   -2.96    3.66   
   1   6  -5   94.03    5.07   
   1   6  -6  191.43    6.07   
   1   6   7  122.09    4.97   
   1   6  -7   16.99    4.20   
  -1   6  -7  128.38    5.62   
   1   6   8   58.86    4.62   
   1   6  -8   61.92    4.64   
  -1   6  -8   10.70    4.12   
   1   6   9   36.99    4.45   
   1   6  -9   29.68    4.51   
  -1   6  -9    5.11    4.08   
   1   7  10   16.35    4.04   
   1   7 -10   31.45    4.38   
  -1   7  10    6.94    3.90   
  -1   7 -10   22.27    4.19   
   1   7  11    3.01    3.84   
   1   7 -11   36.65    4.12   
  -1   7  11   -0.10    3.81   
  -1   7 -11   19.02    3.95   
   1   7 -12   39.16    4.16   
  -1   7  12  186.54    5.91   
  -1   7 -12    0.24    3.81   
   1   7 -13    1.37    3.77   
   1  -7 -13   -1.20    3.80   
  -1   7  13   -3.50    3.80   
  -1   7 -13   29.61    4.30   
   1   7 -14    0.71    3.72   
   1  -7 -14    2.29    3.79   
  -1   7 -14   47.53    4.19   
   1   7 -15    3.84    3.73   
   1  -7 -15   61.67    4.43   
  -1   7 -15   -0.48    3.67   
   1   7 -16   17.59    3.93   
   1  -7 -16    0.48    3.64   
  -1   7 -16    2.15    3.64   
  -1  -7 -16   31.37    4.02   
   1   7 -17   12.42    3.72   
  -1  -7 -17    1.10    3.63   
   1   7  -4   -4.21    4.16   
   1   7  -5   65.53    4.84   
   1   7   6   25.90    4.54   
   1   7  -6  161.87    6.07   
  -1   7  -6   39.13    4.41   
   1   7   7   -0.03    4.01   
   1   7  -7   14.05    4.20   
  -1   7  -7   49.50    4.74   
   1   7   8   26.03    4.20   
   1   7  -8   85.29    4.94   
  -1   7  -8   71.05    4.51   
   1   7   9    7.75    3.95   
   1   7  -9  114.13    5.25   
  -1   7  -9   58.01    4.61   
   1   8   0   91.39    5.00   
   1   8  -1  434.28    7.33   
   1   8  10   61.63    4.37   
   1   8 -10  326.68    6.78   
  -1   8  10   22.14    4.07   
  -1   8 -10  317.31    6.64   
   1   8  11    3.09    3.86   
   1   8 -11    9.53    4.08   
  -1   8  11   31.75    4.10   
  -1   8 -11   47.45    4.12   
   1   8 -12   91.51    4.78   
   1  -8 -12    1.34    3.75   
  -1   8  12   -2.11    3.75   
  -1   8 -12    5.90    3.81   
   1   8 -13    6.90    3.95   
   1  -8 -13    9.22    3.75   
  -1   8  13    7.93    3.75   
  -1   8 -13   16.58    3.90   
   1   8 -14   28.43    4.07   
   1  -8 -14   10.11    3.77   
  -1   8  14   15.18    3.77   
  -1   8 -14    0.84    3.68   
   1   8 -15    0.17    3.67   
   1  -8 -15    0.90    3.81   
  -1   8 -15   -0.79    3.65   
  -1  -8 -15   35.44    4.01   
   1   8 -16    7.33    3.69   
   1  -8 -16   -5.31    3.67   
  -1   8 -16    9.91    3.76   
  -1  -8 -16   63.09    4.17   
   1   8  -2  129.25    5.45   
   1   8   3  116.88    5.20   
   1   8  -3   -0.59    4.18   
   1   8   4  266.31    6.22   
   1   8  -4  381.19    7.71   
  -1   8  -4   99.82    5.12   
   1   8   5  295.32    6.43   
   1   8  -5  183.62    5.83   
  -1   8  -5    7.81    4.04   
   1   8   6  215.28    6.18   
   1   8  -6   26.82    4.15   
  -1   8  -6  176.29    5.91   
   1   8   7  154.47    5.72   
   1   8  -7 1170.65   11.71   
  -1   8  -7   74.13    4.98   
   1   8   8   69.97    4.89   
   1   8  -8   72.82    4.75   
  -1   8  -8   54.87    4.27   
   1   8   9    0.92    3.88   
   1   8  -9   53.58    4.36   
  -1   8   9   41.42    4.41   
  -1   8  -9  731.17    8.93   
   1   9   0   24.58    4.13   
   1   9   1    0.96    4.05   
   1   9  -1   52.49    4.65   
   1   9  10   11.55    3.86   
   1   9 -10   15.41    3.98   
  -1   9  10  196.25    5.96   
  -1   9 -10  228.40    6.69   
   1   9  11   36.05    4.38   
   1   9 -11    9.05    3.88   
   1  -9 -11   -2.75    3.75   
  -1   9  11    3.09    3.75   
  -1   9 -11   22.51    4.08   
   1   9  12    5.34    3.75   
   1   9 -12   28.24    4.30   
   1  -9 -12  104.75    5.36   
  -1   9  12  139.42    5.36   
  -1   9 -12    1.26    3.84   
   1   9 -13   -3.66    3.72   
   1  -9 -13   59.67    4.58   
  -1   9  13   60.70    4.58   
  -1   9 -13   20.06    3.81   
   1   9 -14    6.95    3.72   
   1  -9 -14    2.28    3.66   
  -1   9  14   -3.63    3.66   
  -1   9 -14    7.96    3.77   
   1   9 -15    6.82    3.84   
   1  -9 -15    4.85    3.71   
  -1   9 -15    6.82    3.67   
  -1  -9 -15   -1.88    3.67   
   1   9   2   -1.06    4.07   
   1   9  -2  288.45    6.45   
  -1   9  -2    8.04    4.42   
   1   9   3   37.29    4.44   
   1   9  -3  162.37    5.55   
  -1   9  -3   15.30    4.00   
   1   9   4   30.98    4.25   
   1   9  -4   25.37    4.45   
  -1   9  -4   27.31    4.08   
   1   9   5   92.84    5.10   
   1   9  -5  168.85    5.72   
  -1   9  -5  106.00    5.20   
   1   9   6    8.72    4.01   
   1   9  -6   93.36    5.20   
  -1   9  -6    0.81    3.90   
   1   9   7   71.23    4.95   
   1   9  -7   36.62    4.18   
  -1   9   7  201.01    5.98   
  -1   9  -7  965.92   10.48   
   1   9   8  147.19    5.68   
   1   9  -8  325.32    6.67   
  -1   9   8   45.99    4.20   
  -1   9  -8    2.23    3.84   
   1   9   9   58.86    4.31   
   1   9  -9   96.02    5.10   
  -1   9   9   55.45    4.85   
  -1   9  -9  143.27    5.23   
   2   0   0   90.17    5.25   
  -2   0   0   80.34    5.25   
   2   0   1   21.42    4.53   
   2   0  -1 1636.34   13.13   
  -2   0   1 1474.71   13.13   
   2   0 -10    1.06    3.98   
  -2   0 -10   10.57    4.39   
   2   0 -11  584.50    9.00   
  -2   0 -11   96.81    5.14   
   2   0 -12    2.58    4.01   
  -2   0 -12  118.31    5.22   
   2   0 -13    5.45    3.89   
  -2   0 -13   39.08    4.43   
   2   0 -14  454.12    7.28   
  -2   0 -14   17.62    4.00   
   2   0 -15   37.32    4.06   
  -2   0 -15    1.50    3.74   
   2   0 -16   31.27    4.01   
  -2   0 -16   15.17    3.94   
   2   0 -17    7.64    3.73   
  -2   0 -17   11.69    3.84   
   2   0 -18   36.14    4.05   
  -2   0 -18    2.25    3.69   
   2   0  -2  367.14    7.67   
  -2   0   2  371.40    7.67   
   2   0  -3  296.31    6.97   
  -2   0   3  260.34    6.97   
   2   0  -4   47.01    4.63   
  -2   0   4   32.56    4.63   
   2   0  -5  213.00    5.93   
  -2   0   5  184.30    5.93   
   2   0  -6   65.86    4.93   
   2   0  -7   23.75    4.30   
   2   0  -8   19.80    4.30   
   2   0  -9  100.49    5.25   
   2   1   0 4101.87   20.62   
   2  10   0   45.10    4.41   
   2  10   1   68.70    4.62   
   2  10  -1   52.12    4.44   
  -2  10  -1    3.14    3.91   
   2  10  10   66.04    4.64   
   2  10 -10   15.77    3.97   
   2 -10 -10  101.96    4.92   
  -2  10  10  100.46    4.92   
  -2  10 -10    3.40    3.72   
   2  10  11   -1.12    3.74   
   2  10 -11    4.40    3.77   
   2 -10 -11    5.41    3.70   
  -2  10  11    3.51    3.70   
  -2  10 -11   29.64    3.93   
   2  10 -12   19.78    4.08   
   2 -10 -12    1.69    3.66   
  -2  10  12    1.50    3.66   
  -2  10 -12   11.11    3.73   
   2  10 -13   94.58    4.52   
   2 -10  13    6.50    3.81   
   2 -10 -13    4.00    3.65   
  -2  10  13    4.86    3.65   
  -2  10 -13   12.56    3.81   
   2  10 -14   27.93    3.92   
   2  10 -15   62.07    4.28   
  -2 -10 -15   50.86    4.17   
   2  10   2    1.50    3.97   
   2  10  -2   40.41    4.36   
  -2  10  -2    0.98    3.99   
   2  10   3   -0.45    3.95   
   2  10  -3   20.34    4.27   
  -2  10  -3   42.90    4.31   
   2  10   4  103.27    5.06   
   2  10  -4    2.51    3.99   
  -2  10  -4   49.64    4.55   
   2  10   5  233.01    6.56   
   2  10  -5   40.45    4.48   
  -2  10  -5   22.85    4.29   
   2  10   6  558.84    8.54   
   2  10  -6   95.05    4.98   
  -2  10  -6    1.02    3.84   
   2  10   7  171.65    5.60   
   2  10  -7  128.98    5.31   
   2 -10  -7   95.60    4.87   
  -2  10   7   92.14    4.87   
  -2  10  -7    3.31    3.79   
   2  10   8    3.42    3.83   
   2  10  -8  541.11    8.35   
   2 -10  -8   10.77    4.01   
  -2  10   8   19.87    4.01   
  -2  10  -8   34.32    4.19   
   2  10   9   59.03    4.41   
   2  10  -9  119.86    4.81   
   2 -10  -9    0.50    3.73   
  -2  10   9   -0.84    3.73   
  -2  10  -9   17.46    3.90   
   2   1  -1 3684.79   19.51   
   2  -1  -1  367.76    7.63   
  -2   1   1  418.66    7.63   
  -2  -1   1 3608.12   19.51   
   2   1 -10   98.17    4.92   
   2  -1 -10   18.68    4.27   
   2  11   0   17.44    4.42   
  -2   1 -10   27.97    4.40   
  -2  11   0   31.79    4.34   
   2   1 -11  196.48    5.96   
   2  -1 -11  368.25    7.24   
   2  11   1  283.11    6.33   
   2  11  -1   14.05    4.18   
  -2   1 -11   -1.15    3.95   
  -2  11   1   15.55    3.99   
  -2  11  -1   10.20    4.27   
   2  11  10    3.57    3.79   
   2  11 -10    1.04    3.78   
   2 -11 -10    2.89    3.73   
  -2  11  10    3.11    3.73   
  -2  11 -10    0.28    3.68   
   2  11  11    1.95    3.72   
   2  11 -11   17.13    3.85   
   2 -11  11   20.47    3.82   
   2 -11 -11   11.29    3.81   
  -2  11  11   14.10    3.81   
  -2  11 -11   22.87    3.82   
   2  11  12   23.68    3.93   
   2  11 -12   11.58    3.95   
   2 -11  12   15.11    3.91   
   2 -11 -12    1.91    3.68   
  -2  11  12    6.75    3.68   
  -2  11 -12    5.42    3.91   
   2  11 -13   18.87    3.77   
   2  11 -14   -2.52    3.66   
  -2 -11 -14   45.00    4.03   
   2   1 -12    2.06    3.89   
   2  -1 -12  288.29    6.09   
   2  11   2    2.47    3.91   
   2  11  -2  221.26    5.58   
  -2   1 -12   90.25    4.81   
  -2  -1 -12  299.48    6.34   
  -2  11   2  279.24    6.13   
  -2  11  -2    0.31    3.89   
   2   1 -13  302.63    6.73   
   2  -1 -13  873.47    9.96   
   2  11   3  306.09    6.42   
   2  11  -3  141.86    5.16   
  -2   1 -13  361.69    7.40   
  -2  -1 -13   37.46    4.17   
  -2  11   3  223.67    6.34   
  -2  11  -3    0.07    3.80   
   2   1 -14  178.55    5.63   
   2  -1 -14  608.65    7.85   
   2  11   4   19.43    3.99   
   2  11  -4  149.50    5.36   
  -2   1 -14   -0.91    3.78   
  -2  -1 -14  207.53    6.12   
  -2  11   4   35.00    4.47   
  -2  11  -4   65.65    4.45   
   2   1 -15    1.40    3.74   
   2  -1 -15    3.91    3.87   
   2  11   5   83.15    4.81   
   2  11  -5   -5.92    3.93   
   2 -11  -5  348.11    7.24   
  -2   1 -15   10.36    3.85   
  -2  -1 -15   31.31    4.19   
  -2  11   5  371.68    7.24   
  -2  11  -5   49.74    4.48   
   2   1 -16   16.89    3.95   
   2  -1 -16   60.39    4.45   
   2  11   6  787.78    9.75   
   2  11  -6   13.99    4.23   
   2 -11  -6  120.68    5.28   
  -2   1 -16   14.64    3.85   
  -2  -1 -16   -0.98    3.70   
  -2  11   6  118.52    5.28   
  -2  11  -6  146.51    5.13   
   2   1 -17   10.95    3.75   
   2  -1 -17    1.67    3.77   
   2  11   7   35.06    4.07   
   2  11  -7  139.01    5.63   
   2 -11  -7    0.40    3.74   
  -2   1 -17   -4.26    4.11   
  -2  -1 -17   66.31    4.72   
  -2  11   7    0.29    3.74   
  -2  11  -7    0.10    3.79   
   2   1 -18    0.96    3.63   
   2  -1 -18    3.42    3.66   
   2  11   8   -2.73    3.84   
   2  11  -8  593.88    8.27   
   2 -11  -8   11.58    3.90   
  -2   1 -18   11.72    3.69   
  -2  -1 -18    1.40    3.65   
  -2  11   8    7.94    3.90   
  -2  11  -8  193.06    5.58   
   2  11   9   33.52    4.25   
   2  11  -9   -0.17    3.78   
   2 -11  -9    1.86    3.76   
  -2  11   9   -0.43    3.76   
  -2  11  -9   21.30    3.99   
   2   1  -2 1283.89   11.93   
   2  -1  -2    0.29    4.38   
  -2   1   2   -1.06    4.38   
  -2  -1   2 1290.84   11.93   
   2  12   0    0.09    3.85   
  -2  12   0    1.72    3.82   
   2  12   1   46.23    4.24   
   2  12  -1  362.99    6.91   
  -2  12   1    3.05    3.78   
  -2  12  -1    0.56    3.81   
   2  12  10   10.76    3.96   
   2  12 -10   -0.05    3.70   
   2 -12  10    1.34    3.67   
   2 -12 -10   39.57    4.02   
  -2  12  10   29.99    4.02   
  -2  12 -10    3.16    3.67   
   2  12  11    8.53    3.91   
   2  12 -11    0.99    3.69   
   2 -12  11    7.99    3.76   
   2 -12 -11   15.53    3.74   
  -2  12  11    9.96    3.74   
  -2  12 -11   13.51    3.76   
   2  12  12   39.32    4.06   
   2  12 -12    7.21    3.71   
   2  12  13   -1.35    3.68   
   2  12 -13   22.55    3.83   
  -2 -12 -13    7.50    3.68   
   2  12   2  148.09    6.01   
   2  12  -2   63.33    4.61   
   2 -12  -2    0.08    3.86   
  -2  12   2   13.25    3.86   
  -2  12  -2    0.98    3.76   
  -2   1   022458.80   48.07   
   2  12   3   45.00    4.15   
   2  12  -3   -0.73    3.83   
   2 -12  -3    5.75    4.02   
  -2  12   3   21.68    4.02   
  -2  12  -3   22.78    3.93   
   2  12   4  260.18    6.35   
   2  12  -4   27.70    3.98   
   2 -12  -4    6.16    4.10   
  -2  12   4   22.39    4.10   
  -2  12  -4   63.10    4.68   
   2  12   5  149.31    5.96   
   2  12  -5   32.83    4.27   
   2 -12  -5   22.03    4.07   
  -2  12   5    7.44    4.07   
  -2  12  -5  131.62    4.98   
   2  12   6  130.45    5.24   
   2  12  -6    0.80    3.79   
   2 -12  -6   99.51    4.86   
  -2  12   6   86.75    4.86   
  -2  12  -6   17.06    3.92   
   2  12   7   43.70    4.46   
   2  12  -7    1.11    3.79   
   2 -12  -7    0.52    3.70   
  -2  12   7   -0.56    3.70   
  -2  12  -7   17.11    3.86   
   2  12   8    0.86    3.83   
   2  12  -8   85.34    4.73   
   2 -12   8    3.28    3.75   
   2 -12  -8    4.15    3.69   
  -2  12   8   -2.40    3.69   
  -2  12  -8    0.82    3.75   
   2  12   9    0.51    3.76   
   2  12  -9  101.60    4.91   
   2 -12   9   76.32    4.52   
   2 -12  -9    9.38    3.95   
  -2  12   9    8.00    3.95   
  -2  12  -9  104.71    4.52   
   2   1  -3   13.13    4.56   
   2  -1  -3  626.25    8.45   
  -2   1   3  623.83    8.45   
  -2  -1   3   12.72    4.56   
   2  13   0    6.63    3.87   
   2 -13   0   88.94    4.61   
  -2  13   0   61.82    4.61   
   2  13   1   49.94    4.44   
   2  13  -1   78.32    4.57   
   2 -13   1    9.14    3.96   
   2 -13  -1   -1.88    3.79   
  -2  13   1   12.29    3.79   
  -2  13  -1   17.45    3.96   
   2  13  10   -0.48    3.67   
   2  13 -10   10.66    3.83   
   2  13  11    2.31    3.73   
   2  13 -11   60.17    4.78   
   2  13  12    5.68    3.72   
   2  13 -12    2.17    3.64   
  -2 -13 -12    4.79    3.72   
   2  13   2    2.88    3.80   
   2  13  -2   51.20    4.59   
   2 -13   2   -4.90    3.76   
   2 -13  -2   -1.08    3.72   
  -2  13   2   -0.20    3.72   
  -2  13  -2    2.49    3.76   
   2  13   3  232.74    5.80   
   2  13  -3   -0.06    3.78   
   2 -13   3   22.13    4.03   
   2 -13  -3    6.83    3.83   
  -2  13   3   16.26    3.83   
  -2  13  -3    2.81    4.03   
   2  13   4    6.94    3.80   
   2  13  -4    0.48    3.78   
   2 -13   4    0.69    3.70   
   2 -13  -4   76.98    4.51   
  -2  13   4   57.07    4.51   
  -2  13  -4    1.76    3.70   
   2  13   5   59.23    4.22   
   2  13  -5  134.99    5.17   
   2 -13   5    0.03    3.69   
   2 -13  -5   86.90    4.76   
  -2  13   5   86.09    4.76   
  -2  13  -5    0.11    3.69   
   2  13   6   81.15    4.75   
   2  13  -6    1.87    3.75   
   2 -13   6   75.33    4.33   
   2 -13  -6   26.82    3.96   
  -2  13   6   22.54    3.96   
  -2  13  -6   46.72    4.33   
   2  13   7   63.31    4.51   
   2  13  -7   18.78    4.01   
   2 -13   7    3.71    3.71   
   2 -13  -7   13.73    3.81   
  -2  13   7   21.56    3.81   
  -2  13  -7    5.17    3.71   
   2  13   8   17.59    3.90   
   2  13  -8   30.49    4.34   
   2 -13   8    6.18    3.75   
   2 -13  -8   16.69    4.34   
  -2  13   8   62.61    4.34   
  -2  13  -8   15.33    3.75   
   2  13   9    0.78    3.70   
   2  13  -9   93.66    4.90   
   2 -13   9    3.65    3.74   
   2 -13  -9    6.05    3.67   
  -2  13   9    6.71    3.67   
  -2  13  -9    7.42    3.74   
   2   1  -4 1267.55   11.92   
   2  -1  -4   50.71    5.00   
  -2   1   4   61.33    5.00   
   2  14   0   48.72    4.32   
   2 -14   0   25.14    3.92   
  -2  14   0   26.64    3.92   
   2  14   1   -0.09    3.75   
   2  14  -1   56.56    4.17   
   2 -14   1   16.86    4.16   
   2 -14  -1   16.59    3.78   
  -2  14   1   15.66    3.78   
  -2  14  -1   47.61    4.16   
   2  14  10   10.21    3.70   
   2  14 -10   20.68    4.05   
   2  14  11    7.04    3.63   
  -2 -14 -11   -0.38    3.63   
   2  14   2   49.47    4.40   
   2  14  -2   -1.11    3.76   
   2 -14   2   12.40    3.91   
   2 -14  -2   41.05    4.39   
  -2  14   2   82.32    4.39   
  -2  14  -2   21.79    3.91   
   2  14   3  105.73    4.81   
   2  14  -3   54.09    4.52   
   2 -14   3   35.14    4.24   
   2 -14  -3    6.47    3.76   
  -2  14   3   12.05    3.76   
  -2  14  -3   21.76    4.24   
   2  14   4  193.65    5.59   
   2  14  -4   10.19    4.02   
   2 -14   4   10.39    3.83   
   2 -14  -4   17.36    3.99   
  -2  14   4   20.26    3.99   
  -2  14  -4   12.42    3.83   
   2  14   5  114.53    5.30   
   2  14  -5   22.99    3.99   
   2 -14   5    0.07    3.65   
   2 -14  -5   28.87    4.23   
  -2  14   5   86.62    4.23   
  -2  14  -5   -0.29    3.65   
   2  14   6   94.16    4.78   
   2  14  -6    0.36    3.73   
   2 -14   6    9.18    3.74   
   2 -14  -6    1.58    3.66   
  -2  14   6    1.80    3.66   
  -2  14  -6    7.41    3.74   
   2  14   7  108.52    4.75   
   2  14  -7   94.28    4.62   
   2 -14   7   10.79    3.85   
   2 -14  -7   13.51    3.71   
  -2  14   7    7.44    3.71   
  -2  14  -7   22.33    3.85   
   2  14   8   21.33    3.84   
   2  14  -8    0.09    3.67   
   2  14   9   10.30    3.78   
   2  14  -9  115.69    4.89   
   2   1  -5  190.07    6.08   
   2  -1  -5    0.80    4.27   
   2  15   0    2.13    3.80   
   2 -15   0   16.16    3.97   
  -2  15   0   30.82    3.97   
   2  15   1   38.06    4.11   
   2  15  -1    3.53    3.79   
   2 -15   1    5.34    3.69   
   2 -15  -1   -0.06    3.64   
  -2  15   1    0.13    3.64   
  -2  15  -1    2.69    3.69   
   2  15   2   33.33    4.12   
   2  15  -2   66.68    4.59   
   2 -15   2   58.63    4.44   
   2 -15  -2   32.87    4.04   
  -2  15   2   34.23    4.04   
  -2  15  -2   63.58    4.44   
   2  15   3    7.13    3.79   
   2  15  -3    5.77    3.75   
   2 -15   3    4.72    3.68   
   2 -15  -3    8.66    3.73   
  -2  15   3    7.85    3.73   
  -2  15  -3    2.66    3.68   
   2  15   4   -1.79    3.69   
   2  15  -4   21.07    3.99   
   2 -15   4   15.71    3.83   
   2 -15  -4   17.70    3.82   
  -2  15   4    7.47    3.82   
  -2  15  -4    8.93    3.83   
   2  15   5   -0.42    3.71   
   2  15  -5    1.63    3.69   
   2  15   6    7.29    3.96   
   2  15  -6   43.18    3.92   
   2  15   7    0.93    3.66   
   2  15  -7   16.11    3.97   
   2  15   8    2.68    3.67   
   2  15  -8    1.09    3.69   
   2  15   9   27.11    4.07   
   2  15  -9   -3.28    3.64   
  -2 -15  -9   40.22    4.07   
   2   1  -6   19.28    4.46   
   2  -1  -6    7.95    4.28   
   2  16   0    3.04    3.69   
   2  16   1   -2.83    3.72   
   2  16  -1   32.40    4.04   
   2  16   2    5.96    3.70   
   2  16  -2    3.05    3.67   
   2  16   3   62.67    4.27   
   2  16  -3   54.16    4.31   
   2  16   4   -3.38    3.72   
   2  16  -4   15.29    3.80   
   2  16   5   18.49    3.81   
   2  16  -5   12.20    3.69   
   2  16   6   12.91    4.10   
   2  16  -6   88.02    4.39   
   2  16   7   29.38    3.91   
   2   1  -7    5.26    4.19   
   2  -1  -7   -0.77    4.22   
   2  17   0    1.39    3.66   
   2  17   1    6.46    3.70   
   2  17  -1   -2.34    3.81   
   2  17   2    1.11    3.63   
   2  17  -2   30.89    3.83   
   2  17   3   -1.21    3.66   
   2  17  -3    2.61    3.64   
   2   1  -8   90.30    5.66   
   2  -1  -8   60.13    4.86   
   2   1  -9    9.44    4.09   
   2  -1  -9  251.92    6.00   
  -2   1  -9  197.99    6.24   
   2   2  -1 2895.19   17.56   
   2  -2  -1   15.16    4.42   
   2   2 -10   35.97    4.64   
   2  -2 -10    7.74    4.02   
  -2   2 -10   28.83    4.21   
   2   2 -11   22.01    4.10   
   2  -2 -11  629.72    8.90   
  -2   2 -11   91.00    5.09   
   2   2 -12  361.92    6.43   
   2  -2 -12   31.07    4.29   
  -2   2 -12   11.60    4.05   
   2   2 -13    7.35    3.92   
   2  -2 -13  128.37    5.06   
  -2   2 -13    2.07    3.83   
  -2  -2 -13   86.02    4.76   
   2   2 -14   65.92    4.40   
   2  -2 -14   -0.10    3.76   
  -2   2 -14   16.07    3.94   
  -2  -2 -14    1.92    3.79   
   2   2 -15    0.05    3.90   
   2  -2 -15    5.89    3.76   
  -2   2 -15   57.09    4.18   
  -2  -2 -15   99.80    4.73   
   2   2 -16    5.09    3.72   
   2  -2 -16   43.49    4.04   
  -2   2 -16   16.38    3.83   
  -2  -2 -16   11.61    3.81   
   2   2 -17   31.73    3.95   
   2  -2 -17   -0.02    3.65   
  -2   2 -17    8.58    3.74   
  -2  -2 -17   42.31    4.21   
   2   2 -18   94.89    4.51   
  -2   2 -18    9.04    3.81   
  -2  -2 -18   37.08    4.18   
   2   2  -2    3.05    4.43   
   2  -2  -2  387.54    7.29   
   2   2  -3  227.97    6.61   
   2  -2  -3   28.08    4.45   
   2   2  -4    2.93    4.33   
   2  -2  -4 1908.27   14.55   
   2   2  -5  155.18    5.72   
   2  -2  -5  150.92    5.88   
   2   2  -6  512.30    8.23   
   2  -2  -6  192.84    6.52   
   2   2  -7   31.25    4.34   
   2  -2  -7  651.11    9.37   
   2   2  -8  140.97    5.50   
   2  -2  -8   25.92    4.35   
   2   2  -9   -1.32    4.09   
   2  -2  -9    7.03    4.05   
  -2   2  -9  119.17    5.63   
   2   3 -10   18.45    4.52   
   2  -3 -10   73.21    5.07   
  -2   3 -10   32.66    4.48   
   2   3 -11   50.21    4.50   
   2  -3 -11  127.93    5.56   
  -2   3 -11  147.99    5.49   
   2   3 -12    1.20    3.87   
   2  -3 -12   49.62    4.34   
  -2   3 -12   49.21    4.24   
   2   3 -13   17.00    3.91   
   2  -3 -13   65.65    4.54   
  -2   3 -13   -2.20    3.85   
   2   3 -14    0.70    3.77   
   2  -3 -14  142.18    5.28   
  -2   3 -14    6.31    3.79   
   2   3 -15    0.51    3.73   
   2  -3 -15    9.31    3.76   
  -2   3 -15   57.38    4.66   
  -2  -3 -15    0.73    3.73   
   2   3 -16    0.50    3.69   
   2  -3 -16    2.39    3.71   
  -2   3 -16   13.17    3.83   
  -2  -3 -16    6.14    3.76   
   2   3 -17   11.41    3.77   
   2  -3 -17    1.39    3.65   
  -2   3 -17   -5.09    3.68   
  -2  -3 -17   56.13    4.25   
   2   3 -18   18.59    3.90   
  -2  -3 -18   50.74    4.64   
   2  -3  -2  522.74    7.64   
   2  -3  -3  285.84    6.95   
   2  -3  -4   59.66    4.72   
   2  -3  -5 1006.85   10.32   
   2  -3  -6  266.94    6.85   
   2   3  -7    0.26    4.14   
   2  -3  -7   43.38    4.73   
   2   3  -8  290.63    6.97   
   2  -3  -8  206.82    6.02   
   2   3  -9   44.12    4.50   
   2  -3  -9   -0.24    3.99   
  -2   3  -9    2.52    4.14   
   2  -4   1  234.75    6.71   
   2   4 -10    6.97    4.17   
   2  -4 -10   16.23    4.05   
  -2   4 -10   10.97    3.98   
   2   4 -11   15.91    4.28   
   2  -4 -11  301.36    6.61   
  -2   4 -11    8.21    4.12   
   2   4 -12   84.68    4.84   
   2  -4 -12    5.51    3.89   
  -2   4 -12    0.14    3.82   
   2   4 -13    3.29    3.81   
   2  -4 -13  139.58    4.98   
  -2   4 -13    0.17    3.84   
   2   4 -14   16.13    4.32   
   2  -4 -14    9.72    3.90   
  -2   4 -14   39.12    4.19   
   2   4 -15   21.48    4.11   
   2  -4 -15    0.06    3.70   
  -2   4 -15   18.24    3.83   
   2   4 -16    9.32    3.83   
   2  -4 -16   -0.08    3.66   
  -2   4 -16   34.96    4.04   
  -2  -4 -16   26.97    3.94   
   2   4 -17   16.81    3.88   
   2  -4 -17    4.18    3.78   
  -2   4 -17    0.65    3.65   
  -2  -4 -17   30.82    3.86   
   2   4  18    2.72    3.64   
  -2  -4 -18    2.77    3.64   
   2  -4   2  381.95    7.78   
   2  -4  -6  163.35    6.02   
   2   4  -7    0.33    4.19   
   2  -4  -7  280.37    6.70   
   2   4  -8  456.72    7.29   
   2  -4  -8   10.35    4.08   
  -2   4  -8   -1.20    4.01   
   2   4  -9   12.39    4.05   
   2  -4  -9    2.45    3.98   
  -2   4  -9   36.37    4.31   
   2  -5   1  330.39    7.32   
   2   5 -10   71.01    4.67   
   2  -5 -10   61.29    4.38   
  -2   5 -10  214.86    5.70   
   2   5 -11    0.72    3.91   
   2  -5 -11   19.45    3.99   
  -2   5 -11    1.41    3.91   
   2   5 -12  237.62    5.92   
   2  -5 -12  250.52    6.30   
  -2   5 -12  130.66    4.90   
   2   5 -13   -1.39    3.97   
   2  -5 -13  178.30    5.61   
  -2   5 -13   15.43    3.91   
   2   5 -14   22.77    3.99   
   2  -5 -14   30.19    4.02   
  -2   5 -14    5.81    3.83   
   2   5 -15   97.93    4.97   
   2  -5 -15   29.79    4.16   
  -2   5 -15    0.23    3.68   
   2   5 -16   17.27    3.92   
   2  -5 -16   -0.08    3.66   
  -2   5 -16   -2.41    3.66   
   2   5 -17    0.30    3.64   
   2  -5 -17    8.26    3.82   
  -2   5 -17   90.24    4.52   
  -2  -5 -17    0.27    3.65   
   2   5   6  278.27    6.67   
   2   5  -6   24.55    4.49   
   2   5  -7   96.78    5.17   
   2   5  -8   12.40    4.23   
   2  -5  -8   15.96    4.22   
  -2   5  -8  154.02    5.88   
   2   5  -9  122.27    5.06   
   2  -5  -9   68.28    4.66   
  -2   5  -9    4.08    4.01   
   2  -6  -1   96.60    5.01   
   2   6 -10   37.47    4.25   
   2  -6 -10    3.27    3.86   
  -2   6 -10   97.07    4.92   
   2   6 -11   82.41    4.76   
   2  -6 -11   26.66    3.98   
  -2   6 -11   48.15    4.67   
   2   6 -12   19.62    4.09   
   2  -6 -12   91.35    4.74   
  -2   6  12   93.21    4.74   
  -2   6 -12   39.58    4.46   
   2   6 -13  152.06    5.60   
   2  -6 -13   -1.56    4.14   
  -2   6  13   19.27    4.14   
  -2   6 -13   -0.17    3.73   
   2   6 -14   -0.79    4.22   
   2  -6 -14   14.77    3.92   
  -2   6 -14  131.58    4.75   
   2   6 -15    1.98    3.70   
   2  -6 -15   54.20    4.44   
  -2   6 -15   -0.23    3.67   
   2   6 -16    6.45    3.82   
   2  -6 -16    0.87    3.69   
  -2   6 -16   -3.37    3.65   
   2   6 -17   15.02    3.78   
  -2  -6 -17   36.99    4.27   
   2   6  -4    1.07    4.17   
   2   6   5    3.08    4.15   
   2   6  -5  339.62    6.79   
   2   6   6    0.04    4.09   
   2   6  -6   95.42    5.00   
   2   6   7   39.53    4.44   
   2   6  -7  161.35    5.97   
  -2   6  -7  138.61    5.32   
   2   6  -8  228.23    6.52   
  -2   6  -8  159.50    5.72   
   2   6  -9    4.36    4.05   
  -2   6  -9   21.77    4.37   
   2   7 -10   -1.07    3.93   
  -2   7 -10   65.38    4.66   
   2   7 -11    1.75    3.91   
   2  -7 -11    7.97    3.81   
  -2   7 -11    0.25    3.78   
   2   7 -12   26.30    4.40   
   2  -7 -12   35.68    4.19   
  -2   7  12   29.79    4.19   
  -2   7 -12  131.75    5.37   
   2   7 -13   68.30    4.79   
   2  -7 -13   73.12    4.56   
  -2   7  13   70.45    4.56   
  -2   7 -13   41.28    3.90   
   2   7 -14   -0.91    3.73   
   2  -7 -14   16.42    3.97   
  -2   7  14   26.01    3.97   
  -2   7 -14    4.21    3.76   
   2   7 -15  112.22    5.02   
   2  -7 -15    5.42    3.67   
  -2   7 -15   43.57    4.08   
   2   7 -16   -0.53    3.64   
   2  -7 -16    5.65    3.66   
  -2   7 -16    9.28    3.70   
  -2  -7 -17    7.71    3.78   
   2   7   2  681.90    9.26   
   2   7  -2    3.47    4.22   
   2   7   3   14.68    4.21   
   2   7  -3  624.21    8.85   
   2  -7  -3  141.17    5.28   
   2   7   4  125.06    5.61   
   2   7  -4   -1.95    4.29   
   2  -7  -4  223.41    6.41   
   2   7   5  243.53    6.22   
   2   7  -5   -1.29    4.08   
   2   7   6  315.64    7.36   
   2   7  -6    6.43    4.06   
  -2   7  -6    3.21    4.01   
   2   7   7  139.88    5.40   
   2   7  -7   14.90    4.31   
  -2   7  -7   -0.09    3.92   
   2   7   8   69.62    4.97   
   2   7  -8   55.62    4.75   
  -2   7  -8   17.07    4.15   
   2   7   9  248.82    6.67   
   2   7  -9  249.34    6.25   
  -2   7  -9  242.66    6.90   
   2   8   0   17.90    4.52   
   2   8   1  515.65    7.80   
   2   8  -1  174.01    5.81   
   2   8  10   37.08    4.95   
   2   8 -10    0.50    3.85   
   2  -8 -10   41.95    4.37   
  -2   8  10   58.12    4.37   
  -2   8 -10  294.51    6.28   
   2   8 -11   89.87    4.94   
   2  -8 -11    6.66    3.77   
  -2   8  11    2.52    3.77   
  -2   8 -11   -0.61    3.77   
   2   8 -12   83.78    4.63   
   2  -8 -12   -0.61    3.73   
  -2   8  12    0.92    3.73   
  -2   8 -12   15.43    3.82   
   2   8 -13   43.88    4.42   
   2  -8 -13   10.03    3.82   
  -2   8  13   13.22    3.82   
  -2   8 -13   28.05    4.02   
   2   8 -14   32.23    4.22   
   2  -8 -14   41.39    4.10   
  -2   8  14   40.85    4.10   
  -2   8 -14   69.81    4.20   
   2   8 -15   17.79    3.79   
   2  -8 -15   -0.33    3.63   
  -2   8  15   -0.08    3.63   
  -2   8 -15   58.77    4.22   
   2   8 -16    4.48    3.71   
   2   8   2   42.33    4.38   
   2   8  -2   12.63    4.20   
   2   8   3   73.00    5.03   
   2   8  -3    3.03    4.09   
   2   8   4   62.60    4.75   
   2   8  -4    7.04    4.09   
   2   8   5   66.67    4.93   
   2   8  -5  192.04    6.52   
   2  -8  -5  195.98    6.19   
  -2   8  -5   -1.49    3.93   
   2   8   6   10.20    4.11   
   2   8  -6   90.26    5.16   
  -2   8  -6    9.48    4.10   
   2   8   7   18.09    4.15   
   2   8  -7   10.54    4.40   
  -2   8  -7   15.06    4.12   
   2   8   8   -1.32    4.02   
   2   8  -8  215.57    6.27   
  -2   8  -8    0.78    3.84   
   2   8   9    1.82    3.91   
   2   8  -9   31.13    4.24   
  -2   8  -9   45.60    4.52   
   2   9   0  603.57    8.43   
   2   9   1  431.68    7.61   
   2   9  -1   87.03    5.48   
   2   9  10    5.95    3.84   
   2   9 -10   15.52    4.03   
   2  -9 -10    0.80    3.75   
  -2   9  10    0.70    3.75   
  -2   9 -10   -0.20    3.75   
   2   9  11   85.13    4.39   
   2   9 -11   96.83    4.98   
   2  -9 -11   54.68    4.35   
  -2   9  11   66.90    4.35   
  -2   9 -11    0.36    3.72   
   2   9 -12   -0.41    3.73   
   2  -9 -12   37.36    4.08   
  -2   9  12   22.49    4.08   
  -2   9 -12    0.64    3.69   
   2   9 -13    0.71    3.71   
   2  -9 -13   -1.37    3.74   
  -2   9  13   11.18    3.74   
  -2   9 -13    6.17    3.74   
   2   9 -14    7.68    3.79   
   2  -9 -14    3.18    3.67   
  -2   9  14   -4.10    3.67   
  -2   9 -14   40.28    3.97   
   2   9 -15    2.40    3.70   
   2   9   2  249.29    6.19   
   2   9  -2   51.33    4.75   
   2   9   3  209.53    6.21   
   2   9  -3  249.00    6.49   
   2   9   4   85.52    4.84   
   2   9  -4  246.98    6.37   
  -2   9  -4   33.91    4.27   
   2   9   5  103.16    4.95   
   2   9  -5   60.22    4.57   
   2  -9  -5  752.66    9.95   
  -2   9  -5   11.40    3.98   
   2   9   6   94.34    4.84   
   2   9  -6  164.96    5.77   
  -2   9  -6   20.45    3.94   
   2   9   7   -0.09    3.90   
   2   9  -7   73.56    5.22   
   2  -9  -7  123.70    5.13   
  -2   9  -7  143.47    5.67   
   2   9   8    9.64    4.09   
   2   9  -8  732.51    8.78   
  -2   9  -8    3.06    4.21   
   2   9   9   14.67    4.15   
   2   9  -9   16.27    3.91   
   2  -9  -9   23.86    4.01   
  -2   9   9   11.21    4.01   
  -2   9  -9  102.86    4.78   
   3   0   0  182.07    6.01   
  -3   0   0  186.65    6.01   
   3   0   1  579.01    8.99   
   3   0  -1   75.99    4.89   
  -3   0   1   56.43    4.89   
   3   0 -10  353.72    7.67   
   3   0 -11  586.79    8.22   
  -3   0 -11    5.10    3.94   
   3   0 -12  157.08    5.26   
  -3   0 -12  577.73    8.36   
   3   0 -13  341.13    7.17   
  -3   0 -13   37.37    4.21   
   3   0 -14   29.56    4.46   
  -3   0 -14   68.43    4.74   
   3   0 -15   30.77    3.97   
  -3   0 -15    0.39    3.72   
   3   0 -16   49.75    4.09   
  -3   0 -16    0.14    3.70   
   3   0 -17    7.01    3.74   
  -3   0 -17   12.94    3.72   
   3   0   2  219.57    6.55   
   3   0  -2    3.52    4.29   
  -3   0   2    0.37    4.29   
   3   0  -3  299.52    6.73   
  -3   0   3  208.03    6.73   
   3   0  -4   76.54    4.85   
  -3   0   4   54.57    4.85   
   3   0  -5   17.29    4.29   
  -3   0   5   15.11    4.29   
   3   0  -6    2.34    4.16   
  -3   0   6    3.96    4.16   
   3   0  -7    1.36    4.09   
  -3   0   7   -2.25    4.09   
   3   0  -8   31.41    4.32   
   3   0  -9   71.63    4.67   
   3   1   0   36.05    4.63   
   3  -1   0  110.86    5.23   
  -3   1   0  106.19    5.23   
  -3  -1   0   21.15    4.63   
   3  10   0   10.57    4.04   
   3  10   1   38.11    4.33   
   3  10  -1    0.01    3.94   
   3  10  10   10.84    3.83   
   3  10 -10    5.53    3.93   
   3 -10  10    1.62    3.70   
   3 -10 -10    9.03    3.86   
  -3  10  10   23.03    3.86   
  -3  10 -10    8.93    3.70   
   3  10 -11   60.87    4.71   
   3 -10  11    3.42    3.70   
   3 -10 -11    0.69    3.65   
  -3  10  11   -0.93    3.65   
  -3  10 -11    6.73    3.70   
   3  10 -12   12.32    3.96   
   3 -10  12   80.84    4.43   
   3 -10 -12   22.92    3.78   
  -3  10  12   13.26    3.78   
  -3  10 -12   85.30    4.43   
   3  10 -13   98.71    4.61   
   3  10 -14   33.56    3.93   
   3  10   2    3.58    3.95   
   3  10  -2  120.52    4.99   
   3 -10  -2    6.89    4.02   
  -3  10  -2  215.60    5.64   
   3  10   3   24.44    4.41   
   3  10  -3    4.36    3.95   
   3 -10  -3    0.01    3.80   
  -3  10  -3   55.58    4.72   
   3  10   4  144.92    5.40   
   3  10  -4   10.76    4.03   
   3 -10  -4   -0.89    4.09   
  -3  10  -4   23.33    3.93   
   3  10   5    6.34    3.95   
   3  10  -5  234.98    6.37   
   3 -10  -5    1.44    3.79   
  -3  10  -5  160.27    5.32   
   3  10   6  997.27   10.34   
   3  10  -6   -0.19    3.89   
   3 -10  -6  164.34    5.58   
  -3  10   6  210.52    5.58   
  -3  10  -6   15.77    3.88   
   3  10   7    1.83    3.84   
   3  10  -7 1044.58   10.28   
   3 -10   7  311.47    6.16   
   3 -10  -7   27.19    4.16   
  -3  10   7   32.24    4.16   
  -3  10  -7  279.89    6.16   
   3  10   8    0.24    3.81   
   3  10  -8  304.53    6.76   
   3 -10   8   12.18    3.80   
   3 -10  -8   17.97    3.96   
  -3  10   8   10.49    3.96   
  -3  10  -8   13.92    3.80   
   3  10   9   23.78    4.04   
   3  10  -9   52.46    4.47   
   3 -10   9   14.08    3.82   
   3 -10  -9   -1.12    3.70   
  -3  10   9   -1.03    3.70   
  -3  10  -9    1.54    3.82   
   3   1   1   62.54    5.18   
   3   1  -1    8.08    4.49   
   3  -1   1  185.57    5.88   
   3  -1  -1   19.03    4.42   
  -3   1   1   10.22    4.42   
  -3  -1   1   17.06    4.49   
   3   1 -10   12.50    3.98   
   3  -1 -10    6.09    4.10   
   3  11   0    5.84    3.92   
   3 -11   0   35.34    4.11   
  -3   1 -10   25.93    4.40   
  -3  11   0   33.51    4.11   
   3   1 -11  319.44    6.99   
   3  -1 -11  158.23    5.48   
   3  11   1    7.22    3.94   
   3  11  -1   -0.12    3.89   
   3 -11   1   26.45    3.98   
   3 -11  -1    5.10    3.83   
  -3   1 -11   41.96    4.64   
  -3  11   1    8.84    3.83   
  -3  11  -1   25.99    3.98   
   3  11  10    1.01    3.74   
   3  11 -10   24.14    3.88   
   3 -11  10   -1.40    3.75   
   3 -11 -10   -4.02    3.67   
  -3  11  10   -0.20    3.67   
  -3  11 -10   11.86    3.75   
   3  11 -11   14.71    3.84   
   3 -11  11   15.26    3.87   
   3 -11 -11    9.58    3.77   
  -3  11  11   10.53    3.77   
  -3  11 -11   29.55    3.87   
   3  11 -12   -2.29    3.68   
   3  11 -13    9.79    3.69   
   3   1 -12   10.14    4.03   
   3  -1 -12    2.89    3.83   
   3  11   2  266.04    6.41   
   3  11  -2   46.44    4.39   
   3 -11   2   96.83    4.67   
   3 -11  -2   12.76    4.09   
  -3   1 -12   63.73    4.56   
  -3  11   2   10.92    4.09   
  -3  11  -2   60.37    4.67   
   3   1 -13    0.49    3.79   
   3  -1 -13   24.54    3.94   
   3  11   3   47.66    4.83   
   3  11  -3   45.29    4.43   
   3 -11   3  387.77    6.88   
   3 -11  -3   26.79    3.94   
  -3   1 -13   17.33    4.09   
  -3  -1 -13   35.72    4.31   
  -3  11   3   12.99    3.94   
  -3  11  -3  311.30    6.88   
   3   1 -14   33.67    4.42   
   3  -1 -14   13.85    3.99   
   3  11   4  415.28    7.30   
   3  11  -4  130.24    5.61   
   3 -11   4   -0.41    3.75   
   3 -11  -4   53.18    4.63   
  -3   1 -14   51.69    4.35   
  -3  -1 -14   65.56    4.34   
  -3  11   4   96.37    4.63   
  -3  11  -4   -0.77    3.75   
   3   1 -15   11.12    3.80   
   3  -1 -15   33.03    4.13   
   3  11   5  169.81    5.34   
   3  11  -5   37.23    4.52   
   3 -11   5   39.23    4.07   
   3 -11  -5    1.08    3.73   
  -3   1 -15   -0.22    3.77   
  -3  -1 -15    1.35    3.82   
  -3  11   5    1.10    3.73   
  -3  11  -5   35.16    4.07   
   3   1 -16   -1.02    3.69   
   3  -1 -16   -1.80    3.68   
   3  11   6    0.56    3.83   
   3  11  -6   28.19    4.22   
   3 -11   6    1.27    3.73   
   3 -11  -6   37.87    4.19   
  -3   1 -16   11.19    3.96   
  -3  -1 -16   13.42    3.92   
  -3  11   6   53.35    4.19   
  -3  11  -6    0.00    3.73   
   3   1 -17  134.43    4.91   
   3  -1 -17   53.16    4.20   
   3  11   7  154.10    5.66   
   3  11  -7   28.39    4.00   
   3 -11   7  150.20    5.12   
   3 -11  -7   33.63    4.05   
  -3   1 -17   40.72    4.22   
  -3  -1 -17    0.68    3.65   
  -3  11   7   31.38    4.05   
  -3  11  -7  146.21    5.12   
   3  11   8   15.70    4.07   
   3  11  -8   87.30    4.93   
   3 -11   8   88.62    4.47   
   3 -11  -8   44.63    3.96   
  -3  11   8   27.69    3.96   
  -3  11  -8   38.82    4.47   
   3  11   9   15.26    3.96   
   3  11  -9   61.63    4.40   
   3 -11   9   15.77    4.03   
   3 -11  -9   -1.53    3.72   
  -3  11   9   18.70    3.72   
  -3  11  -9   40.34    4.03   
   3   1   2   54.11    4.98   
   3   1  -2   75.42    5.19   
   3  -1   2  216.84    6.67   
   3  -1  -2  440.70    7.75   
  -3   1   2  387.30    7.75   
  -3  -1   2  110.34    5.19   
   3  12   0    8.48    4.12   
   3 -12   0   -5.01    3.79   
  -3  12   0    2.67    3.79   
   3  12   1  111.40    4.92   
   3  12  -1   10.08    3.96   
   3 -12   1   -3.04    3.74   
   3 -12  -1   71.98    4.63   
  -3  12   1   93.76    4.63   
  -3  12  -1    3.90    3.74   
   3  12  10    2.22    3.75   
   3  12 -10   -0.09    3.69   
   3  12  11   49.69    4.23   
   3  12 -11    0.63    3.68   
   3  12 -12   20.49    4.22   
   3  12 -13  135.11    4.91   
   3  12   2   34.14    4.39   
   3  12  -2  112.19    5.18   
   3 -12   2   62.99    4.30   
   3 -12  -2   19.09    3.90   
  -3  12   2   -1.93    3.90   
  -3  12  -2   53.68    4.30   
   3  12   3   24.84    4.25   
   3  12  -3   15.08    4.12   
   3 -12   3   10.80    3.95   
   3 -12  -3   24.30    3.90   
  -3  12   3   11.76    3.90   
  -3  12  -3   16.06    3.95   
   3  12   4   12.53    3.94   
   3  12  -4   75.03    4.68   
   3 -12   4   83.03    4.61   
   3 -12  -4   77.07    4.60   
  -3  12   4   29.90    4.60   
  -3  12  -4   54.61    4.61   
   3  12   5    3.27    3.85   
   3  12  -5   51.91    5.12   
   3 -12   5   17.83    3.84   
   3 -12  -5   69.50    4.39   
  -3  12   5   52.47    4.39   
  -3  12  -5   12.10    3.84   
   3  12   6  193.42    5.63   
   3  12  -6   79.58    4.70   
   3 -12   6   82.79    4.54   
   3 -12  -6    1.04    3.68   
  -3  12   6    0.04    3.68   
  -3  12  -6   89.76    4.54   
   3  12   7   -2.13    3.89   
   3  12  -7   13.37    3.84   
   3 -12   7   43.47    4.14   
   3 -12  -7    0.23    3.70   
  -3  12   7    5.26    3.70   
  -3  12  -7   37.44    4.14   
   3  12   8   33.83    3.93   
   3  12  -8    2.40    3.87   
   3 -12   8   82.21    4.91   
   3 -12  -8   38.44    4.21   
  -3  12   8   35.77    4.21   
  -3  12  -8   75.04    4.91   
   3  12   9  100.45    4.69   
   3  12  -9    1.50    3.84   
   3 -12   9    1.68    3.64   
   3 -12  -9    0.05    3.63   
  -3  12   9    0.32    3.63   
  -3  12  -9   -0.42    3.64   
   3   1  -3    0.42    4.27   
   3  -1  -3    4.09    4.24   
  -3   1   3    2.19    4.24   
  -3  -1   3   -0.71    4.27   
   3  13   0  152.16    5.32   
   3 -13   0   27.65    4.06   
  -3  13   0   23.10    4.06   
   3  13   1   25.73    4.28   
   3  13  -1   77.08    4.79   
   3 -13   1    1.50    3.68   
   3 -13  -1   -0.29    3.68   
  -3  13   1   -0.61    3.68   
  -3  13  -1   -0.46    3.68   
   3  13  10    4.56    3.78   
   3  13 -10  147.57    4.83   
   3  13  11   -0.71    3.65   
   3  13 -11   87.78    4.35   
   3  13  12    0.81    3.71   
   3  13   2   -0.72    3.79   
   3  13  -2   37.08    4.11   
   3 -13   2   32.46    4.31   
   3 -13  -2    6.88    3.77   
  -3  13   2    8.02    3.77   
  -3  13  -2   41.24    4.31   
   3  13   3   30.51    4.11   
   3  13  -3   83.07    4.73   
   3 -13   3   30.22    4.00   
   3 -13  -3   65.20    4.54   
  -3  13   3   68.26    4.54   
  -3  13  -3   23.49    4.00   
   3  13   4   -2.97    3.99   
   3  13  -4  159.29    5.45   
   3 -13   4    1.94    3.81   
   3 -13  -4    2.05    3.83   
  -3  13   4   16.16    3.83   
  -3  13  -4   -1.51    3.81   
   3  13   5   32.55    4.10   
   3  13  -5   31.02    4.14   
   3 -13   5   10.36    3.67   
   3 -13  -5   46.75    4.51   
  -3  13   5   77.00    4.51   
  -3  13  -5   -0.14    3.67   
   3  13   6    3.47    3.78   
   3  13  -6  110.91    5.31   
   3 -13   6   34.06    3.99   
   3 -13  -6   93.00    4.90   
  -3  13   6  136.73    4.90   
  -3  13  -6   33.89    3.99   
   3  13   7   30.50    3.97   
   3  13  -7   67.91    4.56   
   3 -13   7  146.21    5.52   
   3 -13  -7   38.73    4.19   
  -3  13   7   46.58    4.19   
  -3  13  -7  190.68    5.52   
   3  13   8   14.12    3.89   
   3  13  -8   43.09    4.32   
   3 -13   8    0.29    3.62   
  -3  13  -8    0.02    3.62   
   3  13   9    1.15    3.75   
   3  13  -9  148.00    5.11   
   3   1  -4  316.02    6.97   
   3  -1  -4  437.37    7.77   
  -3   1   4  488.21    7.77   
  -3  -1   4  349.83    6.97   
   3  14   0   14.46    3.97   
   3 -14   0    9.44    3.84   
  -3  14   0   16.10    3.84   
   3  14   1   41.87    4.11   
   3  14  -1   28.66    4.27   
   3 -14   1   25.32    4.10   
   3 -14  -1    2.17    3.65   
  -3  14   1    0.24    3.65   
  -3  14  -1   21.51    4.10   
   3  14  10   32.04    4.26   
   3  14 -10   32.17    4.42   
   3  14   2   10.13    3.80   
   3  14  -2  159.38    5.46   
   3 -14   2   54.37    4.06   
   3 -14  -2   31.35    3.88   
  -3  14   2   37.41    3.88   
  -3  14  -2   47.10    4.06   
   3  14   3   -0.73    3.76   
   3  14  -3    1.94    3.73   
   3 -14   3   19.72    3.94   
   3 -14  -3    3.07    3.68   
  -3  14   3   -3.83    3.68   
  -3  14  -3   33.37    3.94   
   3  14   4   42.76    4.14   
   3  14  -4   -2.99    3.75   
   3 -14   4   31.47    4.20   
   3 -14  -4   47.67    4.08   
  -3  14   4   50.87    4.08   
  -3  14  -4   55.02    4.20   
   3  14   5    0.30    3.73   
   3  14  -5   20.49    3.91   
   3 -14   5   19.46    3.83   
   3 -14  -5    1.98    3.65   
  -3  14   5    4.94    3.65   
  -3  14  -5   13.12    3.83   
   3  14   6   27.67    3.88   
   3  14  -6   16.28    4.04   
   3  14   7    6.55    3.70   
   3  14  -7   17.42    3.82   
   3  14   8    1.63    3.70   
   3  14  -8   -0.31    3.67   
   3  14   9   -0.87    3.65   
   3  14  -9   58.08    4.57   
   3   1  -5    3.11    4.20   
   3  -1  -5   43.15    4.65   
  -3   1   5   44.69    4.65   
  -3  -1   5    0.33    4.20   
   3  15   0   -0.04    3.70   
   3  15   1   20.88    3.88   
   3  15  -1    0.23    3.84   
   3  15   2   -0.03    3.70   
   3  15  -2   19.85    3.92   
   3  15   3   17.10    3.88   
   3  15  -3   -0.28    3.70   
   3  15   4   52.26    4.25   
   3  15  -4    1.15    3.69   
   3  15   5   20.41    3.82   
   3  15  -5   35.38    4.38   
   3  15   6    5.98    3.72   
   3  15  -6    0.14    3.66   
   3  15   7   -2.87    3.73   
   3  15  -7   49.09    4.10   
   3  15   8   29.90    3.90   
   3  15  -8  138.19    4.84   
   3  15   9    4.65    3.80   
   3   1  -6   59.90    4.67   
   3  -1  -6   93.34    5.04   
   3  16   0   45.99    4.43   
   3  16   1   -0.59    3.68   
   3  16  -1  104.67    4.58   
   3  16   2   -1.20    3.76   
   3  16  -2   13.63    3.86   
   3  16   3   -2.79    3.76   
   3  16  -3   29.66    3.99   
   3  16   4   84.33    4.60   
   3  16  -4   31.81    3.83   
   3  16   5    1.28    3.65   
   3  16  -5   -1.15    3.64   
   3  16   6   16.77    3.86   
   3  16  -6   -0.16    3.62   
   3   1  -7   46.57    4.67   
   3  -1  -7   41.53    4.66   
   3  17   0   -0.38    3.69   
   3  17   1   11.33    3.74   
   3  17  -1   -1.77    3.63   
   3  17   2   -2.46    3.64   
   3  17  -2   -0.93    3.66   
   3   1  -8   20.68    4.27   
   3  -1  -8   32.21    4.56   
   3   1  -9    6.10    4.02   
   3  -1  -9   54.29    4.36   
   3   2   0   83.71    5.40   
   3  -2   0  125.64    5.28   
   3   2   1  312.55    7.13   
   3   2  -1  223.90    6.32   
   3  -2   1  167.62    5.79   
   3  -2  -1    2.39    4.43   
  -3  -2   1  191.84    6.32   
   3   2 -10   20.86    4.38   
   3  -2 -10   34.96    4.32   
  -3   2 -10   17.08    4.20   
   3   2 -11    0.41    3.88   
   3  -2 -11  202.04    5.82   
  -3   2 -11   41.59    4.55   
   3   2 -12   57.91    4.38   
   3  -2 -12  189.42    6.22   
  -3   2 -12   59.82    4.41   
   3   2 -13  255.21    6.02   
   3  -2 -13   40.83    4.22   
  -3   2 -13   -0.10    3.77   
   3   2 -14   17.65    3.85   
   3  -2 -14   18.81    4.31   
  -3   2 -14    4.64    3.79   
  -3  -2 -14   58.07    4.45   
   3   2 -15   -0.76    3.71   
   3  -2 -15   16.42    3.79   
  -3   2 -15  115.75    4.89   
  -3  -2 -15   46.42    4.08   
   3   2 -16   17.81    4.29   
   3  -2 -16   15.16    3.79   
  -3   2 -16   15.64    3.84   
  -3  -2 -16    0.07    3.89   
   3   2 -17   50.05    4.02   
   3  -2 -17   23.07    3.81   
  -3   2 -17   29.41    4.01   
  -3  -2 -17   15.59    3.90   
   3   2  -2    0.13    4.29   
   3  -2  -2  154.87    5.76   
  -3  -2   2   -0.98    4.29   
   3   2  -3    6.63    4.40   
   3  -2  -3  410.59    7.95   
   3   2  -4  379.53    7.39   
   3  -2  -4  326.93    7.07   
   3   2  -5  386.13    7.26   
   3  -2  -5  145.55    6.15   
   3   2  -6 2016.31   14.94   
   3  -2  -6   98.04    5.29   
   3   2  -7    9.98    4.15   
   3  -2  -7   78.86    5.31   
   3   2  -8   93.82    5.39   
   3  -2  -8  121.92    5.24   
   3   2  -9   66.74    4.68   
   3  -2  -9  123.39    5.30   
  -3   2  -9  106.84    4.79   
   3   3   0  150.49    5.84   
   3  -3   0  123.59    5.25   
   3   3  -1  171.85    6.31   
   3  -3   1  960.47   10.34   
   3  -3  -1   13.56    4.37   
   3   3 -10    3.08    3.93   
   3  -3 -10   -8.40    4.01   
  -3   3 -10  209.15    6.09   
   3   3 -11   16.46    4.05   
   3  -3 -11   23.62    4.07   
  -3   3 -11   88.81    4.78   
   3   3 -12    3.19    3.83   
   3  -3 -12  288.74    6.26   
  -3   3 -12   22.17    4.13   
   3   3 -13   83.79    4.53   
   3  -3 -13  263.26    6.44   
  -3   3 -13   58.92    4.43   
   3   3 -14   11.34    3.88   
   3  -3 -14   -0.60    3.72   
  -3   3 -14   39.03    4.17   
   3   3 -15   -0.39    3.71   
   3  -3 -15   20.35    3.94   
  -3   3 -15    6.89    3.80   
  -3  -3 -15   16.43    3.94   
   3   3 -16    0.73    3.68   
   3  -3 -16    6.18    3.70   
  -3   3 -16   43.27    4.55   
  -3  -3 -16    0.33    3.68   
   3   3 -17    1.74    3.68   
   3  -3  17   96.36    4.45   
   3  -3 -17   18.53    3.88   
  -3   3 -17   78.33    4.45   
  -3  -3 -17    6.94    3.96   
   3   3  -2  103.30    5.26   
   3  -3  -2    0.43    4.20   
   3   3  -3  155.18    6.03   
   3  -3  -3  240.69    6.77   
   3   3  -4  119.09    5.20   
   3  -3  -4  232.10    6.05   
   3   3  -5  423.32    7.18   
   3  -3  -5    7.22    4.14   
   3   3  -6  187.90    5.93   
   3  -3  -6  830.00   10.33   
   3   3  -7   99.84    5.49   
   3  -3  -7   71.38    4.60   
   3   3  -8   45.10    4.67   
   3  -3  -8   76.20    4.65   
   3   3  -9  129.64    5.10   
   3  -3  -9  307.21    6.61   
  -3   3  -9   10.53    4.19   
   3  -4   0   29.39    4.49   
   3  -4  -1   -0.72    4.19   
   3   4 -10   33.63    4.04   
   3  -4 -10   11.70    4.04   
  -3   4 -10   85.72    4.74   
   3   4 -11   24.39    4.56   
   3  -4 -11  107.07    5.00   
  -3   4 -11    1.92    3.85   
   3   4 -12   88.97    4.69   
   3  -4 -12   -0.37    3.78   
  -3   4 -12    3.13    3.81   
   3   4 -13    9.57    3.83   
   3  -4 -13   11.89    3.90   
  -3   4 -13    1.71    3.75   
   3   4 -14    3.29    3.77   
   3  -4 -14    4.05    3.74   
  -3   4 -14   26.97    3.96   
   3   4 -15   15.19    3.79   
   3  -4 -15   -0.91    3.67   
  -3   4 -15   -2.95    3.77   
   3   4 -16   -0.53    3.66   
   3  -4 -16   33.81    4.06   
  -3   4 -16   20.64    3.84   
   3   4 -17    8.78    3.80   
  -3  -4 -17   -1.58    3.65   
   3  -4  -2  224.99    6.05   
   3  -4  -3   99.76    5.15   
   3  -4   4  959.68   10.26   
   3  -4  -4   26.16    4.36   
   3  -4  -5  386.30    7.46   
   3  -4  -6  134.80    5.06   
   3   4  -7  272.54    6.75   
   3  -4  -7   24.84    4.45   
   3   4  -8    0.51    4.00   
   3  -4  -8    6.27    4.06   
   3   4  -9    5.45    4.02   
   3  -4  -9  273.94    6.50   
  -3   4  -9   12.19    4.17   
   3  -5  -1   67.10    4.99   
   3   5 -10  155.04    5.49   
   3  -5 -10    2.98    3.86   
  -3   5 -10  150.60    5.34   
   3   5 -11   32.29    4.21   
   3  -5 -11  157.34    6.07   
  -3   5 -11   22.02    4.16   
   3   5 -12  211.22    5.92   
   3  -5 -12   17.40    3.90   
  -3   5  12   11.01    3.90   
  -3   5 -12   61.19    4.44   
   3   5 -13  148.36    5.45   
   3  -5 -13   32.04    4.15   
  -3   5  13   39.41    4.15   
  -3   5 -13   76.76    4.54   
   3   5 -14   68.41    4.32   
   3  -5 -14   -3.93    3.79   
  -3   5 -14   48.11    4.13   
   3   5 -15   29.67    4.46   
   3  -5 -15    1.58    3.82   
  -3   5 -15   63.75    4.31   
   3   5 -16    1.69    3.78   
   3  -5  16    8.74    3.68   
   3  -5 -16   25.02    4.01   
  -3   5 -16   -0.12    3.68   
   3   5 -17   18.92    3.89   
  -3  -5 -17   10.52    3.73   
   3  -5  -2   -0.37    4.08   
   3  -5  -3   22.34    4.46   
   3  -5  -4  125.25    5.16   
   3  -5  -5   -0.02    4.00   
   3   5  -6  210.13    6.18   
   3  -5  -6    5.60    4.03   
   3   5  -7   95.75    4.90   
   3  -5  -7  185.32    5.85   
   3   5  -8   35.38    4.63   
   3  -5  -8  211.58    5.67   
  -3   5  -8    7.23    3.97   
   3   5  -9    0.27    3.94   
   3  -5  -9    5.38    3.90   
  -3   5  -9   62.83    4.77   
   3   6 -10    7.66    4.04   
   3  -6 -10    3.17    3.89   
  -3   6 -10  169.93    5.15   
   3   6 -11  122.96    5.47   
   3  -6 -11   92.73    5.10   
  -3   6  11  141.12    5.10   
  -3   6 -11  424.02    7.64   
   3   6 -12   39.99    4.19   
   3  -6 -12   -2.32    3.83   
  -3   6  12    3.05    3.83   
  -3   6 -12    7.53    3.82   
   3   6 -13   21.99    4.03   
   3  -6 -13    5.45    3.75   
  -3   6  13    2.66    3.75   
  -3   6 -13    2.05    3.71   
   3   6 -14    0.38    3.81   
   3  -6 -14   26.86    3.86   
  -3   6  14   24.45    3.86   
  -3   6 -14  194.27    5.56   
   3   6 -15   58.32    4.62   
   3  -6  15    5.82    3.73   
   3  -6 -15    1.62    3.65   
  -3   6 -15    2.42    3.73   
   3   6 -16   -0.06    3.66   
   3   6   2    2.76    4.21   
   3   6   3   12.78    4.27   
   3  -6  -3   -0.79    4.02   
   3   6   4    6.12    4.23   
   3   6  -4   24.49    4.29   
   3  -6  -4   59.47    4.38   
   3   6   5   66.45    4.86   
   3   6  -5    4.55    4.12   
   3  -6  -5   70.25    4.92   
   3   6  -6   15.72    4.39   
   3  -6  -6   66.56    4.68   
   3   6  -7   73.77    4.53   
   3  -6  -7  100.37    4.95   
   3   6  -8    0.31    3.95   
   3  -6  -8    5.56    3.91   
  -3   6  -8  601.80    8.93   
   3   6  -9   67.58    4.44   
   3  -6  -9    7.32    4.01   
  -3   6  -9  276.04    6.23   
   3   7   0   19.80    4.35   
   3   7   1   76.78    5.04   
   3   7  -1  601.20    8.65   
   3   7 -10  294.79    6.92   
   3  -7 -10  117.75    5.26   
  -3   7  10  107.68    5.26   
  -3   7 -10   40.67    4.68   
   3   7 -11    1.61    3.86   
   3  -7 -11  324.83    6.40   
  -3   7  11  269.33    6.40   
  -3   7 -11    3.38    3.80   
   3   7 -12  122.48    4.63   
   3  -7 -12   14.10    3.91   
  -3   7  12   19.15    3.91   
  -3   7 -12    2.51    3.73   
   3   7 -13   73.86    4.59   
   3  -7 -13   49.26    4.04   
  -3   7  13   26.70    4.04   
  -3   7 -13    0.20    3.69   
   3   7 -14   10.03    3.82   
   3  -7  14   59.63    4.28   
   3  -7 -14   35.94    4.06   
  -3   7  14   33.87    4.06   
  -3   7 -14   55.27    4.28   
   3   7 -15    7.93    3.79   
   3  -7  15   47.09    4.06   
   3  -7 -15   23.47    3.91   
  -3   7 -15   35.78    4.06   
   3   7 -16   61.90    4.48   
   3   7   2  158.89    5.59   
   3   7  -2  480.64    7.72   
   3   7   3   84.74    5.24   
   3   7  -3   17.19    4.34   
   3   7   4   44.72    4.46   
   3   7  -4   68.82    4.61   
   3   7   5   50.22    4.68   
   3   7  -5   40.67    4.63   
   3   7   6   16.73    4.36   
   3   7  -6    7.61    4.07   
   3  -7  -6   17.63    4.06   
   3   7  -7  239.77    6.27   
   3  -7  -7   -0.21    3.86   
  -3   7  -7   -3.87    4.01   
   3   7  -8  145.62    5.52   
   3  -7  -8  192.98    5.39   
  -3   7  -8  184.56    5.66   
   3   7  -9  286.76    6.76   
   3  -7  -9    9.86    3.90   
  -3   7  -9   78.56    4.61   
   3   8   0  660.41    9.05   
   3   8   1   50.44    4.65   
   3   8  -1  428.68    7.52   
   3   8 -10   39.45    4.45   
   3  -8 -10   -3.12    3.78   
  -3   8  10    8.67    3.78   
  -3   8 -10  168.37    5.47   
   3   8 -11    1.18    3.79   
   3  -8 -11    7.59    3.81   
  -3   8  11    0.15    3.81   
  -3   8 -11   51.30    4.37   
   3   8 -12  119.81    5.04   
   3  -8  12   -1.17    3.69   
   3  -8 -12   53.49    4.23   
  -3   8  12   10.77    4.23   
  -3   8 -12    2.44    3.69   
   3   8 -13    0.72    3.71   
   3  -8  13   31.39    3.90   
   3  -8 -13    0.35    3.66   
  -3   8  13    1.36    3.66   
  -3   8 -13   17.84    3.90   
   3   8 -14    8.04    3.72   
   3  -8  14    9.78    3.79   
   3  -8 -14   -0.01    3.64   
  -3   8  14    2.20    3.64   
  -3   8 -14   15.81    3.79   
   3   8 -15   64.15    4.30   
   3   8   2   17.22    4.19   
   3   8  -2    9.99    4.09   
   3   8   3  214.96    6.07   
   3   8  -3    0.50    4.03   
   3   8   4   23.78    4.30   
   3   8  -4    8.88    4.11   
   3   8   5   41.43    4.37   
   3   8  -5  205.70    6.09   
   3   8   6   90.56    4.76   
   3   8  -6    1.10    3.95   
  -3   8  -6   -2.05    3.86   
   3   8   7    9.50    4.01   
   3   8  -7  103.24    5.26   
   3  -8  -7   15.34    3.98   
  -3   8  -7   97.76    5.24   
   3   8   8  269.92    6.75   
   3   8  -8  210.95    5.72   
   3  -8  -8   10.00    3.91   
  -3   8  -8   60.50    4.53   
   3   8  -9   -0.20    3.85   
   3  -8  -9  105.82    4.67   
  -3   8   9   72.89    4.67   
  -3   8  -9    2.83    3.79   
   3   9   0   73.98    5.11   
   3   9   1   52.52    4.58   
   3   9  -1   -5.29    4.19   
   3   9 -10   39.26    4.47   
   3  -9  10    6.65    3.75   
   3  -9 -10   -0.17    3.70   
  -3   9  10    0.45    3.70   
  -3   9 -10   -0.08    3.75   
   3   9 -11   -0.95    3.77   
   3  -9  11   10.51    3.79   
   3  -9 -11    1.38    3.69   
  -3   9  11    0.07    3.69   
  -3   9 -11   12.00    3.79   
   3   9 -12   22.19    4.19   
   3  -9  12   35.35    4.00   
   3  -9 -12    0.09    3.66   
  -3   9  12    0.76    3.66   
  -3   9 -12   28.80    4.00   
   3   9 -13    6.14    3.74   
   3  -9  13   12.52    4.02   
   3  -9 -13    0.79    3.64   
  -3   9  13   -0.32    3.64   
  -3   9 -13   12.48    4.02   
   3   9 -14   33.15    4.06   
   3   9 -15   79.54    4.63   
   3   9   2   47.95    4.73   
   3   9  -2    4.79    4.26   
   3   9   3    8.83    4.18   
   3   9  -3   22.43    4.26   
   3   9   4  299.13    6.45   
   3   9  -4   18.01    4.22   
  -3   9  -4    3.24    3.84   
   3   9   5   26.04    4.08   
   3   9  -5  153.20    5.26   
  -3   9  -5   43.91    4.39   
   3   9   6   -1.52    3.93   
   3   9  -6  514.47    7.78   
   3  -9  -6   -0.11    3.80   
  -3   9  -6   80.11    4.81   
   3   9   7    6.33    4.11   
   3   9  -7  295.55    6.90   
   3  -9  -7   35.80    4.26   
  -3   9  -7    1.31    3.79   
   3   9   8  337.14    6.90   
   3   9  -8  212.40    5.94   
   3  -9  -8   10.64    3.94   
  -3   9   8   14.37    3.94   
  -3   9  -8   55.91    4.30   
   3   9   9    3.22    3.85   
   3   9  -9  241.87    5.83   
   3  -9  -9   24.32    4.11   
  -3   9   9   20.28    4.11   
  -3   9  -9   60.41    4.52   
   4   0   0 1926.92   14.53   
  -4   0   0 2016.16   14.53   
   4   0   1  286.85    7.11   
   4   0  -1  735.78    8.92   
  -4   0   1  690.03    8.92   
   4   0 -10   31.37    4.37   
   4   0 -11    2.10    3.83   
  -4   0 -11  184.60    5.38   
   4   0 -12    6.01    3.83   
  -4   0 -12   98.27    4.91   
   4   0 -13  308.23    6.74   
  -4   0 -13   42.97    4.20   
   4   0 -14   41.33    4.17   
  -4   0 -14  210.17    5.50   
   4   0 -15   -4.11    3.72   
  -4   0 -15    8.30    3.79   
   4   0  16   -0.25    3.65   
   4   0 -16   13.57    3.75   
  -4   0 -16    1.15    3.65   
   4   0  17   64.56    4.60   
  -4   0 -17   72.54    4.60   
   4   0   2  127.20    5.20   
   4   0  -2    0.21    4.21   
  -4   0   2    4.93    4.21   
   4   0   3    3.74    4.16   
   4   0  -3  136.65    5.62   
  -4   0   3  122.71    5.62   
   4   0  -4  288.06    6.78   
  -4   0   4  289.59    6.78   
   4   0  -5  582.23    8.48   
  -4   0   5  605.08    8.48   
   4   0  -6  331.55    6.62   
  -4   0   6  305.62    6.62   
   4   0  -7   32.99    4.39   
  -4   0   7   31.65    4.39   
   4   0  -8   10.47    4.14   
  -4   0   8   14.42    4.14   
   4   0  -9   16.99    4.43   
   4   1   0  160.67    5.48   
   4  -1   0    8.35    4.21   
  -4  -1   0  114.74    5.48   
   4  10   0  191.95    6.04   
   4 -10   0   27.51    4.03   
  -4  10   0   22.73    4.03   
   4  10   1   11.09    4.06   
   4  10  -1   35.75    4.21   
   4 -10   1   47.41    4.65   
   4 -10  -1    9.54    3.94   
  -4  10   1   13.07    3.94   
  -4  10  -1  104.19    4.65   
   4  10 -10   13.11    3.95   
   4 -10  10    8.58    3.78   
   4 -10 -10   -0.58    3.63   
  -4  10  10   -0.17    3.63   
  -4  10 -10    0.97    3.78   
   4  10 -11   16.38    3.89   
   4 -10  11    2.23    3.63   
  -4  10 -11    0.99    3.63   
   4  10 -12   43.11    4.18   
   4  10 -13    5.57    3.68   
   4  10 -14    3.63    3.73   
   4  10   2   62.75    4.85   
   4  10  -2   23.37    4.11   
   4 -10   2   -3.32    3.77   
   4 -10  -2    8.68    4.10   
  -4  10   2   10.28    4.10   
  -4  10  -2    2.80    3.77   
   4  10   3  336.84    6.38   
   4  10  -3   51.10    4.50   
   4 -10   3    5.04    3.91   
   4 -10  -3   -0.40    3.85   
  -4  10   3   14.09    3.85   
  -4  10  -3    8.49    3.91   
   4  10   4  105.70    5.14   
   4  10  -4   98.94    4.69   
   4 -10   4    5.81    3.80   
   4 -10  -4   75.18    4.44   
  -4  10   4   72.96    4.44   
  -4  10  -4    2.75    3.80   
   4  10   5   19.61    4.07   
   4  10  -5   20.95    3.99   
   4 -10   5   -1.09    3.73   
   4 -10  -5  170.38    5.47   
  -4  10   5  167.56    5.47   
  -4  10  -5    0.16    3.73   
   4  10   6  855.64   10.56   
   4  10  -6  226.62    6.23   
   4 -10   6    1.52    3.72   
   4 -10  -6    7.19    3.78   
  -4  10   6    8.76    3.78   
  -4  10  -6    0.19    3.72   
   4  10   7   50.79    4.35   
   4  10  -7   13.18    3.89   
   4 -10   7   86.16    4.61   
   4 -10  -7   15.47    3.86   
  -4  10   7   12.86    3.86   
  -4  10  -7   51.54    4.61   
   4  10  -8  152.43    5.22   
   4 -10   8    2.72    3.78   
   4 -10  -8    9.94    3.84   
  -4  10   8   24.44    3.84   
  -4  10  -8    7.60    3.78   
   4  10  -9    3.95    3.90   
   4 -10   9    2.79    3.67   
   4 -10  -9   -0.38    3.69   
  -4  10   9    3.47    3.69   
  -4  10  -9    2.88    3.67   
   4   1   1  240.16    6.40   
   4   1  -1  125.07    5.48   
   4  -1   1  394.05    7.69   
   4  -1  -1  522.71    8.57   
  -4   1   1  481.23    8.57   
  -4  -1   1  134.48    5.48   
   4   1 -10  139.13    5.07   
   4  -1 -10   45.99    4.56   
   4  11   0    9.79    3.88   
   4 -11   0   38.45    4.37   
  -4   1 -10  619.80    8.82   
  -4  11   0   24.66    4.37   
   4   1 -11   56.64    4.24   
   4  -1 -11   -1.23    3.82   
   4  11   1   70.35    4.94   
   4  11  -1   43.00    4.35   
   4 -11   1   13.59    3.91   
   4 -11  -1   34.50    3.92   
  -4   1 -11   86.32    4.69   
  -4  11   1   14.99    3.92   
  -4  11  -1    6.49    3.91   
   4  11 -10   -1.73    3.71   
   4  11 -11    8.49    3.77   
   4  11 -12   10.03    3.92   
   4  11 -13    3.09    3.66   
   4   1 -12  211.26    6.09   
   4  -1 -12   -0.68    3.77   
   4  11   2   67.33    4.43   
   4  11  -2  258.00    6.22   
   4 -11   2   15.73    3.80   
   4 -11  -2   -5.32    3.77   
  -4   1 -12  306.51    6.67   
  -4  11   2    9.20    3.77   
  -4  11  -2   13.88    3.80   
   4   1 -13    2.14    3.80   
   4  -1 -13    9.55    3.85   
   4  11   3    0.96    3.86   
   4  11  -3   60.92    4.41   
   4 -11   3    2.25    3.72   
   4 -11  -3   23.72    4.10   
  -4   1 -13   35.20    4.30   
  -4  -1 -13   48.87    4.24   
  -4  11   3   30.29    4.10   
  -4  11  -3    2.98    3.72   
   4   1 -14   50.30    4.44   
   4  -1 -14   -0.03    3.70   
   4  11   4  176.17    5.32   
   4  11  -4   33.26    4.19   
   4 -11   4    4.43    3.74   
   4 -11  -4   45.98    4.28   
  -4   1 -14   -0.53    3.71   
  -4  -1 -14    4.35    3.76   
  -4  11   4   62.46    4.28   
  -4  11  -4    4.49    3.74   
   4   1 -15   31.15    4.13   
   4  -1  15   23.35    3.87   
   4  -1 -15   32.59    4.05   
   4  11   5   -0.78    3.82   
   4  11  -5  136.81    5.28   
   4 -11   5   59.42    4.37   
   4 -11  -5   -1.64    3.76   
  -4   1 -15   22.02    3.87   
  -4  -1 -15   44.08    4.27   
  -4  11   5    3.21    3.76   
  -4  11  -5   32.82    4.37   
   4   1  16   -5.51    3.67   
   4   1 -16   -0.01    3.65   
   4  -1  16    3.80    3.76   
   4  -1 -16    3.31    3.64   
   4  11   6   54.10    4.41   
   4  11  -6    6.68    4.14   
   4 -11   6    8.71    3.76   
   4 -11  -6    0.67    3.70   
  -4   1 -16    3.66    3.76   
  -4  -1 -16   -0.61    3.67   
  -4  11   6    0.24    3.70   
  -4  11  -6   10.20    3.76   
   4   1  17   33.78    4.04   
   4  11   7   -0.44    3.87   
   4  11  -7  180.57    5.64   
   4 -11   7   40.02    4.10   
   4 -11  -7   -0.68    3.66   
  -4  -1 -17   37.77    4.04   
  -4  11   7    0.65    3.66   
  -4  11  -7   43.32    4.10   
   4  11   8    2.76    3.77   
   4  11  -8   34.97    4.07   
   4 -11   8    3.40    3.69   
   4 -11  -8   -1.36    3.99   
  -4  11   8   14.23    3.99   
  -4  11  -8    0.66    3.69   
   4  11  -9   47.27    4.19   
   4 -11   9   34.92    3.87   
   4 -11  -9   10.81    3.69   
  -4  11   9    9.65    3.69   
  -4  11  -9   21.36    3.87   
   4   1   2  976.85   10.29   
   4   1  -2   21.95    4.53   
   4  -1   2  415.34    7.49   
   4  -1  -2   30.45    4.42   
  -4   1   2   16.17    4.42   
  -4  -1   2   45.95    4.53   
   4  12   0   54.03    4.37   
   4 -12   0   89.25    4.75   
  -4  12   0   81.26    4.75   
   4  12   1  177.74    5.39   
   4  12  -1    8.06    3.83   
   4 -12   1   47.59    4.29   
   4 -12  -1   -0.45    3.67   
  -4  12   1    0.22    3.67   
  -4  12  -1   64.66    4.29   
   4  12 -10    8.96    3.75   
   4  12 -11   38.05    4.18   
   4  12 -12    4.09    3.65   
   4  12   2   38.86    4.08   
   4  12  -2  187.23    5.44   
   4 -12   2    2.84    3.72   
   4 -12  -2    4.06    3.69   
  -4  12   2   -0.39    3.69   
  -4  12  -2   -2.49    3.72   
   4  12   3   -1.29    3.80   
   4  12  -3  113.89    4.78   
   4 -12   3   40.45    4.13   
   4 -12  -3   39.23    4.27   
  -4  12   3   48.53    4.27   
  -4  12  -3   32.33    4.13   
   4  12   4  116.32    4.80   
   4  12  -4    5.98    3.80   
   4 -12   4   77.19    4.41   
   4 -12  -4    2.15    3.68   
  -4  12   4   -0.55    3.68   
  -4  12  -4   89.06    4.41   
   4  12   5  132.34    5.12   
   4  12  -5    2.22    3.92   
   4 -12   5   18.43    3.84   
   4 -12  -5   10.03    3.81   
  -4  12   5    7.79    3.81   
  -4  12  -5   20.85    3.84   
   4  12   6   11.63    4.09   
   4  12  -6    2.58    3.77   
   4 -12   6   31.79    4.05   
   4 -12  -6   56.26    4.11   
  -4  12   6   18.90    4.11   
  -4  12  -6   45.42    4.05   
   4  12   7   -0.15    3.74   
   4  12  -7   -0.68    3.73   
   4 -12   7    2.67    3.63   
   4 -12  -7   16.99    3.79   
  -4  12   7    6.46    3.79   
  -4  12  -7    1.50    3.63   
   4  12   8    1.08    3.72   
   4  12  -8   79.83    4.95   
   4  12   9   -1.21    3.71   
   4  12  -9    0.01    3.69   
   4   1   3   72.29    4.91   
   4   1  -3  347.97    7.42   
   4  -1   3  422.00    7.89   
   4  -1  -3  327.71    6.83   
  -4   1   3  316.36    6.83   
  -4  -1   3  358.88    7.42   
   4  13   0   45.22    4.35   
   4 -13   0   -4.08    3.67   
  -4  13   0   -0.70    3.67   
   4  13   1    0.02    3.77   
   4  13  -1   11.05    3.83   
   4 -13   1    0.79    3.78   
   4 -13  -1   -3.48    3.75   
  -4  13   1    0.54    3.75   
  -4  13  -1    6.94    3.78   
   4  13  10   -0.15    3.65   
   4  13 -10    6.15    3.82   
   4  13 -11   41.91    4.19   
   4  13   2  105.87    4.99   
   4  13  -2    0.45    3.76   
   4 -13   2   25.85    3.91   
   4 -13  -2    4.69    3.66   
  -4  13   2    5.48    3.66   
  -4  13  -2   22.47    3.91   
   4  13   3   14.06    4.11   
   4  13  -3   47.15    4.37   
   4 -13   3    1.03    3.63   
   4 -13  -3    6.37    3.80   
  -4  13   3   17.71    3.80   
  -4  13  -3   -0.85    3.63   
   4  13   4    1.03    3.77   
   4  13  -4   -0.79    3.77   
   4 -13   4   10.09    3.78   
   4 -13  -4   15.79    3.95   
  -4  13   4   27.40    3.95   
  -4  13  -4    7.79    3.78   
   4  13   5   75.11    4.74   
   4  13  -5    0.50    3.75   
   4  13   6   88.68    4.36   
   4  13  -6   57.12    4.13   
   4  13   7   14.25    4.07   
   4  13  -7   23.94    4.30   
   4  13   8    9.32    3.91   
   4  13  -8  123.78    4.91   
   4  13   9   -2.72    3.71   
   4  13  -9    5.48    3.78   
   4   1  -4  119.32    5.05   
   4  -1  -4  103.86    5.42   
  -4   1   4  155.85    5.42   
  -4  -1   4   77.79    5.05   
   4  14   0    9.68    4.04   
   4  14   1    7.58    3.81   
   4  14  -1   68.00    4.63   
   4  14  10   -1.01    3.65   
   4  14   2  -10.30    3.75   
   4  14  -2   46.33    4.22   
   4  14   3   22.14    3.95   
   4  14  -3    6.14    3.86   
   4  14   4   29.57    4.05   
   4  14  -4    0.60    3.70   
   4  14   5   -0.02    3.70   
   4  14  -5    0.26    3.69   
   4  14   6   91.11    4.36   
   4  14  -6   31.86    4.07   
   4  14   7   34.66    3.97   
   4  14  -7   16.53    3.85   
   4  14   8    1.11    3.66   
   4  14  -8   91.52    4.46   
   4  14   9    3.47    3.68   
   4  14  -9    7.92    3.82   
   4   1  -5    4.30    4.12   
   4  -1  -5  312.35    6.74   
  -4   1   5  249.69    6.74   
  -4  -1   5    9.62    4.12   
   4  15   0   57.08    4.27   
   4  15   1    2.55    3.75   
   4  15  -1    3.01    3.70   
   4  15   2    1.37    3.70   
   4  15  -2    1.02    3.75   
   4  15   3   49.14    4.25   
   4  15  -3   33.19    3.97   
   4  15   4   -1.56    3.69   
   4  15  -4   13.96    3.88   
   4  15   5    2.96    3.70   
   4  15  -5    6.08    3.74   
   4  15   6   40.28    4.13   
   4  15  -6   72.55    4.38   
   4  15   7    1.45    3.64   
   4  15  -7   27.45    4.10   
   4  15   8   -0.96    3.63   
   4  15  -8   -1.56    3.63   
   4   1   6  310.85    6.78   
   4   1  -6   79.87    4.81   
   4  -1  -6   14.45    4.48   
  -4   1   6   22.67    4.48   
  -4  -1   6   75.42    4.81   
   4  16   0    9.19    3.70   
   4  16   1    8.26    3.92   
   4  16  -1    1.06    3.69   
   4  16   2   -2.62    3.72   
   4  16  -2   22.60    3.78   
   4  16   3   26.11    3.99   
   4  16  -3   -1.24    3.65   
   4  16   4  187.79    5.69   
   4  16  -4   13.57    3.79   
   4  16   5   34.75    4.64   
   4  16  -5    1.69    3.65   
   4  16   6  109.89    4.68   
   4   1  -7   66.40    4.48   
   4  -1  -7   54.04    4.67   
   4   1  -8    7.07    4.00   
   4  -1  -8   -1.31    3.94   
   4   1  -9    0.72    3.91   
   4  -1  -9  119.92    5.47   
   4   2   0   90.58    5.05   
   4   2   1  495.84    8.08   
   4   2  -1    2.08    4.22   
   4  -2   1  277.46    6.59   
   4  -2  -1  326.22    7.20   
  -4  -2   1    4.98    4.22   
   4   2 -10    7.14    3.94   
   4  -2 -10    6.48    4.05   
  -4   2 -10  210.09    5.48   
   4   2 -11    0.88    3.84   
   4  -2 -11   16.85    4.06   
  -4   2 -11  122.33    4.86   
   4   2 -12  140.41    5.49   
   4  -2 -12   84.42    4.56   
  -4   2 -12  110.08    4.86   
   4   2 -13   56.65    4.48   
   4  -2 -13  117.69    5.33   
  -4   2 -13  125.77    5.13   
   4   2 -14   -2.34    3.83   
   4  -2 -14   47.75    4.11   
  -4   2 -14    1.94    3.70   
   4   2 -15   22.30    3.81   
   4  -2  15    3.05    3.83   
   4  -2 -15   45.97    3.99   
  -4   2 -15    6.70    3.83   
  -4  -2 -15   24.03    3.85   
   4   2  16    9.83    3.88   
   4   2 -16    0.17    3.64   
   4  -2  16    1.71    3.78   
   4  -2 -16    2.20    3.71   
  -4   2 -16   17.91    3.78   
  -4  -2 -16    1.45    3.88   
   4   2  17    0.36    3.68   
  -4  -2 -17    4.33    3.68   
   4   2   2   34.50    4.49   
   4   2  -2   -0.58    4.16   
   4  -2   2  882.77   10.22   
   4  -2  -2  171.79    5.97   
  -4   2   2  212.45    5.97   
  -4  -2   2    1.96    4.16   
   4   2  -3   -1.85    4.49   
   4  -2   3    0.61    4.12   
   4  -2  -3  386.43    7.62   
  -4  -2   3   32.75    4.49   
   4   2  -4   54.74    4.88   
   4  -2  -4   32.48    4.51   
   4   2  -5   25.95    4.36   
   4  -2  -5   17.61    4.16   
   4   2  -6    4.73    4.12   
   4  -2   6  334.08    6.94   
   4  -2  -6  306.58    6.84   
   4   2  -7   -0.12    4.00   
   4  -2  -7    0.91    3.96   
   4   2  -8   17.65    4.20   
   4  -2  -8   19.55    4.13   
   4   2  -9  104.29    5.18   
   4  -2  -9   40.95    4.43   
   4   3   0   -4.97    4.23   
   4  -3   0   60.54    5.31   
   4   3   1   48.40    4.85   
   4   3  -1  319.74    6.76   
   4  -3   1    8.56    4.13   
   4  -3  -1   43.92    4.78   
   4   3 -10    7.70    4.08   
   4  -3 -10   15.22    4.17   
  -4   3 -10   62.46    4.61   
   4   3 -11    3.11    3.87   
   4  -3 -11  450.18    7.91   
  -4   3 -11    6.35    3.83   
   4   3 -12   22.14    4.28   
   4  -3 -12   57.96    4.40   
  -4   3  12   43.42    4.40   
  -4   3 -12   65.25    4.51   
   4   3 -13   31.16    4.12   
   4  -3 -13   17.31    3.98   
  -4   3 -13    4.11    3.76   
   4   3 -14   30.29    3.90   
   4  -3  14    7.35    3.76   
   4  -3 -14   18.07    3.89   
  -4   3 -14   -1.63    3.76   
   4   3 -15    3.70    3.71   
   4  -3  15   44.70    4.04   
   4  -3 -15   -4.10    3.71   
  -4   3 -15   47.48    4.04   
   4   3  16   -1.67    3.65   
   4   3 -16    3.96    3.68   
   4  -3  16   15.05    3.90   
   4  -3 -16   10.04    3.81   
  -4   3 -16    7.82    3.90   
  -4  -3 -16    0.27    3.65   
   4   3  17    5.19    3.73   
  -4  -3 -17    2.69    3.73   
   4   3   2 1136.65   11.41   
   4   3  -2    8.50    4.34   
   4  -3   2 1288.31   12.30   
   4  -3  -2    7.20    4.26   
   4   3  -3  510.53    8.25   
   4  -3   3   12.87    4.53   
   4  -3  -3   -3.81    4.08   
   4   3  -4  105.55    5.02   
   4  -3  -4  201.49    6.12   
   4   3   5  265.88    6.64   
   4   3  -5    1.24    4.10   
   4  -3  -5    3.57    4.02   
   4   3  -6   52.80    4.38   
   4  -3   6  156.18    5.45   
   4  -3  -6    1.12    3.99   
   4   3  -7   81.17    5.01   
   4  -3  -7  188.12    5.64   
   4   3  -8   12.59    4.18   
   4  -3  -8  105.68    4.82   
   4   3  -9   26.32    4.20   
   4  -3  -9  154.43    5.31   
  -4   3  -9  422.68    7.66   
   4   4   0   69.80    4.97   
   4  -4   0   29.77    4.32   
   4   4   1    5.01    4.22   
   4   4  -1   20.68    4.41   
   4  -4   1  140.35    5.44   
   4  -4  -1  279.65    6.71   
   4   4 -10   15.85    4.18   
   4  -4 -10   77.61    4.68   
  -4   4 -10   -6.25    3.89   
   4   4 -11   27.33    4.18   
   4  -4 -11   79.10    4.70   
  -4   4  11   73.03    4.70   
  -4   4 -11   26.76    4.17   
   4   4 -12  155.81    5.53   
   4  -4 -12    8.14    3.82   
  -4   4  12    7.58    3.82   
  -4   4 -12   10.02    3.80   
   4   4 -13    4.48    3.95   
   4  -4  13   40.70    4.06   
   4  -4 -13    4.06    3.72   
  -4   4 -13   29.07    4.06   
   4   4 -14    2.67    3.82   
   4  -4  14    8.76    3.84   
   4  -4 -14   25.40    4.01   
  -4   4 -14    7.45    3.84   
   4   4 -15   36.59    4.28   
   4  -4  15    0.95    3.64   
   4  -4 -15    3.34    3.66   
  -4   4 -15    0.89    3.64   
   4   4 -16    9.81    3.90   
   4   4  -2  465.36    7.39   
   4  -4   2  651.46    8.99   
   4  -4  -2    0.36    4.02   
   4   4  -3   93.28    5.09   
   4  -4  -3   68.73    4.78   
   4   4   4  233.47    6.42   
   4   4  -4   31.16    4.47   
   4  -4  -4   30.54    4.26   
   4   4  -5    5.59    4.13   
   4  -4  -5   77.05    5.03   
   4   4  -6   13.97    4.15   
   4  -4  -6    7.02    4.11   
   4   4  -7   28.57    4.34   
   4  -4  -7   -0.03    3.90   
   4   4  -8   27.65    4.34   
   4  -4  -8   -5.04    3.90   
   4   4  -9    6.27    3.95   
   4  -4  -9   63.26    4.34   
  -4   4  -9   31.82    4.19   
   4  -5   0   71.51    5.49   
   4  -5   1  323.70    6.26   
   4  -5  -1   56.21    4.84   
   4   5 -10   11.60    4.00   
   4  -5 -10   10.21    3.82   
  -4   5 -10   48.15    5.08   
   4   5 -11   -0.11    3.80   
   4  -5 -11  120.02    5.05   
  -4   5  11  127.88    5.05   
  -4   5 -11  207.30    6.22   
   4   5 -12   29.89    4.04   
   4  -5  12    3.34    3.80   
   4  -5 -12    3.01    3.72   
  -4   5  12   -0.59    3.72   
  -4   5 -12    0.37    3.80   
   4   5 -13   43.93    4.12   
   4  -5  13   -0.51    3.71   
   4  -5 -13   40.82    4.27   
  -4   5  13   38.52    4.27   
  -4   5 -13    6.17    3.71   
   4   5 -14   17.60    3.79   
   4  -5  14   72.23    4.60   
   4  -5 -14    0.74    3.65   
  -4   5 -14   87.26    4.60   
   4   5 -15    0.24    3.68   
   4  -5  15   15.32    3.82   
   4  -5 -15    1.82    3.65   
  -4   5 -15    7.75    3.82   
   4   5 -16    6.46    3.74   
   4   5  -2  268.52    6.02   
   4  -5   2   19.36    4.16   
   4  -5  -2  199.17    5.85   
   4   5   3  520.00    8.29   
   4   5  -3   78.72    4.90   
   4  -5  -3  184.28    5.49   
   4   5  -4   51.32    4.80   
   4  -5  -4   25.92    4.24   
   4   5  -5  115.17    5.03   
   4  -5  -5  144.39    5.28   
   4   5  -6    6.40    4.05   
   4  -5  -6   33.14    4.17   
   4   5  -7    7.22    4.06   
   4  -5  -7  157.11    5.62   
   4   5  -8   15.94    4.13   
   4  -5  -8   14.76    3.96   
   4   5  -9   83.93    4.63   
   4  -5  -9    0.83    3.80   
  -4   5  -9   85.71    4.88   
   4  -6   0   11.41    4.14   
   4  -6   1   -4.21    3.98   
   4  -6  -1   -0.26    3.95   
   4   6 -10    2.72    3.83   
   4  -6  10   -3.45    4.14   
   4  -6 -10    0.19    3.77   
  -4   6  10    2.16    3.77   
  -4   6 -10   54.06    4.14   
   4   6 -11   12.79    3.86   
   4  -6  11   49.74    4.12   
   4  -6 -11   26.90    3.96   
  -4   6  11   13.89    3.96   
  -4   6 -11   29.33    4.12   
   4   6 -12   93.50    5.09   
   4  -6  12    9.91    3.88   
   4  -6 -12   13.85    3.93   
  -4   6  12    8.22    3.93   
  -4   6 -12    3.02    3.88   
   4   6 -13   61.34    4.38   
   4  -6  13   60.99    4.50   
   4  -6 -13    1.38    3.79   
  -4   6  13   -1.44    3.79   
  -4   6 -13   73.04    4.50   
   4   6 -14    0.96    3.69   
   4  -6  14    5.51    3.72   
   4  -6 -14    4.48    3.68   
  -4   6  14   -2.61    3.68   
  -4   6 -14   10.35    3.72   
   4   6 -15   71.71    4.27   
   4   6  16    7.70    3.82   
   4   6 -16    8.15    3.70   
   4  -6  -2   17.70    4.16   
   4  -6  -3  175.53    5.77   
   4  -6  -4  431.35    7.51   
   4   6  -5    1.21    4.01   
   4  -6  -5   19.82    4.22   
   4   6  -6   38.10    4.57   
   4  -6  -6  280.10    6.50   
   4   6  -7   80.05    4.76   
   4  -6  -7   -0.55    3.84   
   4   6  -8   -3.13    3.90   
   4  -6  -8   53.89    4.42   
  -4   6  -8    7.53    3.87   
   4   6  -9  180.46    5.50   
   4  -6  -9    6.31    4.08   
  -4   6  -9   32.07    4.00   
   4   7   0   11.98    4.21   
   4  -7   0  138.99    5.59   
   4   7   1   87.83    5.63   
   4   7  -1   78.69    4.91   
   4  -7  -1    3.65    3.94   
   4   7 -10    3.59    4.02   
   4  -7  10   25.71    3.99   
   4  -7 -10    4.80    3.77   
  -4   7  10   -1.70    3.77   
  -4   7 -10    3.02    3.99   
   4   7 -11  104.37    4.71   
   4  -7  11   -0.04    3.70   
   4  -7 -11   10.69    3.74   
  -4   7  11    1.59    3.74   
  -4   7 -11    0.04    3.70   
   4   7 -12  174.73    5.26   
   4  -7  12  132.03    5.36   
   4  -7 -12    1.47    3.74   
  -4   7  12    4.26    3.74   
  -4   7 -12  125.33    5.36   
   4   7 -13   -0.01    3.70   
   4  -7  13    0.97    3.66   
   4  -7 -13   30.79    4.16   
  -4   7  13   51.58    4.16   
  -4   7 -13   -1.36    3.66   
   4   7 -14   49.97    4.53   
   4  -7  14   39.74    4.18   
  -4   7 -14   28.97    4.18   
   4   7 -15    1.40    3.65   
   4   7  16   -0.52    3.65   
   4   7   2   79.15    4.92   
   4   7  -2    9.20    4.19   
   4  -7  -2   -1.53    3.88   
   4   7  -3   92.52    4.92   
   4  -7  -3  205.56    6.09   
   4   7  -4   52.37    4.43   
   4  -7  -4  117.52    4.76   
   4   7  -5   17.77    4.22   
   4  -7  -5   30.15    4.04   
   4   7  -6   -0.11    3.97   
   4  -7   6  211.14    6.80   
   4  -7  -6  202.41    6.01   
   4   7  -7   -0.59    3.91   
   4  -7  -7    4.93    3.89   
  -4   7  -7    5.24    3.88   
   4   7  -8   79.18    4.62   
   4  -7   8   21.84    4.08   
   4  -7  -8   29.12    4.06   
  -4   7  -8   25.82    4.08   
   4   7  -9    4.10    3.90   
   4  -7   9   69.22    4.96   
   4  -7  -9   25.91    4.08   
  -4   7   9   34.10    4.08   
  -4   7  -9  109.18    4.96   
   4   8   0  429.02    7.24   
   4  -8   0   38.12    4.07   
   4   8   1   27.61    4.35   
   4   8  -1  194.33    6.01   
   4  -8  -1  365.42    7.15   
   4   8 -10   23.44    4.01   
   4  -8  10    7.07    3.74   
   4  -8 -10    0.24    3.72   
  -4   8  10    1.73    3.72   
  -4   8 -10   -0.15    3.74   
   4   8 -11   40.91    4.21   
   4  -8  11    5.98    3.73   
   4  -8 -11   10.52    3.82   
  -4   8  11   -0.50    3.82   
  -4   8 -11   13.12    3.73   
   4   8 -12   13.59    3.82   
   4  -8  12   47.74    4.37   
   4  -8 -12   14.21    3.74   
  -4   8  12    7.30    3.74   
  -4   8 -12   48.96    4.37   
   4   8 -13   -0.34    3.69   
   4  -8  13    9.75    3.95   
   4  -8 -13   15.07    3.69   
  -4   8  13    9.35    3.69   
  -4   8 -13   25.23    3.95   
   4   8 -14   72.98    4.48   
   4   8 -15    3.14    3.86   
   4   8   2  494.67    8.28   
   4   8  -2   24.93    4.68   
   4  -8  -2  452.70    7.14   
   4   8   3    3.43    4.06   
   4   8  -3   19.04    4.19   
   4  -8  -3  139.11    5.47   
   4   8   4   48.15    4.76   
   4   8  -4   62.83    4.75   
   4  -8  -4  696.92    8.97   
   4   8  -5  329.47    6.75   
   4  -8   5    0.46    3.81   
   4  -8  -5  189.97    5.72   
   4   8  -6  876.70    9.67   
   4  -8   6  144.87    5.33   
   4  -8  -6   28.00    4.09   
  -4   8  -6  135.11    5.33   
   4   8  -7   12.90    4.14   
   4  -8   7    5.00    3.80   
   4  -8  -7   72.89    4.43   
  -4   8   7   75.34    4.43   
  -4   8  -7    1.87    3.80   
   4   8  -8  270.00    6.19   
   4  -8   8   26.06    3.97   
   4  -8  -8   27.60    4.23   
  -4   8   8   42.48    4.23   
  -4   8  -8   26.05    3.97   
   4   8  -9    3.10    3.86   
   4  -8   9   45.16    4.32   
   4  -8  -9   33.52    3.96   
  -4   8   9   11.79    3.96   
  -4   8  -9   79.97    4.32   
   4   9   0    9.73    4.04   
   4  -9   0    2.28    3.97   
   4   9   1   20.06    4.21   
   4   9  -1  145.41    5.59   
   4  -9   1   -0.32    3.79   
   4  -9  -1   10.07    3.98   
   4   9 -10   21.25    4.03   
   4  -9  10    0.51    3.67   
   4  -9 -10    3.90    3.71   
  -4   9  10    3.35    3.71   
  -4   9 -10    0.02    3.67   
   4   9 -11   -0.05    3.75   
   4  -9  11   40.57    4.13   
   4  -9 -11   12.48    3.80   
  -4   9  11   12.79    3.80   
  -4   9 -11   39.61    4.13   
   4   9 -12   15.56    3.88   
   4  -9  12   16.21    3.77   
   4  -9 -12    0.19    3.63   
  -4   9  12   -0.61    3.63   
  -4   9 -12   19.94    3.77   
   4   9 -13    8.13    3.79   
   4   9 -14    1.34    3.76   
   4   9  15   99.85    4.78   
   4   9   2  270.48    6.08   
   4   9  -2    7.01    3.98   
   4  -9   2    0.87    3.79   
   4  -9  -2   15.32    3.84   
   4   9   3  238.41    6.39   
   4   9  -3   49.93    4.68   
   4  -9   3   40.58    4.18   
   4  -9  -3  301.73    6.04   
   4   9   4   83.19    5.14   
   4   9  -4   -0.01    3.91   
   4  -9   4   80.32    4.62   
   4  -9  -4  136.10    5.31   
   4   9   5   65.25    4.55   
   4   9  -5  188.20    5.81   
   4  -9   5   69.50    4.57   
   4  -9  -5    0.02    3.76   
  -4   9   5   -0.31    3.76   
  -4   9  -5   87.41    4.57   
   4   9   6  314.58    6.28   
   4   9  -6   25.49    4.15   
   4  -9   6   55.06    4.78   
   4  -9  -6    8.35    3.81   
  -4   9   6    6.65    3.81   
  -4   9  -6   93.30    4.78   
   4   9  -7   30.14    4.26   
   4  -9   7   16.67    3.86   
   4  -9  -7   15.16    3.79   
  -4   9   7   15.45    3.79   
  -4   9  -7   23.25    3.86   
   4   9  -8  119.08    5.28   
   4  -9   8    4.76    3.78   
   4  -9  -8    5.88    3.80   
  -4   9   8   -5.86    3.80   
  -4   9  -8    7.06    3.78   
   4   9  -9  185.34    5.42   
   4  -9   9    1.49    3.69   
   4  -9  -9    7.87    3.71   
  -4   9   9    4.04    3.71   
  -4   9  -9    1.16    3.69   
   5   0   0  169.94    5.55   
  -5   0   0  118.59    5.55   
   5   0   1   41.65    4.53   
   5   0  -1  198.17    6.76   
  -5   0   1  345.53    6.76   
   5   0 -10   -0.71    3.93   
   5   0 -11   21.26    4.00   
   5   0  12   -4.87    3.76   
   5   0 -12    1.18    3.75   
  -5   0 -12    4.62    3.76   
   5   0  13    1.23    3.75   
   5   0 -13   15.64    3.78   
  -5   0 -13    5.19    3.75   
   5   0  14   19.36    3.84   
   5   0 -14   10.70    3.78   
  -5   0 -14   23.27    3.84   
   5   0  15    6.43    3.72   
   5   0 -15    7.22    3.70   
  -5   0 -15   -0.64    3.72   
   5   0   2  153.19    5.47   
   5   0  -2  163.47    5.74   
  -5   0   2  152.49    5.74   
   5   0   3  273.40    6.69   
   5   0  -3    0.23    4.00   
  -5   0   3    0.34    4.00   
   5   0   4   98.88    4.98   
   5   0  -4  252.53    6.55   
  -5   0   4  238.24    6.55   
   5   0   5   -2.28    3.97   
   5   0  -5  111.93    5.35   
  -5   0   5  105.43    5.35   
   5   0  -6   32.39    4.14   
  -5   0   6   23.46    4.14   
   5   0  -7    2.49    3.97   
  -5   0   7   -4.51    3.97   
   5   0  -8    1.03    3.92   
  -5   0   8    7.74    3.92   
   5   0  -9    2.95    3.83   
   5   1   0  102.43    4.83   
   5  -1   0    8.16    4.09   
  -5  -1   0   71.25    4.83   
   5  10   0   13.73    3.96   
   5 -10   0   52.63    4.19   
  -5  10   0   17.81    4.19   
   5  10   1   12.33    3.98   
   5  10  -1   23.41    4.42   
   5 -10   1   16.87    4.05   
   5 -10  -1   21.12    3.88   
  -5  10   1   -8.80    3.88   
  -5  10  -1   31.20    4.05   
   5  10  10    0.58    3.75   
   5  10 -10    0.58    3.80   
   5  10  11   55.08    4.28   
   5  10 -11    0.93    3.69   
   5  10  12    2.63    3.74   
   5  10 -12   13.20    3.72   
   5  10  13   -0.17    3.63   
   5  10 -13    1.40    3.65   
   5  10   2  181.21    5.60   
   5  10  -2   -0.55    3.86   
   5 -10   2    0.09    3.69   
   5 -10  -2    1.62    3.73   
  -5  10   2    9.36    3.73   
  -5  10  -2   -0.36    3.69   
   5  10   3    7.60    4.02   
   5  10  -3   13.57    3.95   
   5 -10   3  186.91    5.95   
   5 -10  -3    3.06    3.79   
  -5  10   3    4.65    3.79   
  -5  10  -3  233.11    5.95   
   5  10  -4   24.92    4.12   
   5 -10   4   42.14    4.15   
   5 -10  -4    2.82    3.68   
  -5  10   4    2.22    3.68   
  -5  10  -4   21.52    4.15   
   5  10  -5   10.68    3.88   
   5 -10   5   -1.23    3.70   
   5 -10  -5   25.20    3.79   
  -5  10   5   10.60    3.79   
  -5  10  -5   -2.47    3.70   
   5  10  -6   17.64    3.96   
   5 -10   6   34.03    4.13   
   5 -10  -6   -4.61    3.69   
  -5  10   6    0.34    3.69   
  -5  10  -6   41.62    4.13   
   5  10  -7   -4.59    3.84   
   5 -10   7    6.23    3.72   
   5 -10  -7    3.61    3.70   
  -5  10   7    4.76    3.70   
  -5  10  -7   10.36    3.72   
   5  10  -8    2.22    3.75   
   5 -10   8   14.04    3.90   
   5 -10  -8    1.16    3.63   
  -5  10   8   -0.02    3.63   
  -5  10  -8   23.15    3.90   
   5  10  -9   25.36    4.08   
   5   1   1  120.09    5.33   
   5   1  -1  108.03    5.43   
   5  -1   1  401.08    7.75   
   5  -1  -1  125.30    5.31   
  -5   1   1   98.58    5.31   
  -5  -1   1  172.42    5.43   
   5   1 -10  105.87    4.88   
   5  -1 -10   82.77    4.58   
   5  11   0    6.38    3.90   
   5 -11   0    0.66    3.67   
  -5   1 -10   12.96    3.93   
  -5  11   0    1.23    3.67   
   5   1 -11   16.73    4.11   
   5  -1  11   17.63    4.08   
   5  -1 -11   21.46    3.99   
   5  11   1    3.47    3.84   
   5  11  -1   18.93    3.93   
   5 -11   1   38.36    4.05   
   5 -11  -1   10.23    4.05   
  -5   1 -11   11.02    4.08   
  -5  11   1   13.08    4.05   
  -5  11  -1   30.65    4.05   
   5  11  10   22.62    3.81   
   5  11 -10   38.88    4.04   
   5  11  11   14.71    3.76   
   5  11 -11   13.34    3.75   
   5  11  12   -4.78    3.72   
   5  11 -12   29.81    4.00   
   5   1  12   15.59    4.14   
   5   1 -12   13.19    4.03   
   5  -1  12  364.80    7.46   
   5  -1 -12   97.18    4.48   
   5  11   2    4.07    3.84   
   5  11  -2    1.33    3.84   
   5 -11   2   36.43    4.07   
   5 -11  -2   -8.07    3.81   
  -5   1 -12  307.11    7.46   
  -5  11   2   15.39    3.81   
  -5  11  -2   43.89    4.07   
   5   1  13  169.53    5.48   
   5   1 -13   37.15    4.15   
   5  -1  13    9.46    3.74   
   5  -1 -13   82.50    4.79   
   5  11   3   98.16    4.83   
   5  11  -3   47.39    4.33   
   5 -11   3    0.86    3.66   
   5 -11  -3    0.45    3.65   
  -5   1 -13    3.22    3.74   
  -5  -1 -13  162.17    5.48   
  -5  11   3    1.06    3.65   
  -5  11  -3   -1.00    3.66   
   5   1  14    0.16    3.68   
   5   1 -14   -0.91    3.68   
   5  -1  14   89.90    4.76   
   5  -1 -14    1.83    3.68   
   5  11   4   26.90    3.97   
   5  11  -4   20.07    4.01   
   5 -11   4   14.26    3.71   
   5 -11  -4    2.58    3.66   
  -5   1 -14  100.34    4.76   
  -5  -1 -14   -0.30    3.68   
  -5  11   4    2.69    3.66   
  -5  11  -4   11.80    3.71   
   5   1  15   15.80    4.02   
   5   1 -15    0.56    3.68   
   5  -1  15   52.55    4.51   
   5  -1 -15    6.66    3.68   
   5  11   5    7.72    3.85   
   5  11  -5   66.44    4.97   
   5 -11   5   26.60    4.12   
   5 -11  -5    0.41    3.63   
  -5   1 -15   91.99    4.51   
  -5  -1 -15    9.11    4.02   
  -5  11   5   -0.22    3.63   
  -5  11  -5   19.27    4.12   
   5   1  16   38.21    4.07   
   5  11  -6   29.84    4.10   
   5 -11   6   19.62    3.80   
   5 -11  -6   30.07    4.10   
  -5  -1 -16   27.89    4.07   
  -5  11   6   37.02    4.10   
  -5  11  -6    0.76    3.80   
   5  11  -7   18.19    4.01   
   5  11  -8   -0.45    3.74   
   5  11   9   76.51    4.56   
   5  11  -9   -0.65    3.69   
   5   1   2  -11.08    4.15   
   5   1  -2  202.40    5.89   
   5  -1   2   61.75    4.94   
   5  -1  -2  410.41    7.30   
  -5   1   2  479.14    7.30   
  -5  -1   2  204.61    5.89   
   5  12   0    3.79    3.82   
   5 -12   0    0.02    3.63   
  -5  12   0   -0.10    3.63   
   5  12   1  216.29    6.42   
   5  12  -1   38.23    4.13   
   5 -12   1    3.01    3.68   
   5 -12  -1    7.56    3.75   
  -5  12   1    4.38    3.75   
  -5  12  -1   -0.03    3.68   
   5  12  10   -0.68    3.65   
   5  12 -10    1.09    3.68   
   5  12  11   27.51    3.81   
   5  12 -11    2.31    3.70   
   5  12   2   -3.26    3.78   
   5  12  -2   27.56    3.98   
   5 -12   2   17.72    3.96   
   5 -12  -2    2.73    3.68   
  -5  12   2    2.30    3.68   
  -5  12  -2   13.70    3.96   
   5  12   3    5.11    3.81   
   5  12  -3   -0.87    3.76   
   5 -12   3   14.87    3.97   
   5 -12  -3    1.08    3.62   
  -5  12   3    0.03    3.62   
  -5  12  -3   57.93    3.97   
   5  12   4   26.11    4.08   
   5  12  -4   52.86    4.61   
   5  12   5    0.92    3.76   
   5  12  -5    1.64    3.74   
   5  12   6   15.53    3.89   
   5  12  -6   48.21    4.16   
   5  12   7   11.14    3.78   
   5  12  -7   67.16    4.35   
   5  12   8   40.66    4.06   
   5  12  -8   18.53    3.93   
   5  12   9   21.83    3.94   
   5  12  -9    2.57    3.77   
   5   1   3  234.82    6.55   
   5   1  -3   50.77    4.77   
   5  -1   3  209.91    6.49   
   5  -1  -3   66.10    4.83   
  -5   1   3   59.83    4.83   
  -5  -1   3   70.42    4.77   
   5  13   0   61.26    4.46   
   5  13   1  109.41    4.99   
   5  13  -1   -4.34    3.78   
   5  13  10   18.68    3.99   
   5  13 -10    7.99    3.77   
   5  13   2    1.94    3.73   
   5  13  -2   22.48    4.28   
   5  13   3    0.10    3.72   
   5  13  -3    4.79    3.75   
   5  13   4   43.65    4.33   
   5  13  -4    2.23    3.79   
   5  13   5    4.32    3.75   
   5  13  -5    0.63    3.70   
   5  13   6    4.02    3.70   
   5  13  -6   10.16    3.82   
   5  13   7   15.23    3.94   
   5  13  -7   10.63    3.76   
   5  13   8   13.60    3.82   
   5  13  -8    1.25    3.70   
   5  13   9    0.38    3.65   
   5  13  -9    6.34    3.68   
   5   1   4   77.60    4.99   
   5   1  -4   13.17    4.18   
   5  -1   4   87.37    5.08   
   5  -1  -4   21.94    4.19   
  -5   1   4   27.89    4.19   
  -5  -1   4    3.26    4.18   
   5  14   0   -0.03    3.74   
   5  14   1   74.75    4.40   
   5  14  -1    4.17    3.70   
   5  14   2   12.35    3.94   
   5  14  -2    8.11    3.82   
   5  14   3   -0.61    3.69   
   5  14  -3   -0.06    3.71   
   5  14   4   55.28    4.30   
   5  14  -4   18.84    3.83   
   5  14   5   10.43    3.99   
   5  14  -5   38.05    4.02   
   5  14   6    2.95    3.68   
   5  14  -6  110.79    4.59   
   5  14   7   -1.30    3.67   
   5  14  -7   29.62    3.90   
   5  14   8   -3.86    3.98   
   5  14  -8   96.37    4.71   
   5  14   9   -2.01    3.69   
   5   1  -5  481.04    8.68   
   5  -1   5   63.06    4.27   
   5  -1  -5   62.27    4.76   
  -5   1   5   58.36    4.76   
  -5  -1   5  643.23    8.68   
   5  15   0    5.13    3.78   
   5  15   1    0.67    3.66   
   5  15  -1   82.31    4.74   
   5  15   2   48.48    3.96   
   5  15  -2    5.33    3.74   
   5  15   3   18.77    3.82   
   5  15  -3    2.63    3.72   
   5  15   4   13.14    3.74   
   5  15  -4   18.96    3.78   
   5  15   5   27.07    4.08   
   5  15  -5    2.42    3.65   
   5  15   6   23.78    3.83   
   5  15  -6    6.50    3.68   
   5  15   7    4.22    3.67   
   5   1  -6   28.28    4.18   
   5  -1  -6    4.24    3.95   
  -5   1   6   -0.34    3.95   
  -5  -1   6   13.65    4.18   
   5  16   0    2.85    3.64   
   5  16   1   12.17    3.80   
   5  16  -1   -4.55    3.70   
   5  16   2   -0.11    3.63   
   5  16  -2    0.14    3.63   
   5  16   3   -3.12    3.67   
   5  16  -3    8.30    3.64   
   5  16   4  110.96    4.74   
   5   1  -7   26.90    4.28   
   5  -1  -7   37.09    4.44   
   5   1   8  163.77    5.19   
   5   1  -8    0.16    3.87   
   5  -1  -8  131.78    5.22   
   5   1  -9   29.05    4.35   
   5  -1   9  521.80    7.94   
   5  -1  -9    3.11    3.83   
   5   2   0   17.18    4.50   
   5  -2   0    1.96    4.06   
   5   2   1    7.26    4.13   
   5   2  -1   10.95    4.15   
   5  -2   1   24.45    4.22   
   5  -2  -1   -0.34    3.98   
  -5  -2   1    0.69    4.15   
   5   2 -10   37.90    4.44   
   5  -2  10   -1.42    3.89   
   5  -2 -10    6.92    3.85   
  -5   2 -10   -0.20    3.89   
   5   2 -11   30.29    4.12   
   5  -2  11   18.09    3.99   
   5  -2 -11   60.29    4.39   
  -5   2  11   40.53    4.39   
  -5   2 -11    6.36    3.99   
   5   2 -12  206.72    5.85   
   5  -2  12    3.55    3.76   
   5  -2 -12   82.90    4.43   
  -5   2 -12    2.53    3.76   
   5   2  13   39.94    4.17   
   5   2 -13   51.42    4.08   
   5  -2  13  125.21    5.14   
   5  -2 -13   27.94    3.85   
  -5   2 -13  133.58    5.14   
   5   2  14   -0.14    3.68   
   5   2 -14   46.84    4.03   
   5  -2  14   75.88    4.62   
   5  -2 -14    2.24    3.65   
  -5   2 -14   59.62    4.62   
   5   2  15   13.25    3.87   
   5   2 -15   -0.19    3.66   
   5  -2  15   -0.05    3.63   
   5  -2 -15   22.48    3.84   
  -5   2 -15    0.04    3.63   
  -5  -2 -15   13.54    3.87   
   5   2  16   -3.90    3.73   
  -5  -2 -16   18.80    3.73   
   5   2   2   11.51    4.15   
   5   2  -2   21.82    4.24   
   5  -2   2  346.49    7.22   
   5  -2  -2  100.22    4.93   
  -5   2   2   71.60    4.93   
  -5  -2   2    6.26    4.24   
   5   2   3  328.86    6.54   
   5   2  -3    7.89    4.09   
   5  -2   3   42.47    4.34   
   5  -2  -3    2.76    3.96   
  -5   2   3   -1.33    3.96   
  -5  -2   3    3.75    4.09   
   5   2   4   16.76    4.48   
   5   2  -4   22.27    4.15   
   5  -2   4    0.71    3.95   
   5  -2  -4   23.06    4.24   
  -5  -2   4    9.25    4.15   
   5   2  -5   67.88    4.83   
   5  -2   5   31.92    4.20   
   5  -2  -5   54.99    4.44   
   5   2  -6   28.97    4.25   
   5  -2  -6   15.99    4.05   
   5   2  -7   51.55    4.71   
   5  -2  -7   18.53    3.97   
   5   2  -8    8.87    4.07   
   5  -2  -8   23.30    4.10   
   5   2  -9  141.41    5.77   
   5  -2  -9    4.13    3.88   
   5   3   0    7.84    4.44   
   5  -3   0    7.03    3.99   
   5   3   1  360.73    7.43   
   5   3  -1   -0.34    4.05   
   5  -3   1    1.32    4.05   
   5  -3  -1   75.86    5.06   
   5   3 -10  106.14    4.73   
   5  -3  10   86.58    5.17   
   5  -3 -10    0.29    3.75   
  -5   3 -10  131.19    5.17   
   5   3 -11   28.23    4.22   
   5  -3  11   48.10    4.35   
   5  -3 -11    3.65    3.83   
  -5   3  11   17.19    3.83   
  -5   3 -11   25.36    4.35   
   5   3 -12  189.13    5.69   
   5  -3  12    0.23    3.70   
   5  -3 -12   12.51    3.79   
  -5   3  12    0.04    3.79   
  -5   3 -12   -1.18    3.70   
   5   3  13   12.87    3.89   
   5   3 -13  204.19    5.70   
   5  -3  13   -0.05    3.67   
   5  -3 -13   18.81    3.90   
  -5   3 -13    0.24    3.67   
   5   3  14    4.45    3.69   
   5   3 -14   16.69    3.84   
   5  -3  14   13.08    3.79   
   5  -3 -14   15.07    3.68   
  -5   3 -14    4.17    3.79   
   5   3  15   25.79    3.83   
   5   3 -15    1.57    3.65   
   5  -3  15   20.67    4.12   
  -5   3 -15   42.84    4.12   
   5   3  16    0.06    3.62   
  -5  -3 -16    0.07    3.62   
   5   3   2    1.07    4.05   
   5   3  -2   10.09    4.33   
   5  -3   2   -0.71    3.95   
   5  -3  -2  409.09    8.03   
   5   3   3  190.49    5.55   
   5   3  -3   15.71    4.44   
   5  -3   3    0.02    3.95   
   5  -3  -3    0.85    3.94   
   5   3   4  510.82    8.59   
   5   3  -4   30.99    4.41   
   5  -3   4   79.13    4.48   
   5  -3  -4    4.89    3.97   
   5   3  -5   10.07    4.00   
   5  -3   5   -2.05    3.90   
   5  -3  -5   48.53    4.50   
   5   3  -6  154.98    5.61   
   5  -3  -6    5.08    4.04   
   5   3   7  508.48    7.76   
   5   3  -7   60.73    4.58   
   5  -3  -7   12.55    4.03   
   5   3  -8   -0.96    3.89   
   5  -3  -8   31.02    4.15   
   5   3  -9  153.57    5.78   
   5  -3   9   61.15    4.37   
   5  -3  -9    2.80    3.80   
   5   4   0    0.86    4.04   
   5  -4   0    5.16    3.94   
   5   4   1  165.81    5.78   
   5   4  -1   -2.69    4.10   
   5  -4   1  162.66    5.26   
   5  -4  -1   37.62    4.17   
   5   4 -10    2.86    3.87   
   5  -4  10   84.78    4.91   
   5  -4 -10  200.68    5.85   
  -5   4  10  174.26    5.85   
  -5   4 -10   89.93    4.91   
   5   4 -11   63.94    4.38   
   5  -4  11    5.56    3.76   
   5  -4 -11    8.41    3.97   
  -5   4  11   -5.46    3.97   
  -5   4 -11    7.31    3.76   
   5   4 -12   11.73    3.95   
   5  -4  12   -0.64    3.69   
   5  -4 -12   85.19    4.47   
  -5   4  12   50.57    4.47   
  -5   4 -12    1.12    3.69   
   5   4  13    4.73    3.85   
   5   4 -13   10.64    3.83   
   5  -4  13   41.86    4.44   
   5  -4 -13  112.31    4.66   
  -5   4  13   94.49    4.66   
  -5   4 -13   70.94    4.44   
   5   4  14   -0.01    3.68   
   5   4 -14   36.35    4.28   
   5  -4  14   65.11    4.49   
   5  -4 -14    0.35    3.63   
  -5   4 -14   49.01    4.49   
   5   4  15   68.93    4.48   
   5   4 -15    1.37    3.64   
   5   4  16    2.61    3.67   
   5   4   2    3.87    4.06   
   5   4  -2  100.53    5.48   
   5  -4   2    9.00    4.26   
   5  -4  -2    1.77    3.94   
   5   4   3    2.76    4.07   
   5   4  -3   54.99    4.42   
   5  -4   3  272.08    6.18   
   5  -4  -3   85.76    4.81   
   5   4  -4  151.71    5.55   
   5  -4   4   85.40    4.74   
   5  -4  -4   95.21    5.32   
   5   4  -5  336.56    6.45   
   5  -4   5   15.38    3.98   
   5  -4  -5   13.46    3.97   
   5   4  -6    1.57    4.06   
   5  -4  -6  100.50    5.09   
   5   4  -7   92.30    4.92   
   5  -4  -7  159.32    5.71   
   5   4  -8   49.17    4.34   
   5  -4   8  232.66    6.13   
   5  -4  -8   -1.80    3.85   
   5   4  -9    1.83    3.83   
   5  -4   9  229.00    5.78   
   5  -4  -9   95.31    5.08   
  -5   4  -9  227.94    5.78   
   5   5   0   98.10    5.46   
   5  -5   0   95.19    4.96   
   5   5   1  116.35    5.10   
   5   5  -1   27.59    4.17   
   5  -5   1    9.34    4.15   
   5  -5  -1  112.79    5.43   
   5   5 -10   -0.04    3.78   
   5  -5  10   25.85    3.98   
   5  -5 -10   72.77    4.36   
  -5   5  10   66.31    4.36   
  -5   5 -10    9.27    3.98   
   5   5 -11   22.89    3.91   
   5  -5  11  166.77    5.42   
   5  -5 -11    0.97    3.70   
  -5   5  11    2.18    3.70   
  -5   5 -11  147.84    5.42   
   5   5 -12    4.71    3.73   
   5  -5  12  152.01    4.94   
   5  -5 -12    0.17    3.72   
  -5   5  12   12.48    3.72   
  -5   5 -12  127.79    4.94   
   5   5  13    0.06    3.70   
   5   5 -13   35.09    4.15   
   5  -5  13    8.70    3.72   
   5  -5 -13    5.08    3.67   
  -5   5  13    5.93    3.67   
  -5   5 -13    3.37    3.72   
   5   5  14    5.08    3.68   
   5   5 -14   18.24    3.80   
   5  -5  14    0.69    3.67   
  -5   5 -14    1.26    3.67   
   5   5  15   25.60    3.92   
   5   5 -15    0.28    3.66   
   5   5   2  201.67    5.93   
   5   5  -2    2.07    4.01   
   5  -5   2   33.98    4.31   
   5  -5  -2   43.50    4.19   
   5   5  -3  134.21    5.31   
   5  -5   3   71.76    4.77   
   5  -5  -3  301.77    6.47   
   5   5  -4   29.78    4.19   
   5  -5   4   17.44    3.91   
   5  -5  -4  181.31    5.84   
   5   5  -5    2.37    4.02   
   5  -5  -5   20.25    4.24   
   5   5  -6   93.71    4.69   
   5  -5  -6   10.81    3.90   
   5   5  -7   81.93    4.95   
   5  -5   7  107.82    5.05   
   5  -5  -7   -1.28    3.79   
   5   5  -8    0.80    3.88   
   5  -5   8   26.77    4.06   
   5  -5  -8   64.37    4.43   
   5   5  -9    2.23    3.85   
   5  -5   9   99.67    4.70   
   5  -5  -9  108.04    4.57   
  -5   5   9   74.65    4.57   
  -5   5  -9   94.87    4.70   
   5   6   0   46.11    4.63   
   5  -6   0    6.64    3.90   
   5   6   1  617.90    8.51   
   5   6  -1   76.51    4.62   
   5  -6   1   -1.68    3.87   
   5  -6  -1    4.96    3.92   
   5   6 -10  136.68    5.21   
   5  -6  10    2.14    3.79   
   5  -6 -10   -0.37    3.77   
  -5   6  10    0.00    3.77   
  -5   6 -10    8.84    3.79   
   5   6 -11    2.22    3.77   
   5  -6  11    2.26    3.69   
   5  -6 -11   27.73    3.90   
  -5   6  11   11.59    3.90   
  -5   6 -11   -2.74    3.69   
   5   6 -12   33.03    4.13   
   5  -6  12   63.48    4.27   
   5  -6 -12   26.88    3.97   
  -5   6  12   27.72    3.97   
  -5   6 -12   27.88    4.27   
   5   6  13   42.67    4.76   
   5   6 -13   28.21    4.01   
   5  -6  13   39.77    3.85   
   5  -6 -13   31.84    4.01   
  -5   6  13   37.51    4.01   
  -5   6 -13   -0.39    3.85   
   5   6  14    3.85    3.68   
   5   6 -14    3.79    3.73   
   5   6  15   28.34    4.01   
   5   6 -15    0.36    3.63   
   5   6  -2  211.75    6.01   
   5  -6   2   82.43    4.72   
   5  -6  -2   -8.42    3.90   
   5   6  -3   12.00    4.10   
   5  -6   3   16.28    4.06   
   5  -6  -3  184.21    5.70   
   5   6  -4   -0.27    3.98   
   5  -6   4    3.91    3.90   
   5  -6  -4    5.86    3.98   
   5   6  -5   78.30    4.92   
   5  -6   5   16.48    4.03   
   5  -6  -5   33.27    4.26   
   5   6  -6    1.32    3.90   
   5  -6   6  212.61    5.91   
   5  -6  -6  131.75    5.28   
   5   6  -7   19.08    4.03   
   5  -6   7   97.73    5.15   
   5  -6  -7   10.69    3.83   
   5   6  -8   18.35    4.01   
   5  -6   8    4.90    3.80   
   5  -6  -8  171.52    6.05   
  -5   6   8  187.63    6.05   
  -5   6  -8    9.02    3.80   
   5   6  -9    6.93    3.87   
   5  -6   9   84.25    4.60   
   5  -6  -9  110.52    4.90   
  -5   6   9   92.56    4.90   
  -5   6  -9   75.86    4.60   
   5  -7   0   14.59    3.93   
   5   7  -1   86.12    4.92   
   5  -7   1   10.68    4.09   
   5  -7  -1  137.98    5.34   
   5   7 -10   44.14    4.30   
   5  -7  10   31.84    3.94   
   5  -7 -10    4.69    3.71   
  -5   7  10    5.58    3.71   
  -5   7 -10   13.56    3.94   
   5   7 -11   14.50    3.82   
   5  -7  11  112.80    4.87   
   5  -7 -11   30.44    4.19   
  -5   7  11   40.21    4.19   
  -5   7 -11   91.11    4.87   
   5   7  12    0.40    3.71   
   5   7 -12   33.15    4.22   
   5  -7  12    6.94    3.66   
   5  -7 -12   17.79    3.74   
  -5   7  12   -5.92    3.74   
  -5   7 -12    0.42    3.66   
   5   7  13    6.23    3.86   
   5   7 -13   -0.41    3.67   
   5   7  14   65.58    4.16   
   5   7 -14    0.93    3.67   
   5   7  15    6.00    3.67   
   5   7  -2   19.47    4.10   
   5  -7   2   81.36    4.47   
   5  -7  -2    1.50    3.80   
   5   7  -3  188.98    6.08   
   5  -7   3   30.32    4.24   
   5  -7  -3    2.69    3.82   
   5   7  -4  135.73    5.10   
   5  -7   4   27.16    3.99   
   5  -7  -4   11.03    3.83   
   5   7  -5  111.35    4.86   
   5  -7   5    1.69    3.77   
   5  -7  -5    1.14    3.77   
  -5   7  -5    0.09    3.77   
   5   7  -6   22.28    4.14   
   5  -7   6   45.67    4.32   
   5  -7  -6   37.98    4.31   
  -5   7   6   63.08    4.31   
  -5   7  -6   40.81    4.32   
   5   7  -7  198.85    6.08   
   5  -7   7  181.78    5.77   
   5  -7  -7  174.19    5.38   
  -5   7   7  161.51    5.38   
  -5   7  -7  196.64    5.77   
   5   7  -8  188.02    5.82   
   5  -7   8   51.15    4.35   
   5  -7  -8   -0.93    3.72   
  -5   7   8    3.00    3.72   
  -5   7  -8   38.25    4.35   
   5   7  -9    8.60    4.01   
   5  -7   9    3.28    3.71   
   5  -7  -9   26.68    4.01   
  -5   7   9   18.50    4.01   
  -5   7  -9   -2.84    3.71   
   5  -8   0   15.64    3.90   
   5  -8   1   70.38    4.59   
   5  -8  -1    0.11    3.78   
  -5   8  -1   52.60    4.59   
   5   8 -10    7.52    3.96   
   5  -8  10   31.38    3.99   
   5  -8 -10    0.29    3.64   
  -5   8  10   -0.41    3.64   
  -5   8 -10   48.04    3.99   
   5   8 -11   -0.60    3.71   
   5  -8  11    5.80    3.65   
   5  -8 -11   16.58    3.72   
  -5   8  11    4.10    3.72   
  -5   8 -11    8.43    3.65   
   5   8  12   27.86    4.13   
   5   8 -12   38.07    4.04   
   5   8  13  166.30    5.87   
   5   8 -13    6.75    3.70   
   5   8  14   59.69    4.29   
   5   8 -14    3.31    3.65   
   5   8  -2   31.83    4.47   
   5  -8   2   48.06    4.35   
   5  -8  -2   15.02    4.26   
  -5   8   2   24.20    4.26   
  -5   8  -2   43.10    4.35   
   5   8  -3   49.91    4.50   
   5  -8   3  193.03    5.51   
   5  -8  -3    0.79    3.97   
  -5   8   3   18.12    3.97   
  -5   8  -3  166.60    5.51   
   5   8  -4    1.69    3.89   
   5  -8   4  399.96    7.06   
   5  -8  -4   -0.50    3.74   
  -5   8   4    0.53    3.74   
  -5   8  -4  416.24    7.06   
   5   8  -5  141.63    5.69   
   5  -8   5  118.96    4.65   
   5  -8  -5  120.87    5.14   
  -5   8   5   95.78    5.14   
  -5   8  -5   99.38    4.65   
   5   8  -6   82.54    5.28   
   5  -8   6    7.27    3.78   
   5  -8  -6   14.46    3.91   
  -5   8   6   11.06    3.91   
  -5   8  -6    7.99    3.78   
   5   8  -7  307.94    7.01   
   5  -8   7    0.45    3.70   
   5  -8  -7   17.32    3.88   
  -5   8   7    1.28    3.88   
  -5   8  -7    0.24    3.70   
   5   8  -8   88.32    4.73   
   5  -8   8   12.79    3.76   
   5  -8  -8   13.16    3.91   
  -5   8   8   15.39    3.91   
  -5   8  -8   -7.74    3.76   
   5   8  -9   14.17    3.94   
   5  -8   9    3.84    3.84   
   5  -8  -9   38.51    3.93   
  -5   8   9   16.45    3.93   
  -5   8  -9   22.34    3.84   
   5   9   0   28.91    4.11   
   5  -9   0   83.88    4.53   
  -5   9   0   59.16    4.53   
   5   9   1  181.77    5.95   
   5   9  -1   40.50    4.24   
   5  -9   1    1.70    3.73   
   5  -9  -1   13.56    3.82   
  -5   9   1    1.95    3.82   
  -5   9  -1    0.76    3.73   
   5   9 -10    0.17    3.87   
   5  -9  10    7.12    3.75   
   5  -9 -10   10.14    3.69   
  -5   9  10   -2.73    3.69   
  -5   9 -10   11.38    3.75   
   5   9  11    8.99    3.75   
   5   9 -11   32.59    4.26   
   5   9  12   21.51    3.81   
   5   9 -12   46.25    4.06   
   5   9  13    3.79    3.68   
   5   9 -13   13.79    3.81   
   5   9  14    1.07    3.63   
   5   9   2  158.71    5.36   
   5   9  -2   28.33    4.30   
   5  -9   2   39.64    4.52   
   5  -9  -2   19.13    4.11   
  -5   9   2   27.64    4.11   
  -5   9  -2   37.39    4.52   
   5   9  -3   18.41    4.15   
   5  -9   3    6.81    3.86   
   5  -9  -3    3.00    3.76   
  -5   9   3    4.34    3.76   
  -5   9  -3   10.04    3.86   
   5   9  -4   13.94    4.12   
   5  -9   4   14.78    3.82   
   5  -9  -4    8.32    3.78   
  -5   9   4    7.21    3.78   
  -5   9  -4   -1.40    3.82   
   5   9  -5  160.17    5.92   
   5  -9   5   10.43    3.79   
   5  -9  -5   -1.75    3.70   
  -5   9   5    0.21    3.70   
  -5   9  -5    4.51    3.79   
   5   9  -6  118.24    5.50   
   5  -9   6  218.93    5.52   
   5  -9  -6   29.58    4.08   
  -5   9   6   23.85    4.08   
  -5   9  -6  192.23    5.52   
   5   9  -7  349.01    7.07   
   5  -9   7   11.27    3.85   
   5  -9  -7   19.42    3.79   
  -5   9   7   17.00    3.79   
  -5   9  -7    6.28    3.85   
   5   9  -8  225.34    6.33   
   5  -9   8   35.80    4.54   
   5  -9  -8   13.49    3.85   
  -5   9   8   18.62    3.85   
  -5   9  -8   60.47    4.54   
   5   9  -9   -2.99    3.76   
   5  -9   9   -0.64    3.65   
   5  -9  -9   13.35    3.83   
  -5   9   9   24.99    3.83   
  -5   9  -9   -0.86    3.65   
   6   0   0   33.11    4.43   
   6   0   1   61.38    4.35   
   6   0  -1  290.34    6.14   
  -6   0   1  168.33    6.14   
   6   0  10   38.33    4.35   
   6   0 -10   -0.62    3.73   
   6   0  11  102.94    5.30   
   6   0 -11   -0.17    3.70   
  -6   0 -11  176.95    5.30   
   6   0  12   42.41    4.21   
   6   0 -12   36.33    4.16   
  -6   0 -12   29.67    4.21   
   6   0  13   -1.29    3.72   
   6   0 -13    6.55    3.67   
  -6   0 -13    3.66    3.72   
   6   0  14   23.49    3.90   
   6   0 -14   70.12    4.23   
  -6   0 -14    2.74    3.90   
   6   0   2  119.37    4.89   
   6   0  -2    1.14    4.18   
  -6   0   2   34.46    4.18   
   6   0   3   86.13    5.06   
   6   0  -3   38.66    4.62   
  -6   0   3   79.26    4.62   
   6   0   4   21.98    4.04   
   6   0  -4   -0.18    3.88   
  -6   0   4    0.37    3.88   
   6   0   5   29.23    5.21   
   6   0  -5   47.76    4.17   
  -6   0   5   25.44    4.17   
   6   0   6   -0.61    3.85   
   6   0  -6   22.51    4.25   
  -6   0   6   19.35    4.25   
   6   0   7   99.55    4.75   
   6   0  -7    4.03    3.82   
  -6   0   7   -2.07    3.82   
   6   0   8   73.60    4.67   
   6   0  -8    1.34    3.81   
  -6   0   8    9.12    3.81   
   6   0   9   50.42    4.35   
   6   0  -9   33.40    4.42   
   6   1   0    0.70    3.93   
   6  -1   0  575.41    8.94   
   6  10   0    8.32    3.87   
   6 -10   0   29.62    3.95   
  -6  10   0   24.17    3.95   
   6  10   1  142.78    5.62   
   6  10  -1    6.97    3.86   
   6 -10   1    2.56    3.69   
   6 -10  -1    4.70    3.66   
  -6  10   1    0.39    3.66   
  -6  10  -1   -0.03    3.69   
   6  10  10    2.88    3.87   
   6  10 -10    0.75    3.66   
   6  10  11   32.10    3.91   
   6  10 -11    1.93    3.78   
   6  10  12   18.59    3.80   
   6  10   2    0.45    3.79   
   6  10  -2  128.17    5.17   
   6 -10   2    1.78    3.69   
   6 -10  -2    0.80    3.69   
  -6  10   2    5.88    3.69   
  -6  10  -2   11.80    3.69   
   6  10   3    6.22    3.84   
   6  10  -3    1.01    3.78   
   6 -10   3   18.66    3.76   
   6 -10  -3    3.83    3.65   
  -6  10   3   -0.23    3.65   
  -6  10  -3   12.08    3.76   
   6  10   4   90.36    5.10   
   6  10  -4   30.56    4.23   
   6 -10   4    1.07    3.63   
   6 -10  -4    2.21    3.63   
  -6  10   4   -2.68    3.63   
  -6  10  -4    1.19    3.63   
   6  10   5   33.91    4.23   
   6  10  -5  151.36    5.92   
   6  10   6  183.87    5.74   
   6  10  -6   67.93    4.36   
   6  10   7   14.78    3.85   
   6  10  -7   34.00    4.02   
   6  10   8    0.42    3.82   
   6  10  -8   13.95    3.85   
   6  10   9    1.89    3.69   
   6  10  -9    0.33    3.69   
   6   1   1  379.04    7.32   
   6   1  -1    7.08    4.24   
   6  -1   1  140.87    5.68   
   6  -1  -1  193.89    5.51   
  -6   1   1  145.49    5.51   
  -6  -1   1    9.26    4.24   
   6   1  10    0.00    3.75   
   6   1 -10   25.24    3.90   
   6  -1  10   13.31    3.83   
   6  -1 -10    4.44    4.15   
   6  11   0   -2.04    3.77   
  -6   1  10   47.11    4.15   
  -6   1 -10    8.92    3.83   
   6   1  11   36.00    4.10   
   6   1 -11   67.67    4.18   
   6  -1  11   -2.35    3.71   
   6  -1 -11   -0.17    3.70   
   6  11   1   28.11    4.49   
   6  11  -1   38.39    4.16   
  -6   1 -11   -0.95    3.71   
   6  11  10   -1.54    3.68   
   6  11 -10   -1.89    3.64   
   6  11  11   25.58    3.88   
   6   1  12    3.42    3.75   
   6   1 -12   10.27    3.78   
   6  -1  12   74.69    4.68   
   6  -1 -12   15.10    3.74   
   6  11   2   12.11    3.90   
   6  11  -2   17.17    4.17   
  -6   1 -12   85.54    4.68   
   6   1  13    3.06    3.83   
   6   1 -13    4.22    3.74   
   6  -1  13    5.82    3.83   
   6  -1 -13   71.25    4.56   
   6  11   3   -0.30    3.75   
   6  11  -3   58.41    4.27   
  -6   1 -13   13.98    3.83   
  -6  -1 -13   13.18    3.83   
   6   1  14    5.71    3.69   
   6   1 -14   -0.20    3.63   
   6  -1  14   30.52    3.90   
   6  11   4    4.79    3.84   
   6  11  -4   12.22    3.83   
  -6   1 -14   33.74    3.90   
  -6  -1 -14    1.16    3.69   
   6  11   5  152.41    5.78   
   6  11  -5   27.60    4.21   
   6  11   6   -0.10    3.71   
   6  11  -6   16.97    3.97   
   6  11   7    6.69    3.88   
   6  11  -7   25.88    4.20   
   6  11   8   12.34    3.77   
   6  11  -8   26.23    4.04   
   6  11   9   -1.85    3.69   
   6  11  -9   30.83    3.94   
   6   1   2   46.38    4.53   
   6   1  -2  514.02    8.07   
   6  -1   2    0.04    3.89   
   6  -1  -2  298.90    6.96   
  -6   1   2  328.92    6.96   
  -6  -1   2  535.18    8.07   
   6  12   0  127.83    5.05   
   6  12   1    8.14    3.75   
   6  12  -1   54.14    4.34   
   6  12  10    8.62    3.79   
   6  12   2   10.50    3.84   
   6  12  -2    6.35    3.75   
   6  12   3    2.60    3.85   
   6  12  -3   23.04    3.91   
   6  12   4    0.88    3.71   
   6  12  -4    8.84    3.82   
   6  12   5   79.46    4.67   
   6  12  -5    9.30    3.74   
   6  12   6   46.66    4.26   
   6  12  -6   37.17    4.02   
   6  12   7   11.74    3.74   
   6  12  -7    5.14    3.71   
   6  12   8   29.16    4.38   
   6  12  -8    1.28    3.66   
   6  12   9    0.33    3.66   
   6  12  -9    1.66    3.76   
   6   1   3    4.85    3.97   
   6   1  -3   14.62    4.21   
   6  -1   3  242.23    5.78   
   6  -1  -3   13.72    4.12   
  -6   1   3   10.63    4.12   
  -6  -1   3   23.04    4.21   
   6  13   0    0.95    3.73   
   6  13   1    3.02    3.71   
   6  13  -1   29.14    4.13   
   6  13   2   10.48    3.79   
   6  13  -2    1.12    3.72   
   6  13   3    3.19    3.71   
   6  13  -3    7.91    3.76   
   6  13   4    2.61    3.69   
   6  13  -4    0.60    3.68   
   6  13   5  -17.22    3.94   
   6  13  -5    1.91    3.69   
   6  13   6   21.61    3.84   
   6  13  -6    1.26    3.83   
   6  13   7    0.75    3.65   
   6  13  -7    6.61    3.70   
   6  13   8   19.85    4.04   
   6  13  -8    0.62    3.63   
   6  13   9    5.62    3.67   
   6   1   4   19.22    4.14   
   6   1  -4  206.10    6.15   
   6  -1   4  106.42    4.80   
   6  -1  -4    2.44    3.89   
  -6   1   4    5.07    3.89   
  -6  -1   4  230.47    6.15   
   6  14   0  133.67    4.92   
   6  14   1    3.83    3.69   
   6  14  -1   46.37    4.05   
   6  14   2   22.86    4.09   
   6  14  -2   27.48    3.77   
   6  14   3  128.03    4.76   
   6  14  -3   43.64    4.05   
   6  14   4   11.09    3.88   
   6  14  -4    8.99    3.74   
   6  14   5   -2.12    3.69   
   6  14  -5    0.32    3.66   
   6  14   6   59.91    4.21   
   6  14  -6    1.60    3.65   
   6  14   7    0.93    3.68   
   6   1   5   43.84    4.61   
   6   1  -5  369.56    6.91   
   6  -1   5   38.77    4.34   
   6  -1  -5   72.24    4.90   
  -6   1   5  115.90    4.90   
  -6  -1   5  355.02    6.91   
   6  15   0    3.60    3.74   
   6  15   1   30.17    3.97   
   6  15  -1   44.36    4.05   
   6  15   2   13.57    3.71   
   6  15  -2    7.83    3.71   
   6  15   3    0.36    3.65   
   6  15  -3    5.27    3.64   
   6  15   4  127.22    5.01   
   6  15  -4    4.36    3.63   
   6   1   6    0.65    3.90   
   6   1  -6    1.21    3.86   
   6  -1   6   85.72    5.55   
   6  -1  -6   42.49    4.55   
  -6   1   6   61.90    4.55   
  -6  -1   6    0.33    3.86   
   6   1  -7   52.14    4.23   
   6  -1   7   46.17    4.23   
   6  -1  -7    4.66    3.83   
  -6  -1   7   23.77    4.23   
   6   1   8   -0.70    3.80   
   6   1  -8  212.37    5.89   
   6  -1   8   77.28    4.85   
   6  -1  -8   -2.43    3.78   
   6   1   9   88.41    4.61   
   6   1  -9   -2.31    3.78   
   6  -1   9    7.46    3.82   
   6  -1  -9  134.05    4.88   
  -6   1  -9    0.73    3.82   
   6   2   0   63.85    5.07   
   6  -2   0  142.74    5.67   
   6   2   1   -5.10    4.07   
   6   2  -1  221.95    5.77   
   6  -2   1    6.49    3.99   
   6  -2  -1   25.03    4.39   
  -6  -2   1  196.79    5.77   
   6   2  10   13.32    3.82   
   6   2 -10    4.38    3.77   
   6  -2  10  178.54    5.92   
   6  -2 -10    6.34    3.98   
  -6   2  10   29.64    3.98   
  -6   2 -10  220.58    5.92   
   6   2  11   12.25    3.87   
   6   2 -11  130.92    5.04   
   6  -2  11   67.30    4.34   
   6  -2 -11  118.65    4.73   
  -6   2  11   98.36    4.73   
  -6   2 -11   55.53    4.34   
   6   2  12   17.41    3.85   
   6   2 -12   34.48    4.03   
   6  -2  12   23.46    3.88   
   6  -2 -12   19.77    3.82   
  -6   2 -12    6.21    3.88   
   6   2  13    0.46    3.67   
   6   2 -13    6.33    3.75   
   6  -2  13   52.45    4.41   
   6  -2 -13    6.25    3.72   
  -6   2 -13   78.56    4.41   
   6   2  14    0.03    3.64   
   6   2 -14   79.33    4.17   
   6   2   2  183.32    5.94   
   6   2  -2   34.14    4.40   
   6  -2   2   96.73    5.06   
   6  -2  -2   70.28    5.08   
  -6  -2   2   44.26    4.40   
   6   2   3   84.14    5.15   
   6   2  -3   60.59    4.34   
   6  -2   3   -0.78    3.86   
   6  -2  -3  151.35    5.66   
  -6  -2   3   47.41    4.34   
   6   2   4    6.44    3.97   
   6   2  -4   54.35    4.43   
   6  -2   4   -5.00    3.87   
   6  -2  -4  163.72    5.69   
  -6  -2   4   61.18    4.43   
   6   2   5    7.95    3.98   
   6   2  -5   10.92    4.01   
   6  -2   5    7.80    3.92   
   6  -2  -5    0.76    3.85   
  -6  -2   5   -0.39    4.01   
   6   2   6   22.11    4.23   
   6   2  -6   34.06    4.24   
   6  -2   6    2.28    3.83   
   6  -2  -6   16.16    4.15   
   6   2  -7   10.79    4.05   
   6  -2   7   39.66    4.11   
   6  -2  -7   10.99    4.02   
   6   2   8   -0.83    3.81   
   6   2  -8    0.05    3.80   
   6  -2   8    4.68    3.80   
   6  -2  -8   18.52    4.11   
  -6   2  -8    0.37    3.80   
   6   2   9   -1.47    3.84   
   6   2  -9   -0.10    3.77   
   6  -2   9   19.18    4.30   
   6  -2  -9   23.54    4.02   
  -6   2  -9   54.18    4.30   
   6   3   0   16.66    4.09   
   6  -3   0  667.51    8.73   
   6   3   1   93.87    4.67   
   6   3  -1   90.00    4.98   
   6  -3   1  296.41    6.60   
   6  -3  -1  262.54    6.72   
   6   3  10    9.09    3.96   
   6   3 -10   -0.03    3.75   
   6  -3  10  236.57    5.63   
   6  -3 -10   -2.31    3.77   
  -6   3  10    5.79    3.77   
  -6   3 -10  214.14    5.63   
   6   3  11    9.42    3.92   
   6   3 -11    5.14    3.80   
   6  -3  11   13.78    4.02   
   6  -3 -11    2.32    3.76   
  -6   3  11    8.38    3.76   
  -6   3 -11   20.57    4.02   
   6   3  12   84.46    4.50   
   6   3 -12    0.93    3.70   
   6  -3  12   -2.55    3.70   
   6  -3 -12   33.73    4.06   
  -6   3  12   11.80    4.06   
  -6   3 -12   -0.03    3.70   
   6   3  13    5.70    3.74   
   6   3 -13    0.15    3.66   
   6  -3  13   97.21    4.52   
   6  -3 -13   28.25    4.06   
  -6   3 -13   60.81    4.52   
   6   3  14    0.08    3.64   
   6   3 -14    9.17    3.70   
   6   3   2    0.89    3.93   
   6   3  -2    0.96    3.93   
   6  -3   2   68.23    4.53   
   6  -3  -2   49.93    4.39   
   6   3   3   27.95    4.24   
   6   3  -3  131.97    5.13   
   6  -3   3   99.01    5.05   
   6  -3  -3   35.98    4.05   
   6   3   4    9.45    3.99   
   6   3  -4   40.76    4.32   
   6  -3   4   24.64    4.20   
   6  -3  -4    4.64    3.90   
   6   3   5   38.70    4.07   
   6   3  -5   33.57    4.18   
   6  -3   5   35.04    4.21   
   6  -3  -5    5.33    3.84   
   6   3   6  148.10    5.17   
   6   3  -6    3.18    3.88   
   6  -3   6  210.72    6.22   
   6  -3  -6   11.81    3.92   
   6   3  -7  134.61    5.48   
   6  -3   7   -0.05    3.77   
   6  -3  -7    1.45    3.77   
   6   3   8   27.91    4.04   
   6   3  -8   47.38    4.32   
   6  -3   8  111.79    4.62   
   6  -3  -8    3.09    3.74   
  -6   3  -8   73.11    4.62   
   6   3   9   34.77    4.15   
   6   3  -9   48.37    4.18   
   6  -3   9   36.64    4.34   
   6  -3  -9   16.88    3.84   
  -6   3   9   13.60    3.84   
  -6   3  -9   25.31    4.34   
   6   4   0  334.91    7.12   
   6  -4   0   14.20    4.13   
   6   4   1  106.38    5.04   
   6   4  -1  345.71    6.91   
   6  -4   1   54.72    4.44   
   6  -4  -1   16.10    3.98   
   6   4  10   67.35    4.57   
   6   4 -10   42.22    3.99   
   6  -4  10    0.43    3.68   
   6  -4 -10   31.13    4.12   
  -6   4  10   25.46    4.12   
  -6   4 -10   -0.10    3.68   
   6   4  11  110.72    5.29   
   6   4 -11   41.79    4.32   
   6  -4  11   11.32    3.73   
   6  -4 -11   38.71    4.17   
  -6   4  11   40.51    4.17   
  -6   4 -11    2.10    3.73   
   6   4  12   16.49    3.83   
   6   4 -12    0.07    3.68   
   6  -4  12   34.23    3.90   
   6  -4 -12   -0.09    3.63   
  -6   4  12    0.77    3.63   
  -6   4 -12   22.28    3.90   
   6   4  13    7.58    3.73   
   6   4 -13   12.55    3.81   
   6   4  14   55.71    4.15   
   6   4 -14   11.83    4.12   
   6   4   2  453.33    7.56   
   6   4  -2   48.26    4.74   
   6  -4   2   -5.58    3.95   
   6  -4  -2   73.71    4.44   
   6   4   3  100.46    4.97   
   6   4  -3  227.94    6.35   
   6  -4   3  200.91    5.61   
   6  -4  -3   54.78    4.52   
   6   4   4   13.63    4.12   
   6   4  -4   14.33    4.00   
   6  -4   4   -1.27    3.83   
   6  -4  -4   96.78    5.15   
   6   4   5   -0.23    3.89   
   6   4  -5    0.44    3.87   
   6  -4   5   40.24    4.19   
   6  -4  -5  327.84    6.35   
   6   4  -6   23.84    4.19   
   6  -4   6   -0.41    3.77   
   6  -4  -6    8.49    3.80   
  -6   4  -6    0.19    3.77   
   6   4  -7   -2.22    3.82   
   6  -4   7    2.21    3.78   
   6  -4  -7    1.46    3.75   
  -6   4  -7   -1.62    3.78   
   6   4   8   14.29    4.08   
   6   4  -8    5.44    3.83   
   6  -4   8    7.12    3.89   
   6  -4  -8    1.27    3.73   
  -6   4   8    0.61    3.73   
  -6   4  -8    9.99    3.89   
   6   4   9    3.79    3.82   
   6   4  -9   62.72    5.07   
   6  -4   9   -1.39    3.71   
   6  -4  -9   -4.38    3.75   
  -6   4   9   -0.23    3.75   
  -6   4  -9    0.27    3.71   
   6   5   0   19.87    4.30   
   6  -5   0   40.52    4.22   
   6   5   1  486.39    8.02   
   6   5  -1  507.62    7.39   
   6  -5   1    3.87    3.84   
   6  -5  -1   -1.20    3.90   
   6   5  10  137.14    5.00   
   6   5 -10    1.06    3.74   
   6  -5  10   -4.09    3.72   
   6  -5 -10    2.32    3.66   
  -6   5  10    0.22    3.66   
  -6   5 -10    7.00    3.72   
   6   5  11  290.01    6.31   
   6   5 -11   24.54    3.97   
   6  -5  11   11.67    3.77   
   6  -5 -11   80.57    4.46   
  -6   5  11   66.84    4.46   
  -6   5 -11    9.03    3.77   
   6   5  12  125.61    5.15   
   6   5 -12    7.57    3.86   
   6  -5  12   27.67    3.82   
  -6   5 -12   10.72    3.82   
   6   5  13    8.15    3.75   
   6   5 -13   28.88    4.07   
   6   5  14   -2.72    3.66   
   6   5 -14   -1.39    3.63   
   6   5   2  289.07    6.47   
   6   5  -2   74.51    5.39   
   6  -5   2  115.05    4.87   
   6  -5  -2   45.56    4.46   
   6   5   3   92.44    5.03   
   6   5  -3  142.44    5.68   
   6  -5   3    3.05    3.90   
   6  -5  -3  137.39    5.34   
   6   5   4   27.13    4.44   
   6   5  -4   -2.81    3.95   
   6  -5   4    1.10    3.77   
   6  -5  -4   -5.24    3.83   
   6   5  -5  175.24    5.75   
   6  -5   5   40.56    4.40   
   6  -5  -5    6.26    3.79   
  -6   5  -5   50.67    4.40   
   6   5  -6    3.19    3.87   
   6  -5   6    6.99    3.88   
   6  -5  -6   12.19    3.84   
  -6   5  -6   30.84    3.88   
   6   5  -7   33.86    4.17   
   6  -5   7    3.10    3.77   
   6  -5  -7   -0.13    3.72   
  -6   5   7   -0.05    3.72   
  -6   5  -7   11.23    3.77   
   6   5   8  115.93    4.76   
   6   5  -8   -0.31    3.78   
   6  -5   8   27.04    3.89   
   6  -5  -8   26.30    3.98   
  -6   5   8   18.30    3.98   
  -6   5  -8    4.42    3.89   
   6   5   9   47.35    4.36   
   6   5  -9   55.17    4.21   
   6  -5   9   19.51    3.98   
   6  -5  -9    9.00    3.75   
  -6   5   9   -0.15    3.75   
  -6   5  -9   30.92    3.98   
   6   6   0   68.73    4.62   
   6  -6   0   26.86    4.19   
   6   6   1  337.79    7.12   
   6   6  -1  110.66    5.18   
   6  -6   1  127.40    5.09   
   6  -6  -1    4.03    3.85   
   6   6  10   -0.76    3.73   
   6   6 -10   16.94    4.05   
   6  -6  10    9.64    3.80   
   6  -6 -10    7.62    3.68   
  -6   6  10    5.90    3.68   
  -6   6 -10    6.75    3.80   
   6   6  11   48.79    4.35   
   6   6 -11   70.90    4.92   
   6  -6  11   21.46    3.85   
   6  -6 -11    2.67    3.72   
  -6   6  11    4.72    3.72   
  -6   6 -11   10.51    3.85   
   6   6  12   91.53    4.52   
   6   6 -12   15.68    3.77   
   6   6  13    0.15    3.65   
   6   6 -13    1.35    3.64   
   6   6  14    3.63    3.73   
   6   6   2  108.62    4.80   
   6   6  -2   19.51    4.21   
   6  -6   2    6.20    3.82   
   6  -6  -2  301.29    6.74   
  -6   6  -2    4.96    3.82   
   6   6   3   10.37    4.06   
   6   6  -3  147.64    5.47   
   6  -6   3   26.35    4.03   
   6  -6  -3  451.31    7.49   
  -6   6  -3   17.07    4.03   
   6   6   4   56.47    4.60   
   6   6  -4   40.95    4.30   
   6  -6   4   79.70    4.71   
   6  -6  -4  149.22    5.18   
  -6   6   4  136.43    5.18   
  -6   6  -4   62.23    4.71   
   6   6  -5  317.87    6.95   
   6  -6   5   49.80    4.22   
   6  -6  -5  146.87    5.68   
  -6   6   5  162.11    5.68   
  -6   6  -5   34.14    4.22   
   6   6  -6   18.20    3.95   
   6  -6   6    7.54    3.82   
   6  -6  -6   27.49    3.95   
  -6   6   6   24.91    3.95   
  -6   6  -6   -0.15    3.82   
   6   6   7    9.48    3.91   
   6   6  -7   -0.23    3.79   
   6  -6   7   23.27    3.96   
   6  -6  -7   21.85    4.11   
  -6   6   7   32.04    4.11   
  -6   6  -7   -5.35    3.96   
   6   6   8   40.37    4.45   
   6   6  -8   42.68    4.15   
   6  -6   8   -2.20    3.69   
   6  -6  -8   34.73    3.94   
  -6   6   8   27.63    3.94   
  -6   6  -8    2.82    3.69   
   6   6   9  269.84    6.23   
   6   6  -9   49.13    4.13   
   6  -6   9   10.69    3.77   
   6  -6  -9   -0.93    3.68   
  -6   6   9   -5.63    3.68   
  -6   6  -9    8.70    3.77   
   6   7   0  480.90    7.39   
   6  -7   0   16.86    4.04   
  -6   7   0   36.37    4.04   
   6   7   1   55.70    4.35   
   6   7  -1  461.40    8.12   
   6  -7   1    1.24    3.78   
   6  -7  -1   35.08    4.30   
  -6   7   1   27.30    4.30   
  -6   7  -1    5.59    3.78   
   6   7  10   13.71    3.99   
   6   7 -10    7.24    3.99   
   6  -7  10   -0.21    3.63   
   6  -7 -10    4.13    3.66   
  -6   7  10    0.70    3.66   
  -6   7 -10   -2.03    3.63   
   6   7  11    9.51    3.82   
   6   7 -11   -7.73    3.84   
   6   7  12   65.22    4.48   
   6   7 -12   16.79    3.77   
   6   7  13   19.37    3.95   
   6   7 -13    0.26    3.76   
   6   7   2  416.23    7.62   
   6   7  -2    0.46    3.86   
   6  -7   2   17.77    3.92   
   6  -7  -2   37.11    4.16   
  -6   7   2   28.55    4.16   
  -6   7  -2   11.88    3.92   
   6   7   3  160.52    5.36   
   6   7  -3  160.16    5.48   
   6  -7   3    1.79    3.79   
   6  -7  -3    5.40    3.83   
  -6   7   3    9.67    3.83   
  -6   7  -3    6.21    3.79   
   6   7  -4    6.29    4.33   
   6  -7   4  148.85    5.16   
   6  -7  -4   12.43    3.88   
  -6   7   4   20.45    3.88   
  -6   7  -4   92.02    5.16   
   6   7  -5   22.57    4.07   
   6  -7   5   30.24    4.16   
   6  -7  -5    3.21    3.74   
  -6   7   5    5.29    3.74   
  -6   7  -5   47.49    4.16   
   6   7  -6  165.89    5.53   
   6  -7   6   48.54    4.06   
   6  -7  -6  185.48    5.80   
  -6   7   6  172.07    5.80   
  -6   7  -6   21.88    4.06   
   6   7   7   10.34    3.97   
   6   7  -7   94.17    5.08   
   6  -7   7   38.09    4.10   
   6  -7  -7   21.31    3.88   
  -6   7   7   23.10    3.88   
  -6   7  -7   46.25    4.10   
   6   7   8   39.71    4.21   
   6   7  -8   99.27    4.75   
   6  -7   8   46.40    4.40   
   6  -7  -8   16.28    3.79   
  -6   7   8   11.48    3.79   
  -6   7  -8   37.81    4.40   
   6   7   9  178.62    5.62   
   6   7  -9   12.64    3.91   
   6  -7   9   -0.84    3.65   
   6  -7  -9   -2.96    3.68   
  -6   7   9    3.86    3.68   
  -6   7  -9    2.12    3.65   
   6   8   0    1.97    3.87   
   6  -8   0   66.72    4.46   
  -6   8   0   47.25    4.46   
   6   8   1   65.26    4.77   
   6   8  -1  163.10    5.44   
   6  -8   1   14.89    3.83   
   6  -8  -1   -0.89    3.70   
  -6   8   1    0.28    3.70   
  -6   8  -1   14.34    3.83   
   6   8  10   10.90    3.78   
   6   8 -10   -9.24    4.04   
   6   8  11   -2.46    3.69   
   6   8 -11    0.07    3.68   
   6   8  12   60.41    4.34   
   6   8 -12    0.70    3.71   
   6   8  13    0.34    3.67   
   6   8 -13   63.41    4.35   
   6   8  -2   -2.40    3.87   
   6  -8   2   34.47    4.01   
   6  -8  -2    9.06    3.75   
  -6   8   2    9.82    3.75   
  -6   8  -2   25.65    4.01   
   6   8  -3    5.89    3.88   
   6  -8   3    0.97    3.71   
   6  -8  -3   50.74    4.33   
  -6   8   3   54.98    4.33   
  -6   8  -3    0.33    3.71   
   6   8  -4   84.91    4.69   
   6  -8   4   27.21    3.93   
   6  -8  -4    0.53    3.68   
  -6   8   4    1.93    3.68   
  -6   8  -4   23.22    3.93   
   6   8   5   40.73    4.03   
   6   8  -5   28.63    4.11   
   6  -8   5    5.24    3.69   
   6  -8  -5    0.02    3.77   
  -6   8   5   16.84    3.77   
  -6   8  -5   -1.71    3.69   
   6   8   6   59.26    4.58   
   6   8  -6   17.00    4.17   
   6  -8   6  126.41    4.80   
   6  -8  -6   78.93    4.39   
  -6   8   6   71.69    4.39   
  -6   8  -6  100.51    4.80   
   6   8   7   19.59    4.05   
   6   8  -7   -0.22    3.76   
   6  -8   7   59.69    4.09   
   6  -8  -7   35.60    3.92   
  -6   8   7    7.39    3.92   
  -6   8  -7   24.05    4.09   
   6   8   8  140.29    5.18   
   6   8  -8   34.48    4.15   
   6  -8   8   16.93    3.73   
   6  -8  -8   15.44    3.93   
  -6   8   8    4.95    3.93   
  -6   8  -8    5.40    3.73   
   6   8   9   18.14    4.05   
   6   8  -9   21.25    3.85   
   6  -8   9  114.17    4.97   
  -6   8  -9  136.31    4.97   
   6   9   0   15.27    3.95   
   6  -9   0    1.12    3.70   
  -6   9   0    3.15    3.70   
   6   9  -1    3.98    3.96   
   6  -9   1   80.82    4.59   
   6  -9  -1   14.20    3.79   
  -6   9   1    2.96    3.79   
  -6   9  -1   64.22    4.59   
   6   9  10   -1.16    3.69   
   6   9 -10   -0.50    3.68   
   6   9  11   22.33    3.89   
   6   9 -11    1.07    3.68   
   6   9  12   17.37    3.79   
   6   9 -12   19.27    3.78   
   6   9  -2   -1.06    3.81   
   6  -9   2   76.47    4.64   
   6  -9  -2   51.42    4.12   
  -6   9   2   38.69    4.12   
  -6   9  -2   70.84    4.64   
   6   9   3  101.20    5.02   
   6   9  -3  101.94    5.11   
   6  -9   3   20.88    3.82   
   6  -9  -3    9.07    3.75   
  -6   9   3    0.08    3.75   
  -6   9  -3   14.76    3.82   
   6   9   4  120.13    5.40   
   6   9  -4   76.79    4.63   
   6  -9   4    2.96    3.69   
   6  -9  -4   50.25    4.09   
  -6   9   4   47.98    4.09   
  -6   9  -4    7.57    3.69   
   6   9   5   -1.24    3.79   
   6   9  -5    5.28    3.86   
   6  -9   5    0.00    3.64   
   6  -9  -5   67.83    4.77   
  -6   9   5  120.89    4.77   
  -6   9  -5   -0.11    3.64   
   6   9   6  201.11    5.95   
   6   9  -6   59.75    4.35   
   6  -9   6    7.88    3.78   
   6  -9  -6    9.29    3.72   
  -6   9   6   -5.45    3.72   
  -6   9  -6   17.95    3.78   
   6   9   7   66.22    4.72   
   6   9  -7    0.85    3.93   
   6  -9   7   74.94    4.34   
   6  -9  -7   -1.82    3.63   
  -6   9   7   -3.71    3.63   
  -6   9  -7   51.36    4.34   
   6   9   8    7.96    3.88   
   6   9  -8   46.56    4.41   
   6   9   9   25.96    3.96   
   6   9  -9  155.08    5.15   
   7   0   0   53.52    4.59   
   7   0   1   41.55    4.29   
   7   0  -1   95.68    5.19   
   7   0  10   29.91    4.01   
   7   0 -10   27.38    4.00   
   7   0  11  114.95    4.76   
   7   0 -11   -0.26    3.68   
  -7   0 -11   87.78    4.76   
   7   0  12   47.58    4.13   
   7   0 -12   47.42    4.03   
  -7   0 -12   29.64    4.13   
   7   0   2   14.07    4.16   
   7   0  -2   10.84    4.09   
  -7   0   2    9.98    4.09   
   7   0   3   14.49    4.01   
   7   0  -3    6.47    3.81   
  -7   0   3   -0.74    3.81   
   7   0   4    3.39    3.81   
   7   0  -4  157.05    5.37   
  -7   0   4  141.57    5.37   
   7   0   5    3.95    3.83   
   7   0  -5   13.58    4.02   
  -7   0   5    3.79    4.02   
   7   0   6   17.40    4.03   
   7   0  -6    7.61    4.00   
  -7   0   6    4.11    4.00   
   7   0   7    3.69    3.78   
   7   0  -7   13.78    3.83   
  -7   0   7   14.80    3.83   
   7   0   8   85.92    4.69   
   7   0  -8    4.03    3.74   
  -7   0   8    7.30    3.74   
   7   0   9    0.17    3.70   
   7   0  -9   13.74    3.91   
   7   1   0   83.58    4.69   
   7  -1   0    0.41    3.80   
   7  10   0    7.45    3.84   
   7  10   1    2.44    3.78   
   7  10  -1    4.40    3.74   
   7  10  10    8.50    3.69   
   7  10   2    4.28    3.80   
   7  10  -2    5.79    3.81   
   7  10   3    0.51    3.73   
   7  10  -3   35.69    4.03   
   7  10   4   41.01    3.95   
   7  10  -4  100.46    4.57   
   7  10   5    0.07    3.70   
   7  10  -5   76.42    4.47   
   7  10   6   83.32    4.62   
   7  10  -6   10.60    3.98   
   7  10   7   48.47    4.02   
   7  10  -7  163.20    5.33   
   7  10   8   -2.81    3.74   
   7  10  -8   -0.82    3.66   
   7  10   9   -1.31    3.75   
   7  10  -9    6.49    3.71   
   7   1   1   -0.28    3.83   
   7   1  -1   37.74    4.39   
   7  -1   1   78.43    4.72   
   7  -1  -1   66.66    4.42   
  -7  -1   1   47.21    4.39   
   7   1  10   -5.69    3.80   
   7   1 -10    9.59    3.73   
   7  -1  10   73.73    4.48   
   7  -1 -10   23.61    4.10   
   7  11   0   -0.01    3.71   
  -7   1  10   46.81    4.10   
  -7   1 -10   77.26    4.48   
   7   1  11   -4.95    3.68   
   7   1 -11    1.92    3.79   
   7  -1  11   40.62    4.10   
   7  -1 -11   44.03    4.25   
   7  11   1   41.14    4.18   
   7  11  -1   -6.04    3.77   
  -7   1 -11   44.90    4.10   
   7   1  12    0.70    3.65   
   7   1 -12  -10.12    3.67   
   7  -1  12    3.19    3.67   
   7  11   2   47.65    4.37   
   7  11  -2    1.78    3.75   
  -7   1 -12   -1.08    3.67   
   7  11   3   -0.50    3.70   
   7  11  -3   11.37    3.89   
   7  11   4    6.26    3.92   
   7  11  -4   20.11    3.73   
   7  11   5   -1.28    3.69   
   7  11  -5   -0.42    3.69   
   7  11   6   -0.22    3.67   
   7  11  -6   22.61    3.96   
   7  11   7   -2.06    3.68   
   7  11  -7   -0.60    3.67   
   7  11   8   46.53    4.02   
   7  11  -8    3.12    3.70   
   7  11   9   -6.48    3.69   
   7  11  -9    7.31    3.65   
   7   1   2   11.09    3.99   
   7   1  -2    6.66    3.96   
   7  -1   2    9.77    3.90   
   7  -1  -2   -0.26    3.86   
  -7   1   2    0.74    3.86   
  -7  -1   2    9.66    3.96   
   7  12   0   27.80    4.07   
   7  12   1   35.71    4.46   
   7  12  -1    2.44    3.69   
   7  12   2   -1.47    3.68   
   7  12  -2   37.82    4.08   
   7  12   3   -2.97    3.73   
   7  12  -3   20.69    3.81   
   7  12   4   48.60    4.41   
   7  12  -4   -0.03    3.66   
   7  12   5    1.03    3.67   
   7  12  -5   -0.58    3.68   
   7  12   6    5.32    3.69   
   7  12  -6    4.52    3.72   
   7  12   7    0.17    3.63   
   7  12  -7    0.00    3.63   
   7  12   8   -2.21    3.63   
   7   1   3   -3.72    3.86   
   7   1  -3  118.04    5.11   
   7  -1   3   77.78    4.50   
   7  -1  -3   -0.94    3.80   
  -7   1   3   -0.83    3.80   
  -7  -1   3  138.29    5.11   
   7  13   0    0.11    3.66   
   7  13   1    8.71    3.75   
   7  13  -1    0.32    3.65   
   7  13   2   18.23    4.07   
   7  13  -2    8.57    3.79   
   7  13   3    6.71    3.70   
   7  13  -3    6.84    3.81   
   7  13   4   15.52    3.93   
   7  13  -4    9.86    3.77   
   7  13   5    2.94    3.69   
   7  13  -5   -0.41    3.65   
   7  13   6    3.26    3.71   
   7  13  -6    6.63    3.73   
   7   1   4   16.22    4.10   
   7   1  -4    2.16    3.84   
   7  -1   4    2.76    3.83   
   7  -1  -4   14.60    3.92   
  -7   1   4   11.03    3.92   
  -7  -1   4    3.32    3.84   
   7  14   0    4.21    3.95   
   7  14   1    7.23    3.68   
   7  14  -1   30.11    3.89   
   7  14   2    5.96    3.68   
   7  14  -2   -1.45    3.65   
   7  14   3    6.44    3.71   
   7  14  -3   33.58    3.90   
   7  14   4    1.97    3.64   
   7   1   5   55.77    4.42   
   7   1  -5    4.48    3.94   
   7  -1   5    1.21    3.79   
   7  -1  -5   -0.01    4.11   
  -7   1   5   30.71    4.11   
  -7  -1   5    6.38    3.94   
   7   1   6   19.13    4.01   
   7   1  -6   17.04    4.12   
   7  -1   6   62.56    4.27   
   7  -1  -6    0.42    3.74   
  -7   1   6    0.56    3.74   
  -7  -1   6   33.01    4.12   
   7   1   7   49.73    4.25   
   7   1  -7   -0.44    3.82   
   7  -1   7   68.90    4.31   
   7  -1  -7   20.79    3.90   
  -7  -1   7   10.27    3.82   
   7   1   8   -1.53    3.75   
   7   1  -8   -1.52    3.83   
   7  -1   8   69.08    4.85   
   7  -1  -8    2.98    3.73   
  -7   1  -8  108.92    4.85   
   7   1   9    5.82    3.77   
   7   1  -9    8.91    3.92   
   7  -1   9   89.32    4.68   
   7  -1  -9    2.51    3.69   
  -7   1   9   -0.24    3.69   
  -7   1  -9   68.39    4.68   
   7   2   0   13.97    3.91   
   7  -2   0   -0.17    3.79   
   7   2   1   78.35    4.80   
   7   2  -1   10.12    3.93   
   7  -2   1   48.37    4.30   
   7  -2  -1   79.87    4.71   
   7   2  10   83.41    5.02   
   7   2 -10   20.97    4.15   
   7  -2  10   32.16    4.15   
   7  -2 -10   52.56    4.26   
  -7   2  10   44.75    4.26   
  -7   2 -10   35.51    4.15   
   7   2  11   24.09    3.86   
   7   2 -11   10.78    3.78   
   7  -2  11    2.92    3.73   
   7  -2 -11   17.81    3.97   
  -7   2  11   29.78    3.97   
  -7   2 -11   16.74    3.73   
   7   2  12    8.56    3.77   
   7   2 -12   22.02    3.99   
   7   2  13   28.30    4.28   
   7   2   2    8.90    3.99   
   7   2  -2  171.01    5.31   
   7  -2   2   47.84    4.37   
   7  -2  -2  144.10    5.22   
  -7  -2   2  149.86    5.31   
   7   2   3    0.05    3.93   
   7   2  -3  126.95    4.95   
   7  -2   3   13.07    3.84   
   7  -2  -3    2.46    3.83   
  -7  -2   3  102.29    4.95   
   7   2   4  135.58    5.63   
   7   2  -4    9.85    4.12   
   7  -2   4    4.68    3.98   
   7  -2  -4  111.87    5.22   
  -7  -2   4   27.34    4.12   
   7   2   5   79.14    4.95   
   7   2  -5   -2.29    3.79   
   7  -2   5   62.20    4.54   
   7  -2  -5   72.17    4.54   
  -7   2  -5   77.28    4.54   
  -7  -2   5   -1.67    3.79   
   7   2   6   -0.23    3.80   
   7   2  -6  170.54    6.02   
   7  -2   6   45.05    4.21   
   7  -2  -6   -0.53    3.72   
  -7   2  -6   29.52    4.21   
   7   2   7   53.76    4.67   
   7   2  -7    0.64    3.80   
   7  -2   7   46.93    4.09   
   7  -2  -7   40.91    4.10   
  -7   2  -7   41.06    4.09   
   7   2   8  129.41    5.20   
   7   2  -8   -1.92    3.75   
   7  -2   8   -0.89    3.71   
   7  -2  -8   33.74    4.25   
  -7   2   8   55.50    4.25   
  -7   2  -8   -0.68    3.71   
   7   2   9   23.64    3.95   
   7   2  -9  114.57    5.05   
   7  -2   9    2.43    3.70   
   7  -2  -9    0.21    3.69   
  -7   2   9    4.03    3.69   
  -7   2  -9    0.23    3.70   
   7   3   0    0.26    3.87   
   7  -3   0    1.99    3.76   
   7   3   1   53.89    4.39   
   7   3  -1  151.98    5.08   
   7  -3   1   -0.51    3.76   
   7  -3  -1   22.88    3.90   
   7   3  10   37.63    4.02   
   7   3 -10   10.41    3.79   
   7  -3  10   54.68    4.02   
   7  -3 -10    1.19    3.66   
  -7   3  10    3.51    3.66   
  -7   3 -10   23.31    4.02   
   7   3  11   33.93    4.04   
   7   3 -11  105.89    5.01   
   7  -3  11    9.44    3.91   
  -7   3 -11   30.98    3.91   
   7   3  12   43.24    4.12   
   7   3 -12    0.35    3.68   
   7   3  13   21.28    3.81   
   7   3   2   16.90    4.20   
   7   3  -2  198.81    5.89   
   7  -3   2   75.26    4.66   
   7  -3  -2   62.65    4.50   
   7   3   3    3.98    3.84   
   7   3  -3   41.86    4.65   
   7  -3   3   12.95    4.04   
   7  -3  -3  102.44    4.66   
  -7   3  -3    5.86    4.04   
   7   3   4   38.08    4.38   
   7   3  -4   -0.38    3.83   
   7  -3   4    3.04    3.76   
   7  -3  -4   54.43    4.35   
  -7   3  -4    2.53    3.76   
   7   3   5  191.57    5.96   
   7   3  -5   -0.18    3.91   
   7  -3   5   86.86    4.51   
   7  -3  -5   -0.01    3.72   
  -7   3  -5  103.43    4.51   
   7   3   6    0.02    3.81   
   7   3  -6    3.74    3.77   
   7  -3   6   -1.94    3.72   
   7  -3  -6   47.71    4.21   
  -7   3  -6    0.35    3.72   
   7   3   7   -1.60    3.83   
   7   3  -7   29.74    4.03   
   7  -3   7    7.86    3.76   
   7  -3  -7    7.03    3.81   
  -7   3   7    8.11    3.81   
  -7   3  -7    2.42    3.76   
   7   3   8    0.91    3.73   
   7   3  -8   30.92    4.27   
   7  -3   8  163.77    5.17   
   7  -3  -8   -1.07    3.68   
  -7   3   8    2.23    3.68   
  -7   3  -8  145.62    5.17   
   7   3   9   45.55    4.29   
   7   3  -9   20.87    4.16   
   7  -3   9   18.17    3.94   
   7  -3  -9   52.21    4.26   
  -7   3   9   49.27    4.26   
  -7   3  -9   13.32    3.94   
   7   4   0  126.27    5.07   
   7  -4   0   39.06    4.00   
   7   4   1   33.69    4.26   
   7   4  -1   22.73    4.23   
   7  -4   1    7.94    3.83   
   7  -4  -1   -1.46    3.73   
  -7   4  -1    0.35    3.83   
   7   4  10   28.69    4.02   
   7   4 -10    0.16    3.68   
   7  -4  10   21.29    3.86   
   7  -4 -10    1.50    3.64   
  -7   4  10    1.21    3.64   
  -7   4 -10    2.66    3.86   
   7   4  11    2.20    3.77   
   7   4 -11    2.43    3.72   
   7   4  12    8.28    3.73   
   7   4 -12    0.80    3.65   
   7   4  13   67.59    4.50   
   7   4   2   13.90    4.10   
   7   4  -2    3.56    3.84   
   7  -4   2   62.15    4.24   
   7  -4  -2   48.02    4.18   
  -7   4  -2   15.55    4.24   
   7   4   3   60.28    4.47   
   7   4  -3  259.27    6.37   
   7  -4   3   -0.02    3.73   
   7  -4  -3    0.39    3.72   
  -7   4  -3    0.15    3.73   
   7   4   4    7.74    3.87   
   7   4  -4   33.91    4.11   
   7  -4   4    6.23    3.78   
   7  -4  -4   39.91    4.14   
  -7   4  -4   12.03    3.78   
   7   4   5   61.34    4.48   
   7   4  -5   -2.75    3.89   
   7  -4   5   12.83    4.09   
   7  -4  -5   21.14    4.02   
  -7   4   5   30.45    4.02   
  -7   4  -5   27.59    4.09   
   7   4   6   32.34    4.09   
   7   4  -6   16.56    3.95   
   7  -4   6    8.19    3.73   
   7  -4  -6    2.97    3.71   
  -7   4   6    0.26    3.71   
  -7   4  -6    3.43    3.73   
   7   4   7   67.36    4.41   
   7   4  -7   68.65    4.57   
   7  -4   7   29.55    4.24   
   7  -4  -7    8.07    3.71   
  -7   4   7   -2.14    3.71   
  -7   4  -7   46.86    4.24   
   7   4   8  128.66    5.27   
   7   4  -8    2.02    3.73   
   7  -4   8   -4.90    3.72   
   7  -4  -8   18.05    4.05   
  -7   4   8   23.28    4.05   
  -7   4  -8    8.01    3.72   
   7   4   9  138.18    4.98   
   7   4  -9   21.84    3.86   
   7  -4   9   40.40    3.96   
   7  -4  -9   31.56    4.04   
  -7   4   9   23.66    4.04   
  -7   4  -9   38.50    3.96   
   7   5   0    6.53    3.89   
   7  -5   0    3.42    3.72   
  -7   5   0   -2.70    3.72   
   7   5   1  134.59    5.40   
   7   5  -1   32.30    4.38   
   7  -5   1   80.70    4.57   
   7  -5  -1    1.97    3.72   
  -7   5   1   -1.24    3.72   
  -7   5  -1   58.50    4.57   
   7   5  10   -0.71    3.70   
   7   5 -10  192.46    5.56   
   7   5  11   69.23    4.38   
   7   5 -11   87.90    4.73   
   7   5  12  190.97    5.63   
   7   5 -12  134.25    5.09   
   7   5   2    3.54    3.85   
   7   5  -2  239.02    5.70   
   7  -5   2    1.81    3.71   
   7  -5  -2  101.83    4.69   
  -7   5   2  123.36    4.69   
  -7   5  -2    2.51    3.71   
   7   5   3   27.28    3.94   
   7   5  -3   55.88    4.62   
   7  -5   3  150.85    5.08   
   7  -5  -3   40.26    4.05   
  -7   5   3    1.64    4.05   
  -7   5  -3  112.20    5.08   
   7   5   4   58.37    4.41   
   7   5  -4    4.44    4.01   
   7  -5   4    7.11    3.76   
   7  -5  -4   -0.96    3.73   
  -7   5   4   -2.80    3.73   
  -7   5  -4    4.00    3.76   
   7   5   5    2.75    3.79   
   7   5  -5   -0.09    3.77   
   7  -5   5    2.03    3.70   
   7  -5  -5   -0.01    3.68   
  -7   5   5   -0.06    3.68   
  -7   5  -5    2.77    3.70   
   7   5   6   30.15    4.02   
   7   5  -6    4.30    3.90   
   7  -5   6   36.73    4.20   
   7  -5  -6   49.66    4.06   
  -7   5   6   45.01    4.06   
  -7   5  -6   76.87    4.20   
   7   5   7  158.27    5.19   
   7   5  -7   87.88    5.00   
   7  -5   7    9.66    3.71   
   7  -5  -7   93.97    4.65   
  -7   5   7   58.86    4.65   
  -7   5  -7    4.66    3.71   
   7   5   8   18.93    4.04   
   7   5  -8   65.59    4.59   
   7  -5   8   17.43    3.87   
   7  -5  -8    0.39    3.64   
  -7   5   8    0.86    3.64   
  -7   5  -8   11.44    3.87   
   7   5   9   78.32    4.58   
   7   5  -9   47.96    4.28   
   7  -5   9   27.34    3.96   
   7  -5  -9    5.87    3.74   
  -7   5   9    4.04    3.74   
  -7   5  -9   47.47    3.96   
   7   6   0   98.16    4.84   
   7  -6   0   11.88    3.81   
  -7   6   0    3.15    3.81   
   7   6   1   49.87    4.72   
   7   6  -1   11.58    3.91   
   7  -6   1    2.48    3.89   
   7  -6  -1   37.92    3.90   
  -7   6   1   17.66    3.90   
  -7   6  -1   27.46    3.89   
   7   6  10   56.62    4.44   
   7   6 -10   32.07    4.16   
   7   6  11   14.78    3.90   
   7   6 -11   25.77    3.90   
   7   6  12   36.24    4.10   
   7   6 -12    3.73    3.71   
   7   6   2    2.96    3.82   
   7   6  -2    1.96    3.82   
   7  -6   2  118.20    4.72   
   7  -6  -2   32.78    3.93   
  -7   6   2   13.72    3.93   
  -7   6  -2   77.12    4.72   
   7   6   3    1.33    3.81   
   7   6  -3  151.21    5.58   
   7  -6   3   65.56    4.41   
   7  -6  -3    4.66    3.72   
  -7   6   3    8.78    3.72   
  -7   6  -3   30.48    4.41   
   7   6   4    1.08    3.79   
   7   6  -4   32.98    4.11   
   7  -6   4   -1.79    3.68   
   7  -6  -4    1.31    3.71   
  -7   6   4    7.99    3.71   
  -7   6  -4    3.12    3.68   
   7   6   5    7.75    3.79   
   7   6  -5   70.01    4.98   
   7  -6   5    5.91    3.81   
   7  -6  -5   -0.24    3.67   
  -7   6   5    0.17    3.67   
  -7   6  -5   21.52    3.81   
   7   6   6   95.01    4.44   
   7   6  -6   33.63    4.45   
   7  -6   6   21.63    4.01   
   7  -6  -6    4.17    3.66   
  -7   6   6    3.96    3.66   
  -7   6  -6   42.23    4.01   
   7   6   7   87.35    4.72   
   7   6  -7   17.51    3.89   
   7  -6   7    2.34    3.71   
   7  -6  -7    6.62    3.65   
  -7   6   7    1.15    3.65   
  -7   6  -7    4.60    3.71   
   7   6   8   77.35    4.63   
   7   6  -8   42.10    4.51   
   7  -6   8    2.19    3.71   
   7  -6  -8    7.14    3.75   
  -7   6   8   -3.65    3.75   
  -7   6  -8    7.88    3.71   
   7   6   9  191.02    5.64   
   7   6  -9    6.22    3.73   
   7   7   0  193.91    5.79   
   7  -7   0    3.02    3.77   
  -7   7   0    5.56    3.77   
   7   7   1    9.88    3.96   
   7   7  -1   -2.81    3.86   
   7  -7   1   10.49    3.73   
   7  -7  -1   18.76    3.76   
  -7   7   1    0.33    3.76   
  -7   7  -1    0.36    3.73   
   7   7  10   66.47    4.77   
   7   7 -10   19.28    3.84   
   7   7  11    2.08    3.74   
   7   7 -11    0.17    3.64   
   7   7  12   12.80    3.73   
   7   7   2   13.32    3.87   
   7   7  -2  103.73    5.24   
   7  -7   2    1.21    3.71   
   7  -7  -2    7.05    3.75   
  -7   7   2    0.94    3.75   
  -7   7  -2   -5.08    3.71   
   7   7   3    0.91    3.93   
   7   7  -3   18.30    4.10   
   7  -7   3    0.30    3.65   
   7  -7  -3   33.95    4.05   
  -7   7   3   51.30    4.05   
  -7   7  -3   -0.52    3.65   
   7   7   4  125.90    5.05   
   7   7  -4    5.29    3.84   
   7  -7   4   29.95    3.78   
   7  -7  -4    8.30    3.74   
  -7   7   4    3.45    3.74   
  -7   7  -4    9.12    3.78   
   7   7   5    2.05    3.87   
   7   7  -5  166.31    6.11   
   7  -7   5    8.52    3.80   
   7  -7  -5   17.89    4.09   
  -7   7   5   64.29    4.09   
  -7   7  -5   14.49    3.80   
   7   7   6    0.22    3.86   
   7   7  -6    5.55    3.77   
   7  -7   6    5.57    3.65   
   7  -7  -6    5.29    3.83   
  -7   7   6   13.24    3.83   
  -7   7  -6    1.86    3.65   
   7   7   7    9.98    3.81   
   7   7  -7  152.57    4.92   
   7   7   8    2.31    3.71   
   7   7  -8   25.65    3.91   
   7   7   9   -0.26    3.71   
   7   7  -9    8.97    3.78   
   7   8   0   14.13    3.98   
   7  -8   0    0.00    3.63   
  -7   8   0   -0.10    3.63   
   7   8   1   -5.07    3.79   
   7   8  -1   -0.33    3.81   
   7  -8   1    3.28    3.65   
   7  -8  -1   22.91    3.84   
  -7   8   1   17.22    3.84   
  -7   8  -1    4.01    3.65   
   7   8  10    1.62    3.66   
   7   8 -10    0.72    3.65   
   7   8  11   30.44    4.00   
   7   8 -11   80.75    4.42   
   7   8   2  193.20    5.80   
   7   8  -2   34.54    4.36   
   7  -8   2   43.69    4.35   
   7  -8  -2    4.69    3.68   
  -7   8   2   10.40    3.68   
  -7   8  -2   32.31    4.35   
   7   8   3  245.45    5.85   
   7   8  -3    3.82    3.83   
   7  -8   3   32.44    3.91   
   7  -8  -3    0.24    3.65   
  -7   8   3    2.53    3.65   
  -7   8  -3   35.85    3.91   
   7   8   4   -0.12    3.77   
   7   8  -4   -0.14    3.75   
   7  -8   4   -0.86    3.65   
   7  -8  -4   24.75    3.93   
  -7   8   4   16.27    3.93   
  -7   8  -4    1.75    3.65   
   7   8   5   21.08    4.21   
   7   8  -5  345.02    6.93   
   7   8   6  111.21    4.90   
   7   8  -6    1.66    3.76   
   7   8   7   53.91    4.42   
   7   8  -7  132.85    5.00   
   7   8   8   85.69    4.54   
   7   8  -8  113.75    5.18   
   7   8   9    8.11    3.89   
   7   8  -9    9.31    3.75   
   7   9   0    3.79    4.01   
   7   9   1   40.41    4.30   
   7   9  -1   29.31    4.25   
   7   9  10    6.44    3.68   
   7   9 -10   -0.41    3.71   
   7   9  11   22.82    3.84   
   7   9   2  181.86    5.65   
   7   9  -2    3.20    3.83   
   7   9   3  214.65    5.79   
   7   9  -3   60.25    4.46   
   7   9   4  181.82    5.89   
   7   9  -4  141.39    5.26   
   7   9   5   34.08    4.35   
   7   9  -5    4.07    3.73   
   7   9   6    1.63    3.72   
   7   9  -6    0.18    3.71   
   7   9   7   -6.76    4.06   
   7   9  -7   83.72    4.61   
   7   9   8   21.10    3.88   
   7   9  -8   70.30    4.17   
   7   9   9   15.22    3.78   
   7   9  -9   28.50    4.03   
   8   0   0   13.61    3.88   
   8   0   1  110.61    4.88   
   8   0  -1    0.69    3.72   
   8   0  10   66.99    4.43   
  -8   0 -10   45.76    4.43   
   8   0   2   46.06    4.03   
   8   0  -2  117.90    4.87   
  -8   0   2  112.88    4.87   
   8   0   3    8.85    3.84   
   8   0  -3    8.11    3.74   
  -8   0   3    3.80    3.74   
   8   0   4   43.76    4.22   
   8   0  -4   17.51    4.42   
  -8   0   4   53.99    4.42   
   8   0   5    3.28    3.76   
   8   0  -5   64.75    4.30   
  -8   0   5   52.11    4.30   
   8   0   6    8.71    3.74   
   8   0  -6    4.38    3.72   
  -8   0   6    2.76    3.72   
   8   0   7   20.01    3.78   
   8   0  -7   23.18    3.97   
  -8   0   7   25.01    3.97   
   8   0   8   -0.22    3.68   
   8   0  -8   40.07    4.59   
  -8   0   8   83.95    4.59   
   8   0   9   40.76    4.23   
   8   0  -9    4.21    3.74   
   8   1   0   48.49    4.13   
   8  -1   0    8.54    3.80   
   8  10   0   34.20    4.28   
   8  10   1  100.00    5.02   
   8  10  -1    9.89    3.82   
   8  10   2   34.14    4.07   
   8  10  -2   -4.02    3.76   
   8  10   3   -0.45    3.66   
   8  10  -3    6.32    3.69   
   8  10   4    6.63    3.73   
   8  10  -4    1.76    3.68   
   8  10   5   78.44    4.52   
   8  10  -5   -0.06    3.64   
   8  10   6   -3.25    3.76   
   8  10  -6    3.38    3.72   
   8  10   7    4.58    3.76   
   8  10  -7   11.59    3.85   
   8   1   1   10.94    3.88   
   8   1  -1    0.07    3.76   
   8  -1   1   -0.72    3.71   
   8  -1  -1   67.58    4.78   
   8   1  10   19.58    3.90   
   8  11   0    0.39    3.65   
   8  11   1   42.85    4.34   
   8  11  -1   16.50    3.80   
   8  11   2    0.09    3.65   
   8  11  -2    0.71    3.65   
   8  11   3   -5.64    3.70   
   8  11  -3   18.27    3.82   
   8  11   4   -0.28    3.64   
   8  11  -4   51.41    4.21   
   8  11   5    8.93    3.94   
   8  11  -5   11.96    3.73   
   8  11   6   52.90    4.05   
   8   1   2   71.22    4.52   
   8   1  -2    5.39    4.00   
   8  -1   2    1.46    3.74   
   8  -1  -2   -0.21    3.72   
  -8  -1   2   16.69    4.00   
   8  12   0   11.17    3.72   
   8  12   1    4.20    3.74   
   8  12  -1   -0.58    3.64   
   8  12   2    5.80    3.67   
   8  12  -2    2.07    3.75   
   8  12   3    2.30    3.63   
   8  12  -3    6.26    3.75   
   8  12   4   -1.44    3.63   
   8   1   3   99.20    4.88   
   8   1  -3   12.15    3.92   
   8  -1   3    4.34    3.77   
   8  -1  -3   10.24    3.87   
  -8   1   3   11.22    3.87   
  -8  -1   3   23.72    3.92   
   8   1   4    7.94    3.88   
   8   1  -4    5.50    3.74   
   8  -1   4   18.11    3.91   
   8  -1  -4   -2.14    3.72   
  -8   1   4    1.68    3.72   
  -8  -1   4    1.14    3.74   
   8   1   5   10.95    3.96   
   8   1  -5   14.36    3.78   
   8  -1   5   19.74    4.02   
   8  -1  -5   -0.97    3.69   
  -8   1   5    1.20    3.69   
  -8  -1   5    2.32    3.78   
   8   1   6   50.73    4.48   
   8   1  -6    0.06    3.68   
   8  -1   6    7.45    3.74   
   8  -1  -6   23.12    4.04   
  -8   1  -6    3.36    3.74   
  -8  -1   6    0.23    3.68   
   8   1   7   38.64    4.15   
   8   1  -7    0.83    3.82   
   8  -1   7    2.12    3.66   
   8  -1  -7    2.78    3.67   
  -8   1   7    3.26    3.67   
  -8   1  -7    0.97    3.66   
   8   1   8    2.84    3.77   
   8   1  -8   -1.60    3.69   
   8  -1   8  -10.33    3.74   
   8  -1  -8    5.15    3.65   
  -8   1   8   -2.22    3.65   
  -8   1  -8   10.39    3.74   
   8   1   9    2.28    3.66   
   8   1  -9   13.58    3.86   
   8  -1   9   13.12    3.89   
   8  -1  -9    2.79    3.62   
  -8   1   9    1.47    3.62   
  -8   1  -9    9.28    3.89   
   8   2   0    0.50    3.74   
   8  -2   0  184.32    5.37   
  -8   2   0  156.73    5.37   
   8   2   1   -5.94    3.77   
   8   2  -1   -1.86    3.77   
   8  -2   1   14.14    3.82   
   8  -2  -1   94.13    4.67   
  -8   2  -1   17.15    3.82   
   8   2  10    3.10    3.70   
   8   2 -10   50.86    3.96   
   8   2   2   33.19    4.20   
   8   2  -2   34.20    4.01   
   8  -2   2   10.73    3.79   
   8  -2  -2   -1.29    3.72   
  -8   2  -2   15.18    3.79   
   8   2   3   82.99    4.51   
   8   2  -3  101.65    5.03   
   8  -2   3   48.42    4.21   
   8  -2  -3    0.11    3.68   
  -8   2  -3   49.01    4.21   
  -8  -2   3  168.99    5.03   
   8   2   4   28.32    4.02   
   8   2  -4   58.02    4.43   
   8  -2   4   18.74    3.74   
   8  -2  -4    1.11    3.70   
  -8   2  -4    1.62    3.74   
  -8  -2   4   66.11    4.43   
   8   2   5   16.48    3.81   
   8   2  -5   13.53    3.98   
   8  -2   5    3.36    3.68   
   8  -2  -5   15.08    3.85   
  -8   2  -5    0.86    3.68   
  -8  -2   5   24.26    3.98   
   8   2   6   20.13    3.86   
   8   2  -6   10.63    3.76   
   8  -2   6    7.28    3.89   
   8  -2  -6   27.41    3.83   
  -8   2   6    6.08    3.83   
  -8   2  -6   11.90    3.89   
   8   2   7    0.39    3.68   
   8   2  -7   34.03    4.09   
   8  -2   7    3.92    3.66   
   8  -2  -7    0.51    3.64   
  -8   2   7    0.47    3.64   
  -8   2  -7    0.74    3.66   
   8   2   8   -0.50    3.67   
   8   2  -8   17.00    3.86   
   8  -2   8   11.87    3.82   
   8  -2  -8   10.68    3.69   
  -8   2   8    0.55    3.69   
  -8   2  -8   20.72    3.82   
   8   2   9   11.97    4.00   
   8   2  -9    8.27    3.78   
   8   3   0  148.64    5.11   
   8  -3   0   75.29    4.91   
  -8   3   0   84.04    4.91   
   8   3   1   -0.95    3.74   
   8   3  -1  328.97    6.40   
   8  -3   1   21.06    3.87   
   8  -3  -1    6.53    3.85   
  -8   3   1   26.03    3.85   
  -8   3  -1   18.59    3.87   
   8   3  10   20.26    3.77   
   8   3 -10   -0.65    3.63   
   8   3   2   47.59    4.11   
   8   3  -2    1.89    3.80   
   8  -3   2   25.63    4.00   
   8  -3  -2   65.58    4.45   
  -8   3   2   62.65    4.45   
  -8   3  -2   11.72    4.00   
   8   3   3    3.59    3.74   
   8   3  -3   32.23    4.49   
   8  -3   3   10.64    3.81   
   8  -3  -3  168.66    5.38   
  -8   3   3  172.41    5.38   
  -8   3  -3    4.13    3.81   
   8   3   4   16.00    4.03   
   8   3  -4   67.09    4.55   
   8  -3   4   16.86    3.76   
   8  -3  -4  106.85    4.81   
  -8   3   4  111.07    4.81   
  -8   3  -4    2.21    3.76   
   8   3   5   -0.15    3.71   
   8   3  -5   91.49    4.53   
   8  -3   5    2.20    3.74   
   8  -3  -5   35.85    3.97   
  -8   3   5   14.50    3.97   
  -8   3  -5    8.32    3.74   
   8   3   6   40.22    4.19   
   8   3  -6   21.67    4.20   
   8  -3   6    5.71    3.75   
   8  -3  -6    8.47    3.77   
  -8   3   6    5.86    3.77   
  -8   3  -6   15.34    3.75   
   8   3   7   35.39    4.29   
   8   3  -7   -2.31    3.68   
   8  -3   7   10.71    3.69   
   8  -3  -7    1.58    3.64   
  -8   3   7   -0.80    3.64   
  -8   3  -7    3.58    3.69   
   8   3   8    3.19    3.68   
   8   3  -8    2.24    3.74   
   8  -3   8   -1.65    3.63   
  -8   3  -8    1.27    3.63   
   8   3   9   -0.47    3.65   
   8   3  -9   -0.32    3.76   
   8   4   0  186.51    5.44   
   8  -4   0   15.32    4.07   
  -8   4   0   34.14    4.07   
   8   4   1  110.87    4.67   
   8   4  -1   40.43    4.06   
   8  -4   1   90.65    4.79   
   8  -4  -1  119.89    4.97   
  -8   4   1  105.71    4.97   
  -8   4  -1   89.82    4.79   
   8   4  10   59.01    4.32   
   8   4 -10   27.19    3.87   
   8   4   2   13.13    3.92   
   8   4  -2   52.76    4.34   
   8  -4   2   57.93    4.63   
   8  -4  -2    9.48    3.80   
  -8   4   2   -2.87    3.80   
  -8   4  -2   69.85    4.63   
   8   4   3    2.19    3.74   
   8   4  -3   91.95    4.94   
   8  -4   3   45.47    4.19   
   8  -4  -3   26.94    4.15   
  -8   4   3   31.46    4.15   
  -8   4  -3   59.75    4.19   
   8   4   4    0.90    3.73   
   8   4  -4   76.59    4.54   
   8  -4   4    3.87    3.67   
   8  -4  -4   21.78    4.05   
  -8   4   4   30.03    4.05   
  -8   4  -4    2.95    3.67   
   8   4   5    1.72    3.79   
   8   4  -5   -1.15    3.86   
   8  -4   5   10.76    3.84   
   8  -4  -5   29.12    4.16   
  -8   4   5   52.00    4.16   
  -8   4  -5   11.47    3.84   
   8   4   6   32.42    4.01   
   8   4  -6   -0.61    3.69   
   8  -4   6   74.07    4.29   
   8  -4  -6   38.62    4.14   
  -8   4   6   48.23    4.14   
  -8   4  -6   43.22    4.29   
   8   4   7   13.78    3.96   
   8   4  -7    0.40    3.70   
   8   4   8    4.21    3.73   
   8   4  -8   -0.45    3.66   
   8   4   9    3.94    3.69   
   8   4  -9    4.52    3.76   
   8   5   0    9.13    3.80   
   8  -5   0   57.04    4.40   
  -8   5   0   60.67    4.40   
   8   5   1   61.03    4.26   
   8   5  -1  150.62    5.69   
   8  -5   1    2.81    3.80   
   8  -5  -1    3.05    3.69   
  -8   5   1    4.04    3.69   
  -8   5  -1    9.95    3.80   
   8   5  10    0.40    3.65   
   8   5 -10   17.74    3.88   
   8   5   2   29.95    4.01   
   8   5  -2  156.15    5.57   
   8  -5   2   66.89    4.20   
   8  -5  -2    1.52    3.84   
  -8   5   2   15.30    3.84   
  -8   5  -2   21.52    4.20   
   8   5   3   -1.70    3.74   
   8   5  -3   38.37    4.02   
   8  -5   3   -2.73    3.68   
   8  -5  -3   29.21    3.82   
  -8   5   3   12.46    3.82   
  -8   5  -3   11.44    3.68   
   8   5   4   39.46    4.21   
   8   5  -4   -0.94    3.71   
   8  -5   4   34.50    4.21   
   8  -5  -4   52.05    4.22   
  -8   5   4   26.76    4.22   
  -8   5  -4   50.41    4.21   
   8   5   5   -0.50    3.71   
   8   5  -5   99.00    4.72   
   8  -5   5    2.63    3.64   
  -8   5  -5   -3.10    3.64   
   8   5   6    1.25    3.71   
   8   5  -6   37.27    4.08   
   8   5   7    6.84    3.86   
   8   5  -7   24.72    3.89   
   8   5   8   34.68    4.02   
   8   5  -8   17.89    3.82   
   8   5   9   19.47    3.74   
   8   5  -9   -0.44    3.64   
   8   6   0  102.97    5.33   
   8  -6   0   17.54    3.74   
  -8   6   0   12.85    3.74   
   8   6   1   93.78    4.60   
   8   6  -1  117.02    5.30   
   8  -6   1   -0.26    3.63   
   8  -6  -1   11.34    3.69   
  -8   6   1   -3.09    3.69   
  -8   6  -1    2.35    3.63   
   8   6  10   31.19    3.83   
   8   6   2  136.24    5.30   
   8   6  -2   19.75    4.05   
   8  -6   2    9.76    3.65   
  -8   6  -2    3.58    3.65   
   8   6   3   86.73    4.77   
   8   6  -3   86.75    4.60   
   8   6   4   -1.00    3.72   
   8   6  -4    8.88    3.76   
   8   6   5    0.36    3.70   
   8   6  -5   46.01    4.38   
   8   6   6    7.02    3.86   
   8   6  -6    5.42    3.71   
   8   6   7    0.59    3.68   
   8   6  -7   26.42    4.11   
   8   6   8   -5.69    3.72   
   8   6  -8    4.62    3.79   
   8   6   9   16.20    3.78   
   8   6  -9    2.78    3.70   
   8   7   0   16.03    3.93   
   8   7   1    2.36    3.72   
   8   7  -1   28.60    3.97   
   8   7   2    0.87    3.72   
   8   7  -2    0.31    3.72   
   8   7   3    5.14    3.77   
   8   7  -3   11.60    3.76   
   8   7   4    7.89    3.80   
   8   7  -4   -0.02    3.69   
   8   7   5   42.64    4.07   
   8   7  -5   -0.22    3.68   
   8   7   6    8.84    3.74   
   8   7  -6    0.20    3.67   
   8   7   7   18.31    3.89   
   8   7  -7    3.50    3.67   
   8   7   8   83.62    4.87   
   8   7  -8   14.91    3.96   
   8   7   9    4.42    3.77   
   8   7  -9   87.10    4.43   
   8   8   0  149.62    5.30   
   8   8   1  160.14    5.35   
   8   8  -1    3.95    3.72   
   8   8   2  340.42    6.50   
   8   8  -2   -2.96    3.73   
   8   8   3   99.76    5.07   
   8   8  -3   11.77    3.88   
   8   8   4    1.36    3.71   
   8   8  -4    0.75    3.75   
   8   8   5   33.51    4.26   
   8   8  -5   46.73    4.19   
   8   8   6   75.85    4.59   
   8   8  -6   44.17    4.72   
   8   8   7   31.38    3.98   
   8   8  -7    7.08    3.72   
   8   8   8    5.31    3.67   
   8   8  -8   42.39    4.31   
   8   8   9    2.35    3.68   
   8   9   0    1.21    3.69   
   8   9   1   10.12    3.82   
   8   9  -1    8.11    3.82   
   8   9   2   15.71    3.80   
   8   9  -2    2.20    3.96   
   8   9   3   35.11    4.11   
   8   9  -3   -0.19    3.75   
   8   9   4   74.62    4.31   
   8   9  -4   -0.28    3.67   
   8   9   5   11.39    4.20   
   8   9  -5    1.01    3.67   
   8   9   6   40.26    4.13   
   8   9  -6   15.49    3.71   
   8   9   7    1.65    3.65   
   8   9  -7   24.01    3.88   
   8   9   8   22.39    3.95   
   8   9  -8    3.53    3.65   
   9   0   0    7.57    3.71   
   9   0   1   41.04    4.03   
   9   0  -1  110.64    5.00   
   9   0   2    0.17    3.64   
   9   0  -2   56.81    4.05   
   9   0   3    2.87    3.75   
   9   0  -3   51.18    4.41   
  -9   0   3   54.21    4.41   
   9   0   4   16.92    3.72   
   9   0  -4    5.04    3.88   
  -9   0   4   19.59    3.88   
   9   0   5    4.03    3.68   
   9   0  -5    3.82    3.63   
  -9   0   5    1.52    3.63   
   9   1   0   39.77    4.10   
   9  -1   0   41.68    4.10   
  -9   1   0   13.04    4.10   
   9   1   1   42.15    4.30   
   9   1  -1   37.85    4.04   
   9  -1   1    0.84    3.66   
   9  -1  -1    4.59    3.70   
  -9   1   1    9.65    3.70   
  -9   1  -1    4.85    3.66   
   9   1   2    0.28    3.65   
   9   1  -2   27.35    4.10   
   9  -1   2    4.28    3.74   
   9  -1  -2   18.69    3.77   
  -9   1   2    6.50    3.77   
  -9   1  -2    5.29    3.74   
   9   1   3   -8.43    3.69   
   9   1  -3   -1.04    3.66   
   9  -1   3   29.21    3.89   
   9  -1  -3   25.28    4.03   
  -9   1   3   31.75    4.03   
  -9   1  -3    2.46    3.89   
  -9  -1   3   -0.17    3.66   
   9   1   4   42.43    4.05   
   9   1  -4    2.49    3.66   
   9  -1   4   29.29    3.95   
   9  -1  -4   -3.46    3.63   
  -9   1   4    3.29    3.63   
  -9   1  -4   25.03    3.95   
  -9  -1   4    0.68    3.66   
   9   1   5    1.65    3.64   
   9   1  -5    4.38    3.65   
  -9  -1   5    2.22    3.65   
   9   1   6   -2.30    3.64   
   9   2   0   34.03    4.05   
   9  -2   0    4.51    3.65   
  -9   2   0    0.23    3.65   
   9   2   1   45.97    4.19   
   9   2  -1    0.06    3.66   
   9  -2   1   10.38    3.72   
   9  -2  -1   35.66    3.97   
  -9   2   1    4.60    3.97   
  -9   2  -1    5.26    3.72   
   9   2   2   19.08    3.96   
   9   2  -2   80.79    4.43   
   9  -2   2    1.11    3.85   
   9  -2  -2   79.81    4.57   
  -9   2   2   75.37    4.57   
  -9   2  -2   18.37    3.85   
   9   2   3   16.82    3.90   
   9   2  -3    1.25    3.66   
   9   2   4    1.56    3.65   
   9   2  -4   -0.72    3.64   
  -9  -2   4    1.20    3.64   
   9   2   5    1.07    3.64   
   9   2  -5    0.63    3.64   
  -9  -2   5    1.93    3.64   
   9   2   6   37.57    4.00   
   9   2  -6    0.56    3.62   
   9   3   0   72.35    4.62   
   9   3   1   21.75    3.91   
   9   3  -1    8.15    3.74   
   9   3   2   -1.00    3.76   
   9   3  -2    1.45    3.71   
   9   3   3    0.06    3.66   
   9   3  -3    4.68    3.84   
   9   3   4    4.57    3.78   
   9   3  -4    4.65    3.73   
   9   3   5   62.96    4.33   
   9   3  -5    3.40    3.69   
   9   3   6   11.97    3.79   
   9   3  -6    3.61    3.65   
   9   3   7   -1.92    3.64   
   9   4   0   14.25    3.79   
   9   4   1    0.86    3.67   
   9   4  -1   13.91    4.06   
   9   4   2    8.08    3.73   
   9   4  -2    8.60    3.74   
   9   4   3   23.59    4.22   
   9   4  -3   -6.24    3.74   
   9   4   4   38.37    3.99   
   9   4  -4    2.05    3.75   
   9   4   5   -0.59    3.68   
   9   4  -5    1.79    3.64   
   9   4   6    1.52    3.65   
   9   4  -6   -5.21    3.65   
   9   4   7    8.45    3.77   
   9   5   0    7.49    3.75   
   9   5   1    0.73    3.66   
   9   5  -1   26.05    3.91   
   9   5   2   -0.07    3.66   
   9   5  -2    5.64    3.71   
   9   5   3   10.55    3.88   
   9   5  -3    2.23    3.68   
   9   5   4    5.55    3.76   
   9   5  -4    5.83    3.80   
   9   5   5   63.02    4.27   
   9   5  -5    1.36    3.70   
   9   5   6   13.51    3.93   
   9   5  -6   -1.85    3.63   
   9   5   7   -0.33    3.62   
   9   6   0   22.14    4.09   
   9   6   1   19.10    3.82   
   9   6  -1    6.30    3.93   
   9   6   2    4.21    3.73   
   9   6  -2   13.72    3.81   
   9   6   3    5.76    3.69   
   9   6  -3   34.35    3.86   
   9   6   4   12.63    3.89   
   9   6  -4    2.06    3.64   
   9   6   5    1.74    3.71   
   9   6  -5   47.84    4.08   
   9   6   6   -1.75    3.63   
   9   6  -6   -2.41    3.64   
   9   7   0    0.02    3.65   
   9   7   1    1.19    3.67   
   9   7  -1    7.46    3.73   
   9   7   2   16.35    3.95   
   9   7  -2   43.24    4.05   
   9   7   3   -3.22    3.93   
   9   7  -3   32.24    4.09   
   9   7   4   23.42    3.87   
   9   7  -4    0.13    3.63   
   9   7   5    7.60    3.72   
   9   7  -5   54.05    4.41   
   9   7   6   91.97    4.44   
   9   8   0   13.07    3.75   
   9   8   1   -0.78    3.65   
   9   8  -1    6.10    3.66   
   9   8   2    2.77    3.64   
   9   8  -2   -0.69    3.64   
   9   8   3    8.13    3.71   
   9   8  -3    2.48    3.70   
   9   8   4   -0.13    3.63   
   9   8  -4   26.96    3.80   
   9   8   5   30.63    4.30   
   9   9   0   -2.03    3.66   
   9   9   1    2.15    3.64   
   9   9  -1   17.18    3.93   
   9   9   2   -0.01    3.63   
   9   9  -2   11.71    3.76   
   9   9   3   16.34    3.74   
   9   9  -3   24.33    3.79   
   9   9   4   -3.47    3.63   
   0   0   0    0.00    0.00

_computing_structure_solution    'SHELXT 2014/5 (Sheldrick, 2014)'
;
_shelx_hkl_checksum              68825
loop_
_space_group_symop_operation_xyz
'x, y, z'
'-x, -y, -z'
loop_
_atom_site_label
_atom_site_type_symbol
_atom_site_fract_x
_atom_site_fract_y
_atom_site_fract_z
_atom_site_U_iso_or_equiv
_atom_site_adp_type
_atom_site_occupancy
_atom_site_site_symmetry_order
_atom_site_calc_flag
_atom_site_refinement_flags_posn
_atom_site_refinement_flags_adp
C1 C 1.1220(4) 0.6049(3) 0.8590(2) 0.0229(8) Uani 1 1 d . .
H1 H 1.1122 0.6235 0.8008 0.027 Uiso 1 1 calc R U
C2 C 1.2208(5) 0.5201(3) 0.8803(3) 0.0251(8) Uani 1 1 d . .
H2 H 1.2778 0.4792 0.8366 0.030 Uiso 1 1 calc R U
C3 C 1.2417(5) 0.4905(3) 0.9663(3) 0.0292(9) Uani 1 1 d . .
H3 H 1.3148 0.4314 0.9804 0.035 Uiso 1 1 calc R U
C4 C 1.1566(5) 0.5473(3) 1.0277(3) 0.0272(9) Uani 1 1 d . .
H4 H 1.1678 0.5264 1.0853 0.033 Uiso 1 1 calc R U
C5 C 1.0517(5) 0.6363(3) 1.0094(2) 0.0214(8) Uani 1 1 d . .
C6 C 0.9662(5) 0.6971(3) 1.0727(3) 0.0268(8) Uani 1 1 d . .
H6 H 0.9658 0.6756 1.1299 0.032 Uiso 1 1 calc R U
C7 C 0.8850(5) 0.7854(3) 1.0528(3) 0.0282(9) Uani 1 1 d . .
H7 H 0.8344 0.8276 1.0969 0.034 Uiso 1 1 calc R U
N8 N 0.8733(4) 0.8161(2) 0.9710(2) 0.0216(7) Uani 1 1 d . .
C9 C 0.8035(6) 0.9182(3) 0.9529(3) 0.0337(10) Uani 1 1 d . .
H9A H 0.7953 0.9555 1.0061 0.040 Uiso 1 1 calc R U
H9B H 0.6892 0.9278 0.9288 0.040 Uiso 1 1 calc R U
C10 C 0.9204(6) 0.9502(3) 0.8899(3) 0.0348(10) Uani 1 1 d . .
H10A H 0.8802 1.0189 0.8786 0.042 Uiso 1 1 calc R U
H10B H 1.0354 0.9389 0.9136 0.042 Uiso 1 1 calc R U
C11 C 0.9246(5) 0.8956(3) 0.8086(3) 0.0237(8) Uani 1 1 d . .
C12 C 0.9315(5) 0.9348(3) 0.7279(3) 0.0325(10) Uani 1 1 d . .
C13 C 0.9164(5) 0.8816(3) 0.6555(3) 0.0329(10) Uani 1 1 d . .
C14 C 0.8881(5) 0.7903(3) 0.6647(2) 0.0262(9) Uani 1 1 d . .
C15 C 0.8772(5) 0.7291(3) 0.5881(3) 0.0335(10) Uani 1 1 d . .
H15A H 0.7615 0.7459 0.5653 0.040 Uiso 1 1 calc R U
H15B H 0.9565 0.7401 0.5428 0.040 Uiso 1 1 calc R U
N17 N 0.7996(4) 0.6127(2) 0.6822(2) 0.0254(7) Uani 1 1 d . .
C16 C 0.9208(5) 0.6276(3) 0.6146(3) 0.0305(9) Uani 1 1 d . .
H16A H 0.9149 0.5866 0.5651 0.037 Uiso 1 1 calc R U
H16B H 1.0373 0.6105 0.6366 0.037 Uiso 1 1 calc R U
C18 C 0.7054(5) 0.5463(3) 0.6765(3) 0.0253(8) Uani 1 1 d . .
C19 C 0.6059(5) 0.5336(3) 0.7456(3) 0.0282(9) Uani 1 1 d . .
H19 H 0.5430 0.4861 0.7438 0.034 Uiso 1 1 calc R U
C20 C 0.5971(5) 0.5890(3) 0.8171(3) 0.0280(9) Uani 1 1 d . .
H20 H 0.5302 0.5789 0.8648 0.034 Uiso 1 1 calc R U
C21 C 0.6861(4) 0.6596(3) 0.8194(2) 0.0224(8) Uani 1 1 d . U
H21 H 0.6759 0.7001 0.8675 0.027 Uiso 1 1 calc R U
C22 C 0.7891(4) 0.6709(2) 0.7517(2) 0.0190(7) Uani 1 1 d . U
C23 C 0.8725(4) 0.7515(3) 0.7458(2) 0.0212(8) Uani 1 1 d . .
C24 C 0.9057(4) 0.8013(3) 0.8188(2) 0.0207(8) Uani 1 1 d . .
C25 C 0.9339(4) 0.7590(3) 0.9046(2) 0.0189(7) Uani 1 1 d . .
C26 C 1.0332(4) 0.6665(2) 0.9220(2) 0.0186(7) Uani 1 1 d . .
C27 C 0.9635(7) 1.0338(3) 0.7174(4) 0.0479(13) Uani 1 1 d . .
H27A H 0.8561 1.0797 0.7081 0.072 Uiso 1 1 calc R U
H27B H 1.0391 1.0345 0.6683 0.072 Uiso 1 1 calc R U
H27C H 1.0158 1.0509 0.7689 0.072 Uiso 1 1 calc R U
C28 C 0.9231(7) 0.9232(4) 0.5665(3) 0.0522(14) Uani 1 1 d . .
H28A H 1.0402 0.9085 0.5453 0.078 Uiso 1 1 calc R U
H28B H 0.8801 0.9922 0.5688 0.078 Uiso 1 1 calc R U
H28C H 0.8535 0.8959 0.5282 0.078 Uiso 1 1 calc R U
C29 C 0.7055(6) 0.4958(3) 0.5953(3) 0.0356(10) Uani 1 1 d . .
H29 H 0.7329 0.5250 0.5444 0.043 Uiso 1 1 calc R U
C30 C 0.6693(7) 0.4119(4) 0.5899(3) 0.0476(12) Uani 1 1 d . .
H30 H 0.6444 0.3821 0.6410 0.057 Uiso 1 1 calc R U
C31 C 0.6658(6) 0.3635(4) 0.5105(4) 0.0483(13) Uani 1 1 d . .
H31 H 0.6889 0.3937 0.4593 0.058 Uiso 1 1 calc R U
C32 C 0.6313(7) 0.2771(4) 0.5052(4) 0.0585(15) Uani 1 1 d . .
H32 H 0.6101 0.2475 0.5571 0.070 Uiso 1 1 calc R U
C33 C 0.6237(6) 0.2253(4) 0.4264(5) 0.0590(17) Uani 1 1 d . .
C34 C 0.6570(7) 0.2581(5) 0.3468(4) 0.0629(17) Uani 1 1 d . .
H34 H 0.6847 0.3180 0.3426 0.075 Uiso 1 1 calc R U
C35 C 0.6516(7) 0.2060(5) 0.2709(5) 0.0698(19) Uani 1 1 d . .
H35 H 0.6763 0.2293 0.2166 0.084 Uiso 1 1 calc R U
C36 C 0.6095(9) 0.1215(5) 0.2798(6) 0.080(2) Uani 1 1 d . .
C37 C 0.5701(7) 0.0840(5) 0.3580(6) 0.074(2) Uani 1 1 d . .
H37 H 0.5373 0.0253 0.3609 0.089 Uiso 1 1 calc R U
C38 C 0.5811(8) 0.1377(5) 0.4340(6) 0.077(2) Uani 1 1 d . .
H38 H 0.5596 0.1138 0.4885 0.093 Uiso 1 1 calc R U
C39 C 0.5517(11) -0.0076(6) 0.2052(8) 0.119(4) Uani 1 1 d . .
H39A H 0.6249 -0.0518 0.2437 0.179 Uiso 1 1 calc R U
H39B H 0.5562 -0.0362 0.1485 0.179 Uiso 1 1 calc R U
H39C H 0.4354 0.0062 0.2273 0.179 Uiso 1 1 calc R U
C40 C 0.8295(7) 0.7416(3) 0.3360(3) 0.0432(11) Uani 1 1 d . .
C41 C 0.4140(6) 0.7504(4) 0.1281(3) 0.0424(11) Uani 1 1 d . .
O1 O 0.6048(7) 0.0732(4) 0.1998(4) 0.0964(17) Uani 1 1 d . .
S1 S 0.82452(16) 0.61740(8) 0.33456(7) 0.0387(3) Uani 1 1 d . .
S2 S 0.38985(13) 0.80046(8) 0.02190(7) 0.0324(3) Uani 1 1 d . .
O11 O 0.9594(5) 0.5777(3) 0.2747(2) 0.0488(9) Uani 1 1 d . .
O12 O 0.6597(5) 0.6172(3) 0.3065(2) 0.0550(10) Uani 1 1 d . .
O13 O 0.8579(6) 0.5898(3) 0.4213(2) 0.0571(10) Uani 1 1 d . .
O21 O 0.4479(8) 0.7205(3) -0.0284(3) 0.109(2) Uani 1 1 d . .
O22 O 0.2138(4) 0.8405(3) 0.0164(3) 0.0600(11) Uani 1 1 d . .
O23 O 0.4846(6) 0.8706(4) 0.0224(3) 0.0871(17) Uani 1 1 d . .
F11 F 0.9724(5) 0.7546(3) 0.3672(2) 0.0747(11) Uani 1 1 d . .
F12 F 0.8131(5) 0.7802(2) 0.25854(18) 0.0602(9) Uani 1 1 d . .
F13 F 0.7064(5) 0.7922(2) 0.3845(2) 0.0761(11) Uani 1 1 d . .
F21 F 0.3435(6) 0.6825(4) 0.1412(3) 0.0977(16) Uani 1 1 d . .
F22 F 0.3727(8) 0.8154(4) 0.1864(3) 0.126(2) Uani 1 1 d . .
F23 F 0.5785(5) 0.7147(3) 0.1430(3) 0.0851(13) Uani 1 1 d . .
loop_
_atom_site_aniso_label
_atom_site_aniso_U_11
_atom_site_aniso_U_22
_atom_site_aniso_U_33
_atom_site_aniso_U_23
_atom_site_aniso_U_13
_atom_site_aniso_U_12
C1 0.0200(17) 0.0270(19) 0.0230(19) 0.0016(16) -0.0049(14) -0.0079(15)
C2 0.0240(18) 0.0210(19) 0.029(2) -0.0019(16) -0.0015(16) -0.0026(15)
C3 0.028(2) 0.0227(19) 0.036(2) 0.0059(17) -0.0070(17) -0.0034(16)
C4 0.030(2) 0.026(2) 0.025(2) 0.0080(16) -0.0040(16) -0.0045(16)
C5 0.0231(18) 0.0189(18) 0.0235(19) -0.0008(15) -0.0024(14) -0.0075(14)
C6 0.028(2) 0.033(2) 0.021(2) 0.0012(16) -0.0045(16) -0.0107(17)
C7 0.032(2) 0.032(2) 0.021(2) -0.0060(16) -0.0016(16) -0.0081(17)
N8 0.0193(15) 0.0201(15) 0.0242(17) 0.0005(13) -0.0023(12) -0.0024(12)
C9 0.042(2) 0.027(2) 0.029(2) -0.0016(17) -0.0011(18) -0.0017(18)
C10 0.045(2) 0.0151(18) 0.044(3) 0.0062(18) -0.011(2) -0.0057(17)
C11 0.0219(18) 0.0191(18) 0.030(2) 0.0068(16) 0.0001(15) -0.0044(14)
C12 0.024(2) 0.021(2) 0.051(3) 0.0114(19) 0.0047(18) -0.0034(16)
C13 0.031(2) 0.032(2) 0.031(2) 0.0115(18) 0.0026(17) 0.0022(17)
C14 0.0250(19) 0.031(2) 0.0204(19) 0.0055(16) -0.0004(15) -0.0018(16)
C15 0.034(2) 0.045(3) 0.022(2) 0.0155(19) 0.0005(17) -0.0113(19)
N17 0.0236(16) 0.0372(19) 0.0156(16) -0.0014(14) -0.0038(12) -0.0071(14)
C16 0.029(2) 0.045(2) 0.020(2) -0.0024(18) 0.0039(16) -0.0136(18)
C18 0.0240(18) 0.0251(19) 0.027(2) 0.0006(16) -0.0058(15) -0.0065(15)
C19 0.0251(19) 0.028(2) 0.034(2) 0.0064(17) -0.0103(17) -0.0100(16)
C20 0.0208(18) 0.042(2) 0.022(2) 0.0039(17) -0.0042(15) -0.0083(17)
C21 0.0214(15) 0.0200(16) 0.0252(17) 0.0045(14) -0.0092(13) -0.0032(13)
C22 0.0133(14) 0.0210(16) 0.0208(16) 0.0027(13) -0.0042(12) 0.0003(12)
C23 0.0159(17) 0.0216(18) 0.0249(19) 0.0071(15) -0.0055(14) -0.0015(14)
C24 0.0149(16) 0.0184(17) 0.027(2) 0.0048(15) -0.0021(14) 0.0002(13)
C25 0.0139(16) 0.0221(18) 0.0237(19) 0.0010(15) -0.0031(14) -0.0100(14)
C26 0.0161(16) 0.0156(17) 0.0244(19) 0.0023(14) -0.0027(14) -0.0044(13)
C27 0.053(3) 0.030(2) 0.061(3) 0.012(2) 0.009(2) -0.011(2)
C28 0.064(3) 0.046(3) 0.042(3) 0.019(2) 0.008(2) -0.007(3)
C29 0.037(2) 0.044(3) 0.030(2) -0.0039(19) -0.0056(18) -0.017(2)
C30 0.051(3) 0.060(3) 0.039(3) -0.012(2) 0.003(2) -0.029(3)
C31 0.039(3) 0.056(3) 0.049(3) -0.016(3) -0.001(2) -0.011(2)
C32 0.054(3) 0.049(3) 0.073(4) -0.017(3) -0.004(3) -0.012(3)
C33 0.036(3) 0.053(3) 0.088(5) -0.033(3) -0.003(3) -0.010(2)
C34 0.048(3) 0.062(4) 0.073(4) -0.024(3) -0.027(3) -0.001(3)
C35 0.051(3) 0.064(4) 0.083(5) -0.031(3) -0.008(3) 0.011(3)
C36 0.065(4) 0.066(4) 0.096(6) -0.019(4) -0.029(4) 0.013(3)
C37 0.046(3) 0.046(3) 0.127(7) -0.025(4) -0.015(4) -0.002(3)
C38 0.060(4) 0.057(4) 0.111(6) -0.032(4) -0.023(4) -0.002(3)
C39 0.086(6) 0.059(5) 0.208(12) -0.018(6) -0.058(7) -0.004(4)
C40 0.065(3) 0.039(3) 0.027(2) -0.003(2) -0.008(2) -0.014(2)
C41 0.043(3) 0.049(3) 0.034(3) -0.013(2) 0.005(2) -0.009(2)
O1 0.091(4) 0.094(4) 0.097(4) -0.032(3) -0.011(3) -0.007(3)
S1 0.0564(7) 0.0372(6) 0.0241(6) -0.0001(4) -0.0051(5) -0.0140(5)
S2 0.0268(5) 0.0324(6) 0.0366(6) 0.0033(4) -0.0011(4) -0.0042(4)
O11 0.061(2) 0.046(2) 0.0357(18) -0.0025(15) -0.0093(16) -0.0027(16)
O12 0.052(2) 0.070(3) 0.049(2) -0.0047(19) -0.0016(17) -0.0247(19)
O13 0.098(3) 0.046(2) 0.0293(18) 0.0089(16) -0.0120(18) -0.022(2)
O21 0.188(6) 0.061(3) 0.037(2) -0.007(2) 0.028(3) 0.049(3)
O22 0.0367(19) 0.066(3) 0.076(3) 0.018(2) -0.0206(18) -0.0068(17)
O23 0.070(3) 0.106(4) 0.108(4) 0.055(3) -0.041(3) -0.064(3)
F11 0.102(3) 0.070(2) 0.066(2) -0.0009(18) -0.020(2) -0.047(2)
F12 0.101(3) 0.0452(17) 0.0344(16) 0.0069(13) -0.0036(16) -0.0169(17)
F13 0.117(3) 0.0488(19) 0.050(2) -0.0118(15) 0.013(2) 0.0063(19)
F21 0.112(3) 0.133(4) 0.078(3) 0.064(3) -0.041(2) -0.088(3)
F22 0.192(6) 0.115(4) 0.044(2) -0.024(2) -0.003(3) 0.019(4)
F23 0.057(2) 0.110(3) 0.086(3) 0.038(2) -0.0309(19) -0.013(2)
loop_
_atom_type_symbol
_atom_type_description
_atom_type_scat_dispersion_real
_atom_type_scat_dispersion_imag
_atom_type_scat_source
C C 0.0033 0.0016 'International Tables Vol C Tables 4.2.6.8 and 6.1.1.4'
H H 0.0000 0.0000 'International Tables Vol C Tables 4.2.6.8 and 6.1.1.4'
N N 0.0061 0.0033 'International Tables Vol C Tables 4.2.6.8 and 6.1.1.4'
O O 0.0106 0.0060 'International Tables Vol C Tables 4.2.6.8 and 6.1.1.4'
F F 0.0171 0.0103 'International Tables Vol C Tables 4.2.6.8 and 6.1.1.4'
S S 0.1246 0.1234 'International Tables Vol C Tables 4.2.6.8 and 6.1.1.4'
loop_
_geom_angle_atom_site_label_1
_geom_angle_atom_site_label_2
_geom_angle_atom_site_label_3
_geom_angle
C2 C1 C26 120.8(4)
C2 C1 H1 119.6
C26 C1 H1 119.6
C1 C2 C3 121.5(4)
C1 C2 H2 119.3
C3 C2 H2 119.3
C4 C3 C2 119.1(4)
C4 C3 H3 120.5
C2 C3 H3 120.5
C3 C4 C5 121.9(4)
C3 C4 H4 119.0
C5 C4 H4 119.0
C6 C5 C4 122.6(4)
C6 C5 C26 118.7(3)
C4 C5 C26 118.6(3)
C7 C6 C5 120.1(4)
C7 C6 H6 120.0
C5 C6 H6 120.0
C6 C7 N8 121.4(4)
C6 C7 H7 119.3
N8 C7 H7 119.3
C25 N8 C7 122.7(3)
C25 N8 C9 117.7(3)
C7 N8 C9 119.4(3)
N8 C9 C10 108.0(3)
N8 C9 H9A 110.1
C10 C9 H9A 110.1
N8 C9 H9B 110.1
C10 C9 H9B 110.1
H9A C9 H9B 108.4
C11 C10 C9 109.0(3)
C11 C10 H10A 109.9
C9 C10 H10A 109.9
C11 C10 H10B 109.9
C9 C10 H10B 109.9
H10A C10 H10B 108.3
C12 C11 C24 120.8(4)
C12 C11 C10 123.8(4)
C24 C11 C10 115.1(3)
C11 C12 C13 119.9(4)
C11 C12 C27 120.5(4)
C13 C12 C27 119.5(4)
C12 C13 C14 119.8(4)
C12 C13 C28 120.8(4)
C14 C13 C28 119.3(4)
C13 C14 C23 120.9(4)
C13 C14 C15 121.5(4)
C23 C14 C15 117.5(4)
C16 C15 C14 109.0(3)
C16 C15 H15A 109.9
C14 C15 H15A 109.9
C16 C15 H15B 109.9
C14 C15 H15B 109.9
H15A C15 H15B 108.3
C18 N17 C22 122.0(3)
C18 N17 C16 123.2(3)
C22 N17 C16 114.7(3)
N17 C16 C15 108.9(3)
N17 C16 H16A 109.9
C15 C16 H16A 109.9
N17 C16 H16B 109.9
C15 C16 H16B 109.9
H16A C16 H16B 108.3
N17 C18 C19 118.4(4)
N17 C18 C29 118.8(4)
C19 C18 C29 122.6(4)
C20 C19 C18 120.6(4)
C20 C19 H19 119.7
C18 C19 H19 119.7
C19 C20 C21 119.9(4)
C19 C20 H20 120.0
C21 C20 H20 120.0
C22 C21 C20 119.7(4)
C22 C21 H21 120.1
C20 C21 H21 120.1
N17 C22 C21 119.1(3)
N17 C22 C23 118.0(3)
C21 C22 C23 122.4(3)
C14 C23 C24 119.0(3)
C14 C23 C22 117.5(3)
C24 C23 C22 122.4(3)
C11 C24 C23 118.7(3)
C11 C24 C25 117.1(3)
C23 C24 C25 124.1(3)
N8 C25 C26 118.3(3)
N8 C25 C24 116.6(3)
C26 C25 C24 124.7(3)
C1 C26 C25 123.8(3)
C1 C26 C5 118.1(3)
C25 C26 C5 118.1(3)
C12 C27 H27A 109.5
C12 C27 H27B 109.5
H27A C27 H27B 109.5
C12 C27 H27C 109.5
H27A C27 H27C 109.5
H27B C27 H27C 109.5
C13 C28 H28A 109.5
C13 C28 H28B 109.5
H28A C28 H28B 109.5
C13 C28 H28C 109.5
H28A C28 H28C 109.5
H28B C28 H28C 109.5
C30 C29 C18 123.2(4)
C30 C29 H29 118.4
C18 C29 H29 118.4
C29 C30 C31 123.2(5)
C29 C30 H30 118.4
C31 C30 H30 118.4
C32 C31 C30 123.2(6)
C32 C31 H31 118.4
C30 C31 H31 118.4
C31 C32 C33 125.5(6)
C31 C32 H32 117.3
C33 C32 H32 117.3
C34 C33 C38 119.4(6)
C34 C33 C32 123.6(6)
C38 C33 C32 116.9(7)
C33 C34 C35 122.9(7)
C33 C34 H34 118.6
C35 C34 H34 118.6
C36 C35 C34 116.6(8)
C36 C35 H35 121.7
C34 C35 H35 121.7
C35 C36 C37 124.2(7)
C35 C36 O1 113.4(8)
C37 C36 O1 122.4(7)
C36 C37 C38 117.6(7)
C36 C37 H37 121.2
C38 C37 H37 121.2
C33 C38 C37 119.2(8)
C33 C38 H38 120.4
C37 C38 H38 120.4
O1 C39 H39A 109.5
O1 C39 H39B 109.5
H39A C39 H39B 109.5
O1 C39 H39C 109.5
H39A C39 H39C 109.5
H39B C39 H39C 109.5
F11 C40 F13 106.2(4)
F11 C40 F12 107.3(4)
F13 C40 F12 107.1(4)
F11 C40 S1 111.9(4)
F13 C40 S1 111.7(4)
F12 C40 S1 112.2(3)
F21 C41 F22 111.7(5)
F21 C41 F23 105.4(5)
F22 C41 F23 102.3(5)
F21 C41 S2 115.1(4)
F22 C41 S2 111.8(4)
F23 C41 S2 109.5(3)
C39 O1 C36 115.3(8)
O12 S1 O13 115.3(3)
O12 S1 O11 114.9(2)
O13 S1 O11 114.9(2)
O12 S1 C40 104.4(2)
O13 S1 C40 102.4(2)
O11 S1 C40 102.5(2)
O21 S2 O23 118.3(4)
O21 S2 O22 114.4(4)
O23 S2 O22 112.1(3)
O21 S2 C41 101.7(3)
O23 S2 C41 104.2(3)
O22 S2 C41 103.8(2)
loop_
_geom_bond_atom_site_label_1
_geom_bond_atom_site_label_2
_geom_bond_distance
C1 C2 1.347(5)
C1 C26 1.408(5)
C1 H1 0.9500
C2 C3 1.414(6)
C2 H2 0.9500
C3 C4 1.345(6)
C3 H3 0.9500
C4 C5 1.403(5)
C4 H4 0.9500
C5 C6 1.397(5)
C5 C26 1.437(5)
C6 C7 1.334(6)
C6 H6 0.9500
C7 N8 1.354(5)
C7 H7 0.9500
N8 C25 1.349(5)
N8 C9 1.485(5)
C9 C10 1.505(6)
C9 H9A 0.9900
C9 H9B 0.9900
C10 C11 1.501(6)
C10 H10A 0.9900
C10 H10B 0.9900
C11 C12 1.391(6)
C11 C24 1.420(5)
C12 C13 1.401(7)
C12 C27 1.526(6)
C13 C14 1.402(6)
C13 C28 1.524(6)
C14 C23 1.405(5)
C14 C15 1.513(6)
C15 C16 1.491(6)
C15 H15A 0.9900
C15 H15B 0.9900
N17 C18 1.368(5)
N17 C22 1.373(5)
N17 C16 1.486(5)
C16 H16A 0.9900
C16 H16B 0.9900
C18 C19 1.381(6)
C18 C29 1.474(6)
C19 C20 1.375(6)
C19 H19 0.9500
C20 C21 1.387(6)
C20 H20 0.9500
C21 C22 1.376(5)
C21 H21 0.9500
C22 C23 1.485(5)
C23 C24 1.421(5)
C24 C25 1.475(5)
C25 C26 1.422(5)
C27 H27A 0.9800
C27 H27B 0.9800
C27 H27C 0.9800
C28 H28A 0.9800
C28 H28B 0.9800
C28 H28C 0.9800
C29 C30 1.320(7)
C29 H29 0.9500
C30 C31 1.439(7)
C30 H30 0.9500
C31 C32 1.350(8)
C31 H31 0.9500
C32 C33 1.460(8)
C32 H32 0.9500
C33 C34 1.379(10)
C33 C38 1.397(9)
C34 C35 1.422(8)
C34 H34 0.9500
C35 C36 1.354(11)
C35 H35 0.9500
C36 C37 1.403(11)
C36 O1 1.447(9)
C37 C38 1.443(10)
C37 H37 0.9500
C38 H38 0.9500
C39 O1 1.342(10)
C39 H39A 0.9800
C39 H39B 0.9800
C39 H39C 0.9800
C40 F11 1.325(6)
C40 F13 1.327(6)
C40 F12 1.330(6)
C40 S1 1.811(5)
C41 F21 1.264(6)
C41 F22 1.301(6)
C41 F23 1.343(6)
C41 S2 1.810(5)
S1 O12 1.420(4)
S1 O13 1.429(3)
S1 O11 1.449(4)
S2 O21 1.391(4)
S2 O23 1.413(4)
S2 O22 1.420(4)
