#------------------------------------------------------------------------------
#$Date: 2017-11-07 03:11:16 +0200 (Tue, 07 Nov 2017) $
#$Revision: 202779 $
#$URL: file:///home/coder/svn-repositories/cod/cif/1/54/73/1547395.cif $
#------------------------------------------------------------------------------
#
# This file is available in the Crystallography Open Database (COD),
# http://www.crystallography.net/
#
# All data on this site have been placed in the public domain by the
# contributors.
#
data_1547395
loop_
_publ_author_name
'Liu, Bingxian'
'Hu, Panjie'
'Zhang, Ying'
'Li, Yunyun'
'Bai, Dachang'
'Li, Xingwei'
_publ_section_title
;
 Rh(III)-Catalyzed Diastereodivergent Spiroannulation of Cyclic Imines
 with Activated Alkenes.
;
_journal_issue                   19
_journal_name_full               'Organic letters'
_journal_page_first              5402
_journal_page_last               5405
_journal_paper_doi               10.1021/acs.orglett.7b02678
_journal_volume                  19
_journal_year                    2017
_chemical_formula_moiety         'C24 H18 F3 N O3 S'
_chemical_formula_sum            'C24 H18 F3 N O3 S'
_chemical_formula_weight         457.45
_space_group_crystal_system      triclinic
_space_group_IT_number           2
_space_group_name_Hall           '-P 1'
_space_group_name_H-M_alt        'P -1'
_symmetry_space_group_name_Hall  '-P 1'
_symmetry_space_group_name_H-M   'P -1'
_atom_sites_solution_hydrogens   geom
_audit_creation_method           SHELXL-2014/7
_cell_angle_alpha                93.198(2)
_cell_angle_beta                 105.789(2)
_cell_angle_gamma                91.377(2)
_cell_formula_units_Z            2
_cell_length_a                   8.0793(2)
_cell_length_b                   9.9652(3)
_cell_length_c                   13.6943(3)
_cell_measurement_reflns_used    6519
_cell_measurement_temperature    293(2)
_cell_measurement_theta_max      72.4230
_cell_measurement_theta_min      4.4510
_cell_volume                     1058.42(5)
_computing_cell_refinement       'CrysAlisPro 1.171.38.43f (Rigaku OD, 2015)'
_computing_data_collection       'CrysAlisPro 1.171.38.43f (Rigaku OD, 2015)'
_computing_data_reduction        'CrysAlisPro 1.171.38.43f (Rigaku OD, 2015)'
_computing_structure_refinement  'SHELXL-2014/7 (Sheldrick, 2014)'
_computing_structure_solution    'SHELXL-2014/7 (Sheldrick, 2014)'
_diffrn_ambient_temperature      293(2)
_diffrn_measured_fraction_theta_full 0.999
_diffrn_measured_fraction_theta_max 0.977
_diffrn_measurement_device_type  'SuperNova, Dual, Cu at zero, EosS2'
_diffrn_measurement_method       '\w scans'
_diffrn_radiation_type           CuK\a
_diffrn_radiation_wavelength     1.54184
_diffrn_reflns_av_R_equivalents  0.0390
_diffrn_reflns_av_unetI/netI     0.0332
_diffrn_reflns_Laue_measured_fraction_full 0.999
_diffrn_reflns_Laue_measured_fraction_max 0.977
_diffrn_reflns_limit_h_max       9
_diffrn_reflns_limit_h_min       -9
_diffrn_reflns_limit_k_max       12
_diffrn_reflns_limit_k_min       -12
_diffrn_reflns_limit_l_max       16
_diffrn_reflns_limit_l_min       -14
_diffrn_reflns_number            11457
_diffrn_reflns_point_group_measured_fraction_full 0.999
_diffrn_reflns_point_group_measured_fraction_max 0.977
_diffrn_reflns_theta_full        67.684
_diffrn_reflns_theta_max         72.583
_diffrn_reflns_theta_min         4.448
_exptl_absorpt_coefficient_mu    1.836
_exptl_absorpt_correction_T_max  0.773
_exptl_absorpt_correction_T_min  0.722
_exptl_absorpt_correction_type   multi-scan
_exptl_absorpt_process_details
;
CrysAlisPro 1.171.38.43f (Rigaku Oxford Diffraction, 2015)
Empirical absorption correction using spherical harmonics,
 implemented in SCALE3 ABSPACK scaling algorithm.
;
_exptl_crystal_colour            colorless
_exptl_crystal_density_diffrn    1.435
_exptl_crystal_description       block
_exptl_crystal_F_000             472
_exptl_crystal_size_max          0.21
_exptl_crystal_size_mid          0.17
_exptl_crystal_size_min          0.14
_refine_diff_density_max         0.275
_refine_diff_density_min         -0.661
_refine_diff_density_rms         0.105
_refine_ls_extinction_method     none
_refine_ls_goodness_of_fit_ref   1.042
_refine_ls_hydrogen_treatment    constr
_refine_ls_matrix_type           full
_refine_ls_number_parameters     290
_refine_ls_number_reflns         4107
_refine_ls_number_restraints     0
_refine_ls_restrained_S_all      1.042
_refine_ls_R_factor_all          0.0606
_refine_ls_R_factor_gt           0.0582
_refine_ls_shift/su_max          0.007
_refine_ls_shift/su_mean         0.001
_refine_ls_structure_factor_coef Fsqd
_refine_ls_weighting_details
'w=1/[\s^2^(Fo^2^)+(0.1054P)^2^+0.2353P] where P=(Fo^2^+2Fc^2^)/3'
_refine_ls_weighting_scheme      calc
_refine_ls_wR_factor_gt          0.1556
_refine_ls_wR_factor_ref         0.1598
_reflns_Friedel_coverage         0.000
_reflns_number_gt                3771
_reflns_number_total             4107
_reflns_threshold_expression     'I > 2\s(I)'
_cod_data_source_file            ol7b02678_si_001.cif
_cod_data_source_block           424-5-1
_cod_depositor_comments
'Adding full bibliography for 1547395--1547397.cif.'
_cod_database_code               1547395
_shelx_shelxl_version_number     2014/7
_shelx_space_group_comment
;
The symmetry employed for this shelxl refinement is uniquely defined
by the following loop, which should always be used as a source of
symmetry information in preference to the above space-group names.
They are only intended as comments.
;
_shelx_res_file
;

    424-5-1.res created by SHELXL-2014/7

TITL 424-5-1_a.res in P-1
REM Old TITL 424-5-1 in P-1 #2
REM SHELXT solution in P-1
REM R1 0.206, Rweak 0.017, Alpha 0.065, Orientation as input
REM Formula found by SHELXT: C24 N O3 F3 S
CELL 1.54184 8.0793 9.9652 13.6943 93.198 105.789 91.377
ZERR 2 0.0002 0.0003 0.0003 0.002 0.002 0.002
LATT 1
SFAC C H F N O S
UNIT 48 36 6 2 6 2

L.S. 4
PLAN  5
BOND $H
LIST 6
MORE -1
CONF
fmap 2
acta
REM <olex2.extras>
REM <HklSrc "%.\\424-5-1.hkl">
REM </olex2.extras>

WGHT    0.105400    0.235300
FVAR       0.92085
S8    6    0.363430    0.445799    0.608414    11.00000    0.04542    0.04181 =
         0.02535    0.00498    0.00120   -0.01850
F21   3    1.048619    0.771843    0.770899    11.00000    0.05116    0.07589 =
         0.07105    0.02477    0.02211   -0.01561
F22   3    1.186081    0.612129    0.851949    11.00000    0.03642    0.07443 =
         0.08843    0.00765    0.01782   -0.00170
F23   3    1.146604    0.792983    0.933553    11.00000    0.04976    0.07779 =
         0.07939   -0.01804    0.00246   -0.03187
O19   5    0.949413    0.368069    0.887191    11.00000    0.06668    0.05715 =
         0.03624    0.01001    0.01168    0.01277
N9    4    0.542417    0.534689    0.642540    11.00000    0.04321    0.03837 =
         0.02221    0.00322    0.00804   -0.01445
AFIX  43
H9    2    0.586389    0.569063    0.598575    11.00000   -1.20000
AFIX   0
O25   5    0.366560    0.350543    0.527005    11.00000    0.11732    0.06350 =
         0.02817   -0.01228    0.02170   -0.04958
O24   5    0.214288    0.525578    0.591374    11.00000    0.03996    0.08285 =
         0.07519    0.04082   -0.00440   -0.00620
C17   1    0.612861    0.694842    0.796258    11.00000    0.03681    0.02813 =
         0.02974    0.00176    0.01351   -0.00832
C1    1    0.625905    0.553806    0.751769    11.00000    0.03296    0.02933 =
         0.02327    0.00091    0.00779   -0.00702
C3    1    0.570087    0.418601    0.898453    11.00000    0.03857    0.04014 =
         0.02541    0.00112    0.01116   -0.00369
AFIX  43
H3    2    0.659923    0.463942    0.947315    11.00000   -1.20000
AFIX   0
C2    1    0.533554    0.448345    0.797085    11.00000    0.03334    0.02660 =
         0.02671    0.00178    0.01128   -0.00321
C10   1    0.826822    0.538697    0.777498    11.00000    0.03288    0.03483 =
         0.02714    0.00056    0.01083   -0.00629
AFIX  13
H10   2    0.864398    0.563816    0.718483    11.00000   -1.20000
AFIX   0
C7    1    0.398520    0.378879    0.726950    11.00000    0.03648    0.02890 =
         0.02919    0.00201    0.01055   -0.00573
C12   1    0.766897    0.742895    0.862581    11.00000    0.04050    0.03315 =
         0.03019   -0.00096    0.01392   -0.01202
C6    1    0.296170    0.280029    0.752332    11.00000    0.04015    0.03265 =
         0.03837   -0.00004    0.01431   -0.01029
AFIX  43
H6    2    0.205996    0.234959    0.703534    11.00000   -1.20000
AFIX   0
C11   1    0.906112    0.643367    0.866205    11.00000    0.03404    0.04140 =
         0.02980    0.00074    0.00619   -0.01092
AFIX  13
H11   2    0.929619    0.599295    0.930502    11.00000   -1.20000
AFIX   0
C18   1    0.882168    0.395181    0.800383    11.00000    0.03460    0.04143 =
         0.03316    0.00492    0.01269   -0.00047
C16   1    0.467296    0.770880    0.777546    11.00000    0.03922    0.03548 =
         0.04876    0.00250    0.01554   -0.00489
AFIX  43
H16   2    0.364553    0.738582    0.731980    11.00000   -1.20000
AFIX   0
C5    1    0.334728    0.251912    0.853447    11.00000    0.04832    0.03457 =
         0.04539    0.00812    0.02387   -0.00587
AFIX  43
H5    2    0.269176    0.186490    0.873616    11.00000   -1.20000
AFIX   0
C4    1    0.469613    0.319690    0.925335    11.00000    0.04961    0.04026 =
         0.03167    0.00944    0.01911    0.00142
AFIX  43
H4    2    0.493378    0.298563    0.992925    11.00000   -1.20000
AFIX   0
C26   1    0.844948    0.290575    0.715507    11.00000    0.04028    0.03334 =
         0.04443    0.00334    0.01509   -0.00107
C13   1    0.776348    0.868050    0.915157    11.00000    0.05408    0.03915 =
         0.04492   -0.01141    0.01835   -0.02011
AFIX  43
H13   2    0.878661    0.900120    0.961269    11.00000   -1.20000
AFIX   0
C27   1    0.841279    0.316824    0.617248    11.00000    0.05951    0.03521 =
         0.03948    0.00082    0.01131    0.00229
AFIX  43
H27   2    0.858154    0.404847    0.601619    11.00000   -1.20000
AFIX   0
C14   1    0.631295    0.943573    0.897624    11.00000    0.07391    0.03119 =
         0.06137   -0.00897    0.03418   -0.01203
AFIX  43
H14   2    0.635759    1.026986    0.932471    11.00000   -1.20000
AFIX   0
C15   1    0.479096    0.896028    0.828491    11.00000    0.05916    0.03443 =
         0.07010    0.00302    0.03086    0.00248
AFIX  43
H15   2    0.383404    0.949134    0.816175    11.00000   -1.20000
AFIX   0
C20   1    1.070277    0.705470    0.855407    11.00000    0.03516    0.05343 =
         0.04926    0.00220    0.00720   -0.01295
C28   1    0.812932    0.214483    0.541558    11.00000    0.08278    0.04416 =
         0.04832   -0.00684    0.01401    0.00481
AFIX  43
H28   2    0.813327    0.234218    0.476040    11.00000   -1.20000
AFIX   0
C31   1    0.820204    0.157854    0.737194    11.00000    0.08997    0.03950 =
         0.06725    0.01087    0.03350   -0.00672
AFIX  43
H31   2    0.825318    0.137469    0.803374    11.00000   -1.20000
AFIX   0
C29   1    0.783958    0.082930    0.562133    11.00000    0.08892    0.04142 =
         0.07871   -0.01492    0.01890   -0.00521
C30   1    0.788198    0.056781    0.660906    11.00000    0.12260    0.03307 =
         0.09700    0.00000    0.04056   -0.01424
AFIX  43
H30   2    0.768999   -0.031042    0.676131    11.00000   -1.20000
AFIX   0
C32   1    0.748924   -0.028540    0.478472    11.00000    0.16513    0.05579 =
         0.11547   -0.03892    0.02716   -0.01086
AFIX 137
H32A  2    0.628413   -0.033860    0.443411    11.00000   -1.50000
H32B  2    0.782006   -0.112574    0.507577    11.00000   -1.50000
H32C  2    0.814142   -0.009853    0.431390    11.00000   -1.50000
AFIX   0
HKLF 4

REM  424-5-1_a.res in P-1
REM R1 =  0.0582 for    3771 Fo > 4sig(Fo)  and  0.0606 for all    4107 data
REM    290 parameters refined using      0 restraints

END

WGHT      0.1066      0.2267

REM Highest difference peak  0.275,  deepest hole -0.661,  1-sigma level  0.105
Q1    1   0.5385  0.6471  0.6134  11.00000  0.05    0.28
Q2    1   0.5880  0.1397  0.7974  11.00000  0.05    0.27
Q3    1   1.0856  0.9760  0.7316  11.00000  0.05    0.26
Q4    1   0.6765  0.1545  0.7838  11.00000  0.05    0.26
Q5    1   0.8965 -0.1001  0.5003  11.00000  0.05    0.25
;
_shelx_res_checksum              63854
_shelx_hkl_file
;
   0   0   2 1914.11   12.90
   0   0   2 2004.45   10.16
   0   0   2 1981.76   12.40
   0   0   2 1966.32   11.20
   0   0   2 1916.64   12.54
   0   0  -3 4649.83   21.30
   0   0   3 4643.61   23.45
   0   0   3 4688.41   24.42
   0   0   3 4639.06   18.97
   0   0   3 4672.86   24.93
   0   0   4 1099.61   14.30
   0   0   4 1094.76   10.85
   0   0   4 1065.35   13.70
   0   0   4 1126.11   12.25
   0   0   4 1064.36   13.07
   0   0  -5   32.04    2.50
   0   0   5   30.06    2.72
   0   0   5   32.52    2.15
   0   0   5   31.54    2.46
   0   0  -5   31.79    2.24
   0   0   5   30.91    2.34
   0   0   5   28.73    2.69
   0   0   5   29.87    2.62
   0   0   5   36.58    2.88
   0   0   6 1683.18   17.12
   0   0   6 1746.86   19.84
   0   0   6 1668.63   22.96
   0   0  -6 1742.10   21.41
   0   0   6 1683.96   22.21
   0   0  -6 1617.20   17.74
   0   0   6 1729.44   23.11
   0   0   6 1728.84   22.59
   0   0   6 1596.70   19.87
   0   0   7  171.18    6.99
   0   0   7  170.59    8.05
   0   0   7  162.24    7.65
   0   0   7  164.73    8.03
   0   0   7  172.85    8.01
   0   0  -7  160.50    6.70
   0   0   7  152.71    6.69
   0   0  -7  180.94    6.99
   0   0  -7  177.38    7.63
   0   0  -8  705.34   16.86
   0   0   8  685.55   15.72
   0   0   8  659.48   17.89
   0   0   8  658.23   17.62
   0   0  -9   13.80    2.57
   0   0   9   22.98    3.86
   0   0 -10   20.34    3.44
   0   0  11    8.93    2.28
   0   0  11   11.40    2.91
   0   0  12   98.97    7.64
   0   0  12  111.83    9.66
   0   0  13  127.08   10.09
   0   0  13  111.30    8.04
   0   0  14    3.97    1.12
   0   0  14    6.27    2.13
   0   0  15  121.58    6.38
   0   0  15  193.07   10.69
   0  -1  16    0.18    0.04
   0  -1  15    5.74    1.32
   0  -1  15   12.70    2.79
   0  -1  14   27.41    3.47
   0  -1  14   56.23    6.26
   0  -1  13  163.58   11.30
   0  -1  12    8.46    2.54
   0  -1  12    7.98    2.52
   0  -1  11   22.02    4.03
   0  -1  11   20.88    3.92
   0   1 -10   22.05    3.92
   0   1  -9   95.18    6.98
   0  -1   9   89.69    5.98
   0  -1   9   91.15    6.51
   0  -1   8  824.71   17.07
   0   1  -8  846.24   19.36
   0  -1   7   43.01    3.26
   0   1  -7   46.25    3.58
   0  -1   7   42.94    3.81
   0  -1   7   47.68    3.75
   0  -1   7   41.04    3.77
   0   1  -7   41.40    3.78
   0  -1   6 1819.42   22.76
   0  -1   6 1864.56   23.93
   0   1  -6 1820.98   22.99
   0   1  -6 1845.81   17.00
   0  -1   6 1805.16   19.58
   0   1  -6 1861.10   20.39
   0  -1   5 3002.74   24.17
   0   1  -5 2720.62   24.81
   0   1  -5 2748.53   18.20
   0  -1   5 2777.06   24.99
   0  -1   5 2860.67   22.13
   0   1  -5 2877.61   23.01
   0  -1   5 2944.72   27.04
   0   1  -4  570.69    8.75
   0  -1   4  602.37    9.65
   0  -1   4  579.13   10.10
   0   1  -4  569.56    7.05
   0  -1   4  608.62    9.16
   0   1  -4  556.76    9.79
   0  -1   4  590.70   10.48
   0   1  -3   66.28    2.92
   0  -1   3   74.75    2.84
   0  -1   3   71.60    3.21
   0  -1   3   65.29    2.94
   0   1  -3   65.55    2.46
   0   1  -3   67.63    1.96
   0   1  -2 6389.96   19.03
   0   1  -2 6566.35   23.85
   0   1  -1  109.09    1.94
   0   1  -1  106.90    2.34
   0   1  -1  105.63    2.12
   0  -1   0 3324.27   12.65
   0  -1   0 3085.02   12.45
   0  -1  -1   21.95    1.03
   0   1   1   24.67    0.96
   0  -1  -1   22.07    0.86
   0   1   1   21.55    1.16
   0   1   2 1103.56   11.01
   0   1   2 1073.25    8.32
   0   1   2 1027.54   10.40
   0   1   2 1084.41   10.76
   0  -1  -2 1017.65    5.48
   0   1   2 1005.84    9.05
   0  -1  -2  998.74    8.61
   0  -1  -3  193.71    4.36
   0   1   3  199.94    4.43
   0   1   3  192.95    3.72
   0  -1  -3  182.60    2.44
   0   1   3  214.06    5.66
   0   1   3  206.19    4.45
   0   1   3  215.40    4.76
   0   1   3  206.30    5.52
   0   1   3  198.75    5.47
   0   1   4 1371.86   13.72
   0   1   4 1375.85   16.88
   0   1   4 1293.17   12.78
   0  -1  -4 1313.18   13.23
   0   1   4 1358.25   16.72
   0   1   4 1352.42   16.21
   0   1   4 1345.79   13.36
   0   1   4 1345.28   11.37
   0   1   4 1375.03   17.48
   0  -1  -5  274.44    6.84
   0   1   5  287.68    8.63
   0   1   5  273.64    5.68
   0   1   5  286.35    8.85
   0   1   5  276.36    6.94
   0   1   5  292.02    9.13
   0   1   5  290.60    8.52
   0   1   5  284.45    6.93
   0   1   6   26.90    2.43
   0  -1  -6   26.32    2.34
   0   1   6   29.40    3.23
   0   1   6   30.45    2.61
   0   1   6   31.21    3.37
   0  -1  -6   36.88    3.23
   0   1   6   27.91    2.96
   0   1   6   29.15    3.06
   0   1   7    3.47    1.18
   0  -1  -7    3.58    0.97
   0   1   7    3.83    1.24
   0   1   7    3.16    0.89
   0   1   7    4.75    0.95
   0   1   7    4.79    1.54
   0  -1  -7    2.03    0.29
   0   1   7    4.76    1.43
   0   1   8  474.87   16.01
   0   1   8  445.87   14.87
   0   1   8  452.28   14.71
   0   1   8  443.74   15.37
   0  -1  -8  481.86   13.91
   0  -1  -8  478.69   15.06
   0   1   9  107.18    8.30
   0   1   9  105.94    8.11
   0   1   9  107.57    7.75
   0  -1  -9  120.34    8.00
   0   1  10  755.58   23.15
   0   1  11  314.93   13.87
   0   1  11  270.31   13.47
   0   1  11  322.64   16.91
   0   1  12  286.50   13.59
   0   1  12  298.43   16.38
   0   1  13   15.08    2.44
   0   1  13   18.23    4.07
   0   1  14    8.49    2.39
   0   1  14    7.27    1.56
   0   1  15  141.61    6.20
   0   1  15  186.54   10.50
   0  -2  16    0.95    0.42
   0  -2  15   14.13    2.22
   0  -2  14   71.88    5.61
   0  -2  14  153.34   10.20
   0  -2  13   28.45    4.86
   0  -2  13   34.35    5.08
   0  -2  12    7.60    2.59
   0  -2  12   11.73    3.01
   0  -2  11  454.73   19.75
   0  -2  11  495.83   18.66
   0   2 -10   -0.72    0.84
   0  -2  10   -1.98    1.78
   0  -2   9  429.39   13.73
   0   2  -9  424.06   13.97
   0  -2   9  397.77   14.74
   0   2  -8   89.15    5.91
   0  -2   8   78.27    5.06
   0  -2   8   92.30    5.84
   0  -2   8   83.04    6.47
   0  -2   7  687.17   17.38
   0  -2   7  692.51   14.73
   0  -2   7  653.40   13.77
   0   2  -7  643.57   14.43
   0  -2   6  125.81    5.59
   0   2  -6  115.90    5.50
   0  -2   6  135.44    5.92
   0  -2   6  129.28    6.78
   0   2  -6  122.75    4.62
   0   2  -5 2098.57   17.57
   0   2  -5 2152.61   21.49
   0  -2   5 2230.33   25.19
   0  -2   5 2176.80   21.28
   0   2  -4  178.56    4.45
   0   2  -4  194.13    4.07
   0   2  -4  173.57    2.74
   0  -2   4  206.99    6.03
   0   2  -4  190.60    5.65
   0  -2   4  204.89    7.14
   0  -2   4  207.88    6.06
   0   2  -3 3230.64   16.34
   0  -2   3 3272.56   21.88
   0   2  -3 3265.71   20.42
   0   2  -2 1739.56   10.66
   0   2  -2 1774.12   12.83
   0   2  -1  826.56    8.89
   0  -2   1  851.76    9.97
   0   2   0   79.17    2.34
   0  -2   0   84.09    2.85
   0  -2  -1 4306.11   19.63
   0   2   1 4031.71   18.02
   0   2   2   13.58    1.31
   0   2   2   14.63    1.07
   0   2   2   15.47    1.61
   0   2   2   15.66    1.49
   0  -2  -2   13.18    1.10
   0  -2  -3    2.84    0.46
   0   2   3    1.89    0.42
   0   2   3    2.60    0.66
   0   2   3    3.71    0.83
   0   2   3    2.93    0.82
   0   2   3    2.45    0.73
   0  -2  -3    2.22    0.51
   0   2   3    2.54    0.67
   0   2   4 2317.25   23.68
   0   2   4 2227.91   18.16
   0  -2  -4 2175.49   11.44
   0  -2  -4 2153.23   17.21
   0   2   4 2181.27   15.53
   0   2   4 2373.99   24.90
   0   2   4 2330.41   25.17
   0   2   4 2129.72   19.96
   0   2   4 2371.60   24.52
   0   2   5   56.96    4.32
   0   2   5   52.48    3.46
   0   2   5   54.47    4.24
   0  -2  -5   48.21    2.77
   0   2   5   51.57    3.94
   0   2   5   47.55    2.91
   0   2   5   57.29    4.51
   0  -2  -6  168.98    7.68
   0   2   6  144.96    5.54
   0   2   6  165.86    8.07
   0   2   6  172.10    8.39
   0  -2  -6  156.13    5.44
   0   2   6  149.37    6.07
   0   2   6  166.93    8.43
   0   2   6  157.91    7.50
   0  -2  -7   37.12    2.85
   0   2   7   42.22    4.27
   0   2   7   39.49    4.34
   0  -2  -7   44.49    4.32
   0   2   7   42.46    4.65
   0   2   7   46.14    4.87
   0  -2  -8  159.49    8.40
   0   2   8  184.62   10.74
   0   2   8  173.02    9.95
   0   2   8  172.02   10.30
   0   2   8  169.85    9.36
   0  -2  -9  180.56   10.01
   0   2   9  177.33   10.50
   0  -2  -9  194.85   11.47
   0   2   9  183.48   11.76
   0   2   9  175.46   11.28
   0   2   9  187.87   11.33
   0   2  10 1146.38   26.28
   0   2  10 1003.61   24.90
   0   2  10  930.22   25.42
   0   2  10 1123.79   32.08
   0   2  11  232.29   12.37
   0   2  11  222.11   14.57
   0   2  11  178.01   11.39
   0   2  11  195.89   11.15
   0   2  12    9.68    2.60
   0   2  12    7.37    1.44
   0   2  12    7.90    2.32
   0   2  13  164.25   12.05
   0   2  14   73.51    7.41
   0   2  15    0.36    0.14
   0  -3  16   26.76    2.24
   0  -3  15   39.96    3.54
   0  -3  14   75.81    7.31
   0  -3  14   69.61    5.30
   0  -3  13   16.07    3.65
   0  -3  12    0.38    0.35
   0  -3  12    2.08    1.40
   0  -3  11  248.83   15.24
   0  -3  11  253.17   11.35
   0  -3  10   23.04    4.44
   0  -3  10   25.15    4.01
   0   3  -9  149.11    7.78
   0  -3   9  163.69   10.39
   0  -3   8  206.45   11.14
   0  -3   8  185.68    8.52
   0   3  -8  179.29    7.83
   0  -3   8  206.15    9.07
   0  -3   7  548.10   16.75
   0  -3   7  541.99   13.56
   0  -3   7  570.20   13.95
   0   3  -7  514.53   12.17
   0  -3   6   10.81    2.20
   0  -3   6   11.25    1.74
   0  -3   6   10.91    1.78
   0   3  -6    8.70    1.43
   0   3  -5 2055.12   15.96
   0  -3   5 2239.15   23.42
   0  -3   5 2215.90   28.74
   0  -3   5 2155.10   23.25
   0   3  -5 2096.61   20.56
   0  -3   4   36.48    2.83
   0  -3   4   37.50    2.78
   0   3  -4   34.41    2.41
   0   3  -4   35.49    1.93
   0  -3   4   35.95    3.33
   0   3  -4   36.50    2.26
   0   3  -3 1223.70   13.24
   0  -3   3 1216.50   15.34
   0   3  -3 1235.01   12.78
   0   3  -2  312.33    6.30
   0   3  -2  290.83    6.52
   0  -3   2  296.19    7.19
   0   3  -1   30.40    2.12
   0  -3   1   31.45    2.24
   0   3  -1   26.91    1.80
   0   3  -1   28.34    2.09
   0   3   0  162.99    4.33
   0   3   0  186.97    5.22
   0  -3   0  174.78    5.26
   0  -3   0  148.86    4.42
   0   3   1  804.55    9.87
   0  -3  -1  864.53   10.34
   0   3   2    1.82    0.63
   0   3   2    1.96    0.67
   0   3   2    3.13    0.40
   0  -3  -2    3.62    0.73
   0  -3  -2    1.72    0.33
   0   3   2    0.96    0.49
   0   3   3  287.68    9.15
   0   3   3  288.51    9.35
   0   3   3  280.67    8.04
   0   3   3  271.92    7.95
   0   3   3  308.15    9.74
   0  -3  -3  262.11    5.36
   0  -3  -3  261.54    6.15
   0   3   4  327.46   10.68
   0   3   4  322.70   10.61
   0   3   4  303.91    8.79
   0   3   4  319.17   10.39
   0   3   4  314.71    9.68
   0   3   4  277.97    6.96
   0  -3  -4  293.66    6.77
   0   3   5  377.54   11.63
   0   3   5  353.40   10.35
   0   3   5  369.50   12.24
   0   3   5  387.60   12.68
   0  -3  -5  342.03    7.82
   0   3   5  398.51   13.22
   0   3   6 1376.72   26.52
   0  -3  -6 1211.39   15.60
   0   3   6 1229.30   22.50
   0  -3  -6 1211.79   22.44
   0   3   6 1376.40   25.99
   0   3   6 1229.67   20.76
   0   3   6 1370.88   26.60
   0  -3  -7   63.47    5.54
   0   3   7   67.78    6.15
   0   3   7   73.18    6.59
   0   3   7   65.15    5.56
   0   3   7   71.36    6.50
   0  -3  -8    2.39    0.87
   0   3   8    3.00    2.08
   0   3   8    3.02    1.17
   0   3   8    6.78    1.95
   0   3   8    2.64    1.20
   0   3   9   49.00    5.59
   0   3   9   57.59    7.48
   0  -3  -9   46.93    5.54
   0   3   9   49.47    6.43
   0   3   9   52.89    6.23
   0  -3  -9   48.20    5.48
   0   3  10    2.52    1.32
   0   3  10    3.91    1.83
   0   3  10    1.50    0.71
   0   3  10    2.49    1.07
   0   3  11  310.16   14.73
   0   3  11  325.73   18.45
   0   3  12   73.05    6.88
   0   3  12   66.04    8.11
   0   3  12   55.15    6.31
   0   3  13   22.96    3.58
   0   3  13   25.56    4.60
   0   3  14   12.76    2.99
   0   3  15    0.52    0.38
   0  -4  15   44.14    3.30
   0  -4  14    0.28    0.33
   0  -4  14   -0.27    0.63
   0  -4  13  104.24    9.29
   0  -4  13   94.89    6.14
   0  -4  12   -0.11    1.01
   0  -4  11   32.32    5.62
   0  -4  11   36.39    4.19
   0  -4  10   53.10    4.96
   0  -4  10   48.31    6.88
   0  -4   9   48.87    6.28
   0   4  -9   50.45    4.52
   0  -4   9   45.90    4.63
   0  -4   8  242.93   13.12
   0   4  -8  261.40    9.34
   0  -4   8  250.91   10.47
   0  -4   7  151.00    9.42
   0  -4   7  178.05    8.41
   0   4  -7  169.04    7.10
   0   4  -6   55.24    3.64
   0  -4   6   50.74    5.05
   0  -4   6   58.73    4.50
   0  -4   5    0.12    0.38
   0   4  -5    0.56    0.39
   0   4  -4   72.28    3.64
   0  -4   4   75.94    4.59
   0   4  -4   79.14    4.01
   0   4  -3  471.81    9.88
   0  -4   3  475.33   11.01
   0   4  -3  456.83    9.27
   0  -4   2   36.71    2.84
   0   4  -2   33.22    2.60
   0   4  -2   37.94    2.77
   0   4  -2   35.39    2.52
   0  -4   1  976.00   15.30
   0   4  -1 1003.20   13.13
   0   4   0  139.87    5.63
   0   4   0  108.40    4.99
   0  -4   0  140.91    5.89
   0   4   0  114.38    4.24
   0   4   1  165.42    5.63
   0  -4  -1  171.80    6.10
   0   4   2  856.80   16.88
   0   4   2  969.84   16.17
   0   4   2  770.72   16.59
   0  -4  -2 1054.09   14.79
   0   4   3   45.78    3.74
   0  -4  -3   44.75    3.02
   0   4   3   32.33    3.60
   0   4   3   36.95    3.75
   0   4   3   37.30    3.31
   0   4   3   38.96    3.87
   0   4   4  967.27   18.42
   0   4   4  914.11   20.35
   0  -4  -4  958.00   14.17
   0   4   4  960.11   20.91
   0   4   4  941.14   18.53
   0   4   5 1704.82   25.88
   0   4   5 1788.80   27.82
   0  -4  -5 1743.28   20.05
   0   4   5 1773.86   30.61
   0   4   5 1695.80   30.14
   0   4   5 1708.78   29.97
   0   4   6   21.77    3.64
   0   4   6   28.12    4.08
   0  -4  -6   23.10    3.40
   0   4   6   22.24    3.61
   0   4   6   25.90    4.18
   0  -4  -6   28.09    2.77
   0   4   6   24.12    3.39
   0  -4  -7   10.53    2.46
   0   4   7   13.40    3.23
   0   4   7    8.74    2.03
   0   4   7    9.71    2.22
   0   4   7   15.63    3.47
   0   4   8   53.55    6.66
   0   4   8   56.13    7.05
   0   4   8   55.61    6.65
   0  -4  -8   48.11    5.38
   0   4   9  131.80    9.00
   0   4   9  120.88   11.56
   0   4   9  147.04   10.04
   0   4   9  156.98    9.64
   0   4  10   66.56    6.56
   0   4  10   53.62    6.24
   0   4  10   54.01    7.63
   0   4  11  775.52   23.36
   0   4  11  656.25   26.68
   0   4  12    7.52    2.59
   0   4  12    8.99    2.45
   0   4  12    7.02    2.27
   0   4  13   15.12    2.88
   0   4  13   14.23    3.43
   0   4  14   29.65    3.30
   0   4  14   26.82    3.96
   0   4  15    7.77    1.64
   0  -5  14   16.87    3.23
   0  -5  14   28.51    2.64
   0  -5  13    9.37    2.63
   0  -5  13   14.47    2.04
   0  -5  12    4.38    1.69
   0  -5  12    6.28    1.39
   0  -5  11   48.49    6.92
   0  -5  11   64.23    5.31
   0  -5  11   57.37    5.74
   0  -5  10   36.65    4.12
   0  -5  10   32.30    4.40
   0  -5  10   23.43    4.99
   0  -5   9  152.95   12.52
   0  -5   9  159.24   11.51
   0  -5   8  122.92    7.72
   0   5  -8  119.45    6.33
   0  -5   7   61.14    5.22
   0  -5   7   48.16    5.82
   0   5  -7   58.36    4.19
   0   5  -6   53.65    3.94
   0  -5   6   42.25    5.09
   0  -5   6   55.84    4.64
   0  -5   5  102.26    6.03
   0   5  -5   94.09    5.04
   0   5  -4  152.16    6.54
   0  -5   4  161.05    7.27
   0   5  -3 1087.90   17.84
   0   5  -3 1019.14   15.99
   0   5  -2  153.63    6.75
   0   5  -2  151.22    6.09
   0   5  -2  157.57    6.15
   0   5  -1  560.19   13.07
   0   5  -1  566.22   11.12
   0   5   0    6.51    1.04
   0  -5   0    7.69    1.55
   0   5   0    6.59    1.42
   0   5   1    9.75    1.80
   0   5   1   13.20    1.93
   0  -5  -1   10.13    1.70
   0   5   2   27.23    3.38
   0   5   2   28.05    3.70
   0   5   2   25.03    3.04
   0  -5  -2   27.37    2.74
   0  -5  -3  124.91    6.02
   0   5   3  115.33    6.84
   0   5   3   97.88    6.95
   0   5   3   87.18    6.83
   0   5   3   95.16    7.02
   0   5   3   96.30    6.00
   0   5   4    1.79    0.82
   0   5   4    0.61    0.60
   0   5   4    1.23    0.73
   0  -5  -4    2.47    1.02
   0   5   4    1.61    0.52
   0   5   4    1.77    0.59
   0  -5  -5  636.60   14.21
   0   5   5  517.29   18.37
   0   5   5  497.79   18.61
   0   5   5  594.40   17.76
   0   5   5  596.86   17.77
   0   5   6   -0.16    0.72
   0  -5  -6    1.77    1.06
   0   5   6    0.17    0.48
   0   5   6    1.91    0.95
   0  -5  -6    4.09    1.50
   0   5   6    2.90    0.84
   0   5   7    0.69    1.24
   0   5   7    1.04    1.08
   0   5   7   -0.75    1.26
   0   5   8  204.46   11.74
   0   5   8  177.55   14.39
   0   5   8  225.66   12.31
   0   5   8  248.92   11.99
   0   5   9   59.94    6.53
   0   5   9   45.80    7.13
   0   5   9   53.27    5.98
   0   5  10    2.16    1.26
   0   5  10    1.98    1.24
   0   5  10    0.96    0.90
   0   5  11   23.05    4.88
   0   5  11   23.08    4.00
   0   5  12   12.65    2.94
   0   5  12   26.36    4.69
   0   5  13    0.07    0.16
   0   5  13    0.32    0.36
   0   5  14    7.41    1.50
   0   5  14    8.90    1.91
   0  -6  14   23.48    3.40
   0  -6  13    1.35    0.70
   0  -6  12   58.47    7.05
   0  -6  12   97.34    6.90
   0  -6  11   84.59    6.96
   0  -6  11   86.24    5.92
   0  -6  10    7.00    2.27
   0  -6  10    7.72    2.80
   0  -6  10   14.39    2.90
   0  -6  10   15.74    2.65
   0  -6   9   24.79    4.74
   0  -6   9   51.03    5.49
   0  -6   9   44.01    4.44
   0  -6   9   29.08    5.59
   0  -6   8   57.38    7.64
   0  -6   8   65.38    5.42
   0  -6   7  204.30   14.12
   0  -6   6   97.55    8.39
   0   6  -6  119.11    6.76
   0  -6   5   38.55    5.01
   0   6  -5   38.65    3.79
   0   6  -4   75.09    5.04
   0   6  -4   88.46    5.67
   0  -6   4   74.05    6.65
   0   6  -3  190.15    8.53
   0   6  -3  187.55    7.58
   0   6  -3  198.09    8.02
   0   6  -2  294.90    9.17
   0   6  -2  290.96   10.57
   0   6  -1   28.51    3.32
   0   6  -1   34.40    3.04
   0   6   0  464.53   13.87
   0  -6  -1   76.30    5.37
   0   6   1   61.71    5.29
   0   6   2  161.88    8.98
   0   6   2  188.48   10.73
   0   6   2  181.48   10.23
   0  -6  -2  202.60    9.10
   0   6   2  180.46    9.32
   0   6   3   16.33    2.80
   0  -6  -3   21.09    2.75
   0   6   3   15.95    3.22
   0   6   3   14.60    2.82
   0   6   3   16.77    3.41
   0   6   4    3.90    1.22
   0  -6  -4    7.15    1.83
   0   6   4    5.82    1.80
   0   6   4    5.02    1.36
   0   6   4    3.37    1.35
   0   6   5   35.84    5.30
   0  -6  -5   87.12    5.77
   0   6   5   48.40    6.10
   0   6   5   52.36    6.95
   0   6   5   64.82    6.57
   0  -6  -5   64.58    6.03
   0   6   6  125.15    8.88
   0   6   6   89.23    8.04
   0   6   7   67.02    6.73
   0   6   7   68.14    6.65
   0   6   7   65.35    6.08
   0   6   8  229.93   12.83
   0   6   8  252.73   13.20
   0   6   9   12.75    3.73
   0   6   9   17.63    3.43
   0   6   9   16.86    3.42
   0   6  10    0.15    0.83
   0   6  10   -0.11    0.53
   0   6  10    0.36    0.70
   0   6  11   -0.11    0.70
   0   6  11    1.03    0.48
   0   6  11    1.40    0.86
   0   6  11    2.26    1.67
   0   6  12   44.15    4.64
   0   6  12   34.49    5.13
   0   6  13    0.70    0.35
   0   6  13   -0.06    0.23
   0  -7  13    0.43    0.35
   0  -7  13    1.44    0.96
   0  -7  12  113.83    6.91
   0  -7  12  104.81    8.75
   0  -7  11    2.26    1.05
   0  -7  11    3.19    1.20
   0  -7  10  202.52    9.07
   0  -7  10  204.29   10.78
   0  -7   9  127.33    8.63
   0  -7   9  134.16    7.64
   0  -7   9  123.13   11.12
   0  -7   8    1.19    0.85
   0  -7   8    0.96    0.75
   0  -7   8    0.24    0.39
   0  -7   8    1.10    1.01
   0  -7   7    1.34    1.01
   0  -7   7    1.20    0.88
   0  -7   7    0.29    0.76
   0  -7   7    1.05    1.00
   0  -7   6  129.07    7.51
   0  -7   6  122.09    8.02
   0  -7   6  135.38   11.53
   0  -7   6  132.09    8.37
   0   7  -5  147.96    8.04
   0   7  -4    0.23    0.25
   0   7  -4   -0.76    0.35
   0   7  -3    0.37    0.16
   0   7  -3    1.04    0.56
   0   7  -3    1.73    1.84
   0   7  -2  109.87    7.05
   0   7  -2   99.04    7.23
   0   7  -1    9.68    2.12
   0   7   0    4.21    1.47
   0   7   1    2.63    1.16
   0   7   1    2.51    1.31
   0   7   1    3.60    1.47
   0   7   2  272.61   14.00
   0   7   2  287.62   14.66
   0   7   2  258.93   13.24
   0   7   2  257.18   12.56
   0  -7  -2  259.50   10.88
   0   7   3  290.72   15.90
   0  -7  -3  233.72   10.71
   0   7   3  252.81   12.71
   0   7   3  262.96   14.56
   0  -7  -3  283.77   11.67
   0   7   3  278.28   14.92
   0   7   4   32.26    4.46
   0   7   4   36.30    4.44
   0   7   5   61.28    6.02
   0   7   5   49.52    5.98
   0   7   5   64.32    6.02
   0   7   5   71.55    6.94
   0   7   6    6.53    1.99
   0   7   6    6.44    2.14
   0   7   6    5.24    1.69
   0   7   7    1.13    0.80
   0   7   7    0.93    0.99
   0   7   7    0.15    0.42
   0   7   8  116.26   11.94
   0   7   8  115.77    9.08
   0   7   8  130.12    9.11
   0   7   9   69.64    8.89
   0   7   9   79.27    7.03
   0   7   9   72.62    6.98
   0   7  10    0.07    0.72
   0   7  10    0.77    0.58
   0   7  10    1.10    0.81
   0   7  11   13.67    2.46
   0   7  11   11.94    2.62
   0   7  11   17.04    3.45
   0   7  11   16.08    2.69
   0   7  12   33.80    4.27
   0   7  12   37.14    3.66
   0  -8  13   20.67    2.64
   0  -8  12    5.77    1.69
   0  -8  12    5.66    1.33
   0  -8  11    8.78    1.99
   0  -8  11    8.91    2.42
   0  -8  10  167.92   11.38
   0  -8  10  163.02    8.90
   0  -8   9    9.66    2.20
   0  -8   9    9.61    2.90
   0  -8   9    6.76    2.47
   0  -8   8    5.46    2.34
   0  -8   8    7.95    2.05
   0  -8   8   10.37    2.19
   0  -8   8    6.35    2.65
   0  -8   7  319.41   13.19
   0  -8   7  307.62   13.05
   0  -8   7  336.87   18.03
   0  -8   6   10.20    2.41
   0  -8   6    9.89    3.19
   0  -8   6   10.56    3.32
   0  -8   6    8.21    2.09
   0  -8   5  301.06   12.54
   0  -8   5  334.99   13.86
   0  -8   5  333.38   19.01
   0  -8   4    0.81    0.62
   0  -8   4    1.91    1.14
   0  -8   4    1.01    0.66
   0  -8   4    0.75    6.41
   0  -8   3    6.68    1.69
   0  -8   3   10.52    3.09
   0  -8   3    9.15    2.24
   0   8  -3   11.42    2.89
   0  -8   2   22.39    3.58
   0   8  -2   25.12    4.43
   0   8  -1   16.38    3.53
   0   8   0  137.26   10.41
   0   8   1  674.14   23.24
   0   8   2    2.11    1.32
   0   8   2    1.31    0.37
   0   8   2    3.03    1.67
   0   8   3  793.96   22.87
   0   8   3  796.29   25.47
   0   8   3  851.90   24.10
   0   8   4  123.74    8.90
   0   8   4  121.71    9.87
   0   8   4  136.56    9.70
   0   8   5   48.91    5.86
   0   8   5   41.84    4.97
   0   8   5   41.62    5.68
   0   8   6  199.10   10.57
   0   8   6  212.28   12.18
   0   8   7   34.45    6.19
   0   8   7   32.95    4.73
   0   8   7   32.68    4.31
   0   8   8    3.69    1.42
   0   8   8    4.41    1.55
   0   8   8    5.62    2.64
   0   8   9   23.15    3.55
   0   8   9   22.84    3.28
   0   8   9   24.45    4.74
   0   8  10   27.66    4.30
   0   8  10   22.42    3.10
   0   8  10   23.32    3.03
   0   8  11   24.90    3.41
   0   8  11   21.22    2.57
   0  -9  11   21.29    2.51
   0  -9  11   23.22    3.22
   0  -9  10   44.27    4.96
   0  -9  10   39.84    3.83
   0  -9  10   34.41    3.89
   0  -9   9   16.55    3.33
   0  -9   9   13.26    2.81
   0  -9   9   14.44    2.53
   0  -9   8    2.12    1.00
   0  -9   8    3.12    1.68
   0  -9   8    2.84    1.55
   0  -9   7  267.42   11.44
   0  -9   7  275.04   11.46
   0  -9   7  276.72   15.42
   0  -9   6   11.95    2.50
   0  -9   6   16.52    3.65
   0  -9   6   14.96    3.74
   0  -9   6   13.27    2.62
   0  -9   5  243.57   11.64
   0  -9   5  284.52   15.30
   0  -9   5  273.11   16.46
   0  -9   5  228.57   10.61
   0   9  -4    1.14    1.04
   0  -9   4    0.54    0.66
   0  -9   4   -0.23    1.24
   0  -9   4    0.69    0.74
   0  -9   4    0.32    0.41
   0  -9   3   35.08    5.89
   0   9  -3   36.53    5.54
   0   9  -2    0.61    0.46
   0   9  -1   10.92    3.12
   0   9   0  109.70    9.66
   0   9   1  173.80   12.02
   0   9   2  101.62    9.24
   0   9   2  105.87    8.10
   0   9   3   26.52    4.09
   0   9   3   27.58    4.73
   0   9   4   19.79    3.56
   0   9   4   17.73    3.65
   0   9   5  172.54   10.41
   0   9   5  159.44   10.81
   0   9   6   38.28    4.84
   0   9   7    9.70    2.29
   0   9   7    9.49    2.94
   0   9   8   10.84    2.74
   0   9   8    7.68    1.94
   0   9   8    8.76    1.76
   0   9   9    3.71    1.15
   0   9   9    3.37    0.98
   0   9   9    5.15    1.76
   0  -9 -10    0.48    0.41
   0   9  10    0.52    0.31
   0 -10  10    3.60    0.92
   0 -10  10    2.06    0.77
   0 -10   9    1.29    0.68
   0 -10   9    0.78    0.35
   0 -10   9    0.90    0.64
   0 -10   8  125.56    7.96
   0 -10   8  108.20    6.02
   0 -10   8  114.69    7.71
   0 -10   7    1.80    0.85
   0 -10   7    2.93    1.32
   0 -10   7    2.64    1.38
   0 -10   6    4.47    1.60
   0 -10   6    3.45    1.18
   0 -10   6    4.36    1.93
   0 -10   5   28.95    4.17
   0 -10   5   29.52    4.85
   0 -10   5   21.81    2.90
   0  10  -4   74.78    7.31
   0 -10   4   72.54    7.88
   0 -10   3  259.14   15.27
   0  10  -3  256.66   14.14
   0  10  -2   17.31    3.67
   0 -10   2   18.19    4.09
   0  10  -1   66.67    7.27
   0  10   0  134.04   10.29
   0  10   1    2.11    1.01
   0  10   2    0.96    0.60
   0  10   3   83.74    6.60
   0  10   3   92.22    8.12
   0 -10  -3   89.50    6.58
   0  10   4   14.82    2.61
   0  10   4   15.80    3.34
   0 -10  -4   13.37    2.59
   0  10   5   52.27    5.54
   0 -10  -5   60.19    5.32
   0  10   5   57.93    5.22
   0  10   6   14.94    2.50
   0  10   6   17.93    3.61
   0 -10  -6   15.29    2.59
   0  10   7    5.81    1.42
   0 -10  -7    6.76    1.63
   0  10   7    7.53    2.01
   0 -10  -8  106.37    5.68
   0  10   8  117.19    6.77
   0 -11   7   18.71    2.62
   0 -11   7   16.94    1.89
   0 -11   6   26.37    3.49
   0 -11   6   18.71    2.08
   0 -11   5    0.16    0.41
   0 -11   4   32.11    4.40
   0  11  -4   31.83    3.97
   0  11  -3   36.60    4.60
   0 -11   3   36.12    4.82
   0 -11   2   27.84    4.35
   0  11  -2   28.05    4.15
   0 -11   1    0.16    0.79
   0  11  -1    0.92    0.90
   0 -11   0   29.06    4.41
   0  11   0   27.42    4.12
   0  11   1   74.73    6.77
   0  11   2    7.89    2.18
   0  11   3   31.06    4.04
   0  11   4    6.76    1.70
   0 -11  -5   53.51    3.61
   0  11   5   55.85    4.40
   0 -12   4    2.40    0.80
   0 -12   3   11.47    1.93
   0  12  -2   35.36    3.53
   0 -12   2   33.98    3.57
   0 -12   1    0.06    0.55
   0  12  -1    0.26    0.23
   0 -12   0   75.21    5.32
   0  12   0   79.64    5.52
   0 -12  -1   12.66    2.07
   0  12   1   11.58    2.04
   0 -12  -2    9.07    1.60
   0  12   2    9.50    1.75
  -1  12   2   15.12    2.27
   1 -12  -1  113.27    6.01
  -1  12   1  119.81    6.61
  -1  12   0   54.90    4.55
   1 -12   0   54.44    4.34
  -1  12  -1   12.70    2.12
   1 -12   1   13.08    2.12
   1 -12   2    8.00    1.60
   1 -12   3    2.11    0.86
   1 -12   4    3.69    1.04
   1 -11  -6    6.48    1.24
   1 -11  -5   51.63    4.13
  -1  11   5   45.82    4.31
   1 -11  -5   41.19    3.34
   1 -11  -4   -0.39    0.73
  -1  11   4    0.52    0.34
   1 -11  -4    0.35    0.24
   1 -11  -3    5.13    1.56
  -1  11   3    6.30    1.84
   1 -11  -2   17.52    3.13
  -1  11   2   18.33    3.34
   1 -11  -1   22.41    3.58
  -1  11   1   23.45    3.80
   1 -11   0   51.39    5.65
  -1  11   0   50.51    5.70
  -1  11  -1   23.19    3.76
   1 -11   1   21.31    3.72
   1 -11   2   15.51    3.18
  -1  11  -2   15.29    2.99
   1 -11   3    3.01    1.20
  -1  11  -3    4.42    1.54
   1 -11   4   73.69    6.50
   1 -11   5   17.62    2.07
   1 -11   5   25.29    3.60
   1 -11   6    2.80    1.13
   1 -11   6    2.14    0.72
   1 -11   7   31.42    2.51
   1 -11   7   37.27    3.57
   1 -10  -9    8.19    1.40
   1 -10  -8   12.07    2.04
   1 -10  -7    2.44    1.00
   1 -10  -6    4.02    1.30
  -1  10   6    2.97    1.23
  -1  10   5   15.10    3.05
   1 -10  -5   14.43    2.64
   1 -10  -4  161.77    9.11
  -1  10   4  177.81   11.20
   1 -10  -3    1.20    0.86
  -1  10   3    1.21    0.87
  -1  10   2   36.98    5.53
  -1  10   1   85.44    8.24
  -1  10   0   60.81    7.00
  -1  10  -1   15.95    3.63
   1 -10   1   16.21    3.63
  -1  10  -2  174.89   11.86
   1 -10   2  179.74   12.72
  -1  10  -3   16.10    3.40
   1 -10   3   16.63    3.78
   1 -10   4   23.89    4.43
   1 -10   4   18.61    2.71
   1 -10   5   22.14    4.12
   1 -10   5   18.05    2.74
   1 -10   6   21.88    2.93
   1 -10   6   25.14    4.24
   1 -10   7    3.31    1.42
   1 -10   7    3.01    1.05
   1 -10   7    2.75    1.01
   1 -10   8   42.72    3.70
   1 -10   8   47.72    4.19
   1 -10   8   48.77    4.92
   1 -10   9    8.22    1.48
   1 -10   9    8.50    1.56
   1 -10   9    8.06    1.65
   1  -9 -10    6.57    1.50
  -1   9  10    6.80    1.25
  -1   9  10    7.38    1.72
  -1   9   9   31.89    3.17
  -1   9   9   32.05    4.12
   1  -9  -9   34.86    3.97
  -1   9   8    6.28    1.77
  -1   9   8    6.67    2.10
  -1   9   7    7.93    2.54
  -1   9   7    8.21    2.14
  -1   9   6   17.47    3.25
  -1   9   6   14.88    3.16
  -1   9   5   72.90    6.82
  -1   9   5   66.31    7.15
  -1   9   4   30.41    4.37
  -1   9   4   33.91    5.32
  -1   9   3   16.44    3.17
  -1   9   3   16.70    3.79
   1  -9  -3   22.27    3.74
   1  -9  -2  172.53   10.56
  -1   9   2  184.90   12.66
  -1   9   1   22.50    4.25
  -1   9   0    4.00    1.79
  -1   9  -1   39.66    5.92
  -1   9  -2    6.04    2.26
   1  -9   2    3.53    1.89
  -1   9  -3    0.04    0.33
   1  -9   3    0.66    0.54
   1  -9   3   -0.34    0.65
   1  -9   4   17.04    2.93
   1  -9   4   22.85    4.66
   1  -9   5  176.53   11.17
   1  -9   5  180.50   13.46
   1  -9   5  150.28    8.77
   1  -9   6   35.27    4.16
   1  -9   6   37.65    5.91
   1  -9   6   37.49    5.20
   1  -9   7   31.29    5.22
   1  -9   7   28.71    3.69
   1  -9   7   34.70    4.82
   1  -9   8   67.86    6.96
   1  -9   8   75.97    6.93
   1  -9   8   73.81    5.78
   1  -9   9    2.83    1.22
   1  -9   9    4.38    1.49
   1  -9   9    2.81    1.13
   1  -9  10   57.73    5.02
   1  -9  10   66.37    4.72
   1  -9  11   48.17    3.38
   1  -9  11   57.01    4.36
  -1   8  11   37.45    4.29
  -1   8  11   45.91    3.97
   1  -8 -11   47.20    4.39
  -1   8  11   43.78    4.43
  -1   8  10    5.49    1.54
  -1   8  10    6.10    1.99
  -1   8  10    6.58    1.71
  -1   8   9    1.59    1.26
  -1   8   9    1.60    0.81
  -1   8   9    1.54    0.76
  -1   8   8    4.97    1.53
  -1   8   8    3.36    1.18
  -1   8   8    4.62    2.07
  -1   8   7  105.55   10.52
  -1   8   7  102.04    7.51
  -1   8   7   94.82    8.01
  -1   8   6    0.55    0.62
  -1   8   6    3.43    1.50
  -1   8   5   16.11    3.33
  -1   8   5   14.86    3.42
  -1   8   4   20.28    3.79
  -1   8   4   18.06    3.77
  -1   8   3    3.03    1.23
  -1   8   3    0.66    0.45
  -1   8   2   83.36    7.27
  -1   8   2   78.36    7.91
  -1   8   1   17.29    3.74
  -1   8   0  141.81   10.92
  -1   8  -1   86.99    8.45
   1  -8   2   77.72    6.14
  -1   8  -2  107.74    9.41
   1  -8   3  173.05   13.65
  -1   8  -3  182.00   12.12
   1  -8   4   27.55    3.72
   1  -8   4   31.14    5.71
   1  -8   5    2.61    1.23
   1  -8   5    2.29    1.49
   1  -8   5    4.21    1.99
   1  -8   5    2.37    1.07
   1  -8   6  309.91   16.33
   1  -8   6  270.43   16.78
   1  -8   6  303.91   12.99
   1  -8   7    4.39    1.94
   1  -8   7    4.71    1.51
   1  -8   7    5.20    2.13
   1  -8   8   25.69    3.66
   1  -8   8   21.54    4.44
   1  -8   8   29.65    5.02
   1  -8   9  143.74    8.57
   1  -8   9  136.78   10.26
   1  -8  10   51.88    5.94
   1  -8  10   48.90    4.63
   1  -8  11   71.12    5.10
   1  -8  11   80.81    6.77
   1  -8  11   60.52    5.25
   1  -8  12   69.94    5.37
   1  -8  12   51.27    3.52
  -1   7  13    0.48    0.26
  -1   7  12   35.12    4.27
  -1   7  12   37.70    3.86
   1  -7 -12   36.95    3.93
  -1   7  12   29.27    3.85
  -1   7  11    3.84    1.39
  -1   7  11    7.90    1.92
  -1   7  11    5.66    1.62
  -1   7  11    6.84    2.11
  -1   7  10    1.81    1.01
  -1   7  10    2.78    1.36
  -1   7  10    2.23    0.98
  -1   7   9   18.96    3.49
  -1   7   9   21.87    3.68
  -1   7   9   18.22    4.28
  -1   7   8   14.52    3.14
  -1   7   8   13.83    3.01
  -1   7   8   11.06    3.43
  -1   7   7   12.94    2.78
  -1   7   7   11.99    2.98
  -1   7   6    1.26    0.63
  -1   7   6    0.97    0.31
  -1   7   5   25.49    4.30
  -1   7   5   31.53    4.57
   1  -7  -4  435.46   14.22
  -1   7   3  421.59   18.17
  -1   7   3  440.84   17.28
  -1   7   3  427.51   17.52
   1  -7  -3  448.97   14.30
  -1   7   2   22.62    4.04
  -1   7   2   18.29    2.61
  -1   7   2   31.14    4.72
   1  -7  -2   26.88    3.56
  -1   7   2   23.34    3.90
   1  -7  -1   21.75    3.20
  -1   7   1   20.31    3.63
  -1   7   1   25.84    4.00
  -1   7   0   52.39    5.46
  -1   7   0   50.00    5.50
  -1   7  -1   98.55    7.02
  -1   7  -1   83.92    6.79
   1  -7   2   38.83    4.95
  -1   7  -2   44.05    4.21
  -1   7  -2   52.55    5.61
  -1   7  -2   44.39    4.23
  -1   7  -2   42.68    3.97
  -1   7  -3  134.75    7.62
  -1   7  -3  157.38    8.18
  -1   7  -4    5.99    1.95
   1  -7   4    6.58    2.25
   1  -7   5   19.67    4.34
   1  -7   5   19.92    4.10
   1  -7   5   24.50    3.34
   1  -7   5   19.41    3.18
   1  -7   6  136.03   11.15
   1  -7   6  143.33    8.91
   1  -7   7   20.33    4.28
   1  -7   7   22.85    3.69
   1  -7   7   10.70    3.30
   1  -7   8    5.21    1.98
   1  -7   8    6.18    1.84
   1  -7   8    1.09    0.38
   1  -7   9   24.20    4.78
   1  -7   9   25.12    3.80
   1  -7  10    0.37    0.68
   1  -7  10    1.27    0.85
   1  -7  10   -0.06    0.98
   1  -7  11   76.50    5.96
   1  -7  11   75.68    7.54
   1  -7  12   71.07    6.57
   1  -7  12   63.15    4.63
   1  -7  13   16.72    2.73
  -1   6  14    4.96    1.10
  -1   6  13   10.26    2.26
  -1   6  13   10.78    2.05
  -1   6  13    8.28    1.97
  -1   6  12   56.75    6.45
  -1   6  12   65.04    5.84
  -1   6  11   77.33    8.32
  -1   6  11   84.85    7.25
  -1   6  11   64.89    6.05
  -1   6  10   52.98    5.86
  -1   6  10   49.97    7.16
  -1   6  10   66.08    6.66
  -1   6   9   82.18    7.62
  -1   6   9   97.36    8.17
  -1   6   9   82.85    9.47
  -1   6   8  154.02   10.12
  -1   6   8  125.93   12.03
  -1   6   8  147.52   10.03
  -1   6   7    2.73    1.28
  -1   6   7    1.59    0.81
  -1   6   6  222.89   12.72
   1  -6  -6  249.21   10.14
  -1   6   6  223.38   13.58
  -1   6   6  192.35   13.03
   1  -6  -6  199.60   10.33
  -1   6   5  292.44   14.29
  -1   6   5  260.02   13.37
   1  -6  -5  241.73   10.70
  -1   6   5  222.91   13.36
  -1   6   5  266.39   14.99
   1  -6  -4   78.92    5.74
   1  -6  -4  108.03    6.55
  -1   6   4   94.35    7.62
  -1   6   4   95.67    7.72
  -1   6   4   97.50    8.41
  -1   6   4   91.86    8.04
  -1   6   3    5.56    1.87
   1  -6  -3    7.20    1.91
   1  -6  -3    5.14    1.25
  -1   6   3    8.71    2.21
  -1   6   3    5.40    1.72
  -1   6   3    5.08    1.92
   1  -6  -2   25.89    3.05
  -1   6   2   27.06    3.75
  -1   6   2   28.11    4.06
   1  -6  -2   34.18    3.55
  -1   6   2   23.66    3.54
   1  -6  -1    5.00    1.36
  -1   6   1    4.26    1.27
  -1   6   1    3.79    1.11
  -1   6   1    4.86    1.61
  -1   6   0  212.25    9.23
   1  -6   0  195.87    8.87
  -1   6  -1   73.43    5.59
  -1   6  -1   76.45    5.08
  -1   6  -1   83.98    5.30
  -1   6  -2   27.03    2.88
   1  -6   2   18.78    3.20
  -1   6  -2   20.80    2.63
  -1   6  -2   20.19    2.79
   1  -6   3   20.06    3.25
  -1   6  -3   26.67    3.12
  -1   6  -3   28.25    2.88
  -1   6  -4    0.54    0.49
  -1   6  -4    1.55    0.71
  -1   6  -5    3.17    1.44
  -1   6  -5    1.88    0.85
   1  -6   5    0.24    0.45
  -1   6  -6   86.33    6.50
   1  -6   6   43.79    5.76
   1  -6   7  727.09   26.13
   1  -6   7  621.33   24.90
   1  -6   8    0.18    0.39
   1  -6   8    0.89    0.59
   1  -6   8    0.15    0.72
   1  -6   9    0.18    0.45
   1  -6   9    0.77    0.58
   1  -6   9    0.69    0.95
   1  -6  10    6.08    2.20
   1  -6  10    7.89    2.07
   1  -6  10    5.44    2.09
   1  -6  11   28.58    4.58
   1  -6  11   39.67    5.92
   1  -6  12   47.49    5.95
   1  -6  12   25.29    3.75
   1  -6  13   46.33    5.32
   1  -6  14    3.49    1.16
  -1   5  14   13.75    2.25
  -1   5  14    8.83    1.84
  -1   5  14   14.56    2.67
  -1   5  13   39.08    4.40
  -1   5  13   31.79    4.72
  -1   5  12   25.04    3.90
  -1   5  12   18.21    3.94
  -1   5  12   14.93    3.27
  -1   5  11  233.38   12.57
  -1   5  11  180.79   13.46
  -1   5  10    0.57    1.14
  -1   5  10   -0.14    0.27
  -1   5  10    1.17    1.00
  -1   5   9   22.70    3.83
  -1   5   9   25.47    4.23
  -1   5   9   20.14    4.49
  -1   5   8    8.78    2.36
  -1   5   8    5.87    2.14
  -1   5   8    7.19    2.12
   1  -5  -7    4.88    1.48
  -1   5   7    2.36    1.28
  -1   5   7    0.39    1.40
  -1   5   7    7.02    2.65
   1  -5  -7    1.67    0.94
  -1   5   7    3.40    1.58
   1  -5  -6  159.17    8.70
  -1   5   6  167.14   11.12
   1  -5  -6  178.68    7.50
  -1   5   6  169.50   10.15
  -1   5   6  186.49   11.35
  -1   5   5  259.38   11.98
   1  -5  -5  238.80    8.27
  -1   5   5  226.21   11.30
  -1   5   5  237.86   12.56
   1  -5  -5  218.86    9.53
  -1   5   4   15.36    2.69
   1  -5  -4   14.18    2.38
  -1   5   4   10.92    2.55
   1  -5  -4   14.05    1.87
  -1   5   4   14.59    2.90
  -1   5   4   14.65    2.87
  -1   5   3  503.55   14.70
  -1   5   3  526.31   16.42
  -1   5   3  475.07   15.59
   1  -5  -3  447.11   12.43
  -1   5   3  460.81   13.90
   1  -5  -3  506.38   11.69
  -1   5   2  383.48   11.42
  -1   5   2  387.31   11.16
  -1   5   2  420.01   13.48
  -1   5   2  404.28   12.57
   1  -5  -1   26.57    2.73
  -1   5   1   31.65    3.24
   1  -5  -1   21.06    2.36
  -1   5   1   24.29    2.34
  -1   5   1   23.42    2.93
  -1   5   0 1056.33   16.82
  -1   5   0  996.43   16.33
  -1   5   0  892.46   14.66
  -1   5   0  935.40   18.16
   1  -5   0 1133.16   18.53
  -1   5  -1 1759.61   21.40
   1  -5   1 1641.69   23.27
  -1   5  -1 1563.48   20.51
  -1   5  -1 1464.96   22.33
  -1   5  -2  108.66    4.91
  -1   5  -2  104.26    5.35
  -1   5  -2   98.59    5.66
  -1   5  -3   44.44    3.30
  -1   5  -3   51.01    3.99
  -1   5  -3   54.28    4.07
   1  -5   4  205.15   10.31
  -1   5  -4  207.21    7.50
  -1   5  -5   80.83    5.58
  -1   5  -5   69.43    4.42
  -1   5  -6  147.74    6.53
   1  -5   6  122.89    9.02
   1  -5   7  184.11   11.98
  -1   5  -7  281.09   11.61
   1  -5   8  250.80   11.84
   1  -5   8  241.65   15.11
   1  -5   8  234.09   14.64
   1  -5   9   90.56    7.24
   1  -5   9   85.89    8.83
   1  -5   9   89.93    9.43
   1  -5  10    1.64    0.50
   1  -5  10    1.04    0.64
   1  -5  10    1.73    1.17
   1  -5  10    1.32    0.11
   1  -5  11   55.32    6.70
   1  -5  11   69.79    5.00
   1  -5  11   54.86    7.25
   1  -5  12   61.68    4.50
   1  -5  12   49.85    6.58
   1  -5  12   41.21    5.30
   1  -5  13   11.91    1.73
   1  -5  13   10.41    2.78
   1  -5  14    1.96    0.90
   1  -5  14    3.40    0.74
  -1   4  15    0.69    0.60
  -1   4  14   -1.15    1.20
  -1   4  14    0.63    0.52
  -1   4  14    0.40    0.59
  -1   4  13   13.44    3.11
  -1   4  13   17.62    3.16
  -1   4  13   17.11    3.70
  -1   4  12   12.76    3.01
  -1   4  12   13.64    3.66
  -1   4  12   12.92    2.91
  -1   4  11  458.75   17.84
  -1   4  11  423.48   20.90
  -1   4  10   36.59    5.16
  -1   4  10   38.64    6.38
  -1   4   9   32.32    4.65
  -1   4   9   25.00    4.76
  -1   4   8  103.57    8.74
   1  -4  -8   88.24    7.33
  -1   4   8   96.90    8.45
   1  -4  -8   95.39    5.41
  -1   4   8   97.89    8.86
  -1   4   7    3.09    1.02
   1  -4  -7    4.53    1.12
  -1   4   7    6.61    2.26
  -1   4   7    2.10    0.95
   1  -4  -7    2.81    1.12
  -1   4   7    4.51    2.08
   1  -4  -6   15.22    2.43
  -1   4   6   24.15    3.82
   1  -4  -6   19.20    2.21
  -1   4   6   19.59    3.40
  -1   4   6   18.87    3.03
  -1   4   6   20.42    3.53
  -1   4   5 1026.96   21.44
  -1   4   5  977.00   20.89
  -1   4   5  887.35   21.00
   1  -4  -5  869.19   18.18
  -1   4   5 1010.81   22.91
   1  -4  -5  949.21   14.61
   1  -4  -4  725.10   15.67
  -1   4   4  774.99   17.23
  -1   4   4  594.93   16.20
  -1   4   4  815.13   19.19
  -1   4   4  525.39   12.37
  -1   4   4  836.54   18.12
   1  -4  -4  785.62   12.79
   1  -4  -3  717.44   14.33
  -1   4   3  771.79   12.67
  -1   4   3  524.76   13.99
  -1   4   3  848.73   18.10
  -1   4   3  774.50   15.59
  -1   4   3  815.32   16.55
   1  -4  -3  795.57   12.64
  -1   4   2  281.39    8.50
  -1   4   2  325.97    9.88
  -1   4   2  331.19   10.48
  -1   4   2  304.24    8.83
   1  -4  -2  332.74    8.06
   1  -4  -2  278.23    8.15
  -1   4   2  271.03    7.08
   1  -4  -1  378.51    9.16
  -1   4   1  398.27   10.07
   1  -4  -1  269.33    7.42
  -1   4   1  335.21    9.68
  -1   4   1  305.12    7.38
  -1   4   0   35.85    2.76
  -1   4   0   24.07    2.50
   1  -4   0   31.01    2.60
  -1   4   0   26.80    2.35
   1  -4   0   19.99    1.80
  -1   4  -1    3.28    0.78
   1  -4   1    2.10    0.54
  -1   4  -1    1.28    0.48
  -1   4  -1    4.04    1.09
   1  -4   1    1.08    0.31
  -1   4  -2  151.42    6.03
   1  -4   2  134.77    6.69
  -1   4  -2  145.68    5.26
  -1   4  -3  281.58    7.98
  -1   4  -3  279.58    7.15
  -1   4  -4 1518.41   16.44
   1  -4   4 1381.74   24.35
   1  -4   5   37.01    4.23
  -1   4  -5   45.35    3.66
  -1   4  -5   39.95    2.76
  -1   4  -6   43.29    3.88
   1  -4   6   33.84    4.44
  -1   4  -6   39.37    3.09
   1  -4   7   15.64    3.23
  -1   4  -7   20.83    2.53
  -1   4  -7   16.03    2.58
   1  -4   8  283.31   14.87
  -1   4  -8  341.05   12.87
   1  -4   9   66.71    7.41
   1  -4   9   66.43    7.86
   1  -4  10    8.18    2.58
   1  -4  10    8.15    2.69
   1  -4  10    8.59    1.65
   1  -4  11   95.17    9.70
   1  -4  11   89.92    6.10
   1  -4  11   77.42    7.83
   1  -4  12   41.71    4.11
   1  -4  12   38.69    5.34
   1  -4  12   47.04    6.55
   1  -4  13    6.79    2.35
   1  -4  13    7.88    1.61
   1  -4  14   14.13    1.99
   1  -4  14   12.11    2.91
   1  -4  15   -0.31    0.39
  -1   3  15   18.54    3.17
  -1   3  14   39.40    4.19
  -1   3  14   49.55    5.91
  -1   3  14   36.63    4.57
  -1   3  13    6.65    1.94
  -1   3  13    8.99    2.71
  -1   3  13    9.01    2.50
  -1   3  12   19.41    3.43
  -1   3  12   18.49    3.84
  -1   3  12   18.63    4.23
  -1   3  11   33.81    5.34
  -1   3  11   33.08    5.55
  -1   3  11   36.75    5.05
  -1   3  10  261.24   15.67
  -1   3  10  262.23   13.02
  -1   3   9  269.99   14.75
   1  -3  -9  241.35   13.12
  -1   3   9  250.38   13.43
  -1   3   9  238.16   13.22
   1  -3  -9  222.53   11.84
   1  -3  -8  551.33   12.87
   1  -3  -8  530.87   16.90
  -1   3   8  633.86   21.08
  -1   3   8  600.08   19.39
  -1   3   8  610.83   19.52
   1  -3  -7  153.98    6.48
  -1   3   7  175.32    9.51
  -1   3   7  162.22    7.88
  -1   3   7  152.25    8.95
  -1   3   7  166.06    9.79
  -1   3   6   58.96    4.53
   1  -3  -6   56.22    4.47
  -1   3   6   65.44    5.16
   1  -3  -6   63.96    3.87
  -1   3   6   60.59    4.32
  -1   3   6   68.86    5.84
  -1   3   6   64.29    5.32
  -1   3   6   61.44    4.76
  -1   3   5  456.85   11.66
   1  -3  -5  455.72    9.76
  -1   3   5  486.40   12.77
  -1   3   5  509.90   14.62
   1  -3  -5  452.43   12.04
  -1   3   5  462.78   10.82
  -1   3   5  501.31   13.49
  -1   3   5  498.62   13.76
   1  -3  -4   39.85    3.31
  -1   3   4   44.19    3.00
  -1   3   4   47.62    4.24
   1  -3  -4   43.81    2.76
  -1   3   4   46.51    3.81
  -1   3   4   47.53    3.90
  -1   3   4   44.42    3.61
  -1   3   3 1605.55   16.12
  -1   3   3 1405.95   13.15
  -1   3   3 1548.97   20.60
  -1   3   3 1677.18   20.87
  -1   3   3 1526.49   17.98
  -1   3   3 1685.37   20.20
   1  -3  -3 1590.08   15.72
  -1   3   3 1695.28   22.19
   1  -3  -3 1486.53   18.65
  -1   3   2   84.03    3.20
  -1   3   2   83.09    3.35
  -1   3   2   83.96    4.03
   1  -3  -2   87.79    3.52
  -1   3   2   86.71    4.35
  -1   3   2   92.48    4.03
   1  -3  -2   80.64    3.94
  -1   3   2   98.26    4.90
  -1   3   1  206.65    6.48
   1  -3  -1  216.80    5.58
   1  -3  -1  174.16    5.22
  -1   3   1  229.62    6.66
  -1   3   1  192.45    5.09
  -1   3   0  250.69    6.77
   1  -3   0  251.93    5.44
  -1   3   0  259.69    6.36
  -1   3  -1  739.75   11.26
  -1   3  -1  719.34    9.54
   1  -3   2   42.02    3.20
  -1   3  -2   37.31    2.47
  -1   3  -2   42.30    2.23
  -1   3  -2   43.67    2.74
   1  -3   3    9.04    1.63
  -1   3  -3    8.95    1.31
  -1   3  -3    8.29    1.04
  -1   3  -4  517.12    8.77
   1  -3   4  517.69   11.04
   1  -3   4  497.83   13.14
   1  -3   5  709.41   13.71
  -1   3  -5  683.79   11.19
   1  -3   6  370.17   10.49
  -1   3  -6  374.08    9.28
   1  -3   7    1.28    1.04
  -1   3  -7    3.65    1.09
   1  -3   8  186.23   11.03
  -1   3  -8  189.58    7.94
  -1   3  -8  207.57    9.42
   1  -3   9   24.19    4.28
  -1   3  -9   31.85    4.21
   1  -3  10    1.89    0.77
   1  -3  10   -0.11    0.76
   1  -3  10    0.44    0.39
   1  -3  11   11.40    2.80
   1  -3  11    8.36    1.81
   1  -3  11    9.06    2.63
   1  -3  11   11.26    3.26
   1  -3  12   78.81    8.72
   1  -3  12   74.82    7.47
   1  -3  12   70.25    5.69
   1  -3  13   49.73    4.55
   1  -3  13   63.23    7.25
   1  -3  14   40.35    3.75
   1  -3  15   10.95    1.66
  -1   2  16    8.10    1.79
  -1   2  15    1.58    0.93
  -1   2  15    0.75    0.70
  -1   2  14   87.55    7.37
  -1   2  14  100.93    8.79
  -1   2  13    0.23    0.43
  -1   2  13    0.34    0.64
  -1   2  12    2.37    1.54
  -1   2  12    1.58    1.03
  -1   2  12    1.81    0.63
  -1   2  11  170.42   10.23
  -1   2  11  185.71   13.08
  -1   2  11  168.35   11.42
   1  -2 -10   37.10    5.28
  -1   2  10   35.24    5.20
   1  -2 -10   32.46    4.64
  -1   2   9  232.61   12.28
  -1   2   9  236.49   12.78
  -1   2   9  255.43   12.65
   1  -2  -9  229.12   11.43
   1  -2  -9  234.04   12.20
  -1   2   8  581.99   15.97
   1  -2  -8  598.67   17.93
  -1   2   8  594.19   17.43
  -1   2   8  609.26   19.01
  -1   2   8  552.56   14.90
   1  -2  -8  572.48   16.48
   1  -2  -8  569.37   13.48
  -1   2   8  593.80   18.03
  -1   2   7  140.08    7.64
  -1   2   7  138.56    6.96
  -1   2   7  149.53    8.64
   1  -2  -7  137.90    7.32
   1  -2  -7  128.62    5.88
  -1   2   7  134.92    6.81
  -1   2   7  141.82    7.93
   1  -2  -6   91.48    4.65
  -1   2   6  100.62    5.85
  -1   2   6   91.00    5.05
  -1   2   6   95.46    5.95
  -1   2   6  106.51    5.34
  -1   2   6   95.24    5.24
   1  -2  -6   89.11    5.12
  -1   2   6  102.60    6.40
  -1   2   5    0.75    0.40
  -1   2   5    0.90    0.68
  -1   2   5    0.26    0.05
   1  -2  -5    1.40    0.62
  -1   2   5    1.04    0.62
  -1   2   5    1.54    0.63
  -1   2   5    0.75    0.22
  -1   2   4   10.71    1.49
   1  -2  -4    8.72    1.23
  -1   2   4    8.90    1.39
  -1   2   4    9.81    1.50
  -1   2   4    9.55    1.57
   1  -2  -4   10.47    1.47
  -1   2   4   11.23    1.73
  -1   2   4    8.22    1.14
  -1   2   3 1019.72   13.11
  -1   2   3 1003.45   14.27
  -1   2   3  929.61   12.78
   1  -2  -3  960.49   11.67
  -1   2   3  947.99    9.75
  -1   2   3  909.50   10.50
   1  -2  -2 3243.50   21.75
  -1   2   2 3224.16   15.69
  -1   2   2 3195.42   18.46
  -1   2   2 3217.24   21.76
  -1   2   1 4016.51   22.76
  -1   2   1 4046.62   23.76
  -1   2   0 3500.06   20.58
   1  -2   0 3598.21   16.45
  -1   2   0 3200.92   16.33
   1  -2   0 3299.55   17.79
  -1   2  -1    0.86    0.33
   1  -2   1    1.92    0.45
   1  -2   1    1.64    0.28
   1  -2   1    1.38    0.41
  -1   2  -1    1.22    0.30
  -1   2  -2 1030.38    9.23
  -1   2  -2 1041.45    9.83
  -1   2  -3   19.21    1.18
   1  -2   3   16.08    1.60
  -1   2  -3   17.27    1.45
   1  -2   3   18.79    2.05
  -1   2  -3   15.14    0.62
  -1   2  -4  356.76    7.66
   1  -2   4  335.90    7.88
  -1   2  -5  427.44    9.55
   1  -2   5  462.31   13.13
   1  -2   6  629.00   16.61
  -1   2  -6  581.01   12.39
  -1   2  -7    2.88    1.33
   1  -2   7   -0.37    0.75
  -1   2  -8   21.37    2.92
   1  -2   8   18.39    3.26
  -1   2  -9    3.71    1.04
   1  -2   9    3.07    1.16
   1  -2  10   32.03    4.64
   1  -2  10   27.81    4.53
   1  -2  10   36.47    5.47
   1  -2  11  153.68   10.44
   1  -2  11  149.46   11.74
   1  -2  11  133.62   10.07
   1  -2  12   37.62    4.25
   1  -2  12   62.81    6.65
   1  -2  12   55.10    7.04
   1  -2  12   55.29    6.45
   1  -2  13   53.59    5.96
   1  -2  13   47.62    6.29
   1  -2  14   19.63    2.77
   1  -2  15   61.10    4.18
  -1   1  16    1.19    0.96
  -1   1  15    7.85    1.95
  -1   1  15    6.55    1.40
  -1   1  14   11.70    2.98
  -1   1  14   10.40    2.44
  -1   1  13  143.46   11.08
  -1   1  13  116.40    9.08
  -1   1  12   74.12    7.35
  -1   1  12   91.76    8.81
  -1   1  11   68.09    6.37
  -1   1  11   59.72    6.89
  -1   1  11   53.18    6.10
  -1   1  10    8.26    3.18
   1  -1 -10   10.57    3.07
   1  -1  -9  253.35   11.89
  -1   1   9  260.66   12.56
   1  -1  -9  255.91   11.06
  -1   1   9  250.13   11.36
  -1   1   9  249.62   12.04
   1  -1  -9  240.90    9.55
  -1   1   9  230.96   10.11
  -1   1   8  855.39   17.95
   1  -1  -8  901.90   20.59
  -1   1   8  848.67   20.09
   1  -1  -8  907.85   19.32
   1  -1  -8  848.94   17.14
  -1   1   8  830.81   20.75
  -1   1   8  865.84   19.54
   1  -1  -7  576.23   14.95
   1  -1  -7  518.02   12.63
  -1   1   7  556.04   13.32
   1  -1  -7  553.16   13.65
  -1   1   7  547.44   14.71
  -1   1   7  530.71   13.80
  -1   1   7  548.63   12.04
  -1   1   7  552.57   15.36
   1  -1  -6  146.42    6.78
  -1   1   6  139.39    6.22
   1  -1  -6  143.92    6.24
  -1   1   6  145.80    6.15
  -1   1   6  137.90    6.09
   1  -1  -6  135.75    5.89
  -1   1   6  138.49    5.68
  -1   1   6  146.70    7.11
  -1   1   6  142.61    6.75
  -1   1   5  107.73    5.18
  -1   1   5  106.22    4.73
  -1   1   5  108.85    4.70
  -1   1   5  114.09    4.82
  -1   1   5  111.25    5.59
   1  -1  -5  105.98    4.71
  -1   1   5  119.15    5.09
  -1   1   4    5.66    1.03
  -1   1   4    6.49    1.03
  -1   1   4    6.87    1.07
  -1   1   4    5.52    0.89
   1  -1  -4    5.55    0.94
   1  -1  -4    9.10    1.26
  -1   1   3 1276.82   11.88
  -1   1   3 1355.94   11.20
  -1   1   3 1276.30   11.36
   1  -1  -3 1281.02   13.21
  -1   1   3 1279.35   13.14
  -1   1   3 1215.91   13.06
  -1   1   3 1360.96   13.98
   1  -1  -2 2852.03   17.51
  -1   1   2 2840.52   12.29
  -1   1   2 2813.16   15.74
  -1   1   2 2819.15   17.88
   1  -1  -1  303.71    3.40
   1  -1  -1  314.51    5.25
  -1   1   1  316.18    5.03
   1  -1  -1  300.64    4.83
  -1   1   1  296.00    3.54
  -1   1   1  291.07    4.87
  -1   1   0  355.63    5.23
   1  -1   0  389.11    4.86
   1  -1   0  367.83    3.77
   1  -1   0  368.23    5.14
   1  -1   0  385.81    4.45
  -1   1   0  364.19    3.36
   1  -1   1  762.63    7.36
   1  -1   1  754.94    6.62
  -1   1  -1  768.32    6.73
   1  -1   1  807.95    9.52
  -1   1  -1  812.53    5.69
  -1   1  -2 2560.39   14.56
   1  -1   2 2566.84   16.97
   1  -1   3    7.58    1.14
  -1   1  -3    7.78    1.02
   1  -1   3    6.93    0.89
  -1   1  -3    7.83    0.70
   1  -1   3    7.15    1.08
   1  -1   3    7.99    1.23
  -1   1  -4  339.76    5.91
  -1   1  -4  332.79    7.61
  -1   1  -4  402.68    5.95
   1  -1   4  349.51    7.46
   1  -1   4  291.75    6.30
   1  -1   4  345.20    8.39
   1  -1   4  341.82    8.92
   1  -1   4  363.03    9.78
   1  -1   4  329.29    8.15
   1  -1   5  300.45    8.91
  -1   1  -5  304.35    8.34
   1  -1   5  299.42    7.68
   1  -1   5  309.75    9.08
  -1   1  -5  307.88    6.74
   1  -1   5  310.09    9.82
   1  -1   5  308.79    9.42
   1  -1   6   32.05    3.31
  -1   1  -6   34.63    3.17
   1  -1   6   30.24    2.51
   1  -1   6   31.37    2.76
   1  -1   6   33.17    3.51
   1  -1   6   32.12    3.40
   1  -1   7   76.38    4.67
  -1   1  -7   79.63    5.36
   1  -1   7   79.55    5.84
   1  -1   7   76.28    5.72
   1  -1   8   13.44    2.66
  -1   1  -8   10.82    1.95
  -1   1  -9    8.24    3.10
   1  -1   9    3.22    1.17
   1  -1  10   33.49    4.95
   1  -1  10   42.03    5.84
   1  -1  10   34.31    4.84
   1  -1  10   29.52    3.95
   1  -1  11   47.12    5.88
   1  -1  11   32.17    4.24
   1  -1  11   43.30    5.83
   1  -1  11   49.55    6.58
   1  -1  12    8.13    2.82
   1  -1  12    4.58    1.67
   1  -1  12    6.41    2.10
   1  -1  12    4.69    1.39
   1  -1  13    2.07    1.22
   1  -1  13    6.70    1.64
   1  -1  14    8.98    1.85
   1  -1  14   19.03    3.42
   1  -1  15   86.42    5.01
  -1   0  16    1.08    0.34
  -1   0  15    1.94    1.07
  -1   0  15    1.53    1.13
  -1   0  15    0.77    0.40
  -1   0  14   45.56    5.19
  -1   0  14   50.16    6.20
  -1   0  13  157.23   11.22
  -1   0  13  144.97    9.88
  -1   0  12  191.02   11.34
  -1   0  12  225.34   13.56
  -1   0  11  101.91    7.43
  -1   0  11   98.37    7.81
  -1   0  11  111.96    9.14
   1   0 -10    2.40    0.59
   1   0 -10    1.68    0.76
   1   0  -9    4.46    1.37
  -1   0   9   10.63    2.26
  -1   0   9   10.86    2.74
   1   0  -9    5.28    1.81
   1   0  -9    9.94    2.37
  -1   0   8  644.64   15.43
  -1   0   8  690.31   17.94
  -1   0   8  707.56   14.83
   1   0  -8  736.25   17.90
   1   0  -8  660.73   15.88
   1   0  -8  690.02   15.35
  -1   0   8  701.73   16.10
  -1   0   7  444.89   13.07
  -1   0   7  442.40   10.61
   1   0  -7  457.10   11.31
   1   0  -7  459.95   12.66
  -1   0   7  441.30   12.71
  -1   0   7  423.28   11.46
  -1   0   7  464.86   11.87
  -1   0   6   10.07    1.49
  -1   0   6   11.50    1.53
  -1   0   6   10.57    1.40
  -1   0   6   11.26    1.72
  -1   0   6   10.69    1.79
  -1   0   6   11.60    1.93
   1   0  -6   11.20    1.56
   1   0  -6   11.28    1.70
  -1   0   5  285.78    8.42
  -1   0   5  307.31    7.54
   1   0  -5  304.73    8.25
  -1   0   5  292.63    8.13
   1   0  -5  319.01    7.82
  -1   0   5  287.26    7.24
  -1   0   5  308.25    7.88
  -1   0   5  281.21    6.33
   1   0  -4  376.17    7.63
  -1   0   4  355.55    7.56
  -1   0   4  332.38    6.58
  -1   0   4  360.98    7.45
  -1   0   4  345.45    5.96
  -1   0   4  340.64    7.64
   1   0  -4  359.82    7.96
  -1   0   3  826.25    7.04
  -1   0   3  827.34    9.87
  -1   0   3  846.73   10.18
  -1   0   2  303.46    5.52
  -1   0   2  308.56    3.58
  -1   0   2  296.22    3.22
   1   0  -1 1572.39    8.28
  -1   0   1 1574.25    9.56
   1   0  -1 1595.11   10.30
   1   0   0  550.98    5.79
  -1   0   0  572.66    5.25
   1   0   0  532.91    3.86
   1   0   0  551.81    5.95
   1   0   0  548.68    4.76
   1   0   0  509.77    5.18
  -1   0   0  539.38    5.82
   1   0   1    3.12    0.26
   1   0   1    4.25    0.58
   1   0   1    3.36    0.48
   1   0   1    3.31    0.57
  -1   0  -1    4.35    0.51
   1   0   2  148.13    3.04
   1   0   2  138.86    2.10
  -1   0  -2  140.05    1.87
   1   0   2  147.85    4.12
   1   0   2  152.97    4.68
   1   0   3  107.55    4.22
   1   0   3  107.90    3.42
  -1   0  -3  107.61    2.49
   1   0   3  114.68    3.27
   1   0   4  432.04   10.49
  -1   0  -4  410.93    6.12
   1   0   4  380.64    5.70
   1   0   4  431.54    9.78
   1   0   4  425.87    9.74
   1   0   4  408.89    9.52
   1   0   4  417.16    7.35
   1   0   4  396.94    7.88
   1   0   5  251.63    5.19
   1   0   5  293.75    9.72
   1   0   5  268.43    8.46
   1   0   5  269.46    7.41
   1   0   5  264.97    8.69
   1   0   5  261.63    6.63
   1   0   5  281.57    8.87
   1   0   6   43.86    3.93
   1   0   6   41.77    4.06
   1   0   6   42.26    3.67
  -1   0  -6   58.16    3.78
   1   0   6   46.74    3.56
   1   0   6   44.91    3.09
   1   0   6   51.67    4.22
  -1   0  -6   46.87    3.43
   1   0   7  228.20    9.88
   1   0   7  221.21    9.87
   1   0   7  227.60   10.33
   1   0   7  210.84    8.96
   1   0   8  336.40   11.96
   1   0   8  387.01   14.27
  -1   0  -8  382.79   13.50
   1   0   8  369.05   14.02
   1   0   8  382.60   14.63
   1   0   9  157.59   10.18
  -1   0  -9  172.19   10.39
   1   0   9  149.96    8.56
   1   0  10  326.84   15.84
   1   0  10  298.09   14.95
   1   0  11   74.60    6.83
   1   0  11   97.69    9.16
   1   0  11   82.45    8.11
   1   0  12  278.48   11.78
   1   0  12  273.99   13.08
   1   0  13   34.20    4.44
   1   0  13   30.38    3.62
   1   0  13   39.91    5.39
   1   0  14   12.55    2.10
   1   0  14   16.56    3.21
   1   0  15   23.99    3.41
   1   0  15   15.75    2.00
  -1  -1  16   35.06    3.18
  -1  -1  15    1.68    0.65
  -1  -1  15    2.79    0.87
  -1  -1  14   12.93    3.09
  -1  -1  14   10.47    2.37
  -1  -1  13   78.71    6.97
  -1  -1  13   88.67    8.42
  -1  -1  12  383.40   15.60
  -1  -1  12  442.98   18.55
  -1  -1  11   32.21    4.72
  -1  -1  11   27.18    3.92
  -1  -1  10   87.06    6.89
   1   1 -10   78.00    6.72
  -1  -1   9   11.31    2.32
   1   1  -9   10.32    2.19
   1   1  -9    6.41    1.16
   1   1  -8  167.24    8.20
  -1  -1   8  184.15    8.21
  -1  -1   8  173.18    7.54
   1   1  -8  160.51    7.40
   1   1  -7  879.20   16.16
   1   1  -7  928.18   17.89
  -1  -1   7  959.69   16.39
   1   1  -7  890.25   14.27
  -1  -1   7  967.84   17.26
  -1  -1   7  902.44   16.26
   1   1  -6  998.67   13.75
  -1  -1   6 1056.76   15.95
  -1  -1   6 1077.22   15.79
  -1  -1   6 1109.35   16.67
   1   1  -6 1022.94   16.86
   1   1  -6 1017.26   15.75
  -1  -1   5  351.78    8.03
  -1  -1   5  364.97    8.28
   1   1  -5  349.90    8.31
   1   1  -5  346.70    8.78
   1   1  -5  341.60    7.27
  -1  -1   5  368.68    8.62
   1   1  -4  423.22    8.08
   1   1  -4  432.12    7.35
   1   1  -3 8372.03   31.81
   1   1  -3 8354.19   28.80
   1   1  -2   23.34    1.35
  -1  -1   2   27.23    1.57
   1   1  -2   25.99    1.60
  -1  -1   1  331.62    4.88
  -1  -1   1  342.14    4.77
  -1  -1   1  341.04    4.82
  -1  -1   1  327.20    4.34
  -1  -1   0 1167.78    7.36
  -1  -1   0 1155.84    7.68
   1   1   1 3626.48   15.59
  -1  -1  -1 3587.40   12.26
   1   1   1 3572.02   19.50
   1   1   1 3685.07   19.16
  -1  -1  -1 3518.66   17.42
   1   1   2  135.48    4.59
   1   1   2  136.85    3.39
   1   1   2  151.64    4.82
  -1  -1  -2  132.58    1.71
  -1  -1  -2  137.30    2.50
   1   1   2  156.79    4.08
  -1  -1  -2  134.92    3.65
  -1  -1  -2  138.31    2.51
   1   1   3  391.47    9.15
   1   1   3  348.28    5.63
  -1  -1  -3  345.65    4.51
   1   1   3  374.03    7.28
   1   1   3  418.98    9.35
  -1  -1  -3  336.51    6.09
  -1  -1  -3  358.84    4.49
   1   1   3  361.65    4.71
   1   1   3  401.52    8.27
   1   1   4   31.31    1.75
   1   1   4   32.19    2.99
   1   1   4   33.28    2.98
  -1  -1  -4   30.95    1.46
   1   1   4   31.70    2.58
  -1  -1  -4   29.06    1.88
   1   1   4   30.82    1.73
   1   1   4   34.24    3.00
   1   1   4   29.09    2.33
  -1  -1  -4   31.81    1.61
   1   1   5  100.26    5.66
   1   1   5   99.53    5.72
  -1  -1  -5   84.56    3.26
   1   1   5  104.25    6.08
   1   1   5   93.92    4.81
   1   1   5   96.24    4.90
   1   1   5   92.35    3.55
   1   1   6   17.90    2.32
   1   1   6   15.79    2.68
   1   1   6   14.71    2.43
   1   1   6   17.89    2.38
   1   1   6   16.17    2.45
   1   1   7   19.99    3.14
   1   1   7   18.16    3.09
   1   1   7   17.83    2.86
  -1  -1  -7   25.45    3.26
   1   1   7   18.65    2.53
   1   1   8  541.19   18.14
   1   1   8  557.28   18.87
   1   1   8  545.47   17.53
   1   1   9  115.15    9.09
   1   1   9  114.39    8.78
   1   1   9  110.04    8.85
   1   1  10  128.02   10.35
   1   1  10  128.00    8.89
   1   1  11  152.08   11.59
   1   1  11  154.52   10.06
   1   1  11  133.49    7.84
   1   1  12  168.81   12.14
   1   1  12  154.91    8.45
   1   1  12  168.53   10.44
   1   1  13   38.03    3.83
   1   1  13   44.08    5.15
   1   1  13   43.47    5.89
   1   1  14    7.44    1.45
   1   1  14    7.50    2.14
   1   1  15    0.41    0.35
  -1  -2  16   79.33    4.76
  -1  -2  15   25.72    3.19
  -1  -2  15   46.52    4.16
  -1  -2  14   27.36    4.54
  -1  -2  14   19.68    3.10
  -1  -2  13    4.94    1.87
  -1  -2  13    4.49    1.54
  -1  -2  12  165.79    9.95
  -1  -2  12  201.12   12.33
  -1  -2  11  353.95   15.69
  -1  -2  11  291.20   12.88
  -1  -2  10   58.97    5.41
   1   2 -10   65.31    5.88
   1   2  -9   32.04    3.79
  -1  -2   9   34.85    3.77
  -1  -2   9   35.11    4.02
  -1  -2   8 1701.94   27.03
   1   2  -8 1694.84   25.80
  -1  -2   8 1735.99   25.20
   1   2  -8 1669.03   23.11
   1   2  -7   32.60    3.22
  -1  -2   7   38.43    3.46
  -1  -2   7   31.30    3.42
  -1  -2   7   33.84    3.27
   1   2  -7   29.55    2.78
   1   2  -6  331.37    8.69
  -1  -2   6  360.81    9.79
   1   2  -6  344.25    9.60
  -1  -2   6  360.69    9.64
  -1  -2   6  334.52   10.00
   1   2  -6  307.71    6.68
  -1  -2   5  401.85    9.36
   1   2  -5  379.30    9.01
   1   2  -5  380.24    8.36
  -1  -2   5  404.70    9.39
  -1  -2   5  415.94   10.33
  -1  -2   4 6402.27   34.04
  -1  -2   4 6418.50   33.71
   1   2  -4 6431.52   31.58
   1   2  -4 6493.78   33.69
   1   2  -3 1391.12   13.25
  -1  -2   3 1406.19   14.00
   1   2  -2  671.44    8.77
  -1  -2   2  693.93    8.64
  -1  -2   1 1812.27   12.14
  -1  -2   1 1761.51   13.41
   1   2   0  679.38    8.99
  -1  -2   0  726.83    7.74
  -1  -2  -1  384.80    6.29
   1   2   1  401.68    8.21
   1   2   1  392.37    7.16
  -1  -2  -1  395.89    4.93
  -1  -2  -2  691.45    8.16
   1   2   2  822.08   11.58
   1   2   2  740.02   10.10
  -1  -2  -2  763.75    8.71
   1   2   2  802.99   13.00
   1   2   2  819.43   13.03
   1   2   2  813.82   12.95
  -1  -2  -3 1188.98   11.01
   1   2   3 1329.30   18.74
   1   2   3 1338.06   16.41
   1   2   3 1411.92   19.42
   1   2   3 1127.04   13.18
   1   2   3 1325.11   18.24
  -1  -2  -3 1163.36   10.64
   1   2   4  103.59    4.27
  -1  -2  -4   97.06    3.24
  -1  -2  -4  100.70    3.30
   1   2   4  116.81    6.20
   1   2   4  109.00    5.21
   1   2   4  111.17    6.06
   1   2   4  128.26    6.59
   1   2   5   45.52    3.67
   1   2   5   37.10    3.81
   1   2   5   36.19    2.75
   1   2   5   37.24    3.92
   1   2   5   35.83    3.81
   1   2   6  245.30    9.62
   1   2   6  267.11   11.62
   1   2   6  248.91   10.58
   1   2   6  265.39   11.42
   1   2   7   14.54    2.62
   1   2   7   15.34    2.93
   1   2   7   15.23    2.95
   1   2   7   20.76    3.55
   1   2   8  242.71   12.92
  -1  -2  -8  245.57   11.63
   1   2   8  261.02   13.94
   1   2   8  237.90   12.19
   1   2   9    5.72    1.89
   1   2  10  419.86   16.43
   1   2  10  394.28   19.67
   1   2  11  130.48    9.29
   1   2  11  122.61   10.94
   1   2  11  100.08    8.00
   1   2  12   79.25    8.55
   1   2  12   84.92    7.47
   1   2  13   21.80    4.23
   1   2  13   27.67    4.21
   1   2  14    0.75    0.47
   1   2  15    4.89    1.45
  -1  -3  16  141.00    5.94
  -1  -3  15   24.02    2.87
  -1  -3  15   30.80    3.15
  -1  -3  14    0.66    0.54
  -1  -3  13  124.60    9.91
  -1  -3  13  137.49    8.54
  -1  -3  12  104.02    7.58
  -1  -3  12   95.27    9.12
  -1  -3  11  271.32   12.15
  -1  -3  11  262.59   15.29
  -1  -3  10   57.88    6.05
  -1  -3   9  193.01   10.72
  -1  -3   9  175.83    8.94
  -1  -3   9  191.13    9.46
   1   3  -9  174.45    8.36
  -1  -3   8  751.35   19.93
  -1  -3   8  792.28   17.85
   1   3  -8  723.51   15.77
  -1  -3   8  805.95   17.87
  -1  -3   7   84.13    5.34
   1   3  -7   80.76    4.79
  -1  -3   7   77.20    5.79
   1   3  -7   81.50    4.39
  -1  -3   7   85.60    5.42
   1   3  -6 2781.54   26.70
  -1  -3   6 2879.26   33.87
  -1  -3   6 2975.72   29.33
  -1  -3   6 2930.34   29.83
   1   3  -6 2675.32   23.44
   1   3  -5    1.63    0.35
   1   3  -5    2.00    0.76
  -1  -3   5    2.66    0.87
  -1  -3   5    1.93    0.73
   1   3  -5    2.85    0.80
   1   3  -4 3022.46   23.36
  -1  -3   4 3170.19   26.57
   1   3  -4 2974.15   21.46
  -1  -3   4 3093.49   24.59
   1   3  -4 3165.80   23.69
   1   3  -3   49.29    2.90
  -1  -3   3   47.35    2.97
  -1  -3   3   47.93    2.81
   1   3  -3   46.61    2.55
  -1  -3   3   52.82    3.15
   1   3  -3   49.61    2.78
   1   3  -2 3879.21   25.62
  -1  -3   2 3772.40   23.16
  -1  -3   2 3811.78   25.12
   1   3  -2 3933.97   24.62
   1   3  -1  204.45    6.10
   1   3  -1  196.85    5.82
  -1  -3   1  209.44    5.49
  -1  -3   1  215.27    6.06
  -1  -3   0    2.83    0.59
   1   3   0    3.34    0.80
  -1  -3   0    3.83    0.65
   1   3   0    4.67    0.61
   1   3   1  313.75    8.84
  -1  -3  -1  318.01    6.47
  -1  -3  -2   11.58    1.21
   1   3   2    8.39    1.49
   1   3   2    8.31    1.47
   1   3   2   10.85    1.45
  -1  -3  -2   10.52    1.31
   1   3   2   10.15    1.70
   1   3   3 1533.59   18.70
  -1  -3  -3 1510.02   13.80
   1   3   3 1508.79   22.26
   1   3   3 1510.45   20.92
   1   3   4 2077.71   28.64
   1   3   4 1917.05   22.47
   1   3   4 2280.79   28.83
   1   3   4 2207.83   30.31
  -1  -3  -4 2085.01   18.27
   1   3   4 2176.28   30.01
  -1  -3  -4 2124.01   16.44
   1   3   5  686.79   18.54
   1   3   5  691.91   18.05
   1   3   5  689.26   16.83
   1   3   5  716.37   19.23
   1   3   6   81.54    6.97
   1   3   6   81.37    6.96
   1   3   6   78.75    6.09
   1   3   6   81.43    6.70
   1   3   7 1141.30   28.18
   1   3   7 1185.28   29.24
   1   3   8   56.96    6.19
   1   3   8   54.49    6.58
   1   3   8   63.80    7.29
  -1  -3  -8   54.79    6.03
   1   3   9  645.74   25.95
   1   3   9  684.35   21.66
   1   3   9  686.92   20.25
   1   3  10   27.72    4.47
   1   3  10   23.56    5.18
   1   3  10   29.36    4.39
   1   3  11  624.43   21.09
   1   3  11  614.17   25.45
   1   3  12    8.32    2.77
   1   3  12   11.36    2.67
   1   3  12   12.37    3.04
   1   3  13   28.48    3.67
   1   3  13   29.69    4.80
   1   3  14   18.54    3.28
  -1  -4  15   20.30    2.37
  -1  -4  14   34.29    3.62
  -1  -4  14   27.46    4.21
  -1  -4  13   11.63    2.36
  -1  -4  13    8.29    2.50
  -1  -4  12   32.74    4.04
  -1  -4  12   26.68    4.97
  -1  -4  11  209.54   14.35
  -1  -4  11  243.34   11.15
  -1  -4  10    0.21    0.17
  -1  -4  10    0.59    0.88
   1   4  -9   76.17    5.43
  -1  -4   9   75.29    6.10
  -1  -4   9   75.94    6.09
  -1  -4   8    4.58    1.36
   1   4  -8    5.30    1.43
  -1  -4   8    3.11    1.07
  -1  -4   8    4.40    2.13
  -1  -4   7  820.41   17.25
   1   4  -7  814.87   15.59
  -1  -4   7  816.16   17.68
   1   4  -6  861.24   14.59
  -1  -4   6  867.85   16.33
  -1  -4   6  873.82   17.19
   1   4  -5    9.82    1.69
  -1  -4   5   12.34    1.75
  -1  -4   5    9.34    1.63
   1   4  -5    7.70    1.29
   1   4  -5    6.74    1.04
  -1  -4   4  190.89    7.06
   1   4  -4  183.72    6.10
  -1  -4   4  180.38    6.48
   1   4  -4  189.97    6.79
   1   4  -3   97.88    4.53
   1   4  -3  105.69    4.97
  -1  -4   3   99.62    4.84
  -1  -4   3  101.88    4.83
  -1  -4   2  114.24    4.92
  -1  -4   2  118.48    5.10
   1   4  -2  118.05    5.26
   1   4  -2  107.33    5.06
   1   4  -1 3956.94   30.82
  -1  -4   1 4054.62   29.00
   1   4   0  190.83    6.77
   1   4   0  197.86    4.81
   1   4   1    8.61    1.67
  -1  -4  -1   11.52    1.51
   1   4   1   13.70    1.85
  -1  -4  -1   13.21    1.72
   1   4   2   45.79    3.55
   1   4   2   35.17    3.67
  -1  -4  -2   42.97    2.82
   1   4   2   27.01    3.06
   1   4   2   33.48    3.36
  -1  -4  -2   45.43    3.18
  -1  -4  -3 2321.86   22.74
   1   4   3 1907.29   29.58
   1   4   3 1747.79   26.72
   1   4   3 1672.87   27.77
  -1  -4  -3 2124.09   19.92
   1   4   3 2202.31   25.91
   1   4   3 1619.67   25.44
   1   4   4    3.59    1.38
   1   4   4    3.79    1.49
   1   4   4    2.06    0.60
  -1  -4  -4    2.57    0.19
   1   4   4    4.72    1.39
   1   4   4    3.37    1.30
   1   4   5  251.74    9.96
   1   4   5  254.56   12.65
   1   4   5  274.11   12.66
   1   4   5  242.44   11.29
   1   4   5  250.64   12.56
   1   4   6  224.67   12.92
   1   4   6  220.00   11.60
   1   4   6  218.92   12.69
   1   4   6  215.61   11.54
   1   4   7  141.92   10.85
   1   4   7  138.84    9.77
   1   4   7  145.78   11.12
   1   4   8   29.55    4.03
   1   4   8   25.55    5.14
   1   4   8   28.34    4.05
   1   4   8   26.71    4.30
   1   4   9 1056.50   26.43
   1   4   9 1102.13   25.86
   1   4  10    2.40    1.19
   1   4  10    2.12    1.70
   1   4  10    2.47    1.24
   1   4  11  119.72    9.25
   1   4  11   96.13   10.08
   1   4  12   -0.41    1.24
   1   4  12    1.07    0.63
   1   4  13   69.98    7.09
   1   4  13  100.23    6.85
   1   4  14    0.80    0.58
  -1  -5  15   44.42    2.89
  -1  -5  15   27.03    3.19
  -1  -5  14   40.97    3.31
  -1  -5  14   43.32    3.76
  -1  -5  13    0.96    0.79
  -1  -5  13    0.77    0.20
  -1  -5  12    2.15    0.90
  -1  -5  12    1.43    0.84
  -1  -5  12    2.08    1.43
  -1  -5  11  189.04   14.00
  -1  -5  11  275.36   11.64
  -1  -5  10   33.51    4.03
  -1  -5  10   18.75    4.41
  -1  -5   9   14.94    2.63
  -1  -5   9   11.75    3.44
   1   5  -8  400.60   11.82
  -1  -5   8  398.24   13.97
   1   5  -7  875.32   16.36
  -1  -5   7  855.25   19.48
   1   5  -6  361.62   10.28
  -1  -5   6  366.71   12.04
  -1  -5   5   44.49    3.93
   1   5  -5   43.85    3.57
  -1  -5   4   53.84    4.17
   1   5  -4   59.88    4.30
   1   5  -4   49.11    3.81
   1   5  -3  131.18    6.32
   1   5  -3  123.24    6.08
  -1  -5   2  208.85    7.48
   1   5  -2  221.50    8.25
   1   5  -2  203.92    6.31
   1   5  -1   48.25    3.81
  -1  -5   1   43.77    3.27
   1   5  -1   52.10    3.10
   1   5   0    1.01    0.33
  -1  -5   0    0.76    0.18
   1   5   0    1.45    0.71
   1   5   1  301.88   10.19
   1   5   1  274.75   11.10
  -1  -5  -1  276.15    8.06
  -1  -5  -2  216.85    7.07
   1   5   2  188.60    9.94
   1   5   2  243.43    9.44
   1   5   2  223.74   10.01
  -1  -5  -2  257.09    8.96
   1   5   2  199.86    9.76
   1   5   3    2.42    1.12
   1   5   3    2.96    1.26
  -1  -5  -3    1.78    0.49
   1   5   3    4.40    1.30
   1   5   3    1.90    1.22
   1   5   3    4.34    1.27
  -1  -5  -3    2.14    0.33
   1   5   4  460.41   16.11
   1   5   4  377.16   16.07
   1   5   4  321.52   13.74
  -1  -5  -4  622.71   13.91
   1   5   4  569.90   16.29
   1   5   4  375.27   15.82
   1   5   5   12.63    2.76
   1   5   5    9.27    2.51
   1   5   5   13.16    2.40
   1   5   5   14.01    3.21
   1   5   5   18.44    3.50
   1   5   6    7.02    2.32
   1   5   6    7.10    2.31
   1   5   6    2.09    0.94
   1   5   6    7.40    1.93
   1   5   7    9.17    2.43
   1   5   7    9.21    2.25
   1   5   7   12.50    2.76
   1   5   8  828.85   24.05
   1   5   8  822.28   21.40
   1   5   8  842.87   24.44
   1   5   9  216.34   11.56
   1   5   9  221.37   12.85
   1   5   9  207.38   12.15
   1   5  10   65.62    6.52
   1   5  10   76.28    7.52
   1   5  11    1.68    1.06
   1   5  11   -0.45    1.41
   1   5  12    5.46    1.89
   1   5  12    7.93    1.97
   1   5  13   61.16    6.03
   1   5  13   91.66    6.03
  -1  -6  14   66.69    4.00
  -1  -6  14   30.92    4.05
  -1  -6  13   12.32    2.25
  -1  -6  13   13.42    2.13
  -1  -6  12    2.52    1.17
  -1  -6  12   -0.05    1.06
  -1  -6  12    2.44    0.89
  -1  -6  11  192.06   10.71
  -1  -6  11  185.27    9.26
  -1  -6  10   20.74    3.18
  -1  -6  10   12.53    3.73
  -1  -6   9  159.64    8.75
  -1  -6   9  155.61    9.26
  -1  -6   8  434.68   15.19
  -1  -6   8  418.12   13.92
  -1  -6   7   20.23    3.74
  -1  -6   6   47.85    4.55
  -1  -6   6   37.67    5.27
   1   6  -6   36.70    3.79
  -1  -6   5  136.01    7.40
   1   6  -5  119.08    6.77
   1   6  -5  128.99    6.67
   1   6  -4  104.37    6.38
   1   6  -4   92.18    5.75
  -1  -6   4   94.14    5.83
   1   6  -4   96.84    5.40
   1   6  -3  781.11   16.13
   1   6  -3  750.80   14.48
   1   6  -3  787.96   17.55
   1   6  -2  191.79    8.63
   1   6  -2  232.96    9.44
   1   6  -1  375.61   12.32
   1   6  -1  491.38   14.54
   1   6   0 1237.31   25.68
   1   6   0 1071.48   21.19
   1   6   1   22.79    3.15
   1   6   1   25.16    3.82
   1   6   2   90.76    7.29
   1   6   2   82.36    6.25
   1   6   2   83.97    7.23
   1   6   2   75.50    7.05
   1   6   2   83.51    6.76
   1   6   3  300.01   12.78
   1   6   3  250.95   13.08
  -1  -6  -3  305.94   10.83
   1   6   3  242.51   13.54
   1   6   3  260.02   13.60
   1   6   3  290.34   13.35
   1   6   4  397.37   18.17
   1   6   4  585.03   18.50
   1   6   4  416.96   17.47
   1   6   4  478.45   19.84
   1   6   4  519.91   18.50
   1   6   5  194.18   12.51
   1   6   5  200.49   11.47
   1   6   5  148.04   11.41
   1   6   5  122.91   10.18
   1   6   6  354.52   15.36
   1   6   6  345.97   14.81
   1   6   6  338.95   13.99
   1   6   7   36.28    4.96
   1   6   7   31.95    4.33
   1   6   7   33.50    4.71
   1   6   8   -0.82    1.53
   1   6   8   -0.32    0.69
   1   6   8    1.05    1.06
   1   6   8    0.98    1.06
   1   6   9   54.58    6.17
   1   6   9   59.47    6.36
   1   6  10   64.39    6.35
   1   6  10   74.61    7.06
   1   6  11    1.54    0.80
   1   6  11    3.81    1.38
   1   6  11    2.73    1.11
   1   6  12    0.59    0.21
   1   6  12    0.63    0.63
   1   6  13   58.89    4.75
   1   6  13   57.42    3.99
  -1  -7  14   29.89    3.32
  -1  -7  13   17.09    2.46
  -1  -7  13   15.23    3.02
  -1  -7  12    3.13    1.12
  -1  -7  12    0.78    0.32
  -1  -7  12    3.02    1.00
  -1  -7  11   59.61    4.93
  -1  -7  11   61.36    5.70
  -1  -7  11   47.99    6.50
  -1  -7  10  196.10    9.40
  -1  -7  10  172.13   13.17
  -1  -7  10  199.48   10.71
  -1  -7  10  212.40   10.36
  -1  -7   9  435.61   15.47
  -1  -7   9  413.60   13.93
  -1  -7   9  387.60   20.51
  -1  -7   8   32.35    4.22
  -1  -7   8   29.43    5.78
  -1  -7   8   31.87    3.93
  -1  -7   7  357.79   14.20
  -1  -7   7  326.20   12.53
  -1  -7   6  216.41   10.01
  -1  -7   6  219.59   11.03
   1   7  -5   13.83    2.31
   1   7  -4   11.52    2.26
   1   7  -4   11.70    2.16
   1   7  -3   41.93    4.32
   1   7  -3   32.79    3.98
   1   7  -2  195.61    9.89
   1   7  -2  233.52   10.78
   1   7  -1   17.38    2.92
   1   7   0  382.90   14.36
   1   7   0  410.02   16.61
   1   7   1    1.26    0.54
   1   7   1    2.21    1.23
   1   7   1    2.27    0.93
   1   7   1    2.08    0.47
   1   7   2  207.60   11.33
   1   7   2  211.72   12.69
   1   7   2  216.76   12.67
   1   7   2  202.11   11.36
   1   7   2  207.16   12.89
   1   7   3  132.34    8.76
   1   7   4   26.91    4.12
   1   7   4   24.92    4.23
   1   7   4   29.25    4.15
   1   7   5  531.92   18.14
   1   7   5  532.71   19.18
   1   7   5  504.27   17.48
   1   7   6    5.08    1.94
   1   7   6    6.50    1.97
   1   7   6    4.57    1.79
   1   7   7   23.05    4.00
   1   7   7   20.35    3.55
   1   7   7   19.48    3.58
   1   7   8    1.02    0.96
   1   7   8    0.92    1.59
   1   7   8    1.25    1.01
   1   7   8    0.33    0.57
   1   7   9   31.00    4.51
   1   7   9   28.91    5.57
   1   7   9   34.01    4.53
   1   7  10   14.24    2.76
   1   7  10   13.74    2.66
   1   7  10   11.81    3.21
   1   7  11   -0.08    0.28
   1   7  11    0.26    0.20
   1   7  11    0.09    0.40
   1   7  12   31.90    3.04
   1   7  12   32.25    3.59
  -1  -8  13   10.69    1.62
  -1  -8  13   13.14    2.25
  -1  -8  12   12.36    2.70
  -1  -8  12   14.09    2.19
  -1  -8  11    1.75    0.83
  -1  -8  11    1.86    1.21
  -1  -8  10   75.95    5.71
  -1  -8  10   81.43    8.34
  -1  -8  10   71.54    6.00
  -1  -8   9    2.54    1.51
  -1  -8   9    1.83    1.04
  -1  -8   9    0.98    0.49
  -1  -8   8   82.03    6.70
  -1  -8   8   90.38    7.02
  -1  -8   8   97.42    9.91
  -1  -8   7  130.26    8.63
  -1  -8   7  115.89    7.87
  -1  -8   7  106.21    9.96
  -1  -8   6   13.42    3.70
  -1  -8   6   13.05    2.61
  -1  -8   6   16.01    3.10
  -1  -8   6   18.42    4.29
  -1  -8   5   35.20    4.08
  -1  -8   5   40.86    6.50
  -1  -8   5   43.05    5.02
  -1  -8   5   52.47    7.19
   1   8  -4   35.79    5.30
  -1  -8   4   24.33    3.35
  -1  -8   4   29.70    4.12
  -1  -8   4   39.25    6.11
   1   8  -3  152.37   10.87
  -1  -8   3  132.36    8.86
  -1  -8   2   21.25    3.54
   1   8  -2   26.07    4.41
   1   8  -1   26.22    4.51
  -1  -8   1   20.97    3.44
   1   8  -1   25.11    3.91
   1   8   0  215.63   12.87
   1   8   0  225.05   12.01
   1   8   1  178.47   10.71
   1   8   1  168.44   11.43
   1   8   2   81.95    8.05
   1   8   2   89.86    7.54
   1   8   2   84.17    7.36
   1   8   3  141.26   10.64
   1   8   3  145.69    9.80
   1   8   3  142.27    9.61
   1   8   4  188.65   11.37
   1   8   4  163.35   11.31
   1   8   4  187.75   11.06
   1   8   5  188.79   10.94
   1   8   5  195.45   11.70
   1   8   6   23.29    3.61
   1   8   6   24.84    4.14
   1   8   6   22.62    3.50
   1   8   7    1.19    1.59
   1   8   7    0.41    0.33
   1   8   7   -0.07    0.59
   1   8   7    1.23    0.89
   1   8   8    8.77    3.10
   1   8   8    9.48    2.32
   1   8   8    6.27    1.74
   1   8   9   -0.01    0.37
   1   8   9    0.53    0.43
   1   8   9    0.04    0.66
   1   8  10   79.56    7.10
   1   8  10   76.03    5.17
   1   8  10   65.33    4.99
   1   8  11    1.57    0.67
  -1  -9  12    7.13    1.24
  -1  -9  12    8.14    1.68
  -1  -9  11   10.10    1.79
  -1  -9  11   12.60    2.49
  -1  -9  10    3.20    1.07
  -1  -9  10    3.74    1.57
  -1  -9   9   74.94    5.47
  -1  -9   9   74.39    5.64
  -1  -9   9   86.75    8.00
  -1  -9   8    2.52    1.57
  -1  -9   8    1.15    0.51
  -1  -9   8    1.22    0.76
  -1  -9   8    1.03    0.93
  -1  -9   7   38.10    4.38
  -1  -9   7   33.82    5.21
  -1  -9   7   31.93    3.88
  -1  -9   7   42.34    6.01
  -1  -9   6   34.76    4.02
  -1  -9   6   36.63    4.47
  -1  -9   6   44.74    6.24
  -1  -9   6   38.17    5.80
  -1  -9   5    4.65    1.50
  -1  -9   5    5.45    1.80
   1   9  -5    5.37    2.09
  -1  -9   5    7.14    2.38
  -1  -9   5    5.02    2.07
  -1  -9   4    0.01    0.83
  -1  -9   4    0.33    0.90
  -1  -9   4    0.22    0.28
   1   9  -4    0.35    0.53
   1   9  -3   43.98    5.92
  -1  -9   3   43.77    6.05
  -1  -9   3   35.77    4.64
   1   9  -2   28.69    4.91
  -1  -9   2   30.92    4.98
   1   9  -1    5.59    2.03
   1   9   0  812.25   25.93
   1   9   1   11.89    3.08
   1   9   2   24.51    3.90
   1   9   2   23.34    3.75
   1   9   2   23.79    4.42
   1   9   3  365.23   16.94
   1   9   3  384.66   15.44
   1   9   3  361.00   15.07
   1   9   4  240.16   13.25
   1   9   4  254.48   12.57
   1   9   4  244.04   12.17
   1   9   5   47.12    5.31
   1   9   5   43.95    5.33
   1   9   6    8.19    2.06
   1   9   7    6.66    1.90
   1   9   7   10.36    3.12
   1   9   8    7.79    1.74
   1   9   8    6.00    1.35
   1   9   8    9.08    2.57
   1   9   9    0.42    0.42
   1   9   9    0.04    0.20
   1   9   9    0.00    0.26
  -1 -10  10   36.45    3.63
  -1 -10  10   31.12    2.73
  -1 -10   9   48.15    3.78
  -1 -10   9   60.94    5.35
  -1 -10   8   24.59    2.84
  -1 -10   8   31.16    4.13
  -1 -10   8   24.76    3.40
  -1 -10   7   21.38    3.56
  -1 -10   7   20.58    2.68
  -1 -10   7   24.35    3.89
  -1 -10   6   12.26    2.07
  -1 -10   6   13.79    3.04
  -1 -10   6   17.31    3.27
  -1 -10   5   11.90    2.74
   1  10  -5   11.44    2.69
  -1 -10   5   12.04    2.92
   1  10  -4    4.14    1.78
  -1 -10   4    4.12    1.64
  -1 -10   4    4.45    1.83
   1  10  -3  150.16   10.65
  -1 -10   3  157.37   11.66
  -1 -10   3  144.47    9.95
   1  10  -2  130.83   10.06
   1  10  -1   17.97    3.76
   1  10   0   58.73    6.70
   1  10   1    1.22    0.92
   1  10   2   38.49    5.24
   1  10   3   81.25    7.32
   1  10   3   79.94    6.19
   1  10   4    2.59    1.18
   1  10   4    2.36    0.95
   1  10   5   20.16    2.94
   1  10   5   18.56    3.00
   1  10   6   26.00    3.16
   1  10   6   35.84    5.04
   1  10   7    5.46    1.34
   1  10   7    7.53    1.95
  -1 -11   7   38.25    3.47
  -1 -11   7   32.69    2.50
  -1 -11   6   29.40    3.54
  -1 -11   6   32.66    3.52
  -1 -11   5    0.81    0.47
  -1 -11   5    2.02    0.93
   1  11  -4   15.32    2.73
  -1 -11   4   12.44    2.63
   1  11  -3  220.68   11.17
  -1 -11   3  202.28   11.14
   1  11  -2  121.55    8.47
  -1 -11   2  120.10    8.73
   1  11  -1    3.95    1.64
  -1 -11   1    2.23    1.16
   1  11   0    0.98    0.92
   1  11   1  179.97   10.07
   1  11   2    0.10    0.49
   1  11   3    6.22    1.74
   1  11   4   58.06    4.61
   1  11   5   79.19    5.91
  -1 -12   3   30.33    3.09
  -1 -12   2   38.92    3.62
   1  12  -2   42.66    3.79
   1  12  -1   24.92    2.94
  -1 -12   1   24.29    2.95
   1  12   0   31.14    3.30
  -1 -12   0   32.44    3.34
   1  12   1    5.21    1.30
  -1 -12  -1    4.86    1.22
  -2  12   2    1.14    0.31
  -2  12   1    7.93    1.56
  -2  12   0    4.58    1.15
   2 -12   1    5.02    1.21
   2 -11  -6    1.78    0.62
  -2  11   5   -0.05    0.08
   2 -11  -5    0.12    0.09
  -2  11   4   17.19    2.86
   2 -11  -4   15.05    2.10
   2 -11  -3   18.89    2.72
  -2  11   3   18.81    3.15
   2 -11  -2   10.23    2.14
  -2  11   2   11.20    2.51
   2 -11  -1    0.43    0.66
  -2  11   1    0.30    0.17
  -2  11   0    5.20    1.74
   2 -11   0    4.25    1.50
  -2  11  -1   29.54    4.12
   2 -11   1   27.02    3.84
  -2  11  -2   16.22    2.87
   2 -11   2   16.65    2.98
   2 -11   3    3.12    1.40
   2 -11   4   16.26    1.97
   2 -11   4   22.46    3.32
   2 -11   5    0.30    0.26
   2 -11   5   -0.11    0.35
   2 -11   6   11.27    1.48
   2 -11   6   14.51    2.27
   2 -10  -9   21.13    2.29
   2 -10  -8    1.25    0.52
   2 -10  -7   15.91    2.54
  -2  10   7   13.98    2.46
   2 -10  -6    3.74    1.25
  -2  10   6    2.67    1.16
   2 -10  -5    0.57    0.37
  -2  10   5    1.02    0.49
  -2  10   4   37.46    5.09
   2 -10  -4   31.39    3.98
  -2  10   3   21.87    4.14
   2 -10  -3   24.18    3.90
   2 -10  -3   18.96    3.13
  -2  10   2   21.15    4.00
   2 -10  -2   22.53    4.04
   2 -10  -2   15.66    2.80
   2 -10  -1    0.44    0.56
  -2  10   1    1.22    0.67
   2 -10   0   38.13    5.39
  -2  10   0   38.37    5.51
  -2  10  -1   89.71    8.33
   2 -10   1   85.33    8.22
  -2  10  -2   10.22    2.83
   2 -10   2   10.29    2.95
   2 -10   3   13.86    2.37
   2 -10   3   15.98    3.42
   2 -10   4   90.09    6.01
   2 -10   4  112.91    9.21
   2 -10   5  103.13    6.38
   2 -10   5  119.51    9.19
   2 -10   6    3.68    1.12
   2 -10   6    3.91    1.55
   2 -10   7    0.40    0.41
   2 -10   7    0.84    0.54
   2 -10   8   25.47    3.23
   2 -10   8   23.99    2.54
  -2   9  10    0.23    0.18
   2  -9 -10    0.37    0.41
  -2   9   9    0.08    0.18
   2  -9  -9    0.18    0.14
   2  -9  -8    2.74    1.24
  -2   9   7   54.01    5.80
   2  -9  -7   61.82    6.07
  -2   9   6    1.75    1.10
   2  -9  -6    1.96    1.24
  -2   9   5   -0.07    0.50
   2  -9  -5    0.40    0.65
   2  -9  -4   35.92    4.82
  -2   9   4   38.41    5.64
  -2   9   3  157.88   11.78
   2  -9  -3  154.86   10.13
   2  -9  -2  147.66    9.87
  -2   9   2  167.84   12.17
   2  -9  -1   34.56    4.67
  -2   9   1   38.59    5.77
  -2   9   0  159.02   11.94
   2  -9   0  172.41   12.73
  -2   9  -1   17.11    3.79
   2  -9   1   19.56    4.26
  -2   9  -2   57.13    6.95
   2  -9   2   59.20    7.47
   2  -9   2   44.09    4.73
   2  -9   3  476.85   21.44
   2  -9   3  381.68   14.05
   2  -9   4  154.04    8.98
   2  -9   4  171.91   12.82
   2  -9   5  132.35    8.24
   2  -9   5  140.88   11.39
   2  -9   6    0.62    0.80
   2  -9   6    0.81    1.08
   2  -9   7    1.07    0.70
   2  -9   7    1.23    0.88
   2  -9   7   -0.30    0.71
   2  -9   8   73.64    6.95
   2  -9   8   82.96    6.25
   2  -9   8   74.94    5.58
   2  -9   9   13.61    2.17
   2  -9   9   13.68    2.67
   2  -9   9   16.33    2.55
   2  -9  10    1.52    0.73
   2  -9  10    0.91    0.38
   2  -9  10    1.85    0.85
  -2   8  12   42.94    3.91
  -2   8  12   46.93    3.36
  -2   8  11    0.38    0.33
   2  -8 -11    0.42    0.26
  -2   8  11    0.20    0.48
   2  -8 -10    7.10    1.89
  -2   8  10    7.66    1.82
   2  -8  -9    0.00    0.73
  -2   8   9    0.80    0.70
  -2   8   8   16.70    2.95
  -2   8   8   15.48    3.15
  -2   8   7    2.16    0.99
  -2   8   7    0.29    0.48
  -2   8   7    0.56    0.94
  -2   8   6  150.11   11.16
  -2   8   6  173.77   11.25
  -2   8   5   -0.14    0.37
  -2   8   5    0.49    0.21
  -2   8   4   21.87    4.26
   2  -8  -4   28.84    4.53
  -2   8   4   23.76    4.03
  -2   8   3   69.31    7.85
  -2   8   3   69.36    7.16
   2  -8  -3   72.87    7.27
  -2   8   2  973.41   29.08
  -2   8   2 1019.63   26.82
   2  -8  -2 1010.05   26.74
  -2   8   1   50.98    6.64
   2  -8  -1   51.33    5.74
  -2   8   0   16.77    3.67
  -2   8  -1  441.18   19.61
   2  -8   1  477.33   21.71
   2  -8   2   82.15    6.67
   2  -8   2  104.28   10.18
  -2   8  -2  109.54    9.70
   2  -8   3  181.56   13.57
   2  -8   3  155.98    9.28
   2  -8   4    3.63    2.05
   2  -8   4    3.55    1.32
   2  -8   5   11.68    2.53
   2  -8   5   12.53    3.51
   2  -8   6    6.98    2.07
   2  -8   6    5.30    1.89
   2  -8   6    8.85    2.38
   2  -8   7   64.77    7.68
   2  -8   7   77.98    6.59
   2  -8   7   72.92    7.22
   2  -8   8  169.76    9.43
   2  -8   8  181.18   11.21
   2  -8   9   16.90    3.34
   2  -8   9   20.77    3.09
   2  -8   9   22.10    3.72
   2  -8  10    2.46    0.88
   2  -8  10    1.88    1.09
   2  -8  10    3.53    1.28
   2  -8  11   11.81    1.77
   2  -8  11   17.54    2.67
   2  -8  11   13.57    2.30
  -2   7  13    8.65    1.83
  -2   7  13   10.11    1.70
  -2   7  12   30.40    4.22
  -2   7  12   36.12    3.83
   2  -7 -12   31.39    3.50
   2  -7 -11    2.32    1.13
  -2   7  11    3.83    1.43
  -2   7  10   30.53    4.20
  -2   7  10   34.66    4.52
  -2   7   9   29.81    4.25
  -2   7   9   24.90    4.05
  -2   7   8   43.23    5.25
  -2   7   8   44.80    5.56
  -2   7   7    0.28    0.49
  -2   7   7    1.32    1.09
  -2   7   7   -0.43    0.73
  -2   7   6  874.30   23.04
  -2   7   6  824.64   24.41
  -2   7   5   77.13    7.96
  -2   7   5   91.67    8.00
  -2   7   4   34.29    5.33
  -2   7   4   34.57    4.97
  -2   7   3  178.71   11.78
  -2   7   3  183.16   11.57
  -2   7   2    4.40    1.68
   2  -7  -2    6.43    1.76
  -2   7   2    6.53    2.26
   2  -7  -1   35.03    4.02
  -2   7   1   32.47    3.94
  -2   7   1   28.82    4.48
  -2   7   1   28.88    4.40
  -2   7   0  199.43   10.20
  -2   7   0  184.83   10.54
  -2   7   0  186.01   11.18
  -2   7  -1    3.07    1.35
  -2   7  -1    0.80    0.42
  -2   7  -2  109.72    8.03
  -2   7  -2   91.39    6.93
   2  -7   3   44.75    4.84
   2  -7   3   42.14    6.37
   2  -7   4   52.18    5.29
   2  -7   4   44.49    6.62
   2  -7   5  157.74    9.54
   2  -7   5  123.18   11.13
   2  -7   5  148.70   10.61
   2  -7   6    8.08    2.87
   2  -7   6   12.12    2.65
   2  -7   6   11.62    3.10
   2  -7   7   83.75    7.01
   2  -7   7   75.81    7.98
   2  -7   8  277.37   15.36
   2  -7   8  299.50   13.15
   2  -7   9  254.49   11.76
   2  -7   9  254.50   14.29
   2  -7  10    0.44    0.15
   2  -7  10   -0.69    1.05
   2  -7  10    0.30    0.54
   2  -7  11    0.40    0.29
   2  -7  11    0.46    0.59
   2  -7  11    0.25    0.32
   2  -7  12   43.13    4.45
   2  -7  12   30.49    3.38
  -2   6  14    0.33    0.11
  -2   6  14    0.48    0.35
  -2   6  13   51.46    5.39
  -2   6  13   68.83    5.41
  -2   6  12   13.46    3.11
  -2   6  12   21.40    3.38
  -2   6  12   20.83    3.57
  -2   6  11   64.49    6.88
  -2   6  11   70.47    6.61
  -2   6  10   68.16    7.64
  -2   6  10   59.96    6.24
  -2   6  10   75.85    7.04
  -2   6   9    1.67    1.01
  -2   6   9    1.67    0.58
  -2   6   8  222.28   12.25
  -2   6   8  184.13   11.47
  -2   6   7    4.70    1.59
  -2   6   7    4.81    1.57
  -2   6   6   67.31    7.68
   2  -6  -6   97.02    7.49
   2  -6  -5    3.88    0.98
  -2   6   5    2.41    0.99
   2  -6  -5    5.55    1.47
  -2   6   5    4.11    2.20
   2  -6  -4   29.36    3.33
  -2   6   4   25.91    4.09
   2  -6  -4   22.79    3.13
  -2   6   4   22.21    4.17
  -2   6   4   28.30    4.20
  -2   6   3  195.71   11.13
   2  -6  -3  232.39    9.67
  -2   6   3  233.10   10.79
  -2   6   3  191.96   10.94
  -2   6   3  263.58   12.81
   2  -6  -3  163.19    8.05
  -2   6   2   83.93    6.88
  -2   6   2   90.77    6.72
   2  -6  -2   95.87    6.07
  -2   6   2   80.94    6.98
  -2   6   1  139.40    9.03
   2  -6  -1  174.57    8.26
  -2   6   1  150.08    8.86
  -2   6   1  158.45    8.56
  -2   6   0    4.14    1.49
  -2   6   0    3.25    1.29
  -2   6   0    5.07    1.89
   2  -6   0    2.60    0.16
  -2   6   0    5.55    1.82
   2  -6   0    5.19    1.82
  -2   6  -1  175.15    9.68
  -2   6  -1  171.78    8.53
  -2   6  -2   80.02    5.85
  -2   6  -2   75.75    5.74
  -2   6  -3  127.49    7.45
  -2   6  -3  118.72    7.41
  -2   6  -4  963.34   21.13
  -2   6  -4  908.34   21.80
  -2   6  -5  194.85   10.49
  -2   6  -5  201.45    9.99
   2  -6   6  142.77    8.91
   2  -6   6  112.45   10.52
   2  -6   6  120.94    9.94
   2  -6   7  128.63   11.44
   2  -6   7  134.51   10.95
   2  -6   8   63.38    6.14
   2  -6   8   52.64    7.12
   2  -6   8   52.59    6.99
   2  -6   9  321.63   17.23
   2  -6   9  362.46   14.46
   2  -6  10    2.42    1.16
   2  -6  10    0.11    1.25
   2  -6  10    3.26    1.53
   2  -6  11    1.48    0.79
   2  -6  11    2.58    1.31
   2  -6  12   17.33    3.13
   2  -6  12   34.18    4.56
   2  -6  13   15.71    2.68
  -2   5  14   12.67    2.52
  -2   5  14   17.58    2.75
  -2   5  14   15.64    2.57
  -2   5  13  106.51    8.05
  -2   5  13  111.23    7.66
  -2   5  12    0.47    0.46
  -2   5  12    0.80    0.82
  -2   5  12    0.04    0.62
  -2   5  11  104.62    7.90
  -2   5  11  121.24   10.26
  -2   5  10   89.02    7.61
  -2   5  10  103.76    9.79
  -2   5   9   83.01    7.33
  -2   5   9  105.90    8.54
  -2   5   8    0.74    0.74
  -2   5   8    1.52    1.07
   2  -5  -7    0.04    0.45
  -2   5   7    0.32    0.19
   2  -5  -7   -0.51    0.38
   2  -5  -6   46.23    3.82
   2  -5  -6   45.14    4.87
  -2   5   6   46.81    6.05
  -2   5   6   49.94    5.57
  -2   5   6   34.98    4.89
  -2   5   5  164.79    9.71
   2  -5  -5  148.01    8.19
  -2   5   5  174.06   10.69
   2  -5  -5  167.01    7.01
   2  -5  -4   22.98    2.53
  -2   5   4   20.90    3.15
  -2   5   4   17.61    2.98
   2  -5  -4   17.64    2.61
  -2   5   4   23.98    3.75
  -2   5   4   22.37    3.46
   2  -5  -3  248.19    8.26
  -2   5   3  238.01   10.09
  -2   5   3  243.35   10.95
  -2   5   3  249.85   11.27
  -2   5   2  144.42    8.31
   2  -5  -2  145.96    6.44
  -2   5   2  157.32    8.07
  -2   5   2  142.41    7.99
  -2   5   2  138.40    6.54
   2  -5  -1   64.37    4.56
   2  -5  -1   37.31    3.21
  -2   5   1   55.18    5.04
  -2   5   1   60.22    4.75
  -2   5   1   52.02    4.52
   2  -5  -1   42.35    3.51
  -2   5   1   52.05    4.15
  -2   5   0   65.50    5.37
   2  -5   0   80.56    5.01
  -2   5   0   78.26    5.24
  -2   5   0  101.03    6.27
  -2   5   0   68.10    4.75
   2  -5   0   50.21    4.02
  -2   5  -1  198.65    9.12
  -2   5  -1  227.27    8.74
  -2   5  -1  213.74    7.00
  -2   5  -1  204.20    8.26
  -2   5  -2   78.79    5.53
  -2   5  -2   88.34    5.54
  -2   5  -2   82.07    5.44
  -2   5  -3   20.09    2.72
   2  -5   3   15.39    2.85
  -2   5  -4 1738.08   26.00
   2  -5   4 1209.95   26.67
  -2   5  -5   10.44    2.13
   2  -5   5    9.93    2.73
  -2   5  -6   92.87    6.64
   2  -5   6   64.30    7.00
   2  -5   7   51.08    5.24
   2  -5   7   51.85    7.01
   2  -5   7   47.97    6.16
   2  -5   8   81.28    6.91
   2  -5   8   63.65    6.40
   2  -5   8   85.27    8.82
   2  -5   8   87.65    9.12
   2  -5   9  254.00   12.12
   2  -5   9  283.41   16.32
   2  -5   9  334.67   10.96
   2  -5   9  287.59   16.61
   2  -5   9  216.46   11.76
   2  -5  10   -0.22    1.02
   2  -5  10    0.83    0.85
   2  -5  10    0.74    0.36
   2  -5  11   12.11    3.05
   2  -5  11   13.93    3.30
   2  -5  11   20.59    2.56
   2  -5  12    8.91    2.47
   2  -5  12   15.61    2.10
   2  -5  12   10.06    2.63
   2  -5  13   35.30    2.66
   2  -5  13   23.69    3.77
  -2   4  15    1.42    0.61
  -2   4  15    1.12    0.49
  -2   4  15    1.87    0.83
  -2   4  14   11.65    2.66
  -2   4  14   12.56    2.37
  -2   4  14   16.91    3.06
  -2   4  13   23.54    3.70
  -2   4  13   20.64    3.97
  -2   4  13   29.29    4.54
  -2   4  12    1.45    1.06
  -2   4  12    2.26    1.14
  -2   4  12    0.52    0.51
  -2   4  11   28.04    4.95
  -2   4  11   39.01    5.84
  -2   4  11   37.88    5.09
  -2   4  10   11.31    2.73
  -2   4  10   10.90    3.02
  -2   4   9   65.00    6.42
  -2   4   8   53.11    6.57
   2  -4  -8   45.60    5.42
   2  -4  -8   40.43    4.87
   2  -4  -8   46.08    3.97
   2  -4  -7  147.02    9.08
  -2   4   7  122.19    8.58
  -2   4   7  166.23   10.95
  -2   4   7  149.48    9.12
  -2   4   7  151.48    8.94
   2  -4  -7  137.60    8.61
   2  -4  -7  144.71    6.68
  -2   4   6   30.27    4.04
   2  -4  -6   33.63    3.98
  -2   4   6   47.02    4.69
  -2   4   6   35.06    4.03
  -2   4   6   43.98    5.15
   2  -4  -6   38.89    3.28
  -2   4   5  239.44    9.62
   2  -4  -5  200.15    8.82
  -2   4   5  245.78   11.29
   2  -4  -5  228.43    7.46
  -2   4   5  234.98   10.60
  -2   4   5  198.46    9.38
  -2   4   4   79.00    5.73
   2  -4  -4   78.33    4.23
   2  -4  -4   64.25    4.63
  -2   4   4   63.54    4.99
  -2   4   4   89.70    6.55
  -2   4   4   78.19    4.89
  -2   4   4   47.61    4.36
  -2   4   3  165.18    6.52
  -2   4   3  208.22    9.11
   2  -4  -3  160.59    6.88
  -2   4   3  200.49    7.22
  -2   4   3  205.22    9.02
  -2   4   3  181.54    7.96
   2  -4  -3  190.76    6.44
  -2   4   2   86.47    4.14
  -2   4   2   95.67    6.01
  -2   4   2   83.63    4.69
  -2   4   2   90.68    5.42
   2  -4  -2   93.58    4.40
  -2   4   2   89.75    5.53
   2  -4  -2   72.51    4.32
   2  -4  -1 1278.53   16.41
  -2   4   1 1278.86   19.58
   2  -4  -1  986.67   15.02
  -2   4   1 1379.46   20.69
  -2   4   1 1330.06   21.70
   2  -4  -1 1098.46   15.87
  -2   4   1 1225.49   18.34
  -2   4   0   90.32    4.92
   2  -4   0   65.95    3.52
  -2   4   0  110.08    5.69
   2  -4   0  119.34    5.47
  -2   4   0   95.19    5.57
   2  -4   0   80.59    4.64
  -2   4  -1  201.76    5.95
  -2   4  -1  181.56    6.93
  -2   4  -1  164.45    7.14
   2  -4   1  194.47    7.12
   2  -4   1  139.31    6.51
  -2   4  -1  153.63    6.50
  -2   4  -2    8.44    1.20
  -2   4  -2    6.19    1.31
  -2   4  -2    7.89    1.68
   2  -4   2    6.79    1.58
  -2   4  -3  466.34   11.68
   2  -4   3  362.61   12.33
  -2   4  -4   23.09    2.72
   2  -4   4   22.74    3.44
  -2   4  -5  905.97   18.16
   2  -4   5  757.07   21.30
  -2   4  -6   53.96    4.81
   2  -4   6   44.87    5.46
  -2   4  -7   59.29    5.29
   2  -4   7   47.74    5.98
   2  -4   8    9.85    2.86
   2  -4   8    8.37    2.26
   2  -4   8   11.09    2.95
   2  -4   8   10.67    1.82
   2  -4   9  147.83    9.69
   2  -4   9  177.46   12.63
   2  -4   9  180.59    8.45
   2  -4   9  187.71   13.28
   2  -4  10    5.27    1.32
   2  -4  10    2.88    1.30
   2  -4  10    4.40    2.09
   2  -4  11    1.62    0.87
   2  -4  11    1.05    0.81
   2  -4  11    0.49    0.53
   2  -4  12   58.24    7.06
   2  -4  12   58.33    4.56
   2  -4  12   48.70    5.98
   2  -4  13   38.14    3.35
   2  -4  13   36.02    4.97
   2  -4  14  114.16    4.76
  -2   3  15    0.13    0.32
  -2   3  15   -0.37    0.84
  -2   3  14   30.36    4.62
  -2   3  14   29.70    3.73
  -2   3  14   35.81    4.81
  -2   3  13    6.11    2.15
  -2   3  13    5.64    2.05
  -2   3  13    6.12    1.92
  -2   3  12    7.09    2.32
  -2   3  12    6.56    2.30
  -2   3  11    7.50    2.34
  -2   3  11    7.11    2.17
  -2   3  11    9.77    2.43
  -2   3  10   10.90    2.79
  -2   3  10    7.27    1.91
   2  -3  -9  105.24    8.53
   2  -3  -9   96.02    7.78
  -2   3   9  108.90    8.56
   2  -3  -9   93.25    5.99
  -2   3   9  106.77    9.30
   2  -3  -8  659.55   19.94
   2  -3  -8  644.01   18.98
  -2   3   8  621.05   18.19
  -2   3   8  661.41   18.94
   2  -3  -8  647.89   14.96
   2  -3  -7  107.86    7.37
  -2   3   7  111.22    7.45
   2  -3  -7  103.64    5.62
   2  -3  -7  101.92    6.92
  -2   3   7  114.30    7.08
  -2   3   7  107.37    6.75
  -2   3   7  108.37    7.00
  -2   3   7  117.35    8.40
   2  -3  -6  444.00   13.78
  -2   3   6  444.20   12.75
   2  -3  -6  445.58   13.37
  -2   3   6  447.93   12.94
  -2   3   6  473.83   14.27
  -2   3   6  491.90   15.78
   2  -3  -6  442.31   10.73
   2  -3  -5    1.22    0.74
   2  -3  -5    1.17    0.56
  -2   3   5    1.90    0.92
  -2   3   5    1.35    0.86
  -2   3   5    0.15    0.51
   2  -3  -4  166.73    7.07
  -2   3   4  195.61    7.90
  -2   3   4  182.71    6.81
  -2   3   4  195.45    8.33
  -2   3   4  153.85    5.72
  -2   3   4  177.20    7.10
   2  -3  -4  171.03    5.96
  -2   3   4  184.63    7.90
  -2   3   3  506.56   10.57
   2  -3  -3  511.57   11.46
   2  -3  -3  535.72    9.83
  -2   3   3  548.67   12.49
  -2   3   3  567.17   13.01
  -2   3   3  520.98    9.85
  -2   3   3  570.36   13.22
  -2   3   2 1229.25   18.46
  -2   3   2 1225.14   17.51
   2  -3  -2 1132.98   15.87
  -2   3   2 1241.51   18.50
  -2   3   2 1169.12   16.05
  -2   3   2 1174.53   13.44
   2  -3  -2 1141.19   12.00
   2  -3  -2 1184.74   13.79
  -2   3   1 5346.67   36.94
   2  -3  -1 5166.29   31.00
  -2   3   1 4884.54   34.65
   2  -3  -1 5031.88   27.78
   2  -3  -1 5174.88   28.97
  -2   3   1 4888.19   32.08
  -2   3   1 4863.55   33.25
   2  -3   0    0.30    0.14
   2  -3   0    1.33    0.53
  -2   3   0    0.71    0.42
  -2   3   0    1.40    0.81
   2  -3   0    0.80    0.26
  -2   3   0    0.54    0.33
   2  -3   0    1.37    0.54
   2  -3   1   22.15    1.47
   2  -3   1   29.09    2.29
  -2   3  -1   27.09    2.40
   2  -3   1   24.13    2.41
  -2   3  -1   25.37    2.35
  -2   3  -1   26.72    2.44
  -2   3  -2    6.03    0.83
  -2   3  -2    8.23    1.35
  -2   3  -2    9.16    1.42
   2  -3   2    7.52    1.52
  -2   3  -3    1.09    0.52
  -2   3  -3    2.61    0.63
   2  -3   3    1.71    0.80
  -2   3  -4    2.98    0.91
   2  -3   4    6.30    1.83
  -2   3  -5 1520.78   21.86
   2  -3   5 1460.72   27.56
  -2   3  -6   20.32    2.81
   2  -3   6   16.38    3.12
   2  -3   7  142.45    9.54
  -2   3  -7  167.46    8.50
  -2   3  -8    9.78    2.05
   2  -3   8    8.50    2.39
  -2   3  -8    8.26    1.71
   2  -3   9   25.34    4.48
   2  -3   9   22.44    2.94
   2  -3   9   21.19    3.56
   2  -3   9   26.86    4.93
   2  -3  10   38.88    6.18
   2  -3  10   38.88    5.75
   2  -3  10   44.67    5.30
   2  -3  10   35.10    3.86
   2  -3  11    5.61    2.21
   2  -3  11    4.44    1.22
   2  -3  11    5.72    2.24
   2  -3  12    5.60    2.34
   2  -3  12    2.56    0.98
   2  -3  12    2.75    1.65
   2  -3  13    1.14    0.73
   2  -3  14   79.28    4.61
  -2   2  16   23.64    2.80
  -2   2  16   38.31    3.96
  -2   2  15   43.28    4.81
  -2   2  15   45.60    5.18
  -2   2  14   15.46    3.20
  -2   2  14   20.00    3.72
  -2   2  13    1.13    1.14
  -2   2  13    1.82    1.39
  -2   2  13    5.26    1.70
  -2   2  12  334.91   16.73
  -2   2  12  313.12   13.72
  -2   2  11  222.42   13.40
  -2   2  11  229.93   13.43
  -2   2  11  206.53   11.17
   2  -2 -10    1.82    1.00
   2  -2 -10    5.88    1.66
  -2   2   9  895.36   22.49
   2  -2  -9  913.89   24.33
  -2   2   9  873.51   22.54
  -2   2   9  942.86   25.95
   2  -2  -9  870.53   22.07
   2  -2  -9  833.20   18.28
  -2   2   8  290.70   11.89
  -2   2   8  304.40   13.68
  -2   2   8  283.11   11.73
   2  -2  -8  280.16   11.61
   2  -2  -8  298.67   12.60
   2  -2  -8  278.93    9.99
   2  -2  -7   53.33    4.85
   2  -2  -7   49.57    4.58
  -2   2   7   61.05    5.09
  -2   2   7   60.18    5.02
  -2   2   7   53.48    5.22
  -2   2   7   50.36    4.40
   2  -2  -7   50.60    3.94
  -2   2   7   53.23    4.18
   2  -2  -6 2480.08   30.51
  -2   2   6 2613.34   31.11
   2  -2  -6 2399.63   29.36
  -2   2   6 2315.24   25.15
  -2   2   6 2518.46   29.08
   2  -2  -6 2305.48   24.94
  -2   2   6 2319.04   27.43
  -2   2   6 2469.87   32.20
   2  -2  -5    5.14    1.24
  -2   2   5    5.74    1.41
  -2   2   5    4.61    1.05
   2  -2  -5    7.49    1.28
  -2   2   5    4.93    1.00
  -2   2   5    6.08    1.18
   2  -2  -4   43.75    3.33
   2  -2  -4   46.43    3.44
  -2   2   4   48.75    3.56
  -2   2   4   45.93    2.96
  -2   2   4   40.52    2.77
  -2   2   4   53.31    3.90
   2  -2  -4   42.80    3.01
  -2   2   4   45.98    2.93
  -2   2   3   16.30    1.96
   2  -2  -3   18.96    2.05
  -2   2   3   18.78    2.08
   2  -2  -3   16.70    1.83
  -2   2   3   15.35    1.46
  -2   2   3   19.56    1.97
   2  -2  -3   21.73    1.95
   2  -2  -2 1558.14   16.01
   2  -2  -2 1651.79   17.49
   2  -2  -2 1565.98   10.74
  -2   2   2 1635.57   18.59
  -2   2   2 1555.33   16.85
  -2   2   2 1500.46   11.30
  -2   2   2 1573.56   17.05
   2  -2  -2 1590.35   15.06
   2  -2  -1 2007.42   15.59
   2  -2  -1 2119.71   18.16
  -2   2   1 2021.46   17.18
  -2   2   1 1944.26   10.11
   2  -2  -1 2012.11   15.50
   2  -2  -1 2030.64   15.59
  -2   2   1 2059.70   19.37
   2  -2   0 1139.96   11.15
   2  -2   0 1162.54   12.12
   2  -2   0 1161.02    9.30
  -2   2   0 1103.22   11.32
   2  -2   0 1163.06   13.92
  -2   2   0 1201.92   14.76
   2  -2   1  740.58    8.41
   2  -2   1  756.70    9.83
  -2   2  -1  755.19   11.83
  -2   2  -1  768.05   11.18
  -2   2  -2   57.59    1.88
  -2   2  -2   57.68    3.10
  -2   2  -2   56.98    3.39
   2  -2   2   63.71    4.12
  -2   2  -3   13.12    1.09
  -2   2  -3   11.57    1.46
   2  -2   3   13.33    2.03
  -2   2  -4  411.07    7.28
  -2   2  -4  430.15    9.76
  -2   2  -5   44.06    3.39
   2  -2   5   25.29    3.28
  -2   2  -6  372.47   10.84
   2  -2   6  392.06   14.02
  -2   2  -7   26.46    3.05
   2  -2   7   24.89    3.79
   2  -2   8   37.61    5.04
   2  -2   9   87.29    7.21
   2  -2   9   74.31    5.58
   2  -2   9   86.94    8.21
   2  -2   9   98.05    9.33
   2  -2   9   76.39    6.61
   2  -2  10   23.03    3.22
   2  -2  10   35.55    5.65
   2  -2  10   27.96    4.79
   2  -2  10   29.21    4.34
   2  -2  11    9.02    2.82
   2  -2  11   11.74    3.29
   2  -2  11   10.18    2.58
   2  -2  11    6.72    1.72
   2  -2  12   24.70    3.38
   2  -2  12   35.58    4.72
   2  -2  12   38.22    5.91
   2  -2  13    0.37    0.54
   2  -2  14   20.98    2.49
  -2   1  16   12.09    2.13
  -2   1  16   10.66    1.48
  -2   1  15   10.58    2.36
  -2   1  15   12.93    2.83
  -2   1  14    1.70    0.54
  -2   1  14    2.42    1.20
  -2   1  13    0.12    0.55
  -2   1  13    0.95    0.97
  -2   1  12  378.28   17.13
  -2   1  12  384.95   17.53
  -2   1  11  816.36   24.72
  -2   1  11  880.88   25.82
   2  -1 -10   33.78    4.50
   2  -1 -10   29.48    3.93
  -2   1  10   36.06    5.16
   2  -1 -10   29.07    3.87
   2  -1 -10   33.05    4.68
  -2   1  10   40.38    5.31
  -2   1   9   58.14    5.36
   2  -1  -9   55.43    5.16
  -2   1   9   61.60    6.24
   2  -1  -9   55.49    4.88
   2  -1  -9   61.14    5.99
   2  -1  -8   82.37    6.37
  -2   1   8   76.80    6.42
  -2   1   8   75.51    5.45
   2  -1  -8   76.25    5.65
  -2   1   8   68.34    5.48
   2  -1  -8   75.04    5.47
  -2   1   8   85.06    6.14
  -2   1   7  934.03   18.20
   2  -1  -7  872.71   17.81
  -2   1   7  943.57   18.83
   2  -1  -7  920.05   19.39
   2  -1  -7  870.37   17.33
  -2   1   7  857.16   17.54
  -2   1   7  895.10   20.01
   2  -1  -6    0.59    0.34
  -2   1   6    6.02    1.50
  -2   1   6    3.90    1.24
  -2   1   6    3.30    1.16
   2  -1  -6    0.94    0.80
   2  -1  -6    8.50    1.49
  -2   1   6    0.26    0.32
  -2   1   6    1.21    0.87
   2  -1  -5   76.79    4.63
  -2   1   5   76.51    4.54
  -2   1   5   73.03    4.39
  -2   1   5   65.14    3.17
  -2   1   5   73.97    4.73
  -2   1   5   70.23    3.97
   2  -1  -5   81.28    4.55
   2  -1  -5   69.38    4.17
   2  -1  -4  665.06   12.31
  -2   1   4  706.05   12.71
   2  -1  -4  679.93   12.29
  -2   1   4  629.30    6.63
  -2   1   4  636.56   10.22
  -2   1   4  637.22   12.23
   2  -1  -4  616.99   11.26
  -2   1   4  567.74    7.78
  -2   1   4  687.87   11.05
  -2   1   3  855.38    9.54
   2  -1  -3  887.96   12.82
   2  -1  -3  864.83   12.19
  -2   1   3  876.81    8.45
  -2   1   3  873.86   11.90
  -2   1   2 1253.11   13.25
   2  -1  -2 1362.72   14.95
   2  -1  -2 1426.05   14.72
  -2   1   2 1363.06   14.50
   2  -1  -2 1280.42   13.34
   2  -1  -1  859.05    9.44
   2  -1  -1  941.35   11.33
   2  -1  -1  884.75    9.04
   2  -1  -1  808.01    5.08
  -2   1   1  831.78    8.96
   2  -1  -1  891.79    9.56
  -2   1   0 9999.00   37.23
   2  -1   0 9884.70   36.18
  -2   1  -1 1316.07   12.77
   2  -1   1 1219.53   11.39
   2  -1   1 1332.47   15.20
  -2   1  -1 1404.79   14.77
  -2   1  -2  935.83    7.57
   2  -1   2  913.72   10.57
  -2   1  -2  937.65   11.02
   2  -1   2  934.52   11.90
   2  -1   2  997.71   14.70
  -2   1  -2 1006.56   12.72
  -2   1  -3   59.57    2.94
   2  -1   3   60.49    3.48
  -2   1  -3   66.36    3.44
   2  -1   3   58.61    3.20
   2  -1   3   68.37    4.25
  -2   1  -3   58.60    2.64
  -2   1  -4  359.34    7.57
  -2   1  -4  362.42    7.94
   2  -1   4  372.71    9.75
   2  -1   4  349.36    8.96
   2  -1   4  387.44   11.23
   2  -1   4  376.92   10.44
  -2   1  -4  385.59    8.92
  -2   1  -5  977.01   14.47
  -2   1  -5  921.30   13.83
   2  -1   5  982.79   17.55
  -2   1  -5  985.71   15.39
   2  -1   5 1004.10   19.57
   2  -1   5  931.28   16.27
   2  -1   5  990.34   18.71
  -2   1  -6  474.64   10.82
   2  -1   6  488.65   13.83
   2  -1   6  480.01   14.58
  -2   1  -6  493.77   11.77
   2  -1   7    1.80    0.83
   2  -1   7    2.41    1.02
   2  -1   8    0.86    0.71
   2  -1   9   30.52    4.78
   2  -1   9   36.58    5.51
   2  -1   9   24.58    3.14
   2  -1   9   26.24    3.95
   2  -1  10   13.30    2.97
   2  -1  10   12.57    3.37
   2  -1  10   12.61    2.86
   2  -1  10    9.73    1.97
   2  -1  10   16.71    3.90
   2  -1  11    9.09    2.02
   2  -1  11   13.34    2.96
   2  -1  11   16.89    4.00
   2  -1  11    8.21    2.04
   2  -1  12   28.92    3.74
   2  -1  12   25.12    3.76
   2  -1  13    5.36    1.44
   2  -1  13    7.68    2.12
   2  -1  13    5.42    1.52
   2  -1  14   -0.28    0.27
  -2   0  16   73.37    4.61
  -2   0  16   98.49    6.07
  -2   0  15   42.31    4.86
  -2   0  15   49.12    5.65
  -2   0  14   -0.07    0.86
  -2   0  14    0.76    0.85
  -2   0  13   21.54    3.79
  -2   0  13   26.38    4.44
  -2   0  12  204.75   12.69
  -2   0  12  183.09   11.44
  -2   0  11  477.56   17.99
  -2   0  11  526.01   19.31
   2   0 -10   29.45    4.13
  -2   0  10   28.42    3.88
   2   0 -10   40.19    5.14
   2   0 -10   35.05    4.60
   2   0  -9  391.62   14.24
  -2   0   9  409.91   13.17
   2   0  -9  368.71   12.53
   2   0  -9  392.74   13.86
  -2   0   9  416.58   14.20
   2   0  -9  400.90   14.13
  -2   0   8  250.48   10.19
  -2   0   8  236.94    9.38
   2   0  -8  227.52    9.91
   2   0  -8  225.23    9.08
  -2   0   8  239.41   10.90
   2   0  -8  226.69    9.73
   2   0  -8  238.38   10.21
  -2   0   7 1178.69   20.45
   2   0  -7 1053.46   19.29
   2   0  -7 1065.18   18.12
  -2   0   7 1149.76   19.32
  -2   0   7 1103.14   21.17
   2   0  -7 1086.01   19.94
   2   0  -6   78.46    4.54
  -2   0   6   78.12    4.74
  -2   0   6   73.00    3.43
  -2   0   6   75.61    5.04
  -2   0   6   82.24    4.86
   2   0  -6   83.20    5.10
  -2   0   5  275.41    8.22
   2   0  -5  260.33    7.71
  -2   0   5  271.52    8.24
  -2   0   5  249.44    5.26
  -2   0   5  286.27    8.81
  -2   0   5  246.02    4.44
   2   0  -5  282.53    8.62
  -2   0   4  370.85    8.75
  -2   0   4  344.59    5.34
   2   0  -4  360.92    8.43
  -2   0   4  344.77    8.35
  -2   0   4  339.08    8.57
  -2   0   4  327.45    4.45
   2   0  -4  359.81    8.71
  -2   0   4  377.38    8.16
  -2   0   4  338.59    4.48
   2   0  -3    1.65    0.44
  -2   0   3    1.07    0.36
  -2   0   2 4634.08   23.99
  -2   0   2 4613.13   23.54
  -2   0   1 5602.28   24.87
  -2   0   1 5507.43   20.89
   2   0   0  602.08    7.89
  -2   0   0  657.07    8.15
   2   0   0  635.44    8.08
   2   0   0  589.20    6.09
   2   0   0  638.79    7.40
   2   0   0  663.92    9.31
   2   0   0  572.36    5.82
  -2   0   0  647.21    9.01
   2   0   1   65.52    3.16
   2   0   1   67.49    3.05
  -2   0  -1   76.38    2.69
  -2   0  -1   71.73    3.01
   2   0   1   65.36    2.59
   2   0   1   67.32    3.36
   2   0   2  271.39    7.47
  -2   0  -2  270.10    4.94
   2   0   2  285.53    7.52
   2   0   2  275.88    7.49
  -2   0  -2  286.67    6.33
   2   0   3   36.46    3.00
   2   0   3   38.07    3.13
   2   0   3   34.97    2.63
  -2   0  -3   36.15    1.90
   2   0   3   31.74    1.41
   2   0   3   38.71    3.06
  -2   0  -3   42.86    2.52
   2   0   4  291.73    9.72
  -2   0  -4  279.91    5.80
   2   0   4  284.09    9.07
   2   0   4  289.23    9.19
  -2   0  -4  293.44    6.94
   2   0   4  275.10    8.40
   2   0   5    7.76    1.71
   2   0   5    6.65    1.46
   2   0   5    6.08    1.45
   2   0   5    6.56    1.48
  -2   0  -5    7.05    1.16
   2   0   6  148.32    8.41
   2   0   6  147.60    7.91
   2   0   6  139.21    7.44
   2   0   6  142.20    7.58
   2   0   7   45.55    4.64
   2   0   7   54.61    5.54
   2   0   7   54.42    5.30
   2   0   7   48.71    4.98
   2   0   8  147.00    9.50
   2   0   8  139.25    9.08
   2   0   8  132.37    8.46
   2   0   8  151.41    9.95
   2   0   9   15.21    3.38
   2   0   9   11.89    2.21
   2   0   9   11.90    2.83
   2   0   9   16.95    3.73
   2   0   9   13.78    2.89
   2   0   9   13.94    2.63
   2   0  10  216.63   10.89
   2   0  10  221.24   12.93
   2   0  10  186.73    9.58
   2   0  10  207.70   11.71
   2   0  11  113.42    7.45
   2   0  11  121.17    8.93
   2   0  11  126.46    9.84
   2   0  12   37.51    4.80
   2   0  12   45.53    5.62
   2   0  12   39.04    4.19
   2   0  13   48.23    5.40
   2   0  13   41.52    4.01
   2   0  13   39.81    4.49
   2   0  14   14.74    2.00
   2   0  14   17.11    2.82
  -2  -1  16   49.21    3.97
  -2  -1  16  109.83    6.19
  -2  -1  15   71.31    5.98
  -2  -1  14    2.91    1.50
  -2  -1  14    1.91    1.21
  -2  -1  13   94.81    7.86
  -2  -1  13  102.35    8.83
  -2  -1  12   39.77    5.46
  -2  -1  12   32.04    4.60
  -2  -1  11  864.29   24.54
  -2  -1  11  757.61   21.81
   2   1 -10   85.21    6.92
  -2  -1  10   79.23    6.08
  -2  -1  10   89.99    7.01
   2   1 -10   77.74    6.35
   2   1 -10   85.57    7.31
  -2  -1   9   46.88    4.67
  -2  -1   9   47.83    4.68
   2   1  -9   47.94    4.71
   2   1  -9   45.02    4.55
  -2  -1   8   13.32    2.11
  -2  -1   8   13.30    2.30
   2   1  -8   13.54    2.17
   2   1  -8   14.93    2.31
   2   1  -8   15.28    2.46
   2   1  -7  936.97   17.51
  -2  -1   7 1016.20   17.89
   2   1  -7  913.42   15.56
  -2  -1   7 1001.22   18.20
   2   1  -7  957.52   17.56
   2   1  -6  121.75    5.69
   2   1  -6  119.17    5.26
  -2  -1   6  133.50    6.06
  -2  -1   6  123.05    4.75
   2   1  -6  123.91    5.83
  -2  -1   6  131.11    6.02
   2   1  -5 1268.41   16.69
   2   1  -5 1256.55   15.88
  -2  -1   5 1333.12   17.63
  -2  -1   5 1318.59   17.41
   2   1  -5 1306.67   17.17
   2   1  -4  296.50    7.32
   2   1  -4  295.81    7.27
  -2  -1   4  294.29    7.44
  -2  -1   4  305.94    7.90
  -2  -1   4  317.88    6.28
   2   1  -4  309.17    7.78
   2   1  -3 4776.26   26.53
   2   1  -3 4794.40   25.44
  -2  -1   2 1856.79   14.87
   2   1  -2 1930.48   13.64
  -2  -1   2 1859.69   16.16
  -2  -1   2 1913.01   15.26
  -2  -1   1   33.35    1.68
   2   1  -1   34.03    1.75
   2   1  -1   37.61    1.62
  -2  -1   1   34.65    1.99
  -2  -1   1   34.56    1.97
   2   1  -1   39.46    2.22
  -2  -1   0 3573.96   14.35
   2   1   0 3559.08   20.35
  -2  -1  -1  503.79    5.49
  -2  -1  -1  490.93    5.17
   2   1   1  507.59    9.18
   2   1   1  627.07   10.80
  -2  -1  -1  541.40    9.04
   2   1   1  589.16    9.39
   2   1   1  559.77    8.09
  -2  -1  -1  514.26    7.15
   2   1   1  570.03    5.93
   2   1   2   10.53    1.56
  -2  -1  -2    9.39    0.98
  -2  -1  -2    9.50    0.68
   2   1   2   11.54    1.22
   2   1   2   10.02    1.36
   2   1   2   11.04    1.60
   2   1   2    9.38    0.85
   2   1   3  967.74   15.84
   2   1   3  760.18    9.63
   2   1   3 1009.61   17.04
   2   1   3  842.72    9.74
   2   1   3  925.46   16.28
  -2  -1  -3  852.34    9.62
  -2  -1  -3  852.80   12.71
   2   1   4  756.33   15.40
   2   1   4  755.12   16.29
   2   1   5  260.40   10.36
   2   1   5  241.61    9.67
  -2  -1  -5  225.23    7.00
   2   1   5  260.99   10.79
   2   1   6  139.96    8.19
   2   1   6  139.18    8.72
   2   1   6  128.35    7.75
   2   1   7   60.09    6.27
   2   1   7   58.54    5.82
   2   1   7   58.16    5.76
   2   1   8   84.16    7.46
   2   1   8   79.78    7.35
   2   1   8   84.92    7.79
   2   1   9  777.91   25.16
   2   1   9  767.10   20.34
   2   1  10   60.83    5.25
   2   1  10   68.32    7.54
   2   1  10   70.15    6.19
   2   1  10   70.97    7.01
   2   1  11   99.70    6.67
   2   1  11  106.62    8.50
   2   1  11   97.13    8.89
   2   1  12   83.35    5.83
   2   1  12   87.51    8.13
   2   1  12   94.32    7.68
   2   1  13   93.85    6.99
   2   1  13   82.59    7.21
   2   1  13   80.25    5.10
   2   1  14   58.67    5.19
   2   1  14   61.81    3.58
  -2  -2  16   30.72    3.12
  -2  -2  16   55.32    4.20
  -2  -2  15   93.68    6.51
  -2  -2  14   20.10    3.43
  -2  -2  13   88.73    7.39
  -2  -2  13  113.22    9.46
  -2  -2  12   33.13    4.48
  -2  -2  12   39.36    5.42
  -2  -2  11  259.93   12.35
  -2  -2  11  322.66   14.89
   2   2 -10   60.34    5.61
  -2  -2  10   64.64    5.78
  -2  -2  10   73.93    6.50
   2   2  -9   16.80    2.68
  -2  -2   9   20.21    2.90
   2   2  -9   16.59    2.68
  -2  -2   9   20.74    3.11
   2   2  -8   61.99    4.92
  -2  -2   8   65.13    5.06
   2   2  -8   63.81    4.78
  -2  -2   8   64.63    5.09
  -2  -2   7  105.61    5.93
  -2  -2   7  100.25    5.45
   2   2  -7  100.76    5.60
  -2  -2   7  104.00    5.88
   2   2  -7   97.36    5.62
   2   2  -7   95.23    4.66
   2   2  -6  975.16   15.96
  -2  -2   6 1025.27   16.95
   2   2  -6  980.57   16.07
  -2  -2   6 1031.48   17.06
  -2  -2   6 1031.87   16.86
   2   2  -5 1016.65   14.62
   2   2  -5  983.33   13.51
  -2  -2   5 1059.46   15.86
  -2  -2   5  983.37   13.80
  -2  -2   5 1023.85   15.31
   2   2  -5 1041.83   15.18
  -2  -2   4  986.77   14.08
   2   2  -4  963.06   12.62
   2   2  -4  992.45   13.86
   2   2  -4  978.51   12.93
   2   2  -3  109.46    3.96
  -2  -2   3   95.35    4.01
  -2  -2   3  105.94    3.98
  -2  -2   3   94.73    3.74
   2   2  -3  108.43    4.32
  -2  -2   2  342.11    6.28
  -2  -2   2  350.30    7.05
  -2  -2   2  387.85    7.31
   2   2  -2  396.99    7.85
   2   2  -2  420.30    7.19
   2   2  -1 2919.95   21.23
  -2  -2   1 3181.36   19.26
   2   2  -1 3204.73   22.43
  -2  -2   1 3066.57   15.98
  -2  -2   1 3263.04   21.05
   2   2  -1 3059.09   19.44
  -2  -2   0 2698.39   15.77
   2   2   0 2696.16   20.58
  -2  -2   0 2697.29   19.65
  -2  -2   0 2572.79   15.88
   2   2   0 2591.77   20.59
   2   2   1   92.90    4.33
  -2  -2  -1  121.14    2.72
   2   2   1  116.30    4.40
  -2  -2  -1  100.77    3.87
  -2  -2  -1   91.03    2.70
   2   2   1  107.07    4.74
   2   2   2   46.49    3.63
   2   2   2   43.09    3.36
   2   2   2   48.93    2.79
   2   2   2   48.21    2.91
   2   2   2   49.78    3.74
  -2  -2  -2   38.44    2.50
  -2  -2  -2   38.45    1.63
   2   2   3   16.84    2.30
  -2  -2  -3   14.11    1.50
   2   2   3   18.24    1.88
   2   2   3   16.80    2.43
   2   2   3   17.34    2.36
   2   2   4  199.44    9.07
   2   2   4  223.08   10.05
   2   2   4  204.18    9.03
   2   2   5  742.25   19.25
   2   2   5  712.25   18.50
   2   2   5  704.03   19.06
   2   2   6   74.92    6.41
   2   2   6   74.68    6.82
   2   2   6   78.36    6.63
   2   2   7    2.34    0.90
   2   2   7    2.19    1.55
   2   2   7    2.18    0.77
   2   2   8   59.60    6.85
   2   2   8   52.62    6.25
   2   2   9  443.07   20.52
   2   2   9  481.03   17.55
   2   2   9  423.71   17.43
   2   2   9  466.45   15.77
   2   2  10  211.58   10.88
   2   2  10  194.47    8.90
   2   2  10  187.20   13.45
   2   2  10  175.10   11.09
   2   2  10  220.59   12.18
   2   2  11    2.70    1.11
   2   2  11    3.09    1.39
   2   2  11    2.30    0.91
   2   2  11    3.49    1.31
   2   2  12   30.84    4.84
   2   2  12   39.00    4.94
   2   2  13   54.42    5.34
   2   2  13   34.15    4.63
   2   2  14   31.53    3.66
  -2  -3  16    3.29    0.88
  -2  -3  16    4.81    1.10
  -2  -3  15   87.75    5.95
  -2  -3  14  330.98   12.86
  -2  -3  13    2.50    1.36
  -2  -3  12   63.46    6.09
  -2  -3  11   54.56    5.63
  -2  -3  10    5.74    1.67
  -2  -3  10    2.06    0.95
   2   3  -9    3.12    1.10
  -2  -3   9    3.76    1.60
  -2  -3   9    1.04    0.72
   2   3  -9    2.80    0.68
   2   3  -8  131.59    6.71
  -2  -3   8  148.36    7.94
   2   3  -8  138.40    6.78
  -2  -3   7  923.19   19.94
   2   3  -7  942.85   16.70
  -2  -3   7  978.07   18.99
  -2  -3   7  990.05   18.61
   2   3  -7  927.06   16.51
   2   3  -6 1278.12   17.80
  -2  -3   6 1343.08   19.98
   2   3  -6 1321.55   18.11
   2   3  -6 1293.68   18.28
   2   3  -5    6.17    1.16
  -2  -3   5    9.48    1.53
  -2  -3   5    6.86    1.38
   2   3  -5    9.47    1.52
   2   3  -5    6.45    1.21
  -2  -3   5    6.65    1.14
  -2  -3   4   10.92    1.58
   2   3  -4    9.14    1.32
  -2  -3   4   12.24    1.57
  -2  -3   4    9.40    1.49
   2   3  -4    8.53    1.42
   2   3  -4   11.87    1.55
  -2  -3   3 1514.33   17.50
   2   3  -3 1520.27   17.85
   2   3  -3 1534.56   17.03
  -2  -3   3 1506.43   16.01
   2   3  -2  103.12    4.58
  -2  -3   2  101.52    4.31
   2   3  -2  100.37    4.54
  -2  -3   2   97.45    4.16
   2   3  -2  103.37    4.42
  -2  -3   2  103.97    3.75
   2   3  -1  968.51   13.58
  -2  -3   1  845.50   11.34
   2   3  -1  743.46   12.33
  -2  -3   1  859.96    9.53
   2   3  -1  884.97   13.64
  -2  -3   1  837.66   11.89
   2   3   0  327.87    8.89
  -2  -3   0  289.14    6.81
  -2  -3   0  313.13    6.34
   2   3   0  313.64    8.25
   2   3   0  275.42    8.19
   2   3   1    1.01    0.43
   2   3   1    2.02    0.89
  -2  -3  -1    0.87    0.47
   2   3   2 1205.75   21.32
   2   3   2 1234.45   20.97
  -2  -3  -2 1244.60   14.37
   2   3   3  175.62    8.47
   2   3   3  191.24    6.90
   2   3   3  169.01    6.89
   2   3   3  182.65    8.87
  -2  -3  -3  163.01    5.26
   2   3   3  176.33    8.65
   2   3   4 1546.70   27.63
   2   3   4 1454.57   20.12
   2   3   4 1569.81   28.02
   2   3   4 1541.05   28.02
  -2  -3  -4 1441.79   16.11
   2   3   5   26.42    4.01
   2   3   5   22.92    3.66
   2   3   5   25.00    3.95
   2   3   6   93.81    8.04
   2   3   6   93.73    8.25
   2   3   6   97.23    8.20
   2   3   7   15.90    3.68
   2   3   7   15.27    3.12
   2   3   7   11.85    3.02
   2   3   8   49.41    5.80
   2   3   8   43.84    6.47
   2   3   8   46.32    5.14
   2   3   8   51.32    5.21
   2   3   9  263.07   14.09
   2   3   9  242.85   15.99
   2   3   9  269.65   13.10
   2   3   9  284.81   12.47
   2   3  10  334.01   14.74
   2   3  10  288.51   17.17
   2   3  10  359.08   14.08
   2   3  10  307.32   15.02
   2   3  11   38.93    4.92
   2   3  11   28.73    5.09
   2   3  11   30.87    4.57
   2   3  12    0.92    0.96
   2   3  12    2.60    1.18
   2   3  12    1.99    0.97
   2   3  13   17.50    3.20
   2   3  14    2.31    0.87
  -2  -4  16   12.39    1.52
  -2  -4  15   70.65    4.95
  -2  -4  14  343.79   12.30
  -2  -4  13    2.81    1.28
  -2  -4  12   41.84    4.75
  -2  -4  12   37.29    5.60
  -2  -4  11   56.13    5.61
  -2  -4  11   44.63    6.44
  -2  -4  11   59.40    5.62
  -2  -4  10   51.02    5.10
  -2  -4  10   50.11    6.79
  -2  -4  10   47.26    5.06
  -2  -4   9  276.21   11.90
   2   4  -9  243.56    9.79
  -2  -4   9  263.70   11.42
  -2  -4   8    4.25    1.16
   2   4  -8    4.93    1.38
  -2  -4   8    3.90    1.40
  -2  -4   8    3.87    2.44
   2   4  -7  193.00    7.60
  -2  -4   7  204.17    9.07
  -2  -4   7  191.69    8.28
   2   4  -7  176.47    7.06
   2   4  -6   43.94    3.34
  -2  -4   6   43.29    3.95
   2   4  -6   44.41    3.76
  -2  -4   6   39.38    3.54
   2   4  -6   38.46    3.12
   2   4  -5  840.97   14.23
  -2  -4   5  841.51   15.94
  -2  -4   5  767.21   14.40
   2   4  -5  816.81   15.49
  -2  -4   5  810.44   15.93
   2   4  -5  756.91   13.54
   2   4  -4   40.76    3.07
  -2  -4   4   40.02    3.36
   2   4  -4   40.54    3.41
  -2  -4   4   45.51    3.51
  -2  -4   4   36.64    2.87
  -2  -4   3   89.35    4.22
   2   4  -3   94.11    5.09
  -2  -4   3   99.97    4.99
  -2  -4   3   91.80    4.70
   2   4  -3   87.81    4.86
   2   4  -2  227.15    7.84
  -2  -4   2  242.97    7.98
   2   4  -2  237.01    7.80
   2   4  -1  112.59    5.40
  -2  -4   1   91.59    4.19
   2   4  -1   96.45    5.09
  -2  -4   1   90.54    4.56
   2   4  -1   74.86    4.63
   2   4   0  339.60   10.31
   2   4   0  307.98    9.33
  -2  -4   0  326.59    7.63
  -2  -4  -1  118.75    4.87
   2   4   1  132.10    6.32
   2   4   2  150.65    8.11
  -2  -4  -2  173.05    5.92
   2   4   2  197.46    7.83
   2   4   2   97.32    5.93
   2   4   2  113.74    7.27
   2   4   2   95.31    6.56
   2   4   3   19.21    3.27
  -2  -4  -3   19.19    2.06
   2   4   3   20.11    2.59
   2   4   3   15.65    2.70
   2   4   3   15.01    2.93
   2   4   3   15.05    2.99
   2   4   4  682.68   15.83
   2   4   4  622.02   19.53
   2   4   4  523.09   17.58
   2   4   4  558.80   18.70
   2   4   5   11.35    2.71
   2   4   5    9.73    2.61
   2   4   5   10.03    2.88
   2   4   6   77.19    7.54
   2   4   6   87.59    8.60
   2   4   6   82.79    8.26
   2   4   7   88.90    9.81
   2   4   7  105.21    8.21
   2   4   7  102.33    7.24
   2   4   7  111.44    8.70
   2   4   7  110.61    7.69
   2   4   8  242.72   11.84
   2   4   8  231.43   16.35
   2   4   8  268.61   13.51
   2   4   8  286.83   12.81
   2   4   8  282.55   14.64
   2   4   9  350.22   14.68
   2   4   9  357.42   15.70
   2   4   9  379.45   16.92
   2   4  10   14.67    4.13
   2   4  10   23.16    4.08
   2   4  10   21.90    3.74
   2   4  11   48.18    5.26
   2   4  11   39.47    5.04
   2   4  12    3.88    1.52
   2   4  12    1.62    0.91
   2   4  13    6.77    1.75
   2   4  13   16.23    2.27
  -2  -5  15    0.85    0.37
  -2  -5  15    0.27    0.15
  -2  -5  14  113.23    6.49
  -2  -5  14   69.56    6.21
  -2  -5  13   22.07    3.09
  -2  -5  13   14.76    3.21
  -2  -5  12   42.50    4.57
  -2  -5  12   25.34    4.82
  -2  -5  11  107.82    7.48
  -2  -5  11  102.51    7.68
  -2  -5  10   45.84    4.91
  -2  -5  10   46.07    5.11
  -2  -5  10   31.67    5.70
  -2  -5   9    3.85    1.22
  -2  -5   9    3.90    1.26
  -2  -5   9    2.96    1.76
   2   5  -8   33.69    3.61
  -2  -5   8   34.81    4.07
  -2  -5   8   32.93    3.68
  -2  -5   7    6.19    1.34
   2   5  -7    7.19    1.58
  -2  -5   7    5.58    1.52
  -2  -5   7    8.15    3.01
   2   5  -6  533.42   13.07
  -2  -5   6  563.66   14.97
  -2  -5   6  534.97   13.68
   2   5  -5  174.81    7.63
  -2  -5   5  180.49    8.01
   2   5  -5  199.83    8.55
  -2  -5   5  176.08    7.33
   2   5  -4  565.61   14.22
  -2  -5   4  585.23   14.09
   2   5  -3  255.87    9.07
  -2  -5   3  230.31    8.23
   2   5  -3  257.12    9.41
  -2  -5   3  260.26    9.09
  -2  -5   2  274.96    8.65
   2   5  -2  290.97   10.01
  -2  -5   2  289.05    9.32
   2   5  -1   13.58    2.13
  -2  -5   1   13.27    2.03
   2   5  -1   10.10    1.86
   2   5  -1    8.86    1.76
  -2  -5   1   10.92    1.72
   2   5   0  473.10   13.46
   2   5   0  451.10   12.59
   2   5   1  353.80   11.42
  -2  -5  -1  318.29    9.47
   2   5   2   13.68    2.70
   2   5   2   10.02    2.43
   2   5   2   17.97    2.62
   2   5   2   12.79    2.21
   2   5   2   14.47    2.79
  -2  -5  -2   16.18    2.09
   2   5   3  192.61   11.10
   2   5   3  125.23    8.35
   2   5   3  266.24   10.81
   2   5   3  140.68   10.00
   2   5   3  201.06   11.42
  -2  -5  -3  252.38    8.41
   2   5   4   72.59    7.21
   2   5   4   72.23    7.11
   2   5   5  161.95   11.81
   2   5   5  161.61   11.68
   2   5   6  459.55   16.10
   2   5   6  492.34   17.87
   2   5   6  506.30   18.41
   2   5   7   -0.39    1.88
   2   5   7    0.02    0.69
   2   5   7    3.21    1.49
   2   5   7    0.44    0.53
   2   5   7    4.09    1.49
   2   5   8  365.80   16.57
   2   5   8  367.57   16.12
   2   5   8  343.27   13.94
   2   5   8  313.26   13.18
   2   5   9   19.29    3.34
   2   5   9   29.47    4.35
   2   5   9   22.58    3.95
   2   5  10   44.62    5.54
   2   5  10   39.08    4.74
   2   5  10   40.95    4.96
   2   5  11   13.87    3.32
   2   5  11   49.63    5.41
   2   5  12    0.39    0.38
   2   5  12    1.62    0.95
   2   5  13    7.26    1.61
  -2  -6  14   81.33    5.18
  -2  -6  14   96.89    5.39
  -2  -6  13    5.63    1.43
  -2  -6  13    4.91    1.40
  -2  -6  13    1.93    0.70
  -2  -6  12   12.48    2.26
  -2  -6  12    4.81    1.99
  -2  -6  11   11.78    2.36
  -2  -6  11    4.71    2.11
  -2  -6  11   12.74    2.63
  -2  -6  10   31.13    4.03
  -2  -6  10   32.30    4.33
  -2  -6   9   91.29    6.83
  -2  -6   9   94.17    7.45
  -2  -6   8  925.73   21.08
  -2  -6   8  911.42   22.63
  -2  -6   7    0.84    1.48
  -2  -6   7    0.58    0.77
  -2  -6   7    0.38    0.46
   2   6  -6   41.16    4.31
  -2  -6   6   49.61    4.69
  -2  -6   5   25.32    3.11
   2   6  -5   26.58    3.57
   2   6  -5   26.89    3.26
   2   6  -4    6.66    1.48
  -2  -6   4    8.49    1.91
   2   6  -4    9.79    2.23
  -2  -6   3  192.49    8.20
   2   6  -3  202.17    9.20
  -2  -6   2  428.12   11.74
  -2  -6   2  401.57   11.96
   2   6  -2  419.72   13.43
   2   6  -1  255.45   10.53
  -2  -6   1  243.84    9.19
   2   6  -1  253.29   11.53
  -2  -6   0    1.45    0.40
   2   6   0    0.48    0.26
   2   6   1  362.75   13.12
  -2  -6  -1  317.62   10.18
   2   6   1  366.55   15.40
   2   6   1  384.36   14.49
   2   6   1  297.77   13.95
   2   6   2   24.48    4.09
   2   6   2   23.92    3.45
   2   6   2   24.87    4.19
   2   6   2   18.95    3.63
  -2  -6  -2   18.11    2.14
   2   6   3   63.99    7.22
   2   6   3   85.01    6.76
   2   6   3   79.68    8.23
   2   6   3   85.18    7.95
   2   6   4    9.84    2.95
   2   6   4   12.57    3.66
   2   6   5 1196.84   28.28
   2   6   5 1145.84   25.95
   2   6   5 1124.51   26.98
   2   6   6  152.26    9.63
   2   6   6  161.85   10.60
   2   6   6  156.14   10.48
   2   6   7    0.29    0.56
   2   6   7   -1.82    2.26
   2   6   7    2.78    1.34
   2   6   7    0.48    0.86
   2   6   8   24.67    3.75
   2   6   8   11.86    3.90
   2   6   8   23.03    3.49
   2   6   8   23.16    4.07
   2   6   8   25.77    4.28
   2   6   9   82.43    7.26
   2   6   9   87.03    7.56
   2   6  10   86.13    6.86
   2   6  10  104.55    7.84
   2   6  11    0.50    0.42
   2   6  11    0.88    0.58
   2   6  11    0.66    0.59
   2   6  12    2.42    0.99
   2   6  12    2.38    0.79
  -2  -7  14   19.23    2.12
  -2  -7  14   18.18    2.54
  -2  -7  13   13.79    2.02
  -2  -7  13   13.90    2.26
  -2  -7  13   10.87    2.47
  -2  -7  12    0.64    0.41
  -2  -7  12    0.17    0.23
  -2  -7  12    0.13    0.38
  -2  -7  11   54.27    4.85
  -2  -7  11   43.57    6.34
  -2  -7  11   53.06    5.11
  -2  -7  10    0.73    0.69
  -2  -7  10    0.48    0.50
  -2  -7  10    1.69    1.44
  -2  -7   9   15.76    2.83
  -2  -7   9   17.04    4.25
  -2  -7   9   17.90    3.17
  -2  -7   8   83.02    6.49
  -2  -7   8   94.98   10.25
  -2  -7   8   92.92    7.38
  -2  -7   7  283.38   11.85
  -2  -7   7  289.16   12.97
  -2  -7   6   10.68    2.21
  -2  -7   6   12.56    2.60
   2   7  -5   22.34    3.84
  -2  -7   5   16.96    2.98
   2   7  -4    3.81    1.11
   2   7  -3  635.20   17.85
   2   7  -3  513.22   16.28
   2   7  -2   32.31    4.45
   2   7  -2   24.87    3.51
   2   7  -2   31.51    3.99
   2   7  -1  106.48    7.50
   2   7  -1  108.18    8.23
   2   7   0   46.87    5.08
   2   7   0   40.36    5.06
   2   7   1  268.66   13.75
   2   7   2  716.53   22.41
   2   7   2  714.05   20.86
   2   7   3    5.62    2.07
   2   7   3    6.91    2.09
   2   7   3    7.20    2.29
   2   7   4  745.46   22.30
   2   7   4  700.80   20.34
   2   7   4  743.02   21.74
   2   7   5  166.48   10.79
   2   7   5  163.72   10.08
   2   7   5  152.95    9.91
   2   7   6   41.00    5.17
   2   7   6   42.54    5.15
   2   7   6   43.09    5.52
   2   7   7   46.28    5.11
   2   7   7   37.21    7.01
   2   7   7   48.37    5.86
   2   7   7   49.80    5.60
   2   7   8   67.01    8.75
   2   7   8   72.02    6.13
   2   7   8   86.85    7.26
   2   7   8   91.06    7.63
   2   7   9   14.40    2.85
   2   7   9   10.93    3.20
   2   7   9   14.80    2.92
   2   7  10   72.53    5.59
   2   7  10   70.47    7.18
   2   7  10   87.21    6.18
   2   7  11   -0.05    0.23
   2   7  11   -0.02    0.34
  -2  -8  13   36.51    3.09
  -2  -8  13   36.66    3.78
  -2  -8  12   21.61    2.77
  -2  -8  12   20.28    3.41
  -2  -8  11   28.62    3.48
  -2  -8  11   33.59    3.60
  -2  -8  11   31.31    4.80
  -2  -8  10   12.94    2.51
  -2  -8  10   13.16    3.43
  -2  -8  10   15.80    2.71
  -2  -8   9    7.57    1.85
  -2  -8   9    7.58    2.66
  -2  -8   8    7.51    1.83
  -2  -8   8    9.21    3.00
  -2  -8   7   52.04    5.42
  -2  -8   7   57.09    7.92
  -2  -8   6   98.46   10.27
  -2  -8   6   67.92    6.37
  -2  -8   5  138.03    9.12
   2   8  -5  166.40   11.30
   2   8  -4  245.80   13.79
  -2  -8   4  217.48   11.46
   2   8  -3  138.47   10.25
  -2  -8   3  123.64    8.59
  -2  -8   2    8.65    2.20
   2   8  -2    8.82    2.65
   2   8  -1   17.07    3.52
  -2  -8   1   17.86    3.20
   2   8  -1   18.67    3.37
   2   8   0   11.73    2.63
   2   8   0   11.71    3.16
   2   8   1    4.94    1.97
   2   8   1    4.90    1.60
   2   8   2 1537.13   31.45
   2   8   2 1431.46   33.42
   2   8   2 1456.33   30.53
   2   8   3  156.82   10.97
   2   8   3  163.67   10.38
   2   8   3  175.39   10.58
   2   8   4    5.21    1.85
   2   8   4    4.46    1.62
   2   8   4    4.46    1.42
   2   8   5   20.77    3.55
   2   8   5   17.63    3.14
   2   8   6   91.45    7.17
   2   8   6   96.17    7.87
   2   8   6   90.37    6.95
   2   8   7    4.77    2.21
   2   8   7    5.28    1.97
   2   8   7    3.44    1.33
   2   8   7    4.58    1.56
   2   8   8   34.34    5.56
   2   8   8   38.71    4.41
   2   8   8   33.29    3.86
   2   8   9    5.76    1.97
   2   8   9    4.18    1.26
   2   8   9    5.69    1.42
   2   8  10    2.63    1.02
   2   8  10    2.10    0.72
   2   8  10    2.47    0.81
  -2  -9  12    7.80    1.32
  -2  -9  12    8.45    1.68
  -2  -9  11   38.05    3.43
  -2  -9  11   38.80    3.18
  -2  -9  11   44.90    4.80
  -2  -9  10   77.09    5.24
  -2  -9  10   81.40    5.41
  -2  -9  10   88.47    7.50
  -2  -9   9    4.05    1.39
  -2  -9   9    3.45    1.03
  -2  -9   9    3.96    1.76
  -2  -9   8   15.98    2.64
  -2  -9   8   19.55    3.02
  -2  -9   8   22.72    4.27
  -2  -9   7    9.48    2.05
  -2  -9   7   11.34    2.42
  -2  -9   7   13.00    3.35
  -2  -9   6   45.57    4.47
  -2  -9   6   57.17    6.69
  -2  -9   6   57.82    5.61
   2   9  -5  118.27    9.48
  -2  -9   5  100.85    9.42
  -2  -9   5   96.81    7.50
  -2  -9   5  126.21   10.85
   2   9  -4    0.60    0.22
  -2  -9   4    0.61    0.33
  -2  -9   4    0.56    0.25
   2   9  -3  253.29   14.11
  -2  -9   3  206.03   11.08
   2   9  -2  209.92   12.92
  -2  -9   2  175.68   10.16
   2   9  -1   23.78    4.33
   2   9  -1   20.71    3.56
   2   9   0   39.31    5.55
   2   9   0   36.71    4.75
   2   9   1   10.62    2.92
   2   9   1    9.12    2.16
   2   9   2    0.43    0.22
   2   9   2   -0.34    0.80
   2   9   2    0.74    0.69
   2   9   3  234.87   12.98
   2   9   3  246.69   12.00
   2   9   3  246.86   12.10
   2   9   4   21.76    3.71
   2   9   4   25.59    3.84
   2   9   4   23.68    3.62
   2   9   5   19.84    3.32
   2   9   5   19.80    3.12
   2   9   6    2.12    1.49
   2   9   6    1.69    1.02
   2   9   7    9.15    2.71
   2   9   7    7.13    1.77
   2   9   7    7.87    1.53
   2   9   8   20.45    3.34
   2   9   8   18.91    2.52
   2   9   8   16.00    1.91
  -2 -10  10    6.43    1.19
  -2 -10  10    9.13    1.85
  -2 -10   9   18.52    2.20
  -2 -10   9   22.37    3.34
  -2 -10   8    2.48    0.87
  -2 -10   8    4.43    1.52
  -2 -10   8    3.02    0.97
  -2 -10   7    1.56    0.65
  -2 -10   7    1.73    0.72
  -2 -10   7    2.53    1.16
  -2 -10   6    1.15    0.97
  -2 -10   6    0.69    0.94
  -2 -10   6   -0.37    0.67
   2  10  -5  109.45    8.36
  -2 -10   5   87.30    7.69
  -2 -10   5   90.24    6.46
  -2 -10   5  105.75    8.68
   2  10  -4   42.85    5.45
  -2 -10   4   37.30    5.26
  -2 -10   4   40.46    5.37
   2  10  -3  185.96   11.55
  -2 -10   3  194.88   11.83
   2  10  -2   18.29    3.54
  -2 -10   2   18.10    3.47
   2  10  -1   29.69    4.69
   2  10   0    0.37    0.87
   2  10   1   18.88    3.60
   2  10   2    3.67    1.46
   2  10   3   89.77    7.11
   2  10   3   90.78    6.17
   2  10   4    5.79    1.65
   2  10   4    7.03    1.66
   2  10   5    1.08    1.41
   2  10   5    0.06    0.37
   2  10   6   19.27    3.29
   2  10   6   13.66    1.99
   2  10   7   13.44    2.24
  -2 -11   8   13.27    1.92
  -2 -11   7    7.26    1.61
  -2 -11   6   31.51    3.52
   2  11  -5   30.10    3.54
  -2 -11   5   27.12    3.42
  -2 -11   5   24.45    3.16
   2  11  -4   22.05    3.30
  -2 -11   4   18.77    2.94
  -2 -11   4   21.61    3.09
   2  11  -3   10.36    2.33
  -2 -11   3    9.05    2.15
  -2 -11   3   10.14    2.07
   2  11  -2    0.44    0.25
  -2 -11   2   -0.07    0.25
   2  11  -1   75.42    6.28
   2  11   0    0.14    0.18
   2  11   1    1.00    0.65
   2  11   2   15.13    2.54
   2  11   3   11.33    2.00
   2  11   4    5.15    1.51
   2  12  -1   30.89    2.99
  -3  11   5    5.24    1.41
   3 -11  -5    3.67    0.96
   3 -11  -4    5.68    1.18
  -3  11   4    6.41    1.71
  -3  11   3   -0.31    0.64
   3 -11  -3    0.06    0.18
  -3  11   2   16.89    2.90
  -3  11   1    1.56    0.83
   3 -11  -1    0.56    0.50
  -3  11   0    7.51    1.97
   3 -11   0    5.98    1.61
  -3  11  -1   16.68    2.71
   3 -11   1   15.79    2.57
   3 -11   2    4.24    1.33
   3 -11   3   24.06    2.28
   3 -11   3   32.93    3.57
   3 -11   4   15.49    1.78
   3 -11   4   18.59    2.53
   3 -11   5    6.20    1.28
   3 -10  -8    0.29    0.35
  -3  10   7    2.28    0.87
   3 -10  -7    1.85    0.80
  -3  10   6   28.23    3.89
   3 -10  -6   26.37    3.34
  -3  10   5    3.23    1.32
   3 -10  -5    1.90    0.95
   3 -10  -4   21.84    3.19
  -3  10   4   24.67    4.12
  -3  10   3    1.08    1.11
   3 -10  -3    1.17    0.81
  -3  10   2   40.49    5.47
   3 -10  -2   32.24    3.88
  -3  10   1    0.89    0.87
   3 -10  -1    2.95    1.43
  -3  10   0  125.02    9.61
   3 -10   0  113.38    8.54
  -3  10  -1   15.40    3.26
   3 -10   1   14.25    3.14
   3 -10   2   -0.38    0.57
   3 -10   2   -0.01    0.11
  -3  10  -2   -0.35    0.47
   3 -10   3    0.49    0.53
   3 -10   3    0.72    0.79
   3 -10   4   31.78    3.43
   3 -10   4   35.56    4.67
   3 -10   5   -0.11    0.43
   3 -10   5    0.33    0.25
   3 -10   6   -0.09    0.42
   3 -10   6   -0.17    0.51
   3 -10   7   13.26    1.76
   3 -10   7   15.49    2.00
   3 -10   7   15.96    2.44
  -3   9  10    0.26    0.31
   3  -9 -10   -0.24    0.45
   3  -9 -10    0.26    0.09
   3  -9  -9    9.67    1.56
   3  -9  -9   10.86    2.12
  -3   9   8   33.54    4.10
   3  -9  -8   41.04    4.50
   3  -9  -7   39.93    4.72
  -3   9   7   39.36    5.01
  -3   9   6    3.63    1.72
   3  -9  -6    5.63    1.75
  -3   9   5    1.18    1.02
   3  -9  -5    2.25    1.15
  -3   9   4   13.83    3.32
   3  -9  -4   13.51    2.97
  -3   9   3   81.09    8.32
   3  -9  -3   77.59    7.05
  -3   9   2   17.00    3.92
   3  -9  -2   14.83    3.04
  -3   9   1    0.19    0.71
   3  -9  -1    0.83    0.40
   3  -9  -1    0.13    0.12
  -3   9   0    3.41    1.51
   3  -9   0    1.31    0.80
  -3   9  -1  159.45   11.78
   3  -9   1  124.64    7.94
   3  -9   1  151.08   11.24
  -3   9  -2    1.58    1.06
   3  -9   2    1.17    0.67
   3  -9   2    1.47    1.08
   3  -9   3   36.24    4.29
   3  -9   3   35.67    5.38
   3  -9   4   34.79    5.46
   3  -9   4   30.55    3.93
   3  -9   5   16.55    2.84
   3  -9   5   19.72    3.87
   3  -9   6    9.73    2.14
   3  -9   6    9.56    2.63
   3  -9   7   34.95    3.73
   3  -9   7   40.35    4.95
   3  -9   7   31.78    3.61
   3  -9   8   24.28    2.81
   3  -9   8   26.21    3.68
   3  -9   8   22.52    2.63
   3  -9   9   70.58    4.22
   3  -9   9   76.61    5.27
  -3   8  12   12.53    2.08
   3  -8 -12   12.55    1.66
  -3   8  11   11.50    2.43
   3  -8 -11   10.75    1.99
  -3   8  11   12.14    1.96
   3  -8 -10    1.58    0.64
  -3   8  10    2.25    1.01
  -3   8   9   20.69    3.13
   3  -8  -9   20.34    3.38
  -3   8   8   14.84    2.73
   3  -8  -8   12.77    2.93
  -3   8   8    9.09    2.54
   3  -8  -7    0.58    0.41
  -3   8   7    1.02    1.07
  -3   8   6    3.29    1.63
   3  -8  -6    2.31    1.15
  -3   8   5   21.39    4.22
   3  -8  -5   20.99    3.86
  -3   8   4   23.83    4.62
   3  -8  -4   25.08    4.35
  -3   8   3  149.73   11.83
   3  -8  -3  148.56   10.37
  -3   8   2   66.73    7.73
   3  -8  -2   60.13    6.52
  -3   8   1   28.72    5.08
   3  -8  -1   33.12    5.24
   3  -8  -1   23.91    3.99
  -3   8   0   67.60    8.00
   3  -8   0   57.00    5.58
   3  -8   0   71.38    7.91
   3  -8   0   65.22    6.57
  -3   8  -1  246.14   14.79
   3  -8   1  206.57   10.88
   3  -8   1  235.20   14.54
   3  -8   2    1.53    0.83
   3  -8   2    1.86    1.22
   3  -8   3   37.63    4.61
   3  -8   3   34.44    5.66
   3  -8   4   75.40    8.55
   3  -8   4   77.59    6.70
   3  -8   5    7.24    2.05
   3  -8   5    4.20    1.80
   3  -8   6   33.44    4.31
   3  -8   6   29.34    4.99
   3  -8   7   19.36    3.14
   3  -8   7   15.22    3.50
   3  -8   8   39.41    4.44
   3  -8   8   35.89    4.03
   3  -8   8   30.50    4.59
   3  -8   8   26.33    3.60
   3  -8   9    3.98    1.20
   3  -8   9    5.00    1.34
   3  -8   9    4.48    1.60
   3  -8   9    4.58    1.46
   3  -8  10    4.78    1.06
   3  -8  10    5.18    1.52
   3  -8  10    6.60    1.49
  -3   7  13   28.62    3.32
   3  -7 -13   27.63    2.78
  -3   7  12    7.57    2.09
  -3   7  12    8.51    1.79
  -3   7  11    0.55    0.17
   3  -7 -11    1.83    0.91
  -3   7  11    1.06    0.58
   3  -7 -10    3.37    1.31
  -3   7  10    4.66    1.62
  -3   7   9    2.64    1.22
   3  -7  -9    2.17    1.04
   3  -7  -8   31.17    4.71
  -3   7   8   29.71    4.36
  -3   7   7    7.95    2.55
   3  -7  -7   11.35    2.91
  -3   7   7   10.01    2.47
  -3   7   6   17.01    3.77
   3  -7  -6   19.73    4.09
  -3   7   5  699.24   24.55
   3  -7  -5  837.94   25.36
  -3   7   4  159.86   11.70
   3  -7  -4  191.82   11.90
  -3   7   3   74.00    7.85
   3  -7  -3   76.24    7.39
  -3   7   2  338.61   16.91
   3  -7  -2  340.88   15.60
  -3   7   1   70.06    7.55
   3  -7  -1   66.77    6.90
  -3   7   0  311.29   16.19
   3  -7   0  265.12   12.09
  -3   7  -1    0.50    0.12
   3  -7   1    0.46    0.43
   3  -7   1    0.56    0.78
   3  -7   2  271.35   12.42
   3  -7   2  272.46   15.67
   3  -7   3   91.56    7.37
   3  -7   3   82.26    8.86
   3  -7   4   54.85    5.69
   3  -7   4   43.58    6.50
   3  -7   5    1.12    0.91
   3  -7   5   -0.58    0.83
   3  -7   6  223.78   11.66
   3  -7   6  167.33   12.88
   3  -7   7   42.93    5.03
   3  -7   7   27.57    5.11
   3  -7   7   44.48    5.63
   3  -7   8   98.05    7.26
   3  -7   8   72.29    7.79
   3  -7   8  111.15    8.76
   3  -7   8   52.77    5.66
   3  -7   9    1.19    0.70
   3  -7   9    2.04    0.97
   3  -7   9    0.66    0.51
   3  -7   9    2.40    1.00
   3  -7  10    0.30    0.18
   3  -7  10    0.74    0.74
   3  -7  11   29.44    3.55
   3  -7  11   44.66    4.31
  -3   6  14    0.58    0.41
   3  -6 -14    1.08    0.78
  -3   6  13  121.85    8.32
  -3   6  13  142.78    7.69
  -3   6  12    4.66    1.86
  -3   6  12    5.47    1.71
  -3   6  11    4.81    1.73
   3  -6 -11    4.21    1.47
  -3   6  11    4.87    1.52
  -3   6  10    0.87    0.78
   3  -6 -10    2.18    1.09
   3  -6  -9  101.85    8.58
  -3   6   9   99.79    8.21
  -3   6   8    6.13    1.83
   3  -6  -8    7.25    2.28
  -3   6   8    6.46    1.91
  -3   6   7  159.05   11.20
  -3   6   7  192.61   11.71
  -3   6   6   29.95    4.71
  -3   6   6   42.83    5.16
  -3   6   6   32.66    4.79
   3  -6  -5  116.87    8.02
  -3   6   5  123.64    9.96
  -3   6   4   12.93    2.74
   3  -6  -4    8.78    2.02
  -3   6   4   13.01    3.30
   3  -6  -4   11.43    2.14
  -3   6   4   12.12    3.55
   3  -6  -3  316.88   11.19
  -3   6   3  298.98   13.53
  -3   6   3  290.32   14.46
  -3   6   2   50.27    5.78
   3  -6  -2   62.54    4.99
  -3   6   2   55.32    5.74
  -3   6   2   44.17    5.01
  -3   6   1  147.96    9.73
  -3   6   1  185.52   10.08
  -3   6   1  172.22    9.72
  -3   6   1  169.61    9.04
  -3   6   0   95.51    7.19
   3  -6   0  108.27    6.76
  -3   6   0   91.48    6.99
  -3   6  -1   11.13    2.52
  -3   6  -1    9.09    2.18
  -3   6  -2  110.65    8.04
  -3   6  -2   92.24    7.34
  -3   6  -3   90.98    7.49
  -3   6  -3   77.06    6.72
   3  -6   4   42.32    4.89
   3  -6   4   38.76    5.91
   3  -6   5  107.94    7.92
   3  -6   5   84.64    9.04
   3  -6   6  405.18   15.63
   3  -6   6  371.19   19.18
   3  -6   6  375.02   17.04
   3  -6   7   21.99    3.64
   3  -6   7   19.17    4.39
   3  -6   7   16.74    3.67
   3  -6   8  108.89    7.97
   3  -6   8  105.66    9.92
   3  -6   8  114.60    9.70
   3  -6   9    3.12    1.30
   3  -6   9    3.91    1.50
   3  -6   9    3.23    1.19
   3  -6   9    6.82    2.24
   3  -6  10   41.94    5.53
   3  -6  10   62.05    6.61
   3  -6  11    6.57    1.91
   3  -6  11   11.85    2.64
   3  -6  12    3.66    1.05
  -3   5  15   24.04    2.76
  -3   5  14   -0.25    0.59
  -3   5  14   -0.16    0.30
  -3   5  13    0.53    0.49
  -3   5  13    1.30    0.82
  -3   5  12   16.98    3.73
  -3   5  12   19.62    3.38
  -3   5  11   30.92    4.87
  -3   5  11   37.04    4.93
  -3   5  10   36.98    5.09
   3  -5 -10   37.99    5.09
  -3   5   9   38.81    5.16
  -3   5   8  107.54    8.45
  -3   5   8  135.93    9.45
   3  -5  -7   52.42    5.70
  -3   5   7   62.27    7.26
   3  -5  -7   50.19    5.61
   3  -5  -6    4.56    2.03
  -3   5   6    4.44    2.06
   3  -5  -6    2.99    1.71
   3  -5  -6    0.73    0.54
  -3   5   6    3.46    1.75
   3  -5  -5   43.88    4.57
   3  -5  -5   48.48    3.92
   3  -5  -5   42.46    4.63
  -3   5   5   38.62    4.72
  -3   5   5   45.51    5.58
   3  -5  -4  397.96   12.81
   3  -5  -4  514.27   12.51
   3  -5  -4  401.85   13.34
  -3   5   4  496.94   16.76
  -3   5   4  511.00   17.48
  -3   5   4  519.06   16.12
  -3   5   3 1907.75   32.99
   3  -5  -3 1873.86   23.72
  -3   5   2  119.77    8.04
   3  -5  -2  133.57    6.38
  -3   5   2  137.04    8.32
  -3   5   2  116.87    7.37
  -3   5   2  121.86    7.16
  -3   5   1  173.09    8.89
  -3   5   1  156.61    8.04
  -3   5   1  164.19    8.29
   3  -5   0    5.34    1.64
  -3   5   0    2.32    1.15
  -3   5   0    3.07    1.54
  -3   5   0    3.06    1.24
  -3   5  -1  718.54   18.80
   3  -5   1  702.07   16.36
   3  -5   2   48.83    5.00
  -3   5  -2   64.64    5.60
  -3   5  -3   26.26    3.60
   3  -5   3   14.94    3.15
  -3   5  -3   25.86    3.54
  -3   5  -4  228.45   10.56
  -3   5  -4  217.24   11.13
  -3   5  -5  355.41   13.50
  -3   5  -5  328.31   14.43
   3  -5   6  165.92    9.68
   3  -5   6  200.59   13.54
   3  -5   6  180.69   11.80
   3  -5   7   31.12    4.26
   3  -5   7   40.10    6.17
   3  -5   7   39.99    5.83
   3  -5   8    3.65    1.50
   3  -5   8    6.83    1.91
   3  -5   8    4.91    2.17
   3  -5   8    7.01    1.61
   3  -5   8    5.95    1.98
   3  -5   9   33.74    4.68
   3  -5   9   41.01    5.96
   3  -5   9   50.35    4.07
   3  -5   9   36.27    5.61
   3  -5  10   68.19    7.48
   3  -5  10   69.61    7.59
   3  -5  10   86.44    5.07
   3  -5  11    1.12    0.58
   3  -5  11    0.70    0.92
   3  -5  11    0.48    0.69
   3  -5  12   64.72    5.87
   3  -5  12  113.37    4.74
  -3   4  15    0.00    0.64
  -3   4  14    0.84    0.91
  -3   4  14    0.45    0.39
  -3   4  13   29.69    4.81
  -3   4  13   27.22    3.90
  -3   4  12  207.75   13.43
  -3   4  12  211.87   11.65
  -3   4  11   61.79    7.25
  -3   4  11   67.01    6.72
  -3   4  10   18.38    3.66
  -3   4   9  126.53    9.10
   3  -4  -8  197.22   11.40
  -3   4   8  167.36   11.03
   3  -4  -8  202.23   11.28
   3  -4  -8  203.07    8.66
   3  -4  -7  113.04    7.94
  -3   4   7   95.70    7.83
   3  -4  -7  107.83    7.74
   3  -4  -7  110.18    6.07
   3  -4  -6   96.42    6.77
  -3   4   6   99.41    7.79
   3  -4  -6   97.16    6.92
  -3   4   6  114.18    8.49
   3  -4  -6  104.09    5.62
   3  -4  -5  460.71   14.18
  -3   4   5  442.70   15.28
   3  -4  -5  449.60   13.82
   3  -4  -5  496.36   11.76
   3  -4  -4   54.59    3.75
   3  -4  -4   48.41    4.28
   3  -4  -4   44.81    4.19
  -3   4   4   57.74    5.35
  -3   4   4   54.27    5.04
  -3   4   4   47.48    4.28
  -3   4   4   52.30    4.51
   3  -4  -3 2049.77   24.95
   3  -4  -3 2031.16   26.75
  -3   4   3 2181.41   30.88
  -3   4   3 2371.14   31.68
  -3   4   3 1994.25   26.82
   3  -4  -3 2256.00   23.26
  -3   4   2  499.09   14.50
  -3   4   2  477.06   13.10
   3  -4  -2  493.90   10.73
  -3   4   2  466.23   13.07
  -3   4   1   29.61    3.31
   3  -4  -1   32.15    2.74
   3  -4  -1   20.99    2.32
  -3   4   1   30.67    3.43
  -3   4   1   28.40    3.04
  -3   4   0   80.82    5.54
  -3   4   0   72.73    4.57
   3  -4   0   62.47    4.49
  -3   4   0   73.18    5.34
   3  -4   1 3154.67   31.52
  -3   4  -1 2926.95   34.39
  -3   4  -1 2464.65   31.45
  -3   4  -2    0.55    0.39
   3  -4   2    0.61    0.33
  -3   4  -2    0.49    0.53
  -3   4  -3   87.20    5.70
   3  -4   3   69.01    5.94
  -3   4  -3   78.62    5.82
  -3   4  -4    9.61    1.89
   3  -4   4    7.92    2.43
  -3   4  -4    8.35    1.99
  -3   4  -5  308.39   11.78
  -3   4  -5  288.08   12.45
  -3   4  -6  184.75    9.49
   3  -4   6  153.09   10.55
  -3   4  -6  178.14   10.51
   3  -4   7  293.51   16.17
   3  -4   7  307.47   10.44
   3  -4   7  287.54   15.42
   3  -4   8   14.03    2.98
   3  -4   8   18.98    4.08
   3  -4   8   18.42    2.65
   3  -4   8   18.04    4.04
   3  -4   9   13.76    3.16
   3  -4   9   15.10    3.71
   3  -4   9   17.98    2.66
   3  -4   9   17.16    3.92
   3  -4  10   14.46    3.44
   3  -4  10   15.88    2.49
   3  -4  10   14.44    3.71
   3  -4  10   12.08    2.75
   3  -4  11  120.87    9.67
   3  -4  11  138.33    6.85
   3  -4  11  132.67   10.59
   3  -4  12   96.58    5.16
   3  -4  13   22.56    2.14
  -3   3  16    0.11    0.16
  -3   3  15    1.99    0.71
  -3   3  14   28.36    4.39
  -3   3  14   21.61    3.21
  -3   3  13    1.78    1.25
  -3   3  13    3.02    1.23
  -3   3  12   42.05    6.03
  -3   3  12   40.00    4.94
  -3   3  11   92.53    8.74
  -3   3  11   92.08    7.69
  -3   3  10  395.28   17.74
  -3   3  10  380.54   15.71
   3  -3  -9    3.59    1.53
  -3   3   9    4.14    1.05
  -3   3   9    3.98    1.79
   3  -3  -9    3.84    1.30
   3  -3  -9    3.96    1.50
  -3   3   8  274.61   13.38
   3  -3  -8  238.58   11.74
  -3   3   8  260.44   12.44
  -3   3   8  272.85   14.21
   3  -3  -8  260.58   12.62
   3  -3  -8  243.28    9.54
   3  -3  -7   49.85    4.95
  -3   3   7   54.73    5.59
   3  -3  -7   50.69    5.12
  -3   3   7   55.12    5.82
   3  -3  -7   50.41    4.18
   3  -3  -6   79.35    5.92
  -3   3   6   88.39    6.71
   3  -3  -6   76.31    5.87
  -3   3   6   79.31    6.53
   3  -3  -6   77.72    4.86
   3  -3  -5   50.92    4.28
   3  -3  -5   48.23    4.34
  -3   3   5   50.13    4.76
  -3   3   5   45.00    3.80
   3  -3  -5   48.73    3.65
  -3   3   4    0.22    0.32
   3  -3  -4    1.29    0.60
   3  -3  -4    1.44    0.74
  -3   3   4   -0.39    0.84
  -3   3   4   -0.17    0.74
   3  -3  -4   -0.28    0.41
  -3   3   4    0.12    0.34
   3  -3  -3   65.20    4.19
   3  -3  -3   70.02    4.63
  -3   3   3   80.37    5.43
  -3   3   3   76.10    4.89
  -3   3   3   71.40    4.71
   3  -3  -3   70.74    3.84
   3  -3  -2  110.53    4.51
   3  -3  -2  106.60    4.93
   3  -3  -2  104.96    5.35
  -3   3   2  121.71    6.46
  -3   3   2  116.92    5.75
  -3   3   2  119.50    6.11
   3  -3  -1  139.06    5.00
   3  -3  -1  132.01    5.58
  -3   3   1  155.86    6.94
  -3   3   1  135.03    5.57
   3  -3  -1  134.45    5.38
  -3   3   1  141.92    6.63
   3  -3   0 2059.67   20.06
   3  -3   0 1872.82   19.18
  -3   3   0 2192.19   26.16
  -3   3   0 1918.52   19.37
   3  -3   0 1985.09   23.14
  -3   3   0 2082.05   25.81
   3  -3   1  830.91   13.22
  -3   3  -1  806.38   16.45
  -3   3  -2  188.91    7.77
   3  -3   2  166.38    7.95
  -3   3  -2  173.11    7.77
  -3   3  -3  242.97    8.60
  -3   3  -3  253.29    9.64
   3  -3   3  227.25    9.97
   3  -3   4  223.49   10.41
  -3   3  -4  230.08    8.79
  -3   3  -4  236.29    9.93
  -3   3  -5   78.87    5.41
   3  -3   5   77.68    6.64
  -3   3  -5   79.05    6.09
  -3   3  -6  118.52    6.95
  -3   3  -6  125.00    8.08
   3  -3   6  119.32    8.75
   3  -3   7  179.14   11.85
   3  -3   7  185.20   12.18
  -3   3  -7  173.12   10.06
   3  -3   8    7.21    2.19
   3  -3   8    9.28    2.74
   3  -3   8    8.96    1.92
   3  -3   8   10.29    2.95
   3  -3   9    7.52    2.59
   3  -3   9    6.63    2.23
   3  -3   9    7.30    1.67
   3  -3   9    7.34    2.26
   3  -3  10   46.50    4.45
   3  -3  10   43.06    6.29
   3  -3  10   51.26    7.09
   3  -3  10   36.74    4.91
   3  -3  11  364.37   17.28
   3  -3  11  338.95   11.71
   3  -3  12   54.28    4.34
   3  -3  13    1.94    0.72
  -3   2  16    1.51    0.84
  -3   2  15   14.88    2.61
  -3   2  15   11.60    2.54
  -3   2  14   53.68    5.97
  -3   2  14   58.14    6.00
  -3   2  14   43.28    4.41
  -3   2  13   38.52    5.55
  -3   2  13   39.77    5.19
  -3   2  13   30.85    4.18
  -3   2  12    2.45    1.29
  -3   2  12    1.12    0.41
  -3   2  12    1.01    0.87
  -3   2  11    5.90    2.15
  -3   2  11   16.94    3.17
  -3   2  10   71.77    7.22
  -3   2  10   72.80    6.48
   3  -2  -9   76.39    7.05
  -3   2   9   69.50    6.55
   3  -2  -9   71.06    6.34
  -3   2   9   76.23    6.68
  -3   2   9   71.34    7.32
   3  -2  -9   68.16    5.62
   3  -2  -8  244.32   12.04
  -3   2   8  248.31   11.80
   3  -2  -8  221.28   10.63
  -3   2   8  258.15   12.02
  -3   2   8  243.67   12.46
   3  -2  -8  225.38    9.66
   3  -2  -7  109.33    7.31
  -3   2   7  116.12    7.81
   3  -2  -7  101.63    6.70
  -3   2   7  112.46    7.26
  -3   2   7  108.51    7.70
   3  -2  -7   98.72    5.95
   3  -2  -6    2.25    0.88
  -3   2   6    2.52    1.00
   3  -2  -6    2.00    0.88
   3  -2  -6    1.82    0.73
  -3   2   6    1.08    0.52
  -3   2   6    4.72    1.65
  -3   2   5   10.95    2.13
   3  -2  -5   10.26    1.83
  -3   2   5   14.02    2.25
   3  -2  -5    9.47    1.77
   3  -2  -5   11.28    1.77
  -3   2   5   11.71    2.08
   3  -2  -4    6.39    1.36
   3  -2  -4    5.74    1.28
  -3   2   4    8.33    1.68
   3  -2  -4    6.65    1.26
  -3   2   4    7.08    1.50
   3  -2  -3  229.73    7.59
   3  -2  -3  233.89    8.04
  -3   2   3  243.40    8.52
   3  -2  -3  220.20    6.58
  -3   2   3  224.10    7.55
  -3   2   3  241.09    8.16
   3  -2  -2 2986.80   27.05
  -3   2   2 3032.43   28.95
  -3   2   2 2811.52   24.04
   3  -2  -2 2819.14   21.68
  -3   2   2 2977.93   27.97
   3  -2  -2 2926.65   23.79
   3  -2  -1  256.50    7.45
  -3   2   1  300.53    8.95
  -3   2   1  236.93    6.18
   3  -2  -1  250.87    6.53
  -3   2   1  280.61    8.64
   3  -2  -1  259.95    6.02
   3  -2  -1  256.28    6.05
   3  -2   0  178.22    4.87
   3  -2   0  172.58    5.71
  -3   2   0  190.36    7.17
  -3   2   0  194.14    6.92
   3  -2   0  166.80    6.07
  -3   2  -1   14.08    1.92
   3  -2   1   11.65    1.80
  -3   2  -1   12.00    1.88
  -3   2  -2   62.00    3.97
   3  -2   2   51.37    3.01
   3  -2   2   55.05    4.16
  -3   2  -2   60.27    4.26
  -3   2  -3  231.75    7.61
   3  -2   3  217.38    7.12
   3  -2   3  229.49    9.32
  -3   2  -3  244.85    8.91
  -3   2  -4  120.16    5.75
   3  -2   4  121.46    7.32
  -3   2  -4  134.88    6.92
  -3   2  -5  415.81   11.30
   3  -2   5  422.09   14.67
  -3   2  -5  439.25   13.18
   3  -2   6  238.12   11.84
  -3   2  -6  267.22   11.01
   3  -2   7   29.58    4.34
   3  -2   8   88.67    8.27
   3  -2   8   77.84    5.68
   3  -2   8   97.10    9.27
   3  -2   8   75.21    6.93
   3  -2   9   18.92    4.07
   3  -2   9   14.90    2.50
   3  -2   9   14.56    3.02
   3  -2   9   21.46    4.56
   3  -2   9   13.43    2.84
   3  -2  10   30.98    5.21
   3  -2  10   27.11    3.54
   3  -2  10   35.89    5.94
   3  -2  10   19.40    3.42
   3  -2  10   26.46    4.06
   3  -2  11   93.88    7.18
   3  -2  11  115.20    7.08
   3  -2  11  117.19    8.10
   3  -2  12   35.76    3.76
   3  -2  13   34.79    3.18
   3  -2  14   45.96    2.88
  -3   1  16    2.07    1.02
  -3   1  15    3.79    1.39
  -3   1  15    2.08    0.78
  -3   1  14  129.89    9.33
  -3   1  14  142.52    9.67
  -3   1  13    0.18    1.08
  -3   1  13    1.48    0.95
  -3   1  12  522.51   20.15
  -3   1  12  541.42   19.78
  -3   1  11   39.77    5.32
  -3   1  11   33.15    4.51
  -3   1  11   35.97    4.34
  -3   1  10   35.57    4.67
   3  -1 -10   36.11    4.54
   3  -1 -10   33.68    4.17
  -3   1  10   44.69    5.85
   3  -1 -10   37.00    4.60
   3  -1 -10   38.67    4.87
  -3   1   9  286.78   13.04
   3  -1  -9  259.52   11.87
   3  -1  -9  243.07   11.34
  -3   1   9  271.80   12.14
  -3   1   9  281.01   13.63
   3  -1  -9  255.07   11.21
   3  -1  -9  267.02   12.37
   3  -1  -8   34.20    3.94
  -3   1   8   38.42    4.40
   3  -1  -8   32.35    3.61
   3  -1  -8   31.22    3.78
  -3   1   8   35.01    4.12
  -3   1   8   35.38    4.52
   3  -1  -8   35.68    4.33
   3  -1  -7    2.11    0.96
  -3   1   7    1.47    0.95
  -3   1   7    3.19    1.34
   3  -1  -7    1.51    0.54
  -3   1   7    0.50    0.47
   3  -1  -7    1.77    0.84
  -3   1   6   46.31    4.26
   3  -1  -6   39.09    3.70
  -3   1   6   40.22    3.86
  -3   1   6   39.36    4.05
   3  -1  -6   38.82    3.62
   3  -1  -6   41.70    3.87
   3  -1  -5    3.28    1.07
  -3   1   5    2.44    0.90
   3  -1  -5    3.16    0.94
   3  -1  -5    1.92    0.82
  -3   1   5    3.87    1.30
  -3   1   5    3.07    1.08
  -3   1   4    1.11    0.60
   3  -1  -4    1.17    0.43
   3  -1  -4    0.00    0.41
  -3   1   4    0.15    0.22
   3  -1  -4    0.29    0.37
  -3   1   4    0.03    0.21
   3  -1  -3  346.07    6.68
   3  -1  -3  386.33    9.73
  -3   1   3  428.47   10.55
   3  -1  -3  370.91    8.71
  -3   1   3  378.08    8.98
  -3   1   3  399.02    9.60
  -3   1   3  376.33    8.47
   3  -1  -3  382.21    9.08
   3  -1  -2  221.22    6.10
   3  -1  -2  208.42    3.64
   3  -1  -2  228.06    7.20
  -3   1   2  234.95    7.25
  -3   1   2  214.30    5.90
   3  -1  -2  185.96    2.96
  -3   1   2  244.11    7.51
   3  -1  -2  227.01    6.43
  -3   1   1 1559.54   17.96
  -3   1   1 1448.25   12.50
   3  -1  -1 1391.17   10.58
   3  -1  -1 1523.85   17.51
   3  -1  -1 1473.90   15.31
   3  -1  -1 1517.63   14.27
  -3   1   1 1558.43   18.56
   3  -1  -1 1570.96   15.09
  -3   1   0  242.95    6.97
   3  -1   0  209.47    4.94
   3  -1   0  227.81    6.86
  -3   1   0  247.41    7.52
   3  -1   0  208.14    4.64
   3  -1   0  224.46    4.55
  -3   1  -1  221.51    6.60
   3  -1   1  201.54    7.10
  -3   1  -1  215.01    7.11
  -3   1  -2   26.90    2.43
   3  -1   2   20.72    2.02
   3  -1   2   22.44    2.55
  -3   1  -3  127.60    5.23
   3  -1   3  111.51    5.36
   3  -1   3  120.06    6.44
  -3   1  -3  133.26    6.06
   3  -1   4   18.93    2.80
  -3   1  -4   20.96    2.12
   3  -1   4   17.51    2.35
  -3   1  -4   20.09    2.51
   3  -1   5  110.35    6.57
   3  -1   5  110.90    7.20
  -3   1  -5  122.84    6.52
   3  -1   6  146.66    8.34
   3  -1   6  145.79    8.80
   3  -1   7    1.89    0.88
   3  -1   7    1.28    0.81
   3  -1   8  360.52   14.85
   3  -1   8  323.88   11.96
   3  -1   8  359.69   15.57
   3  -1   9   17.81    3.93
   3  -1   9   13.97    2.46
   3  -1   9   19.94    4.52
   3  -1   9   12.79    2.88
   3  -1   9   14.29    2.88
   3  -1  10   13.17    2.42
   3  -1  10   12.45    2.91
   3  -1  10   15.14    2.98
   3  -1  11    4.55    1.49
   3  -1  11    2.58    1.14
   3  -1  11    1.50    0.61
   3  -1  12   80.19    5.59
   3  -1  12   55.49    5.31
   3  -1  13   65.33    4.44
   3  -1  13   49.84    4.22
   3  -1  14   56.43    3.23
  -3   0  16   27.49    3.43
  -3   0  15    3.18    1.48
  -3   0  14  438.85   17.18
  -3   0  14  497.17   18.62
  -3   0  13    4.09    1.23
  -3   0  13    4.61    1.90
  -3   0  12  275.49   14.10
  -3   0  12  253.62   12.79
  -3   0  11    0.58    0.36
  -3   0  11    2.20    1.42
  -3   0  11    0.59    0.69
   3   0 -10  186.15   10.36
   3   0 -10  183.73    9.77
  -3   0  10  186.98   10.17
   3   0 -10  188.37   10.51
   3   0 -10  189.25   10.93
  -3   0  10  192.76   10.80
  -3   0   9   26.73    3.78
   3   0  -9   23.51    3.37
   3   0  -9   24.46    3.37
   3   0  -9   24.00    3.42
   3   0  -9   22.58    3.41
  -3   0   9   25.47    3.46
  -3   0   8  302.19   11.94
   3   0  -8  260.33   10.35
   3   0  -8  261.78   10.30
  -3   0   8  286.98   11.47
  -3   0   8  287.27   12.28
   3   0  -8  264.60   11.10
   3   0  -8  264.34   10.78
   3   0  -7   -0.14    0.23
  -3   0   7    0.33    0.44
   3   0  -7    0.09    0.47
  -3   0   7    0.13    0.17
  -3   0   7    0.36    0.48
  -3   0   6   68.12    4.81
   3   0  -6   58.68    3.95
   3   0  -6   61.86    4.44
  -3   0   6   69.47    4.99
  -3   0   6   59.84    4.70
   3   0  -6   62.71    4.52
  -3   0   5  316.01    9.81
   3   0  -5  273.38    7.81
   3   0  -5  292.66    9.01
  -3   0   5  296.98    9.50
  -3   0   5  289.47    9.28
  -3   0   5  302.02    6.54
  -3   0   5  326.27    9.39
   3   0  -5  291.47    9.12
  -3   0   4    1.99    0.24
   3   0  -4    3.64    1.03
  -3   0   4    1.05    0.42
   3   0  -4    2.88    0.80
  -3   0   4    2.06    0.72
   3   0  -4    1.70    0.60
  -3   0   4    1.05    0.37
  -3   0   3    2.49    0.66
   3   0  -3    0.46    0.41
  -3   0   3    0.56    0.10
   3   0  -3    1.83    0.35
   3   0  -3    0.31    0.27
  -3   0   3    0.21    0.13
  -3   0   3    0.77    0.42
   3   0  -2  413.51    5.15
   3   0  -2  435.49    9.68
  -3   0   2  418.06    9.00
  -3   0   2  420.65    9.13
  -3   0   2  409.84    9.01
   3   0  -1   83.95    4.24
  -3   0   1   76.24    3.64
   3   0  -1   66.79    3.04
   3   0  -1   62.63    1.80
  -3   0   1   77.47    3.92
  -3   0   1   73.43    3.89
   3   0  -1   84.60    3.58
   3   0   0 1453.54   10.96
  -3   0   0 1574.83   15.61
   3   0   0 1608.45   16.15
   3   0   0 1604.77   11.56
   3   0   0 1516.12   15.22
  -3   0   0 1629.56   17.63
   3   0   0 1470.85   14.35
  -3   0  -1  204.65    6.33
   3   0   1  205.83    6.46
   3   0   1  219.89    7.31
  -3   0  -1  204.87    5.56
   3   0   1  202.66    6.54
  -3   0  -2   59.66    2.94
   3   0   2   50.88    3.74
   3   0   2   57.17    3.88
   3   0   2   56.08    3.96
  -3   0  -2   55.21    3.34
   3   0   2   53.36    2.98
   3   0   3    0.43    0.26
   3   0   3    1.19    0.68
  -3   0  -3    0.86    0.20
   3   0   3    0.50    0.11
   3   0   4   17.64    2.66
   3   0   4   16.40    2.47
   3   0   4   18.15    2.38
   3   0   4   17.04    2.53
  -3   0  -4   18.10    2.05
   3   0   5   95.32    6.43
   3   0   5   87.72    5.66
   3   0   5  101.65    6.96
   3   0   5   95.77    6.49
  -3   0  -5   89.51    5.78
   3   0   6   10.71    2.22
   3   0   6   15.00    3.10
   3   0   6   10.35    2.34
   3   0   7   56.57    5.88
   3   0   7   55.26    6.06
   3   0   8  589.61   21.38
   3   0   8  468.24   14.23
   3   0   8  577.32   19.88
   3   0   8  504.63   17.42
   3   0   9    3.44    1.27
   3   0   9    7.05    1.74
   3   0   9    5.98    1.91
   3   0  10    6.88    1.75
   3   0  10    7.63    2.39
   3   0  10    7.58    2.22
   3   0  11   46.78    4.51
   3   0  11   45.97    5.43
   3   0  11   53.15    5.45
   3   0  12   72.68    5.66
   3   0  12   60.38    4.66
   3   0  12   58.88    5.68
   3   0  13    8.35    1.84
   3   0  13    9.10    1.58
  -3  -1  16   15.24    2.43
  -3  -1  15  143.77    8.68
  -3  -1  14  254.92   12.71
  -3  -1  13   17.62    3.72
  -3  -1  13   13.76    2.86
  -3  -1  12    3.92    1.53
  -3  -1  12    3.75    1.44
  -3  -1  12    5.40    1.46
  -3  -1  11    2.09    0.75
  -3  -1  11    4.66    1.76
  -3  -1  11    2.13    1.16
   3   1 -10   90.38    6.76
  -3  -1  10  101.80    7.67
   3   1 -10   91.30    7.75
   3   1 -10   97.39    7.37
  -3  -1  10   96.81    7.52
   3   1  -9  202.12    9.65
   3   1  -9  184.86    8.75
  -3  -1   9  214.59   10.25
   3   1  -9  202.03    9.96
  -3  -1   9  216.13   10.46
  -3  -1   8   32.29    3.72
   3   1  -8   29.31    3.37
   3   1  -8   26.04    3.02
  -3  -1   8   29.47    3.51
   3   1  -8   28.90    3.51
  -3  -1   7  109.64    6.51
   3   1  -7   90.15    5.42
  -3  -1   7  100.35    6.17
   3   1  -7   95.37    5.62
   3   1  -7  101.16    6.12
   3   1  -6    7.97    1.62
  -3  -1   6    8.40    1.58
   3   1  -6    7.19    1.49
  -3  -1   6    7.20    1.62
   3   1  -6    7.36    1.41
  -3  -1   5  523.41   11.81
   3   1  -5  517.83   10.53
   3   1  -5  524.64   11.78
  -3  -1   5  537.91   12.61
  -3  -1   5  562.29   10.03
   3   1  -5  559.49   12.55
  -3  -1   4    0.55    0.20
   3   1  -4    1.88    0.30
  -3  -1   4    1.01    0.48
   3   1  -4    3.22    1.00
  -3  -1   4    1.06    0.40
  -3  -1   4    3.07    0.78
  -3  -1   3 2480.33   21.98
   3   1  -3 2532.28   17.84
   3   1  -3 2595.04   24.48
  -3  -1   3 2508.36   23.81
  -3  -1   3 2493.97   20.92
  -3  -1   3 2593.25   23.06
   3   1  -3 2655.88   23.85
  -3  -1   2 3886.15   24.97
  -3  -1   2 3868.13   27.45
  -3  -1   2 4016.33   27.59
   3   1  -2 4177.98   27.95
  -3  -1   2 4075.46   27.71
   3   1  -1   56.05    2.59
  -3  -1   1   50.30    2.50
  -3  -1   1   51.12    2.83
  -3  -1   1   55.09    3.09
  -3  -1   1   54.74    3.35
  -3  -1   0  108.22    3.26
  -3  -1   0  110.34    3.81
   3   1   0  120.16    4.24
  -3  -1   0  114.87    4.29
   3   1   0  124.34    4.67
  -3  -1   0  122.97    5.17
   3   1   1 4314.40   32.26
  -3  -1  -1 4291.65   26.43
   3   1   2   90.46    5.26
   3   1   2   89.14    4.68
   3   1   2   98.50    4.14
  -3  -1  -2   83.86    3.72
   3   1   2   85.33    5.08
  -3  -1  -2   84.02    4.62
   3   1   3   21.20    2.86
   3   1   3   26.34    3.23
   3   1   3   17.95    2.29
  -3  -1  -3   18.83    2.36
   3   1   4   74.83    5.92
   3   1   4   65.49    4.89
   3   1   4   78.90    5.92
  -3  -1  -4   66.94    4.45
   3   1   5  162.52    9.46
   3   1   5  166.41    9.19
   3   1   5  154.16    8.26
  -3  -1  -5  149.05    6.83
   3   1   6    9.34    2.29
   3   1   6    9.49    2.33
   3   1   6   14.42    2.95
   3   1   7   62.80    6.41
   3   1   7   61.11    6.75
   3   1   7   66.47    6.57
   3   1   8   60.13    4.98
   3   1   8   56.95    6.13
   3   1   8   72.65    6.89
   3   1   8   63.21    6.03
   3   1   9  299.57   11.52
   3   1   9  304.81   15.21
   3   1   9  326.90   14.14
   3   1  10   33.92    3.86
   3   1  10   28.44    4.64
   3   1  10   36.37    5.01
   3   1  10   36.46    4.58
   3   1  11   58.30    6.22
   3   1  11   59.31    4.77
   3   1  11   64.06    5.89
   3   1  11   63.52    6.40
   3   1  12   -0.18    0.42
   3   1  12    0.60    0.59
   3   1  12    0.78    0.69
   3   1  12    1.54    0.67
   3   1  13   19.75    2.04
   3   1  13   22.33    3.06
  -3  -2  16    5.04    1.41
  -3  -2  15  208.84    9.89
  -3  -2  14   51.04    5.36
  -3  -2  13  258.64   12.65
  -3  -2  12   29.28    4.35
  -3  -2  12   29.29    4.19
  -3  -2  11    7.49    2.01
  -3  -2  11   11.04    2.73
  -3  -2  11    8.26    2.22
  -3  -2  10  118.77    8.25
   3   2 -10  110.40    7.60
   3   2  -9   76.94    5.61
  -3  -2   9   90.20    6.79
   3   2  -9   83.40    6.17
  -3  -2   9   82.72    6.41
   3   2  -8    2.75    0.95
  -3  -2   8    1.42    0.45
   3   2  -8    1.13    0.25
  -3  -2   8    3.16    1.02
   3   2  -8    2.25    1.13
   3   2  -7  162.79    6.86
   3   2  -7  161.02    7.03
  -3  -2   7  178.96    8.14
   3   2  -7  174.34    7.84
  -3  -2   7  181.45    8.07
  -3  -2   6 1751.99   23.06
   3   2  -6 1749.03   21.42
   3   2  -6 1709.00   21.92
  -3  -2   6 1782.23   24.02
  -3  -2   6 1746.06   20.94
   3   2  -6 1769.59   23.09
  -3  -2   5   61.33    4.00
   3   2  -5   61.04    3.57
   3   2  -5   61.54    4.10
   3   2  -5   66.16    4.19
  -3  -2   5   60.04    4.13
  -3  -2   5   65.03    3.85
  -3  -2   4  341.40    8.64
   3   2  -4  382.66    8.08
  -3  -2   4  359.21    9.45
  -3  -2   4  402.56    8.97
   3   2  -4  387.23    9.81
  -3  -2   3 1543.64   16.74
   3   2  -3 1725.43   16.45
  -3  -2   3 1561.97   18.47
  -3  -2   3 1749.98   18.16
   3   2  -3 1808.17   20.06
   3   2  -2  655.96   10.93
  -3  -2   2  683.35   11.24
  -3  -2   2  677.06    9.81
  -3  -2   2  737.43   11.91
  -3  -2   2  708.89   11.46
  -3  -2   1  758.07    8.87
   3   2  -1  708.24   11.31
  -3  -2   1  758.51   10.91
   3   2  -1  718.95   10.62
  -3  -2   1  761.99   11.14
  -3  -2   0  548.31    8.12
   3   2   0  506.60   10.43
  -3  -2   0  497.64    8.60
  -3  -2   0  539.07   10.54
   3   2   1 1083.87   17.30
   3   2   1 1232.21   16.53
   3   2   1 1219.27   20.46
   3   2   1 1166.32   18.07
  -3  -2  -1 1114.93   15.83
  -3  -2  -1 1032.87   12.02
   3   2   2  329.38    8.75
   3   2   2  320.84   11.12
   3   2   2  287.02    9.95
   3   2   2  304.77    9.99
  -3  -2  -2  276.65    8.00
  -3  -2  -3    8.71    1.41
   3   2   3   13.34    2.52
   3   2   3   10.24    2.28
   3   2   3    8.72    1.99
   3   2   4   59.14    5.80
   3   2   4   49.85    4.87
   3   2   4   51.96    5.30
  -3  -2  -4   45.40    3.45
   3   2   5   16.31    3.22
   3   2   5   18.66    3.37
   3   2   5   15.83    3.05
   3   2   6    6.96    2.40
   3   2   6    7.06    2.26
   3   2   6    6.39    1.82
   3   2   7   27.38    3.94
   3   2   7   20.97    3.68
   3   2   7   24.03    3.63
   3   2   8   69.91    7.16
   3   2   8   63.44    4.93
   3   2   8   62.37    7.27
   3   2   8   76.22    7.08
   3   2   8   65.19    6.13
   3   2   9 1397.82   30.65
   3   2   9 1184.51   21.65
   3   2   9 1133.58   31.46
   3   2   9 1159.70   29.40
   3   2   9 1348.96   28.18
   3   2  10    1.35    0.73
   3   2  10    0.19    0.45
   3   2  10    1.00    0.71
   3   2  10    0.84    0.42
   3   2  10    1.06    0.91
   3   2  11    0.84    0.74
   3   2  11    1.66    0.91
   3   2  11    0.77    0.73
   3   2  12    5.42    1.78
   3   2  12    6.00    1.74
   3   2  13  110.94    6.63
  -3  -3  16   10.45    1.75
  -3  -3  15   78.52    5.78
  -3  -3  14    1.45    1.06
  -3  -3  13  287.96   12.88
  -3  -3  13  270.59   12.47
  -3  -3  12    7.95    2.12
  -3  -3  12    6.94    2.10
  -3  -3  11  162.92    9.81
  -3  -3  11  161.88    9.82
  -3  -3  10  514.75   16.65
  -3  -3  10  496.65   16.71
   3   3  -9  162.14    7.92
  -3  -3   9  176.94    9.61
   3   3  -9  162.58    8.31
  -3  -3   9  173.96    9.35
   3   3  -8 1336.66   21.61
   3   3  -8 1340.09   22.86
  -3  -3   8 1380.52   24.45
   3   3  -7  424.86   11.10
  -3  -3   7  449.24   13.41
   3   3  -7  408.40   11.59
  -3  -3   7  425.59   12.58
   3   3  -6   55.57    3.77
  -3  -3   6   66.62    4.82
  -3  -3   6   62.74    4.42
   3   3  -6   58.18    4.16
  -3  -3   6   54.89    4.09
   3   3  -5   30.02    2.62
  -3  -3   5   27.24    2.95
  -3  -3   5   33.21    3.11
   3   3  -5   27.11    2.78
  -3  -3   5   24.99    2.54
   3   3  -4  629.47   11.67
  -3  -3   4  571.26   12.31
  -3  -3   4  654.86   12.88
   3   3  -4  606.25   12.51
  -3  -3   4  546.29   10.99
   3   3  -3 1015.33   15.41
  -3  -3   3 1040.72   15.65
   3   3  -3 1029.77   16.45
   3   3  -3 1107.51   16.68
  -3  -3   3 1145.96   16.16
  -3  -3   3 1007.64   13.60
   3   3  -2 2861.35   25.12
  -3  -3   2 2831.40   24.58
  -3  -3   1  177.68    5.54
   3   3  -1  180.88    6.88
  -3  -3   1  166.27    5.96
   3   3   0  220.11    7.64
  -3  -3   0  241.61    7.09
   3   3   1  250.48    9.19
  -3  -3  -1  260.20    7.61
   3   3   1  233.20    9.16
   3   3   2  448.66   13.74
   3   3   2  441.74   14.76
  -3  -3  -2  436.26    9.97
   3   3   3  169.06    7.19
   3   3   3  139.50    8.35
   3   3   3  141.37    8.41
   3   3   3  141.36    8.93
  -3  -3  -3  138.20    5.74
   3   3   4   98.10    7.78
   3   3   4   94.97    7.87
   3   3   4  102.07    7.70
  -3  -3  -4   84.34    4.56
   3   3   5  336.32   15.48
   3   3   5  348.35   15.36
   3   3   5  350.38   16.09
   3   3   6   20.49    4.17
   3   3   6   22.10    4.11
   3   3   6   21.49    3.82
   3   3   7  196.39   13.84
   3   3   7  212.36   11.73
   3   3   7  217.65   10.98
   3   3   7  211.03   11.02
   3   3   7  212.77   12.48
   3   3   7  217.44   11.00
   3   3   8   33.92    5.86
   3   3   8   38.85    5.43
   3   3   8   40.15    4.90
   3   3   8   37.40    4.95
   3   3   8   40.00    4.77
   3   3   9  405.41   16.03
   3   3   9  415.06   17.82
   3   3   9  436.75   15.87
   3   3  10   11.87    2.90
   3   3  10   17.73    3.29
   3   3  10   18.22    3.55
   3   3  10   19.27    3.30
   3   3  11  111.50    8.91
   3   3  11  130.07    8.67
   3   3  12    3.69    1.45
   3   3  12    8.48    1.98
   3   3  12    5.35    1.48
  -3  -4  16   68.34    4.11
  -3  -4  16   54.75    3.23
  -3  -4  15   32.94    3.44
  -3  -4  14   27.54    3.57
  -3  -4  13  117.48    7.77
  -3  -4  13  105.97    7.57
  -3  -4  12   50.65    5.23
  -3  -4  12   45.70    5.30
  -3  -4  11    8.78    2.16
  -3  -4  11    9.00    2.34
  -3  -4  10  916.03   23.13
  -3  -4  10  948.10   22.36
  -3  -4   9 1391.99   26.10
  -3  -4   9 1379.14   27.34
   3   4  -8  684.23   15.39
  -3  -4   8  676.08   18.17
  -3  -4   8  644.66   16.63
   3   4  -7  166.10    7.20
  -3  -4   7  172.02    8.67
   3   4  -7  174.39    8.17
   3   4  -7  155.38    7.33
  -3  -4   7  162.36    7.96
   3   4  -6  364.89   10.15
  -3  -4   6  372.60   11.98
   3   4  -6  363.37   11.43
   3   4  -6  349.43   10.56
  -3  -4   6  347.33   10.77
   3   4  -5  466.41   11.59
  -3  -4   5  430.84   12.13
   3   4  -5  424.36   12.18
  -3  -4   5  468.07   12.69
   3   4  -5  417.29   11.24
  -3  -4   5  410.05   10.90
   3   4  -4    2.20    1.00
  -3  -4   4    0.91    0.83
   3   4  -4    0.36    0.45
  -3  -4   4    3.73    1.25
   3   4  -4    0.65    0.41
  -3  -4   4    2.73    0.94
   3   4  -3  898.81   16.41
  -3  -4   3  866.11   15.31
   3   4  -3  920.68   17.48
   3   4  -2 2805.10   30.17
  -3  -4   2 2846.49   27.74
   3   4  -1   25.65    2.90
  -3  -4   1   22.05    2.39
   3   4  -1   24.04    2.86
   3   4   0   12.70    2.08
  -3  -4   0   11.58    1.71
   3   4   0    8.55    1.90
   3   4   1  214.32    8.86
  -3  -4  -1  187.49    6.79
   3   4   2  350.48   13.40
   3   4   2  451.92   13.01
   3   4   2  229.08   11.93
   3   4   2  309.19   13.65
  -3  -4  -2  380.21    9.84
   3   4   3  469.36   13.60
   3   4   3  373.58   15.11
   3   4   3  314.63   14.12
  -3  -4  -3  385.56   10.06
   3   4   3  263.74   13.20
   3   4   4  469.63   18.25
   3   4   4  443.47   17.83
   3   4   5   32.27    5.20
   3   4   5   41.16    6.27
   3   4   5   42.20    5.66
   3   4   6  160.15   12.95
   3   4   6  191.78   11.17
   3   4   6  183.27   10.30
   3   4   6  175.36    9.45
   3   4   6  197.88   11.86
   3   4   6  206.73   10.53
   3   4   7  346.22   19.90
   3   4   7  423.03   17.31
   3   4   7  390.94   15.28
   3   4   7  396.66   14.98
   3   4   7  452.67   18.68
   3   4   7  458.44   16.32
   3   4   8   50.92    7.34
   3   4   8   67.16    6.26
   3   4   8   70.64    6.95
   3   4   8   73.38    7.50
   3   4   8   73.45    6.63
   3   4   9   43.94    5.31
   3   4   9   37.92    4.69
   3   4   9   29.62    5.39
   3   4   9   42.44    5.63
   3   4  10   86.58    7.57
   3   4  10   80.13    6.63
   3   4  11   34.33    4.06
   3   4  11   33.70    4.28
   3   4  12   27.31    3.51
   3   4  12   52.77    4.36
  -3  -5  15    0.37    0.38
  -3  -5  14   55.44    4.60
  -3  -5  13   11.05    2.23
  -3  -5  13   17.91    3.27
  -3  -5  12   77.21    6.26
  -3  -5  12   75.53    6.56
  -3  -5  11   13.85    2.67
  -3  -5  11   13.87    2.85
  -3  -5  11   10.22    3.05
  -3  -5  10    0.76    0.94
  -3  -5  10    1.42    1.43
  -3  -5   9    2.02    1.22
  -3  -5   9    0.31    0.62
  -3  -5   9    0.81    0.86
  -3  -5   8  196.51    9.72
  -3  -5   8  182.25    9.96
  -3  -5   7  374.12   12.12
   3   5  -7  371.55   11.91
  -3  -5   7  382.34   13.35
   3   5  -6  666.92   15.97
  -3  -5   6  711.33   17.32
  -3  -5   6  688.98   15.50
   3   5  -5   93.71    5.96
  -3  -5   5  119.28    6.90
  -3  -5   5  110.71    6.40
   3   5  -5  110.26    6.78
  -3  -5   4  364.39   11.70
   3   5  -4  344.63   11.24
  -3  -5   4  320.96   10.54
   3   5  -4  348.29   11.90
   3   5  -3    5.40    1.54
   3   5  -3    2.79    0.98
  -3  -5   3    4.07    1.22
   3   5  -2  449.87   13.42
  -3  -5   2  450.09   12.94
   3   5  -1  104.78    6.57
   3   5  -1   92.27    6.07
  -3  -5   1   90.30    5.68
   3   5   0    2.58    0.88
  -3  -5   0    5.96    1.28
   3   5   0    6.68    1.79
   3   5   1   53.39    5.52
   3   5   1   70.49    5.55
   3   5   1   52.40    5.76
  -3  -5  -1   65.38    4.50
   3   5   2  810.90   22.59
   3   5   2 1157.63   22.91
   3   5   2  811.18   24.58
   3   5   2  626.31   21.90
  -3  -5  -2 1025.11   18.24
   3   5   3   67.10    7.21
   3   5   3  124.83    7.93
   3   5   3   79.42    7.90
   3   5   3   46.27    6.18
  -3  -5  -3   94.87    5.43
   3   5   4   55.08    6.70
   3   5   4   33.61    5.29
   3   5   5    3.56    0.99
   3   5   5    8.00    2.11
   3   5   5    4.51    1.73
   3   5   5    4.53    1.80
   3   5   6  901.84   25.88
   3   5   6  917.21   25.47
   3   5   6  840.79   22.85
   3   5   7   51.08    6.07
   3   5   7   49.68    5.54
   3   5   7   43.95    4.76
   3   5   7   51.26    6.23
   3   5   8  166.54   10.79
   3   5   8  141.10    8.59
   3   5   8  156.94    9.35
   3   5   8  173.57   11.33
   3   5   9    0.84    0.17
   3   5   9    1.64    0.67
   3   5   9    1.73    1.12
   3   5   9    1.62    1.17
   3   5  10   18.56    3.01
   3   5  10   19.38    3.05
   3   5  10   16.05    2.91
   3   5  11    0.46    0.17
   3   5  11    2.68    1.04
  -3  -6  15   22.41    2.16
  -3  -6  14    1.71    0.75
  -3  -6  14    1.29    0.66
  -3  -6  13    8.47    1.76
  -3  -6  13    9.02    1.92
  -3  -6  13    4.05    1.36
  -3  -6  12  229.85   10.16
  -3  -6  12  236.39   10.98
  -3  -6  11    2.65    1.08
  -3  -6  11    1.33    1.18
  -3  -6  10  284.83   12.07
  -3  -6  10  279.16   12.94
  -3  -6   9  131.54    8.22
  -3  -6   9  135.83    9.03
  -3  -6   8   10.56    2.33
  -3  -6   8   11.57    2.78
  -3  -6   8   12.15    3.52
  -3  -6   7  536.38   16.13
  -3  -6   7  537.25   17.49
   3   6  -6  394.78   14.20
  -3  -6   6  437.59   15.34
   3   6  -5    9.11    1.76
  -3  -6   5    8.13    1.65
   3   6  -5    7.34    1.72
  -3  -6   4  108.07    6.51
   3   6  -4  121.98    7.63
  -3  -6   4  125.08    7.22
   3   6  -3   34.05    3.87
   3   6  -3   26.43    3.63
  -3  -6   3   26.97    3.32
   3   6  -2  404.23   14.03
  -3  -6   2  392.68   12.50
   3   6  -1    1.81    1.01
  -3  -6   1    2.61    1.14
   3   6   0    2.98    1.18
  -3  -6   0    1.96    0.90
   3   6   1  155.79   10.31
   3   6   1  206.95   10.44
   3   6   1  202.22   12.57
  -3  -6  -1  171.77    7.94
   3   6   1  188.98   12.08
   3   6   2  374.99   16.88
  -3  -6  -2  458.78   13.10
   3   6   3  136.60    9.22
   3   6   3  135.70    8.97
   3   6   3  131.68    8.81
   3   6   4  330.03   14.17
   3   6   4  338.94   15.16
   3   6   4  326.53   14.44
   3   6   5  399.71   16.69
   3   6   5  383.18   15.48
   3   6   5  391.70   16.48
   3   6   6   31.43    4.79
   3   6   6   29.88    4.31
   3   6   6   30.92    4.79
   3   6   7   -0.30    0.64
   3   6   7    0.19    0.62
   3   6   7    0.34    0.42
   3   6   7    0.89    0.73
   3   6   8  117.72    8.64
   3   6   8  107.67    7.48
   3   6   8  123.26    9.02
   3   6   9    0.64    0.66
   3   6   9    2.03    1.35
   3   6   9    3.19    1.30
   3   6  10    0.19    0.49
   3   6  10    0.09    0.39
   3   6  10   -0.25    0.41
   3   6  11   10.34    1.99
   3   6  11   12.81    2.06
  -3  -7  14    5.41    1.14
  -3  -7  13    5.88    1.37
  -3  -7  13    6.52    1.48
  -3  -7  13    6.02    1.35
  -3  -7  13    3.91    1.29
  -3  -7  12   62.63    4.83
  -3  -7  12   64.11    5.22
  -3  -7  11  163.19    8.39
  -3  -7  11  174.40    9.31
  -3  -7  10   70.17    5.68
  -3  -7  10   74.47    6.47
  -3  -7  10   65.39    7.96
  -3  -7   9   12.09    2.46
  -3  -7   9   17.95    3.16
  -3  -7   9   12.40    3.57
  -3  -7   8  113.98    7.51
  -3  -7   8  114.45    8.27
  -3  -7   8  135.48   12.29
  -3  -7   7  301.22   12.41
  -3  -7   7  294.94   13.25
  -3  -7   6   14.59    2.57
   3   7  -6   14.81    3.08
  -3  -7   6   13.69    2.87
   3   7  -5  285.44   14.13
  -3  -7   5  255.36   12.25
   3   7  -4    0.30    0.48
  -3  -7   4   -0.32    0.89
   3   7  -3  273.49   13.77
  -3  -7   3  257.42   12.20
   3   7  -2  441.83   17.37
  -3  -7   2  453.24   16.27
   3   7  -1   32.23    4.67
   3   7  -1   36.84    4.62
   3   7   0  105.05    8.48
   3   7   0  112.95    8.19
   3   7   1  235.03   12.91
   3   7   1  228.28   11.68
   3   7   1  244.43   12.18
   3   7   2   42.67    5.41
   3   7   2   38.64    4.83
   3   7   2   37.98    4.70
   3   7   3  417.22   17.20
   3   7   3  416.45   16.44
   3   7   3  436.85   16.66
   3   7   3  399.20   15.39
   3   7   4   12.89    3.02
   3   7   4   14.76    3.10
   3   7   4   11.10    2.70
   3   7   5   18.65    3.55
   3   7   5   17.47    3.29
   3   7   5   19.34    3.46
   3   7   6   25.09    4.04
   3   7   6   21.33    5.18
   3   7   6   21.30    3.50
   3   7   6   21.00    3.66
   3   7   7   25.11    3.61
   3   7   7   24.67    3.86
   3   7   7   17.31    4.45
   3   7   7   22.47    3.60
   3   7   8    9.21    2.76
   3   7   8   14.77    2.87
   3   7   8   13.56    2.39
   3   7   8   14.79    2.74
   3   7   9   29.78    3.56
   3   7   9   22.57    3.85
   3   7   9   29.99    3.54
   3   7  10    6.60    1.67
   3   7  10    6.49    1.36
   3   7  10    9.54    1.71
  -3  -8  13    0.83    0.52
  -3  -8  12   26.99    3.02
  -3  -8  12   28.34    2.99
  -3  -8  12   25.33    3.60
  -3  -8  11   97.42    6.30
  -3  -8  11  110.11    6.61
  -3  -8  11   95.82    8.09
  -3  -8  10   86.82    6.41
  -3  -8  10   89.52    8.64
  -3  -8   9   -0.15    0.77
  -3  -8   9    9.85    2.90
  -3  -8   8   48.92    6.89
  -3  -8   8   41.96    4.74
  -3  -8   7   -0.06    0.75
  -3  -8   7    0.41    0.73
   3   8  -6   99.48    8.64
  -3  -8   6   87.18    7.19
   3   8  -5  370.33   16.66
  -3  -8   5  326.71   14.02
   3   8  -4    4.97    1.80
  -3  -8   4    3.70    1.23
   3   8  -3  199.77   12.26
  -3  -8   3  180.28   10.49
   3   8  -2   23.83    4.21
  -3  -8   2   23.15    3.65
   3   8  -1    3.87    1.79
  -3  -8   1    4.83    1.71
   3   8   0   90.97    8.29
   3   8   0   91.06    7.49
   3   8   1   66.21    7.02
   3   8   1   61.86    6.07
   3   8   1   78.73    7.00
   3   8   2  225.32   12.92
   3   8   2  226.97   11.77
   3   8   2  240.36   12.26
   3   8   3  162.04   10.72
   3   8   3  174.66   10.42
   3   8   3  180.19   10.50
   3   8   4    3.26    1.36
   3   8   4    4.28    1.55
   3   8   5   13.58    2.86
   3   8   5   14.03    2.78
   3   8   5   11.88    2.41
   3   8   6   13.31    2.82
   3   8   6   13.22    2.55
   3   8   6   10.74    3.42
   3   8   6   13.07    2.50
   3   8   7    3.45    1.45
   3   8   7    3.19    1.30
   3   8   7    3.08    1.10
   3   8   7    3.02    1.22
   3   8   8   10.87    2.55
   3   8   8   12.31    2.18
   3   8   8   11.00    1.98
   3   8   9    3.45    1.18
   3   8   9    2.99    0.81
   3   8   9    3.04    0.79
  -3  -9  12   34.90    2.65
  -3  -9  11   95.09    5.05
  -3  -9  11  102.51    5.33
  -3  -9  11  104.30    6.92
  -3  -9  10   19.58    2.50
  -3  -9  10   24.27    2.91
  -3  -9  10   25.21    3.87
  -3  -9   9    1.78    0.86
  -3  -9   9    1.91    0.79
  -3  -9   9    2.42    1.37
  -3  -9   8   24.97    3.09
  -3  -9   8   32.95    3.90
  -3  -9   8   39.79    5.57
  -3  -9   7   71.59    7.85
  -3  -9   7   60.61    5.51
   3   9  -6   64.86    6.67
  -3  -9   6   54.13    5.37
   3   9  -5   18.24    3.62
  -3  -9   5   14.72    2.84
  -3  -9   5   20.80    4.30
   3   9  -4   60.27    6.61
  -3  -9   4   53.07    5.44
   3   9  -3   81.88    7.79
  -3  -9   3   61.09    5.82
   3   9  -2    0.16    0.24
  -3  -9   2    0.61    0.13
   3   9  -1  403.85   17.32
   3   9  -1  377.94   14.68
   3   9   0    0.60    0.42
   3   9   0    0.10    0.39
   3   9   1   12.24    2.55
   3   9   1   12.13    2.82
   3   9   2    0.01    0.21
   3   9   2    0.77    0.56
   3   9   2   -0.16    0.57
   3   9   3  113.82    8.35
   3   9   3  116.12    7.70
   3   9   3  119.11    7.92
   3   9   4   42.91    4.57
   3   9   4   41.13    4.50
   3   9   5   35.48    4.05
   3   9   5   34.24    3.78
   3   9   5   39.40    5.92
   3   9   6    1.59    1.05
   3   9   6    2.08    0.88
   3   9   6    0.81    0.35
   3   9   7    2.02    0.94
   3   9   7    1.39    0.70
  -3 -10  10    6.37    1.44
  -3 -10   9   87.75    4.91
  -3 -10   9   99.25    6.61
  -3 -10   8   17.96    2.05
  -3 -10   8   21.01    2.60
  -3 -10   8   24.99    3.61
  -3 -10   7   56.59    4.59
  -3 -10   7   68.38    6.40
   3  10  -6   36.08    4.34
  -3 -10   6   30.45    3.45
  -3 -10   6   43.08    5.27
   3  10  -5    9.27    2.30
  -3 -10   5    8.97    2.41
  -3 -10   5    5.57    1.46
   3  10  -4   10.80    2.47
  -3 -10   4   10.37    2.49
  -3 -10   4   15.07    3.20
   3  10  -3    6.40    2.05
  -3 -10   3    5.94    1.98
   3  10  -2   91.90    7.62
   3  10  -1   57.58    5.98
   3  10   0   18.33    3.27
   3  10   1    4.31    1.54
   3  10   2    2.83    1.17
   3  10   3    0.37    0.10
   3  10   3    0.47    0.45
   3  10   4   64.02    6.42
   3  10   4   47.88    3.80
   3  10   5    6.03    1.66
   3  10   5    3.73    0.93
  -3 -11   7   -0.04    0.10
  -3 -11   6   28.06    3.16
   3  11  -5    0.50    0.44
  -3 -11   5    0.31    0.14
   3  11  -4   13.57    2.37
  -3 -11   4   11.98    2.17
   3  11  -3    5.71    1.61
  -3 -11   3    5.43    1.38
  -3 -11   3    5.62    1.48
   3  11  -2   15.11    2.59
  -3 -11   2   12.52    2.19
  -3 -11   2   14.47    2.34
   3  11  -1   22.10    3.13
  -3 -11   1   20.90    2.91
  -3 -11   1   21.41    2.67
   3  11   0   60.98    5.04
   3  11   1   21.16    2.74
   4 -10  -8   44.95    3.28
   4 -10  -7   15.56    2.17
   4 -10  -6   -0.19    0.33
  -4  10   5    0.14    0.42
   4 -10  -5   -0.18    0.36
  -4  10   4   17.48    3.24
   4 -10  -4   16.84    2.64
  -4  10   3   15.24    3.05
   4 -10  -3   12.53    2.30
  -4  10   2   10.67    2.64
   4 -10  -2    7.73    1.77
  -4  10   1    0.43    0.54
   4 -10  -1    0.31    0.21
  -4  10   0   10.67    2.52
  -4  10  -1   29.39    3.93
   4 -10   1   20.68    2.64
   4 -10   1   21.97    3.20
   4 -10   2    3.53    1.11
   4 -10   2    5.10    1.57
   4 -10   3   11.46    1.92
   4 -10   3   10.71    2.20
   4 -10   4   19.42    2.40
   4 -10   4   20.22    2.83
   4 -10   5    0.26    0.31
   4 -10   5    0.40    0.36
   4 -10   5    0.05    0.11
   4 -10   6   14.73    1.78
   4 -10   6   14.87    1.79
   4  -9 -10    3.51    0.93
  -4   9   9    2.23    0.89
   4  -9  -9    2.34    0.70
   4  -9  -9    2.47    1.00
   4  -9  -8   16.16    2.61
  -4   9   7    1.84    1.08
   4  -9  -7    1.75    0.99
  -4   9   6    8.37    2.36
   4  -9  -6   10.03    2.28
  -4   9   5    0.29    0.40
   4  -9  -5    1.01    0.57
  -4   9   4   57.96    6.82
   4  -9  -4   57.72    5.82
  -4   9   3  152.82   11.28
   4  -9  -3  134.99    8.99
  -4   9   2   22.54    4.26
   4  -9  -2   20.27    3.55
  -4   9   1   12.43    3.11
   4  -9  -1    9.76    2.16
   4  -9  -1    8.81    2.32
  -4   9   0   16.02    3.54
   4  -9   0   13.14    2.59
   4  -9   0   13.03    2.44
  -4   9  -1   96.20    8.57
   4  -9   1   86.06    6.55
   4  -9   1   84.11    7.47
   4  -9   2   12.55    2.46
   4  -9   2   17.72    3.40
   4  -9   3    1.70    0.82
   4  -9   3    2.35    1.36
   4  -9   4    1.26    0.67
   4  -9   4    0.66    0.56
   4  -9   5    0.09    0.49
   4  -9   5   -0.01    0.70
   4  -9   6   52.70    4.36
   4  -9   6   53.22    5.08
   4  -9   6   43.47    4.25
   4  -9   7    0.42    0.49
   4  -9   7    0.29    0.54
   4  -9   7    0.24    0.48
   4  -9   8   56.58    4.08
  -4   8  11   31.32    3.52
   4  -8 -11   26.67    2.74
   4  -8 -11   30.17    2.84
  -4   8  10    4.60    1.41
   4  -8 -10    4.70    1.27
   4  -8 -10    3.79    1.10
   4  -8  -9    4.23    1.24
   4  -8  -9    3.62    1.33
   4  -8  -8   73.60    5.63
   4  -8  -8   77.62    6.64
  -4   8   7   35.54    5.12
   4  -8  -7   31.37    3.75
   4  -8  -7   39.45    5.01
  -4   8   6   22.15    4.36
   4  -8  -6   22.33    3.81
  -4   8   5   31.97    5.32
   4  -8  -5   32.64    4.75
  -4   8   4  101.59    9.63
   4  -8  -4  101.55    8.48
  -4   8   3   40.83    6.16
   4  -8  -3   38.23    5.25
  -4   8   2  153.99   11.80
   4  -8  -2  139.44   10.02
  -4   8   1   97.27    9.46
   4  -8  -1   88.34    7.06
   4  -8  -1   93.35    8.09
  -4   8   0  106.16    9.87
   4  -8   0   99.15    7.55
   4  -8   0   90.47    7.78
  -4   8  -1   51.25    6.64
   4  -8   1   47.93    5.25
   4  -8   1   44.99    5.88
   4  -8   1   47.05    5.35
   4  -8   2    0.45    0.69
   4  -8   2    0.48    0.93
   4  -8   3   -0.03    0.60
   4  -8   3    0.89    1.06
   4  -8   4   10.75    2.36
   4  -8   4    8.52    2.64
   4  -8   5   21.00    3.36
   4  -8   5   20.92    3.99
   4  -8   6   87.00    6.43
   4  -8   6   80.49    7.43
   4  -8   7    2.86    1.23
   4  -8   7    1.56    0.68
   4  -8   7    2.44    1.22
   4  -8   8   34.09    3.42
   4  -8   8   34.17    4.14
   4  -8   8   32.11    3.50
   4  -8   9    0.35    0.25
  -4   7  13   20.78    2.51
   4  -7 -13   21.29    2.21
  -4   7  12    0.66    0.78
   4  -7 -12    0.32    0.33
  -4   7  11    2.46    1.13
   4  -7 -11    3.04    1.21
  -4   7  10   20.87    3.19
   4  -7 -10   16.44    3.02
   4  -7  -9    6.42    2.06
  -4   7   9    5.85    1.81
  -4   7   8   39.20    5.39
   4  -7  -8   49.64    5.79
  -4   7   8   55.10    5.87
   4  -7  -7  182.80   11.61
  -4   7   7  210.93   11.57
  -4   7   6    3.45    1.98
   4  -7  -6    5.52    1.86
  -4   7   5   13.72    3.44
   4  -7  -5   18.00    3.03
   4  -7  -5   16.74    3.39
  -4   7   4   11.24    2.87
   4  -7  -4   10.77    2.73
  -4   7   3   36.48    5.70
   4  -7  -3   37.06    5.26
  -4   7   2  134.99   11.11
   4  -7  -2  126.81    8.66
   4  -7  -2  135.34   10.06
  -4   7   1    3.06    1.83
   4  -7  -1    2.01    0.61
   4  -7  -1    1.37    1.27
  -4   7   0   42.94    5.96
   4  -7   0   41.97    5.07
   4  -7   0   44.15    5.57
  -4   7  -1   22.69    4.44
   4  -7   1   19.59    3.50
   4  -7   1   24.51    4.34
   4  -7   1   18.25    3.52
   4  -7   2    8.64    2.28
   4  -7   2   10.22    2.92
   4  -7   3  134.13    9.09
   4  -7   3  112.36    9.83
   4  -7   4   29.59    4.26
   4  -7   4   27.64    5.00
   4  -7   5   80.32    6.94
   4  -7   5   66.13    7.57
   4  -7   6    0.70    0.39
   4  -7   6   -0.18    0.87
   4  -7   7   83.87    6.58
   4  -7   7   73.55    7.43
   4  -7   8   20.55    3.23
   4  -7   8   23.95    3.17
   4  -7   8   23.65    3.93
   4  -7   9    0.41    0.33
   4  -7   9   -0.02    0.32
   4  -7   9    0.46    0.34
   4  -7  10   -0.09    0.23
  -4   6  14   26.84    2.87
  -4   6  13   39.91    4.40
   4  -6 -13   40.00    3.80
  -4   6  12    0.69    0.82
  -4   6  12    0.12    0.56
  -4   6  11    3.43    1.55
  -4   6  11    4.90    1.55
   4  -6 -10   19.47    3.44
  -4   6  10   21.01    3.58
   4  -6  -9   -0.01    0.66
  -4   6   9    0.19    0.25
  -4   6   8    2.54    1.12
   4  -6  -8    5.76    1.93
  -4   6   8    3.70    1.48
   4  -6  -7  181.38   11.59
  -4   6   7  206.98   11.90
  -4   6   6   22.60    4.15
   4  -6  -6   24.82    4.31
  -4   6   6   28.35    4.34
  -4   6   5  164.96   11.74
   4  -6  -5  196.08   12.02
  -4   6   4    3.19    1.76
   4  -6  -4    3.20    1.60
  -4   6   3  702.57   24.14
   4  -6  -3  730.46   23.08
   4  -6  -2   49.89    4.59
  -4   6   2   46.01    5.42
  -4   6   1   71.63    6.81
  -4   6   0    4.46    2.22
   4  -6   1    0.57    0.53
   4  -6   1    0.32    0.72
   4  -6   2  109.34    8.15
   4  -6   2  114.30    9.39
   4  -6   3  543.86   18.26
   4  -6   3  516.52   21.06
   4  -6   4   83.28    7.23
   4  -6   4   78.23    8.36
   4  -6   5   21.70    3.65
   4  -6   5   20.32    4.45
   4  -6   6   28.63    4.19
   4  -6   6   28.84    5.02
   4  -6   7   20.32    3.69
   4  -6   7   22.64    3.51
   4  -6   7   22.03    4.29
   4  -6   7   28.73    4.42
   4  -6   8   48.83    4.91
   4  -6   8   54.76    6.52
   4  -6   8   64.51    6.61
   4  -6   9    1.36    0.82
   4  -6   9    1.92    1.12
   4  -6   9    0.84    0.63
   4  -6  10    5.56    1.76
   4  -6  10    3.03    1.11
   4  -6  11    9.59    1.95
  -4   5  14   13.98    2.48
   4  -5 -14   15.38    2.29
  -4   5  13    0.01    0.41
  -4   5  13    0.28    0.44
  -4   5  13   -0.36    0.57
  -4   5  12    6.34    2.07
  -4   5  12    7.03    1.88
  -4   5  11   11.58    2.82
  -4   5  11   15.13    3.05
  -4   5  10   64.14    6.63
   4  -5  -9   63.03    6.48
  -4   5   9   63.45    6.78
  -4   5   8   26.04    4.32
   4  -5  -8   35.26    4.91
  -4   5   8   38.77    5.14
  -4   5   7    8.44    2.41
   4  -5  -7    9.18    2.46
  -4   5   7   10.74    2.68
   4  -5  -6   52.63    5.65
  -4   5   6   72.27    7.30
   4  -5  -5   16.56    2.33
   4  -5  -5   14.82    2.72
  -4   5   5   13.77    2.81
  -4   5   5   15.19    2.79
   4  -5  -4    6.76    1.77
  -4   5   4    9.26    2.12
   4  -5  -4   12.30    2.24
   4  -5  -3  219.73    8.52
  -4   5   3  223.29   11.72
  -4   5   3  217.84   10.70
   4  -5  -2  161.39    7.70
  -4   5   2  164.63    9.75
  -4   5   2  151.62    8.95
   4  -5  -1   65.58    4.68
  -4   5   1   67.07    6.23
  -4   5   1   74.58    6.26
  -4   5   0    1.94    0.88
  -4   5   0    1.93    1.15
  -4   5  -1  116.77    8.14
  -4   5  -1  108.30    7.94
  -4   5  -2   68.49    6.33
  -4   5  -2   59.02    6.06
   4  -5   3  160.85    9.84
   4  -5   4   23.31    3.64
   4  -5   4   24.06    4.47
   4  -5   5   37.07    4.61
   4  -5   5   44.53    6.19
   4  -5   6    8.06    2.07
   4  -5   6    9.23    2.24
   4  -5   6    9.58    2.93
   4  -5   6    9.59    2.66
   4  -5   7   17.37    3.40
   4  -5   7   19.61    3.33
   4  -5   7   23.52    4.46
   4  -5   7   29.81    3.13
   4  -5   7   24.17    4.33
   4  -5   8   13.19    2.98
   4  -5   8   15.89    3.67
   4  -5   8   25.31    2.78
   4  -5   8   17.17    3.69
   4  -5   9    5.77    2.06
   4  -5   9    9.58    1.65
   4  -5   9    6.07    2.00
   4  -5   9    5.91    1.93
   4  -5  10   34.69    4.88
   4  -5  10   24.57    3.39
   4  -5  11   17.71    3.14
   4  -5  11   11.34    1.84
  -4   4  15    1.66    0.57
  -4   4  14   21.82    3.46
   4  -4 -14   19.02    2.78
  -4   4  13    3.08    1.47
  -4   4  13    2.06    0.66
  -4   4  13    2.76    1.07
  -4   4  12    8.74    2.59
  -4   4  12    8.08    2.26
  -4   4  11   11.82    3.02
  -4   4  11   12.30    2.70
  -4   4  10   65.84    7.20
  -4   4  10   69.03    7.05
  -4   4   9  109.73    8.75
  -4   4   8   12.82    2.94
   4  -4  -7   58.93    6.23
  -4   4   7   56.12    6.61
   4  -4  -7   52.26    5.58
  -4   4   7   60.38    6.62
   4  -4  -7   55.02    4.44
   4  -4  -6  389.55   14.31
  -4   4   6  391.91   16.50
   4  -4  -6  364.41   14.06
  -4   4   6  417.69   16.51
   4  -4  -6  392.86   11.49
   4  -4  -5  121.37    6.05
   4  -4  -5  103.63    7.12
  -4   4   5  116.33    8.48
  -4   4   5  133.54    8.77
  -4   4   5  109.21    7.23
   4  -4  -5  129.58    7.81
   4  -4  -4  198.25    7.50
   4  -4  -4  165.50    8.49
  -4   4   4  208.75   10.94
  -4   4   4  215.94   10.35
  -4   4   4  178.41    8.98
   4  -4  -3  463.95   11.32
  -4   4   3  473.88   15.93
  -4   4   3  442.40   14.39
   4  -4  -2 1263.99   18.74
  -4   4   2 1246.33   24.91
  -4   4   1  790.89   19.89
  -4   4   1  729.10   18.75
  -4   4   0    3.08    1.17
  -4   4   0    2.98    1.17
  -4   4  -1    6.75    1.70
  -4   4  -1    7.61    1.80
  -4   4  -2   70.63    5.96
   4  -4   2   58.04    5.19
  -4   4  -2   67.26    5.98
   4  -4   3  128.14    8.36
  -4   4  -3  150.51    9.44
  -4   4  -4  141.48    9.20
  -4   4  -4  135.52    9.40
   4  -4   5   -0.36    0.41
   4  -4   5    0.13    0.36
   4  -4   6   51.28    5.34
   4  -4   6   67.36    7.57
   4  -4   6   79.99    5.18
   4  -4   6   67.93    7.27
   4  -4   6   57.06    6.37
   4  -4   7   25.27    4.17
   4  -4   7   26.25    4.65
   4  -4   7   34.42    3.58
   4  -4   7   28.41    4.96
   4  -4   8    9.74    2.76
   4  -4   8   12.04    3.08
   4  -4   8   10.50    2.99
   4  -4   8   12.84    2.10
   4  -4   9  239.60   14.37
   4  -4   9  274.91    9.81
   4  -4   9  252.65   14.55
   4  -4  10    4.09    2.10
   4  -4  10    4.93    1.33
   4  -4  10    3.28    1.43
   4  -4  11   38.13    3.11
   4  -4  11   21.23    2.90
  -4   3  16    1.19    0.60
  -4   3  15   12.67    2.36
  -4   3  14   20.44    3.53
   4  -3 -14   20.44    2.97
  -4   3  13    2.41    0.85
  -4   3  13    4.38    1.68
  -4   3  13    4.37    1.57
  -4   3  12  120.81    9.82
  -4   3  12  101.97    8.04
  -4   3  11  124.46    9.99
  -4   3  11  114.76    8.64
  -4   3  10  188.32   12.01
  -4   3  10  176.76   10.90
  -4   3   9   43.24    5.47
  -4   3   9   43.42    5.31
  -4   3   8  134.88   10.13
   4  -3  -8  124.60    8.68
  -4   3   8  129.76    9.54
  -4   3   8  132.56    9.94
   4  -3  -8  122.99    7.08
   4  -3  -8  129.20    9.05
   4  -3  -7    4.69    1.99
  -4   3   7    3.35    1.28
   4  -3  -7    3.35    1.27
   4  -3  -7    5.60    1.46
  -4   3   7    2.34    0.64
  -4   3   6  414.72   15.82
   4  -3  -6  359.39   13.46
  -4   3   6  405.10   15.22
  -4   3   6  333.78   12.19
   4  -3  -6  372.29   11.15
   4  -3  -6  371.59   13.30
  -4   3   5   21.27    3.33
   4  -3  -5   17.00    2.66
   4  -3  -5   20.96    2.48
  -4   3   5   19.31    2.80
   4  -3  -5   20.70    2.92
   4  -3  -4  130.83    7.34
  -4   3   4  152.64    8.67
  -4   3   4  146.14    7.73
  -4   3   4  135.44    7.56
   4  -3  -4  141.00    6.20
   4  -3  -4  131.47    6.72
   4  -3  -3   79.89    5.40
  -4   3   3   97.54    6.58
  -4   3   3   87.45    6.11
   4  -3  -3   82.81    4.45
   4  -3  -2 1001.11   14.87
   4  -3  -2  958.87   17.82
  -4   3   2 1121.45   21.94
  -4   3   2 1071.29   20.84
   4  -3  -1  286.37    7.97
  -4   3   1  278.40   10.71
  -4   3   1  272.59   10.75
  -4   3   0    5.62    1.46
  -4   3   0    3.32    1.16
  -4   3  -1   17.56    2.64
   4  -3   1   14.59    2.29
  -4   3  -1   16.14    2.63
  -4   3  -2  215.34    9.44
  -4   3  -2  211.97    9.92
  -4   3  -3  108.66    7.06
   4  -3   3   94.05    6.92
  -4   3  -3  115.95    7.59
  -4   3  -4  162.10    9.02
  -4   3  -4  157.02    9.34
   4  -3   5   14.52    3.07
  -4   3  -5   22.08    3.86
   4  -3   6   96.88    8.68
   4  -3   6  113.36    6.52
   4  -3   6  106.95    9.16
   4  -3   6   89.98    7.73
   4  -3   7    0.58    0.54
   4  -3   7    0.40    0.27
   4  -3   7    0.85    0.29
   4  -3   7    0.63    0.66
   4  -3   8  186.67   12.77
   4  -3   8  193.74    8.84
   4  -3   8  210.20   13.86
   4  -3   8  171.67   11.07
   4  -3   9  161.46   11.87
   4  -3   9  156.71    7.87
   4  -3   9  134.77    9.56
   4  -3  10   46.68    6.20
   4  -3  10   43.41    4.04
   4  -3  10   36.07    4.17
   4  -3  10   38.63    4.73
   4  -3  11    1.19    0.66
   4  -3  11    1.74    0.75
   4  -3  12    0.82    0.61
  -4   2  16    5.31    1.38
  -4   2  15    7.85    1.93
  -4   2  14   39.46    4.89
  -4   2  14   33.73    4.25
  -4   2  13   61.85    6.70
  -4   2  13   51.99    5.93
  -4   2  12   46.59    5.93
  -4   2  12   40.80    5.44
  -4   2  12   40.91    5.02
  -4   2  11  238.60   13.57
  -4   2  11  217.17   11.60
  -4   2  10  190.08   11.68
  -4   2  10  178.83   10.60
  -4   2   9  162.80   10.82
  -4   2   9  169.72   11.14
  -4   2   9  162.78   11.10
   4  -2  -8    1.28    0.76
  -4   2   8    2.14    1.69
  -4   2   8    1.91    1.30
   4  -2  -8    0.55    0.80
   4  -2  -8    0.89    0.49
  -4   2   8    2.00    1.45
  -4   2   7   43.49    5.11
   4  -2  -7   35.14    4.15
  -4   2   7   39.76    4.66
  -4   2   7   42.57    4.99
   4  -2  -7   34.79    3.65
   4  -2  -7   38.16    4.32
   4  -2  -6    1.23    0.78
  -4   2   6    1.75    0.96
   4  -2  -6    3.16    1.22
   4  -2  -6    1.19    0.66
  -4   2   6    2.41    1.62
  -4   2   6    5.15    1.93
  -4   2   5   18.82    2.95
   4  -2  -5   16.83    2.70
  -4   2   5   22.67    3.17
   4  -2  -5   18.10    2.40
  -4   2   5   19.60    2.76
   4  -2  -5   18.35    2.63
  -4   2   4   -0.28    0.46
   4  -2  -4    0.10    0.34
   4  -2  -4    1.93    0.88
  -4   2   4   -0.07    0.52
   4  -2  -4    1.11    0.61
  -4   2   4    0.78    0.46
  -4   2   4   -0.24    0.19
   4  -2  -3  156.32    7.33
  -4   2   3  170.03    8.15
   4  -2  -3  150.85    6.38
   4  -2  -3  152.59    5.99
   4  -2  -2  209.24    7.90
  -4   2   2  270.70    9.84
  -4   2   2  233.33    9.19
   4  -2  -2  269.49    7.40
   4  -2  -1   18.68    2.43
  -4   2   1   17.62    2.43
  -4   2   1   17.18    2.48
  -4   2   0    7.73    1.60
   4  -2   0   10.30    1.96
  -4   2   0    7.32    1.57
  -4   2  -1  232.89    8.78
   4  -2   1  209.48    8.46
  -4   2  -1  230.18    9.33
  -4   2  -2  568.05   13.85
  -4   2  -2  582.44   15.29
  -4   2  -3   19.40    2.82
   4  -2   3   15.64    2.60
  -4   2  -3   14.57    2.49
   4  -2   4  283.31   12.39
  -4   2  -4  302.87   12.07
   4  -2   5  111.23    8.23
  -4   2  -5  127.22    8.16
   4  -2   6  175.89   11.46
   4  -2   6  180.64    8.30
   4  -2   6  148.66   10.07
   4  -2   6  164.27   10.14
   4  -2   7   11.39    3.18
   4  -2   7   11.01    2.16
   4  -2   7   10.95    3.41
   4  -2   7   10.74    2.77
   4  -2   7    8.51    2.45
   4  -2   8  687.99   17.30
   4  -2   8  646.63   21.40
   4  -2   9    1.88    1.70
   4  -2   9    0.60    0.22
   4  -2   9    1.66    0.55
   4  -2  10    0.51    0.51
   4  -2  10   -0.25    0.59
   4  -2  10    0.02    0.78
   4  -2  11    4.72    1.37
   4  -2  11    3.74    1.28
   4  -2  11    5.55    1.59
   4  -2  12    5.00    1.21
   4  -2  12    3.78    1.07
   4  -2  12    4.05    1.04
  -4   1  16   15.06    2.45
  -4   1  15   25.87    3.69
  -4   1  14   73.39    6.84
  -4   1  14   70.07    6.43
  -4   1  13   53.24    6.02
  -4   1  13   47.92    5.77
  -4   1  12    1.62    0.96
  -4   1  12    1.28    0.36
  -4   1  11   -0.67    1.15
  -4   1  11   -0.25    0.63
  -4   1  11    0.39    0.16
  -4   1  10    2.89    1.43
  -4   1  10    2.58    1.25
  -4   1   9  607.25   20.04
   4  -1  -9  537.99   16.24
   4  -1  -9  519.49   17.26
  -4   1   9  609.00   19.76
  -4   1   9  597.54   20.62
   4  -1  -9  554.88   17.32
   4  -1  -9  524.02   17.38
  -4   1   8   46.59    5.18
   4  -1  -8   46.53    4.59
   4  -1  -8   39.48    4.51
  -4   1   8   45.06    5.10
  -4   1   8   42.67    5.15
   4  -1  -8   37.54    4.22
   4  -1  -8   41.77    4.64
  -4   1   7  151.07    8.96
   4  -1  -7  126.63    7.64
  -4   1   7  151.07    9.04
  -4   1   7  147.41    8.82
   4  -1  -7  132.21    7.60
   4  -1  -7  127.05    7.60
  -4   1   6  433.80   14.08
   4  -1  -6  395.68   12.79
  -4   1   6  417.69   13.92
  -4   1   6  403.82   13.29
   4  -1  -6  399.88   12.31
  -4   1   6  448.00   13.56
   4  -1  -6  387.42   12.31
  -4   1   5  290.88   10.71
   4  -1  -5  279.54   10.30
  -4   1   5  278.16   10.11
   4  -1  -5  267.10    9.45
  -4   1   5  301.82   10.52
   4  -1  -5  276.18    9.81
  -4   1   4  184.50    8.12
   4  -1  -4  178.89    7.93
  -4   1   4  184.15    7.44
   4  -1  -4  164.86    6.77
  -4   1   4  192.55    8.12
  -4   1   4  169.30    6.78
   4  -1  -4  182.45    7.51
   4  -1  -3  151.10    6.81
  -4   1   3  159.73    7.33
   4  -1  -3  141.67    5.80
  -4   1   3  163.42    7.17
  -4   1   3  153.63    6.66
   4  -1  -3  154.95    6.36
  -4   1   2    1.67    0.67
   4  -1  -2    1.74    0.52
   4  -1  -2    2.19    0.64
  -4   1   2    1.78    0.65
  -4   1   2    2.23    0.89
  -4   1   1 1010.72   17.10
  -4   1   1 1089.52   18.47
  -4   1   0 1797.13   21.89
  -4   1   0 1846.24   23.98
  -4   1  -1  131.41    6.00
   4  -1   1  129.29    6.52
  -4   1  -1  137.83    6.72
  -4   1  -2  160.17    6.54
   4  -1   2  154.04    7.55
  -4   1  -2  163.68    7.50
   4  -1   3    1.97    0.77
   4  -1   3    2.85    1.25
  -4   1  -3    2.27    0.31
   4  -1   4   67.39    5.21
   4  -1   4   61.92    5.51
  -4   1  -4   63.28    5.05
   4  -1   5   40.94    4.26
   4  -1   5   43.36    4.89
  -4   1  -5   43.70    5.02
   4  -1   6  257.05   11.72
   4  -1   6  247.73   12.29
   4  -1   7    4.28    1.90
   4  -1   7    4.83    1.44
   4  -1   7    2.70    0.67
   4  -1   7    4.74    1.78
   4  -1   8  336.94   12.28
   4  -1   8  331.58   15.87
   4  -1   8  339.19   15.19
   4  -1   9   86.24    6.09
   4  -1   9   78.80    7.55
   4  -1   9   86.11    7.63
   4  -1  10    3.02    1.26
   4  -1  10    1.81    1.18
   4  -1  10    3.02    1.26
   4  -1  11    1.95    0.92
   4  -1  11    0.03    0.69
   4  -1  11    0.72    0.88
   4  -1  12   16.04    2.20
   4  -1  12   10.04    1.94
   4  -1  12   17.71    2.40
  -4   0  16    1.57    0.91
  -4   0  15  106.93    7.38
  -4   0  14   22.43    3.61
  -4   0  14   22.01    3.53
  -4   0  13    4.92    1.72
  -4   0  13    3.07    1.38
  -4   0  12  105.93    8.67
  -4   0  12  102.07    8.35
  -4   0  11    9.41    2.31
  -4   0  11    9.08    2.33
  -4   0  10  105.26    8.07
  -4   0  10   97.81    7.65
  -4   0   9   69.37    6.54
   4   0  -9   59.17    5.29
   4   0  -9   56.37    5.33
  -4   0   9   62.33    6.17
   4   0  -9   60.54    5.93
   4   0  -9   58.30    5.69
   4   0  -8    6.57    1.84
  -4   0   8    7.42    1.99
   4   0  -8   10.17    2.27
  -4   0   8    6.75    1.91
   4   0  -8    5.39    1.48
   4   0  -8    6.51    1.61
  -4   0   7   29.63    3.72
   4   0  -7   30.65    3.31
   4   0  -7   26.97    3.43
  -4   0   7   36.39    4.24
   4   0  -7   28.94    3.57
   4   0  -7   29.63    3.58
   4   0  -6    2.71    0.86
  -4   0   6    4.38    1.60
   4   0  -6    4.28    1.38
  -4   0   6    6.86    1.81
   4   0  -6    2.86    1.05
   4   0  -6    3.09    1.08
  -4   0   5  153.13    7.47
   4   0  -5  143.99    7.21
  -4   0   5  142.83    7.29
   4   0  -5  135.04    6.74
  -4   0   5  151.39    5.92
  -4   0   5  163.94    7.63
   4   0  -5  148.96    7.15
  -4   0   4  103.95    5.61
   4   0  -4  106.62    5.89
  -4   0   4  101.02    5.87
   4   0  -4   96.48    5.32
  -4   0   4  114.86    6.10
  -4   0   4  104.87    5.16
   4   0  -4  117.48    5.84
  -4   0   3  155.97    6.52
   4   0  -3  175.51    7.46
   4   0  -3  151.64    6.26
  -4   0   3  175.75    7.23
  -4   0   3  166.82    6.70
   4   0  -3  174.66    6.70
  -4   0   2  609.32   12.16
   4   0  -2  620.98   11.51
  -4   0   2  647.91   13.39
  -4   0   2  658.14   13.85
   4   0  -2  688.52   12.51
  -4   0   1  441.57   10.31
   4   0  -1  421.00    8.97
  -4   0   1  451.68   11.24
  -4   0   1  452.56   11.78
   4   0  -1  447.58    9.66
  -4   0   0  615.38   11.80
   4   0   0  620.84   12.01
  -4   0   0  640.33   13.24
  -4   0   0  638.53   14.64
   4   0   1  678.27   14.26
  -4   0  -1  631.06   13.25
  -4   0  -1  659.02   15.42
   4   0   2  148.25    7.14
  -4   0  -2  144.20    6.48
  -4   0  -2  150.88    7.68
   4   0   3  260.88    9.99
  -4   0  -3  265.23    8.96
  -4   0  -3  276.79   10.94
  -4   0  -4   36.10    3.99
   4   0   4   36.26    3.98
  -4   0  -5    6.77    2.60
   4   0   5    1.53    0.64
   4   0   6  204.27   11.15
   4   0   6  199.00   10.73
   4   0   7   16.35    2.63
   4   0   7   15.61    3.19
   4   0   7   15.32    2.98
   4   0   8  192.07    9.13
   4   0   8  192.20   11.17
   4   0   9  304.71   11.47
   4   0   9  330.52   15.56
   4   0   9  329.49   14.74
   4   0  10   67.13    5.20
   4   0  10   69.19    6.79
   4   0  10   78.58    6.78
   4   0  11   18.23    2.52
   4   0  11   17.63    3.09
   4   0  11   20.44    3.11
   4   0  12   15.67    2.51
   4   0  12   21.17    2.67
  -4  -1  16    0.53    0.45
  -4  -1  15   78.56    6.27
  -4  -1  14    0.55    0.43
  -4  -1  14    0.14    0.61
  -4  -1  13   41.36    5.14
  -4  -1  13   36.59    4.87
  -4  -1  12   48.71    5.68
  -4  -1  12   49.05    5.62
  -4  -1  11  106.59    8.23
  -4  -1  11   98.37    8.00
  -4  -1  10    1.75    0.63
  -4  -1  10    1.40    0.88
   4   1  -9    2.74    0.92
   4   1  -9    2.08    1.39
  -4  -1   9    3.15    1.19
  -4  -1   8   29.93    3.88
   4   1  -8   23.61    2.96
   4   1  -8   28.67    3.63
  -4  -1   8   32.17    4.01
   4   1  -8   25.39    3.51
  -4  -1   7  168.08    8.52
   4   1  -7  148.41    6.57
   4   1  -7  153.31    7.86
  -4  -1   7  164.60    8.68
   4   1  -7  163.08    8.37
  -4  -1   6  102.06    6.12
   4   1  -6   98.44    4.92
   4   1  -6  103.20    6.16
  -4  -1   6  107.28    6.62
   4   1  -6  113.45    6.51
   4   1  -5    4.41    1.14
  -4  -1   5    4.24    1.23
   4   1  -5    6.88    1.36
  -4  -1   5    4.96    1.38
   4   1  -5    7.14    1.63
  -4  -1   5    7.04    1.39
  -4  -1   4   87.75    4.97
   4   1  -4  102.12    5.89
  -4  -1   4   92.48    5.48
  -4  -1   4   96.26    4.82
  -4  -1   4  100.73    5.59
   4   1  -4  101.02    5.45
  -4  -1   3  205.31    7.11
  -4  -1   3  209.10    7.85
  -4  -1   3  219.92    7.46
  -4  -1   3  221.07    7.77
   4   1  -3  237.64    7.91
  -4  -1   2  929.34   13.94
  -4  -1   2  916.98   15.59
  -4  -1   2  974.63   16.00
  -4  -1   2  972.06   16.21
  -4  -1   1    3.40    0.88
  -4  -1   1    4.01    0.81
   4   1   0  129.27    6.29
  -4  -1   0  116.40    5.25
  -4  -1   0  122.60    6.12
   4   1   1  307.74    9.58
   4   1   1  321.66    9.01
   4   1   1  311.55   10.41
  -4  -1  -1  298.98    9.78
   4   1   2   63.15    4.77
   4   1   2   68.77    5.51
  -4  -1  -2   64.61    3.95
  -4  -1  -2   59.59    4.48
   4   1   3   58.81    5.12
   4   1   3   61.29    5.40
  -4  -1  -3   59.42    4.65
   4   1   4   97.80    7.26
   4   1   4  114.77    7.99
  -4  -1  -4  101.92    6.47
   4   1   5  182.37   10.49
   4   1   5  178.88   10.74
  -4  -1  -5  184.76    8.88
   4   1   6  209.66    9.06
   4   1   6  207.24   11.68
   4   1   6  231.96   12.39
   4   1   6  201.95   10.81
   4   1   7    3.96    1.39
   4   1   7    2.01    0.76
   4   1   7    2.66    1.46
   4   1   7    3.11    1.27
   4   1   8   55.20    4.84
   4   1   8   66.46    6.83
   4   1   8   46.24    5.67
   4   1   8   59.49    6.15
   4   1   9   46.09    4.42
   4   1   9   56.05    6.18
   4   1   9   51.71    5.72
   4   1  10  145.45    7.33
   4   1  10  159.09   10.18
   4   1  10  158.86    9.46
   4   1  11  140.36    6.45
   4   1  11  148.61    8.98
   4   1  11  164.26    8.73
   4   1  12    1.54    0.82
   4   1  12    1.89    0.84
  -4  -2  16    5.69    1.32
  -4  -2  15   -0.30    0.56
  -4  -2  14   90.82    6.98
  -4  -2  14   84.83    6.81
  -4  -2  13   19.46    3.37
  -4  -2  13   18.15    3.42
  -4  -2  12   25.66    4.01
  -4  -2  12   25.44    3.95
  -4  -2  11  214.98   11.34
  -4  -2  11  212.92   11.70
  -4  -2  10  112.35    7.93
  -4  -2  10  104.38    7.92
   4   2  -9   11.93    2.43
  -4  -2   9   11.24    2.10
   4   2  -9   11.00    2.13
  -4  -2   9   12.77    2.58
   4   2  -8    2.01    0.80
  -4  -2   8    1.89    0.98
   4   2  -8    0.09    0.84
   4   2  -8    2.40    1.46
   4   2  -7    8.40    1.79
  -4  -2   7    7.49    1.69
   4   2  -7    9.42    1.92
  -4  -2   7    6.14    1.53
   4   2  -7    5.96    1.44
  -4  -2   6    2.71    0.73
   4   2  -6    2.73    0.77
  -4  -2   6    2.45    0.93
  -4  -2   6    0.51    1.32
   4   2  -5    1.55    0.60
  -4  -2   5    7.74    1.76
  -4  -2   5    5.92    1.65
  -4  -2   5   11.69    1.56
  -4  -2   4  382.20   10.04
   4   2  -4  431.46    9.44
  -4  -2   4  392.60   11.02
  -4  -2   4  430.36   10.59
   4   2  -4  422.07   11.22
  -4  -2   3  876.58   13.81
  -4  -2   3  869.04   15.37
  -4  -2   2 1561.81   19.34
  -4  -2   2 1611.92   20.47
  -4  -2   2 1621.52   20.12
  -4  -2   1    6.69    1.39
  -4  -2   1    6.11    1.26
  -4  -2   0    7.77    1.47
   4   2   0   11.70    1.94
   4   2   0    8.41    1.88
  -4  -2   0    7.13    1.21
   4   2   1   20.15    2.50
   4   2   1   19.34    2.92
  -4  -2  -1   17.18    2.26
   4   2   2  298.80   11.38
   4   2   2  302.35   12.19
  -4  -2  -2  282.30    9.66
   4   2   3  191.05   10.06
  -4  -2  -3  174.04    7.75
  -4  -2  -4   11.33    1.72
   4   2   4   14.75    2.93
   4   2   4   13.31    2.87
   4   2   5   17.08    3.56
   4   2   5   12.82    2.86
   4   2   6  512.36   13.64
   4   2   6  514.14   18.28
   4   2   6  513.57   17.35
   4   2   6  565.54   19.26
   4   2   6  522.13   19.64
   4   2   6  502.05   16.97
   4   2   7    1.14    0.71
   4   2   7    2.09    1.29
   4   2   7    1.71    0.71
   4   2   7    0.99    0.99
   4   2   7    1.59    1.06
   4   2   7    0.80    0.65
   4   2   8   83.40    5.65
   4   2   8   98.36    8.20
   4   2   8   84.00    8.05
   4   2   8   95.15    7.65
   4   2   9   34.98    3.60
   4   2   9   46.01    5.56
   4   2   9   33.36    4.75
   4   2   9   43.52    5.09
   4   2  10   56.38    5.82
   4   2  10   59.47    5.56
   4   2  11  139.55    8.37
   4   2  11  155.92    8.21
   4   2  12    5.24    1.33
  -4  -3  16   89.66    5.08
  -4  -3  15   16.92    2.58
  -4  -3  14   32.45    3.94
  -4  -3  14   26.51    3.68
  -4  -3  13   67.13    5.97
  -4  -3  13   65.47    6.30
  -4  -3  12   32.75    4.34
  -4  -3  12   31.26    4.41
  -4  -3  11   67.18    6.25
  -4  -3  11   65.89    6.48
  -4  -3  10  498.19   16.55
  -4  -3  10  487.68   17.11
  -4  -3   9  177.27    9.43
  -4  -3   9  175.36    9.78
   4   3  -8    3.56    1.20
  -4  -3   8    2.73    1.02
  -4  -3   8    3.24    1.47
   4   3  -7  167.70    7.04
  -4  -3   7  176.46    8.96
   4   3  -7  174.37    8.43
  -4  -3   7  167.48    8.13
   4   3  -6    7.95    1.75
  -4  -3   6    6.73    1.33
   4   3  -6   12.61    1.76
  -4  -3   6    7.65    1.60
  -4  -3   6   12.43    2.34
   4   3  -5   71.57    4.54
  -4  -3   5   59.72    4.54
  -4  -3   5   66.04    4.69
   4   3  -5   64.33    4.74
  -4  -3   5   56.82    4.01
   4   3  -4  125.81    6.09
  -4  -3   4  124.89    6.23
  -4  -3   4  148.22    6.63
   4   3  -4  143.31    6.86
   4   3  -3 1650.25   20.45
  -4  -3   3 1444.66   19.89
   4   3  -3 1466.70   22.28
  -4  -3   3 1572.25   20.99
   4   3  -2   43.06    3.85
  -4  -3   2   41.59    3.46
   4   3  -1  165.82    7.51
  -4  -3   1  147.82    6.40
   4   3   0  283.80   10.48
  -4  -3   0  316.99    9.54
   4   3   1  103.92    7.55
   4   3   1  117.70    7.27
  -4  -3  -1  109.91    5.70
   4   3   2  112.08    7.49
   4   3   2  107.03    7.96
  -4  -3  -2  108.48    5.74
   4   3   3   20.17    3.84
  -4  -3  -3   17.40    2.52
   4   3   3   25.10    4.44
   4   3   4   48.94    6.26
  -4  -3  -4   38.97    3.62
   4   3   4   48.14    6.02
   4   3   5    8.08    2.27
   4   3   5    8.04    2.15
   4   3   5    8.07    1.99
   4   3   5    7.56    2.39
   4   3   5    7.20    1.91
   4   3   6  432.96   17.38
   4   3   6  426.45   15.96
   4   3   6  424.43   16.01
   4   3   6  452.40   18.73
   4   3   6  447.00   16.02
   4   3   7    0.78    0.85
   4   3   7    1.21    1.13
   4   3   7    0.89    0.65
   4   3   7    0.60    0.60
   4   3   7    0.69    0.82
   4   3   8    0.90    0.33
   4   3   8    0.95    0.46
   4   3   8    2.63    1.26
   4   3   8    1.78    0.99
   4   3   9    1.15    0.72
   4   3   9    1.00    0.95
   4   3   9    0.76    0.75
   4   3  10   18.23    3.04
   4   3  10   19.17    3.29
   4   3  10   21.60    3.25
   4   3  11   57.55    4.89
   4   3  11   37.58    3.82
  -4  -4  16   63.59    3.79
  -4  -4  15   94.33    5.60
  -4  -4  14   -0.45    0.21
  -4  -4  14    0.49    0.34
  -4  -4  13    0.96    0.41
  -4  -4  13    0.64    0.62
  -4  -4  12    6.61    1.65
  -4  -4  12    8.53    2.31
  -4  -4  11   83.08    6.63
  -4  -4  11   76.22    6.90
  -4  -4  10    2.22    0.87
  -4  -4  10    2.88    1.26
  -4  -4   9   50.13    5.00
  -4  -4   9   47.23    5.33
   4   4  -8    0.07    0.71
  -4  -4   8    0.37    0.39
   4   4  -7  297.16   10.32
  -4  -4   7  322.76   12.41
   4   4  -7  330.09   12.30
   4   4  -7  316.92   11.46
  -4  -4   7  331.27   11.95
   4   4  -6   40.41    4.07
  -4  -4   6   39.11    4.06
   4   4  -6   42.58    4.34
  -4  -4   6   52.23    4.73
   4   4  -6   41.40    4.07
   4   4  -5  360.54   11.64
  -4  -4   5  394.62   12.24
   4   4  -5  420.26   13.25
  -4  -4   5  461.23   13.72
   4   4  -5  412.18   12.60
   4   4  -4  265.54    9.31
  -4  -4   4  255.26    9.31
   4   4  -4  266.02   10.35
  -4  -4   4  284.12   10.26
   4   4  -3  623.84   15.83
  -4  -4   3  595.63   14.18
   4   4  -2   -0.29    0.41
   4   4  -2    0.97    0.89
  -4  -4   2    0.69    0.35
   4   4  -1 1009.11   20.40
  -4  -4   1  915.77   16.93
   4   4   0  175.41    8.68
  -4  -4   0  153.66    6.95
   4   4   1  810.52   18.99
   4   4   1  451.65   17.60
   4   4   1  570.48   18.75
  -4  -4  -1  712.48   15.05
   4   4   2   11.37    2.90
   4   4   2   16.02    3.42
  -4  -4  -2   18.59    2.49
   4   4   3   12.23    3.29
   4   4   3   16.03    3.26
  -4  -4  -3   22.17    2.88
   4   4   4  189.08   11.15
   4   4   4  191.05   10.50
   4   4   4  190.87   11.44
   4   4   4  196.03   10.22
   4   4   5  248.24   12.34
   4   4   5  236.43   11.01
   4   4   5  258.88   13.88
   4   4   5  272.21   12.41
   4   4   5  255.02   13.34
   4   4   6   25.13    4.24
   4   4   6   26.33    4.07
   4   4   6   26.30    3.78
   4   4   6   30.05    4.80
   4   4   6   27.23    4.03
   4   4   7   69.94    7.03
   4   4   7   65.41    6.30
   4   4   7   64.04    5.98
   4   4   7   69.97    7.43
   4   4   7   76.13    6.86
   4   4   8   53.14    5.84
   4   4   8   49.10    5.15
   4   4   8   43.58    4.88
   4   4   8   49.53    6.04
   4   4   8   57.68    5.80
   4   4   9   17.20    3.05
   4   4   9   16.32    2.78
   4   4   9   17.92    3.44
   4   4  10   14.85    2.47
   4   4  10   14.93    2.80
   4   4  11   27.83    3.08
   4   4  11   24.32    2.86
  -4  -5  15   23.09    2.46
  -4  -5  14   26.12    3.05
  -4  -5  14   24.10    3.07
  -4  -5  13   73.19    5.59
  -4  -5  13   71.65    5.96
  -4  -5  12  362.49   13.21
  -4  -5  12  366.72   14.36
  -4  -5  11    2.93    1.13
  -4  -5  11    2.16    1.28
  -4  -5  10    7.84    2.06
  -4  -5  10   11.69    2.75
  -4  -5   9  198.28   10.12
  -4  -5   9  196.71   10.91
  -4  -5   8  849.19   20.61
  -4  -5   8  839.38   22.07
  -4  -5   7  189.70    9.50
  -4  -5   7  184.73   10.10
   4   5  -6  252.30   10.85
  -4  -5   6  264.87   10.99
  -4  -5   6  309.63   12.03
   4   5  -6  287.82   12.11
   4   5  -5  354.74   11.77
  -4  -5   5  338.22   11.81
   4   5  -5  378.56   13.57
  -4  -5   5  370.89   12.93
   4   5  -4   88.01    5.94
   4   5  -4   80.15    6.15
  -4  -5   4   73.99    5.68
   4   5  -3  125.88    7.43
   4   5  -3  104.91    7.05
  -4  -5   3  109.67    6.96
   4   5  -2  198.34    9.23
   4   5  -2  188.63    9.54
  -4  -5   2  181.44    8.40
   4   5  -1  127.23    7.90
  -4  -5   1  112.05    6.53
   4   5   0  271.25   11.69
  -4  -5   0  241.60    9.51
   4   5   1  361.05   13.56
   4   5   1  238.60   13.75
   4   5   1  224.17   13.25
  -4  -5  -1  312.18   10.78
   4   5   2   69.42    6.34
   4   5   2   68.33    6.30
   4   5   3  186.82   10.93
   4   5   3  192.61   10.74
   4   5   3  184.97   11.01
   4   5   4  123.47    9.31
   4   5   4  125.23    8.71
   4   5   4  122.00    9.32
   4   5   4  143.20    9.18
   4   5   5  308.43   14.93
   4   5   5  310.55   13.93
   4   5   5  310.15   15.14
   4   5   6   17.58    3.52
   4   5   6   17.63    3.33
   4   5   6   25.16    4.40
   4   5   6   11.15    3.39
   4   5   7  133.13    9.62
   4   5   7  128.41    8.65
   4   5   7  119.40    7.48
   4   5   7  143.42   10.22
   4   5   8   59.34    6.02
   4   5   8   55.25    5.23
   4   5   8   48.44    4.69
   4   5   8   62.94    6.49
   4   5   9    1.64    0.75
   4   5   9    4.47    1.36
   4   5   9    3.73    1.05
   4   5   9    4.16    1.47
   4   5  10   26.33    3.36
  -4  -6  14  135.87    6.14
  -4  -6  14  132.42    6.27
  -4  -6  13   28.73    3.22
  -4  -6  13   27.86    3.42
  -4  -6  12   26.80    3.32
  -4  -6  12   31.64    3.95
  -4  -6  11    4.07    1.42
  -4  -6  11    3.49    1.40
  -4  -6  11    2.81    1.54
  -4  -6  10  613.99   17.28
  -4  -6  10  639.73   19.39
  -4  -6   9   89.76    6.63
  -4  -6   9   92.05    7.47
  -4  -6   9   81.63    9.18
  -4  -6   8   62.24    5.57
  -4  -6   8   78.17    9.31
  -4  -6   8   66.63    6.38
  -4  -6   7   94.78    6.87
   4   6  -7  104.02    8.37
  -4  -6   7   98.83    7.65
  -4  -6   6  498.13   15.59
   4   6  -6  498.20   18.20
  -4  -6   6  448.27   16.15
   4   6  -5  447.79   17.02
  -4  -6   5  418.75   15.50
   4   6  -4   67.87    6.56
  -4  -6   4   66.09    5.95
   4   6  -3   70.49    6.66
  -4  -6   3   63.61    5.18
   4   6  -2   44.96    5.30
   4   6  -1   37.51    4.81
   4   6  -1   38.66    4.57
   4   6   0   12.42    2.82
   4   6   0    7.88    2.09
   4   6   0    8.84    2.24
   4   6   1   70.03    6.74
   4   6   1   62.61    6.06
   4   6   1   65.99    6.29
   4   6   2  182.31   10.90
   4   6   2  174.30   10.59
   4   6   2  181.40   10.62
   4   6   2  170.77   10.13
   4   6   3  857.09   24.11
   4   6   3  853.59   23.22
   4   6   3  818.82   23.11
   4   6   4   68.16    6.93
   4   6   4   65.40    6.55
   4   6   4   66.04    6.77
   4   6   5    3.60    1.52
   4   6   5    5.15    1.62
   4   6   5    4.42    1.71
   4   6   6   34.31    4.79
   4   6   6   30.11    4.20
   4   6   6   30.42    4.49
   4   6   7    4.16    1.94
   4   6   7    9.40    2.38
   4   6   7    8.42    2.07
   4   6   7    8.03    2.24
   4   6   8   93.14    6.95
   4   6   8   90.45    6.11
   4   6   8   95.11    7.16
   4   6   9   78.90    5.63
   4   6   9   92.63    6.28
   4   6  10    7.63    1.48
  -4  -7  13   18.20    2.33
  -4  -7  12    4.17    1.17
  -4  -7  12    4.36    1.29
  -4  -7  12    3.12    1.34
  -4  -7  11   24.09    3.01
  -4  -7  11   25.45    3.47
  -4  -7  11   18.72    3.69
  -4  -7  10  213.82    9.57
  -4  -7  10  221.34   10.87
  -4  -7  10  188.34   12.84
  -4  -7   9   86.30    6.14
  -4  -7   9   87.06    7.05
  -4  -7   9  101.11    9.84
  -4  -7   8    8.78    2.00
  -4  -7   8    8.14    2.15
  -4  -7   8   11.88    3.52
   4   7  -7    2.94    1.49
  -4  -7   7    2.14    1.08
  -4  -7   7    4.84    2.37
   4   7  -6  372.89   16.37
  -4  -7   6  334.94   14.19
   4   7  -5  345.65   15.71
  -4  -7   5  323.86   13.91
   4   7  -4    0.61    1.02
  -4  -7   4   -0.13    0.70
   4   7  -3   29.09    4.62
  -4  -7   3   24.89    3.80
   4   7  -2  566.74   20.12
   4   7  -1   49.66    6.06
   4   7  -1   57.51    5.91
   4   7   0   11.65    2.77
   4   7   0    6.23    2.04
   4   7   0    9.52    2.52
   4   7   1 1317.54   30.60
   4   7   1 1268.30   27.90
   4   7   2 1167.35   28.54
   4   7   2 1131.61   27.00
   4   7   2 1185.97   27.25
   4   7   3  287.76   13.75
   4   7   3  285.93   13.22
   4   7   3  262.46   12.44
   4   7   4   22.86    3.84
   4   7   4   24.25    3.75
   4   7   4   22.67    3.69
   4   7   5  106.24    8.14
   4   7   5  105.72    7.75
   4   7   5   78.65    8.96
   4   7   5  103.56    7.74
   4   7   6    7.59    2.59
   4   7   6    8.49    2.21
   4   7   6    8.37    1.99
   4   7   6    9.17    2.15
   4   7   7   29.53    3.90
   4   7   7   25.52    3.33
   4   7   7   19.73    3.65
   4   7   7   27.20    3.55
   4   7   8   33.07    4.02
   4   7   8   42.30    4.15
   4   7   8   37.61    3.42
   4   7   8   45.67    4.14
   4   7   9   13.62    1.91
  -4  -8  12    9.36    1.62
  -4  -8  12    9.11    1.60
  -4  -8  12    8.42    1.75
  -4  -8  11    2.42    0.85
  -4  -8  11    2.02    1.03
  -4  -8  10  159.46   10.50
  -4  -8  10  163.25    8.49
  -4  -8   9  127.22    7.88
  -4  -8   9  136.23   10.58
  -4  -8   8   18.14    2.97
  -4  -8   8   22.83    4.52
   4   8  -7    1.06    0.99
  -4  -8   7    0.08    0.74
  -4  -8   7    3.03    1.97
   4   8  -6   94.47    8.13
  -4  -8   6   76.42    6.63
   4   8  -5   86.51    7.84
  -4  -8   5   79.06    6.69
  -4  -8   4  142.93    9.01
   4   8  -4  156.22   10.67
   4   8  -3   33.51    4.94
  -4  -8   3   30.48    4.13
   4   8  -2  186.89   11.63
   4   8  -1   24.54    4.29
   4   8  -1   26.67    3.94
   4   8   0  157.27   10.68
   4   8   0  163.36    9.81
   4   8   1  113.63    8.99
   4   8   1  111.86    7.92
   4   8   1  116.68    8.23
   4   8   2   13.23    2.98
   4   8   2   12.07    2.64
   4   8   2   13.35    2.77
   4   8   3    0.88    0.80
   4   8   3    0.99    0.97
   4   8   4  142.50    8.75
   4   8   4  143.06    8.49
   4   8   4  133.02    7.59
   4   8   5   63.26    7.22
   4   8   5   66.50    5.75
   4   8   5   67.23    5.55
   4   8   5   60.66    5.00
   4   8   6   19.59    3.02
   4   8   6   18.23    2.64
   4   8   6   17.25    3.36
   4   8   6   19.79    2.62
   4   8   7    1.31    0.78
   4   8   7    2.11    0.94
   4   8   7    1.91    0.72
   4   8   7    1.90    0.85
  -4  -9  11    4.41    0.95
  -4  -9  11    4.67    1.06
  -4  -9  11    4.23    1.17
  -4  -9  10    0.51    0.43
  -4  -9  10   -0.15    0.10
  -4  -9  10    0.54    0.39
  -4  -9   9  122.28    6.68
  -4  -9   9  126.85    8.66
  -4  -9   8   34.73    3.29
  -4  -9   8   48.15    4.47
  -4  -9   8   49.51    5.82
   4   9  -7   16.79    2.98
  -4  -9   7   13.94    2.51
  -4  -9   7   14.54    3.23
   4   9  -6   10.10    2.45
  -4  -9   6    9.59    2.08
  -4  -9   6   11.31    3.05
   4   9  -5   27.73    4.23
  -4  -9   5   23.94    3.34
  -4  -9   5   34.11    5.47
   4   9  -4  125.00    9.18
  -4  -9   4   99.00    6.85
   4   9  -3    1.26    1.00
  -4  -9   3    1.13    0.38
   4   9  -2    2.72    1.20
   4   9  -1  149.21    9.86
   4   9  -1  136.69    8.13
   4   9   0   -0.08    0.87
   4   9   0    0.66    0.62
   4   9   1   24.47    3.79
   4   9   1   24.02    3.41
   4   9   2   62.30    5.81
   4   9   2   62.06    5.18
   4   9   2   67.26    5.53
   4   9   3    7.48    1.75
   4   9   3    4.05    1.31
   4   9   4    0.85    0.59
   4   9   4    0.43    0.24
   4   9   4    1.58    0.84
   4   9   5   84.35    6.64
   4   9   5   79.13    5.10
   4   9   5   77.47    4.90
   4   9   6    1.70    0.62
  -4 -10   9   28.51    3.08
  -4 -10   8   12.28    1.81
  -4 -10   8   12.56    2.27
  -4 -10   7    2.73    0.81
  -4 -10   7    2.61    0.94
   4  10  -6    0.30    0.25
  -4 -10   6    0.55    0.60
   4  10  -5    0.37    0.11
  -4 -10   5    0.69    0.49
   4  10  -4   19.69    3.21
  -4 -10   4   24.75    3.84
   4  10  -3   11.53    2.47
  -4 -10   3   12.67    2.79
   4  10  -2    7.45    1.91
   4  10  -1    0.93    0.77
   4  10   0   11.21    2.39
   4  10   1   87.04    6.16
   4  10   2   12.00    2.04
   4  10   3    5.97    1.72
  -4 -11   5   -0.20    0.37
   4  11  -4    9.99    1.68
  -4 -11   4   10.89    1.80
   4  11  -3   29.18    3.04
  -4 -11   3   29.66    3.02
   4  11  -2    0.39    0.40
   4  11  -1    1.84    0.68
   5 -10  -6    0.05    0.15
   5 -10  -5    3.47    0.97
   5 -10  -4    1.00    0.51
   5 -10  -3   12.99    2.03
   5 -10  -2   31.13    3.07
   5 -10  -1   11.83    1.82
   5 -10   0    4.99    1.08
   5 -10   1   14.38    1.95
   5 -10   2   12.52    1.78
   5 -10   3    1.05    0.56
   5 -10   3    0.68    0.19
   5  -9  -9    1.32    0.54
   5  -9  -8    6.89    1.50
   5  -9  -7    3.14    1.05
   5  -9  -6    3.86    1.28
   5  -9  -5    0.33    0.42
   5  -9  -4    3.68    1.31
  -5   9   3    1.19    0.83
   5  -9  -3    0.75    0.78
  -5   9   2    0.02    0.48
   5  -9  -2    0.12    0.52
   5  -9  -1    5.22    1.36
   5  -9  -1    6.26    1.74
   5  -9   0    8.16    1.81
   5  -9   0    6.63    1.65
   5  -9   1   10.61    2.09
   5  -9   2   24.51    3.16
   5  -9   3    0.67    0.51
   5  -9   3    0.40    0.06
   5  -9   4    1.05    0.64
   5  -9   4    1.25    0.70
   5  -9   4    1.13    0.48
   5  -9   5    7.51    1.53
   5  -9   5    7.81    1.52
   5  -9   5    7.17    1.49
   5  -9   6    4.79    1.11
   5  -9   6    4.32    0.97
  -5   8  10    1.57    0.82
   5  -8 -10    1.18    0.57
   5  -8 -10    0.90    0.44
  -5   8   9    0.97    0.41
   5  -8  -9    1.04    0.51
   5  -8  -9    1.14    0.55
   5  -8  -8    0.15    0.23
   5  -8  -8   -0.06    0.40
   5  -8  -7    5.81    1.46
   5  -8  -7    3.89    1.46
   5  -8  -6   67.70    6.32
  -5   8   5    0.11    0.50
   5  -8  -5    0.47    0.80
  -5   8   4  215.97   13.50
   5  -8  -4  216.45   11.93
  -5   8   3    3.26    1.25
   5  -8  -3    4.23    1.41
   5  -8  -3    3.88    1.71
  -5   8   2    0.50    0.11
   5  -8  -2    0.15    0.46
   5  -8  -2    0.88    0.92
  -5   8   1    0.29    0.59
   5  -8  -1   -0.14    0.40
   5  -8  -1   -0.17    0.43
  -5   8   0    7.99    2.34
   5  -8   0    8.53    2.21
   5  -8   0    9.81    2.35
   5  -8   1    1.11    0.94
   5  -8   1    0.94    0.90
   5  -8   2   82.32    6.62
   5  -8   3    2.38    1.13
   5  -8   3    1.38    0.64
   5  -8   4    2.15    1.08
   5  -8   4    1.45    0.54
   5  -8   5    0.22    0.53
   5  -8   5   -0.26    0.33
   5  -8   5   -0.11    0.34
   5  -8   6   10.36    2.04
   5  -8   6   12.36    2.11
   5  -8   6   13.93    2.48
   5  -8   7   12.10    1.82
   5  -8   7   13.71    2.20
   5  -8   7   12.26    2.02
  -5   7  12    2.46    0.87
   5  -7 -12    2.28    0.74
  -5   7  12    2.60    0.85
  -5   7  11   10.51    2.12
   5  -7 -11   12.81    2.12
  -5   7  10    0.08    0.22
   5  -7 -10    0.10    0.17
   5  -7 -10    0.19    0.47
  -5   7   9    2.00    0.75
   5  -7  -9    3.81    1.44
   5  -7  -9    2.67    1.11
   5  -7  -8    2.76    1.18
   5  -7  -8    3.16    1.29
   5  -7  -7   28.32    3.90
   5  -7  -7   31.29    4.49
  -5   7   6   15.36    3.63
   5  -7  -6   18.31    3.12
   5  -7  -6   16.02    3.51
  -5   7   5  119.45   10.28
   5  -7  -5  130.10    8.28
   5  -7  -5  118.74    9.33
  -5   7   4   45.59    6.31
   5  -7  -4   45.89    5.84
  -5   7   3   68.78    7.97
   5  -7  -3   63.68    6.17
   5  -7  -3   65.77    7.00
  -5   7   2    1.80    0.76
   5  -7  -2    1.84    1.09
   5  -7  -2    2.02    1.14
  -5   7   1    8.25    2.67
   5  -7  -1    7.39    2.25
   5  -7  -1    7.94    2.41
   5  -7   0    0.44    0.39
  -5   7   0    0.90    0.66
   5  -7   0    0.53    0.78
   5  -7   1   25.63    4.01
   5  -7   1   23.82    4.02
   5  -7   2   13.46    2.86
   5  -7   2   12.42    2.91
   5  -7   3    9.94    2.39
   5  -7   3    8.00    2.24
   5  -7   4    0.02    0.19
   5  -7   4    0.87    0.35
   5  -7   5    1.56    0.57
   5  -7   5    2.00    1.09
   5  -7   5    1.54    0.84
   5  -7   6   11.38    2.54
   5  -7   6   12.97    2.46
   5  -7   6   12.70    2.70
   5  -7   7    0.78    0.71
   5  -7   7    1.11    0.71
   5  -7   7    1.00    0.72
   5  -7   8    0.64    0.42
   5  -7   8    0.65    0.58
   5  -7   8    0.31    0.28
   5  -7   9   -0.08    0.37
  -5   6  13    4.51    1.21
  -5   6  13    4.13    1.13
   5  -6 -13    3.96    1.07
  -5   6  12    1.93    0.99
   5  -6 -12    1.77    0.78
  -5   6  11   32.46    4.24
   5  -6 -11   35.21    4.07
  -5   6  10   29.68    4.33
   5  -6 -10   34.17    4.34
   5  -6 -10   28.67    3.84
  -5   6   9   20.74    3.62
   5  -6  -9   25.13    3.88
   5  -6  -9   22.21    3.80
   5  -6  -8  206.96   11.23
   5  -6  -8  190.32   11.41
   5  -6  -7    9.04    2.46
   5  -6  -7    8.63    2.48
  -5   6   6   14.35    3.49
   5  -6  -6   17.12    3.37
   5  -6  -6   14.89    3.29
  -5   6   5  844.65   27.42
   5  -6  -5  905.07   23.40
   5  -6  -5  871.58   25.57
  -5   6   4   46.88    6.40
   5  -6  -4   38.52    5.00
   5  -6  -4   45.39    5.11
   5  -6  -4   44.95    5.88
  -5   6   3  386.87   18.65
   5  -6  -3  372.48   15.49
   5  -6  -3  355.02   16.54
  -5   6   2   20.79    4.22
   5  -6  -2   18.36    3.42
   5  -6  -2   17.39    3.58
  -5   6   1    1.07    0.71
   5  -6  -1    0.94    0.84
   5  -6  -1    0.65    0.51
  -5   6   0    6.58    2.37
   5  -6   0    6.82    2.08
   5  -6   0    4.32    1.67
   5  -6   1   21.53    3.78
   5  -6   1   15.10    3.34
   5  -6   2   15.93    3.13
   5  -6   2   12.16    2.89
   5  -6   3   55.12    5.88
   5  -6   3   58.37    6.54
   5  -6   3   39.95    5.18
   5  -6   4    3.97    1.43
   5  -6   4    4.38    1.79
   5  -6   5    8.64    2.15
   5  -6   5   10.26    2.36
   5  -6   5    7.69    2.23
   5  -6   6    0.19    0.35
   5  -6   6    0.98    0.73
   5  -6   6    0.11    0.74
   5  -6   7    7.15    2.13
   5  -6   7    7.74    1.87
   5  -6   7    7.73    2.27
   5  -6   8    8.79    2.21
   5  -6   8    8.59    2.00
   5  -6   9   16.86    2.79
   5  -6   9   14.28    2.22
  -5   5  14    7.49    1.48
   5  -5 -14    7.60    1.41
  -5   5  13    6.87    1.72
   5  -5 -13    7.91    1.76
  -5   5  13    5.50    1.45
  -5   5  12    6.38    1.76
   5  -5 -12    5.81    1.53
  -5   5  11   54.18    5.98
   5  -5 -11   58.20    5.77
  -5   5  10  300.64   14.73
   5  -5 -10  330.84   14.34
  -5   5   9  140.96    9.98
   5  -5  -9  152.50   10.03
   5  -5  -9  132.47    9.17
   5  -5  -8   13.89    3.03
   5  -5  -8   10.94    2.74
   5  -5  -7  132.56    9.34
   5  -5  -7  122.47    9.28
   5  -5  -6  159.83   10.25
   5  -5  -6  159.03   10.69
  -5   5   5  517.36   20.78
   5  -5  -5  505.55   17.81
   5  -5  -5  491.16   18.84
  -5   5   4   56.75    6.85
   5  -5  -4   46.77    5.53
   5  -5  -4   51.73    5.60
   5  -5  -4   50.29    6.01
  -5   5   3  259.82   14.48
   5  -5  -3  225.68   12.04
   5  -5  -3  240.46   13.17
  -5   5   2   67.06    7.42
   5  -5  -2   58.93    6.00
   5  -5  -2   59.10    6.57
  -5   5   1   24.35    4.41
   5  -5  -1   22.38    3.72
   5  -5  -1   22.72    4.04
   5  -5   0  115.21    8.39
   5  -5   0  108.72    9.00
   5  -5   1    5.78    1.86
   5  -5   1    5.29    2.00
   5  -5   2   16.03    3.01
   5  -5   2   14.89    3.21
   5  -5   3  147.92    9.59
   5  -5   3  169.42   11.18
   5  -5   4   15.64    3.07
   5  -5   4   19.16    3.80
   5  -5   4   10.47    2.62
   5  -5   4   24.19    3.84
   5  -5   5  118.92    8.44
   5  -5   5  142.64   10.69
   5  -5   5  131.07    9.76
   5  -5   6   46.05    4.96
   5  -5   6   55.97    6.54
   5  -5   6   55.30    6.19
   5  -5   7   56.50    6.56
   5  -5   7   52.35    5.92
   5  -5   8    1.12    0.88
   5  -5   8    1.58    1.04
   5  -5   9   28.10    3.98
   5  -5   9   19.30    2.90
   5  -5  10   11.73    1.86
  -5   4  14   26.69    3.32
   5  -4 -14   24.83    2.92
  -5   4  14   22.06    3.01
  -5   4  13    2.32    1.14
   5  -4 -13    2.50    0.86
  -5   4  13    1.82    0.79
  -5   4  12   47.78    5.63
   5  -4 -12   49.65    5.20
  -5   4  11  144.02   10.19
   5  -4 -11  158.62    9.97
  -5   4  10  120.89    9.49
   5  -4 -10  123.05    9.10
  -5   4   9    0.22    0.45
   5  -4  -9   -0.36    0.56
   5  -4  -8  172.64   10.67
   5  -4  -7   23.42    3.85
   5  -4  -7   21.53    3.77
   5  -4  -6    5.55    1.69
   5  -4  -6    5.69    1.99
   5  -4  -5    9.76    1.90
   5  -4  -5    6.06    1.45
  -5   4   5    6.51    1.81
   5  -4  -4   35.48    3.66
   5  -4  -4   23.66    3.37
  -5   4   4   33.12    4.68
  -5   4   4   29.66    4.28
  -5   4   3    3.71    1.52
  -5   4   3   12.75    3.06
  -5   4   2   49.68    5.52
  -5   4   2   49.09    5.43
  -5   4   1  197.08   10.88
  -5   4   1  184.52   10.50
  -5   4   0   85.06    7.14
  -5   4   0   77.61    6.96
  -5   4  -1   40.80    5.00
  -5   4  -1   38.88    5.07
   5  -4   2   -0.15    0.27
   5  -4   2    0.41    0.64
   5  -4   3    9.85    2.39
   5  -4   3    9.86    2.64
   5  -4   4    1.11    0.56
   5  -4   4    0.03    0.65
   5  -4   4    0.61    0.73
   5  -4   4    1.78    1.00
   5  -4   4    0.12    0.52
   5  -4   5  355.19   14.36
   5  -4   5  438.97   18.65
   5  -4   5  342.49   15.42
   5  -4   5  347.85   15.57
   5  -4   5  411.95   17.26
   5  -4   6  106.40    9.24
   5  -4   6  101.58    8.35
   5  -4   6  106.24    8.81
   5  -4   7   87.42    8.28
   5  -4   7   79.28    6.87
   5  -4   7   82.27    7.61
   5  -4   8    5.28    2.05
   5  -4   8    6.66    1.80
   5  -4   8    5.57    2.01
   5  -4   9   25.99    4.18
   5  -4   9   18.57    3.09
   5  -4  10   73.39    5.37
  -5   3  15   18.05    2.54
  -5   3  14   38.42    4.31
   5  -3 -14   35.57    3.66
  -5   3  14   30.53    3.91
  -5   3  13    0.20    0.16
   5  -3 -13    0.28    0.11
  -5   3  13    0.21    0.53
  -5   3  12    0.27    0.18
   5  -3 -12   -0.21    0.82
  -5   3  12   -0.29    0.91
  -5   3  11   19.48    3.75
   5  -3 -11   18.29    3.43
  -5   3  10    1.06    1.48
   5  -3 -10    0.72    0.44
   5  -3  -9  182.43   11.08
   5  -3  -8    8.07    2.32
   5  -3  -7   23.82    3.86
   5  -3  -7   33.45    4.82
  -5   3   6   55.62    6.15
   5  -3  -6   46.55    5.05
  -5   3   6   48.39    5.17
   5  -3  -6   51.01    4.50
  -5   3   5   25.56    4.07
   5  -3  -5   21.59    3.28
  -5   3   5   21.70    3.42
   5  -3  -5   21.57    2.54
   5  -3  -4   31.57    3.92
  -5   3   4   37.74    4.66
  -5   3   4   36.20    4.31
   5  -3  -4   38.59    3.58
   5  -3  -3  172.99    8.77
  -5   3   3  198.70   10.65
  -5   3   3  192.24   10.19
  -5   3   2  108.04    7.55
  -5   3   2  111.17    7.69
  -5   3   1    6.80    1.88
  -5   3   1    6.36    1.92
  -5   3   0  393.83   14.12
  -5   3   0  400.76   14.66
  -5   3  -1   51.01    5.15
  -5   3  -1   46.38    5.16
  -5   3  -2   86.88    6.85
  -5   3  -2   82.84    7.00
   5  -3   3    0.86    0.52
   5  -3   3    2.75    1.18
   5  -3   4   93.83    8.07
   5  -3   4   92.48    8.15
   5  -3   4   68.02    6.98
   5  -3   4   84.27    7.42
   5  -3   5    5.86    1.82
   5  -3   5    7.75    2.34
   5  -3   5   10.86    2.11
   5  -3   5    6.29    1.93
   5  -3   5    4.16    1.50
   5  -3   6  515.05   19.07
   5  -3   6  537.41   19.92
   5  -3   7    0.70    0.81
   5  -3   7    2.37    1.33
   5  -3   7    0.95    0.83
   5  -3   7    0.29    0.52
   5  -3   8   47.96    6.11
   5  -3   8   51.65    4.42
   5  -3   8   32.77    4.49
   5  -3   8   43.80    5.34
   5  -3   9    0.37    0.36
   5  -3   9    0.03    0.60
   5  -3  10   91.08    5.68
   5  -3  10   93.15    6.44
   5  -3  11   16.38    2.19
  -5   2  15    2.60    0.95
  -5   2  15    1.14    0.46
  -5   2  14   50.47    5.23
  -5   2  14   46.43    5.01
  -5   2  13    3.80    1.43
   5  -2 -13    3.54    1.30
  -5   2  13    4.76    1.73
  -5   2  12   31.03    4.53
   5  -2 -12   27.95    3.99
  -5   2  12   25.30    4.21
  -5   2  11   18.20    3.45
   5  -2 -11   18.55    3.40
  -5   2  10   12.18    2.93
   5  -2 -10   12.50    2.68
   5  -2  -9    9.61    2.54
   5  -2  -8   89.24    7.31
   5  -2  -7    1.07    1.05
  -5   2   7    4.53    1.94
  -5   2   7    3.89    1.42
   5  -2  -7    3.12    1.23
   5  -2  -7    6.57    1.68
  -5   2   7    2.07    0.22
   5  -2  -6    1.89    0.76
  -5   2   6    2.05    0.65
  -5   2   6    5.82    1.95
   5  -2  -6    2.29    1.06
   5  -2  -6    3.79    1.27
  -5   2   6    5.30    2.02
   5  -2  -5    2.56    1.66
  -5   2   5    0.77    0.10
   5  -2  -5    0.72    0.81
   5  -2  -5    2.08    1.01
  -5   2   5    2.69    1.33
   5  -2  -4  592.68   16.11
   5  -2  -4  602.90   13.43
   5  -2  -3  174.34    8.65
  -5   2   3  187.18    9.59
  -5   2   3  177.30    9.05
  -5   2   3  183.78    8.95
   5  -2  -2   29.04    3.50
  -5   2   2   30.95    3.80
  -5   2   2   29.94    3.87
  -5   2   2   30.77    3.81
  -5   2   1  477.38   14.44
  -5   2   1  495.57   15.23
  -5   2   0  492.28   14.68
  -5   2   0  499.32   15.48
  -5   2  -1  404.20   13.08
  -5   2  -1  404.95   14.02
  -5   2  -2  124.60    7.95
   5  -2   3   63.15    5.83
  -5   2  -3   67.94    6.14
   5  -2   4   25.42    3.84
   5  -2   4   28.02    4.31
   5  -2   4   35.55    3.67
   5  -2   4   33.35    4.78
   5  -2   4   27.78    4.34
   5  -2   5    3.30    1.45
   5  -2   5    5.97    1.71
   5  -2   5    4.41    1.84
   5  -2   5    4.42    1.80
   5  -2   5    4.95    1.81
   5  -2   6  823.11   25.54
   5  -2   6  870.33   18.58
   5  -2   6  783.68   24.34
   5  -2   6  730.61   21.66
   5  -2   6  669.10   23.32
   5  -2   6  749.92   22.96
   5  -2   7    2.02    1.50
   5  -2   7    2.16    1.34
   5  -2   7    3.52    1.66
   5  -2   7    1.61    1.45
   5  -2   8  188.55   12.48
   5  -2   8  171.53    8.28
   5  -2   8  162.99   10.39
   5  -2   9    3.13    1.21
   5  -2   9    1.99    0.95
   5  -2   9    1.41    0.77
   5  -2  10   23.12    3.20
   5  -2  10   36.09    4.16
   5  -2  11   61.27    4.27
   5  -2  11   82.14    5.16
  -5   1  16   16.99    2.23
  -5   1  15   29.70    3.58
  -5   1  15   25.88    3.29
  -5   1  14  110.40    7.78
  -5   1  14  104.37    7.77
  -5   1  13   62.99    6.21
  -5   1  13   64.63    6.67
  -5   1  12   -0.37    0.89
  -5   1  12    0.56    0.62
  -5   1  11    3.54    1.09
   5  -1 -11    2.87    1.14
  -5   1  11    2.23    0.80
  -5   1  10   15.70    2.97
   5  -1 -10   14.59    2.86
  -5   1  10   14.93    3.06
   5  -1  -9    4.28    1.55
  -5   1   8  103.10    8.36
   5  -1  -8   97.11    7.42
  -5   1   8  105.94    8.48
   5  -1  -8  100.96    7.12
   5  -1  -8   98.00    7.38
   5  -1  -7   21.27    3.33
  -5   1   7   26.03    4.11
   5  -1  -7   22.85    3.51
  -5   1   7   23.72    3.89
   5  -1  -7   19.27    2.99
   5  -1  -6   20.49    2.88
  -5   1   6   28.26    4.04
   5  -1  -6   21.10    3.17
  -5   1   6   23.92    3.63
   5  -1  -6   22.27    3.19
  -5   1   6   26.75    3.65
  -5   1   5   17.92    2.81
   5  -1  -5   23.82    3.38
  -5   1   5   20.26    3.24
   5  -1  -5   20.30    2.73
  -5   1   5   17.93    2.80
   5  -1  -5   21.95    3.03
  -5   1   4   25.66    3.27
   5  -1  -4   29.26    3.62
   5  -1  -4   26.26    2.91
  -5   1   4   28.60    3.57
  -5   1   4   30.75    3.53
   5  -1  -4   28.82    2.95
  -5   1   3   20.59    2.97
   5  -1  -3   24.98    3.32
  -5   1   3   22.32    3.08
  -5   1   3   24.74    3.13
  -5   1   2    6.69    1.34
  -5   1   2    6.92    1.77
  -5   1   2    7.78    1.71
  -5   1   1   14.20    2.39
  -5   1   1   13.40    1.98
  -5   1   1   18.28    2.66
  -5   1   0  190.12    8.45
  -5   1   0  185.64    8.89
  -5   1   0  196.93    9.76
  -5   1  -1  350.46   12.24
  -5   1  -1  353.80   13.69
  -5   1  -2  251.75   10.68
  -5   1  -2  264.71   12.32
  -5   1  -3  298.46   11.81
  -5   1  -3  322.46   14.09
   5  -1   4   10.46    2.06
   5  -1   4   12.29    2.94
   5  -1   4   11.23    2.91
   5  -1   4   10.39    2.52
   5  -1   5  580.65   20.54
   5  -1   5  575.46   15.17
   5  -1   5  591.63   21.01
   5  -1   5  497.07   17.73
   5  -1   5  605.90   21.58
   5  -1   5  506.80   18.11
   5  -1   6  170.88   11.66
   5  -1   6  160.80    8.16
   5  -1   6  171.46   11.49
   5  -1   6  146.05    9.62
   5  -1   6  162.17   11.40
   5  -1   6  141.21    9.83
   5  -1   7   73.81    5.56
   5  -1   7   72.68    7.48
   5  -1   7   68.81    6.95
   5  -1   8  134.48    7.37
   5  -1   8  119.78    9.35
   5  -1   8  123.57    8.91
   5  -1   9    2.27    1.06
   5  -1   9    1.84    1.06
   5  -1   9    1.32    0.89
   5  -1  10   45.43    4.75
   5  -1  10   57.35    5.25
   5  -1  11   82.09    5.49
   5  -1  11  124.91    6.59
  -5   0  16    1.75    0.54
  -5   0  15    0.98    0.82
  -5   0  15    0.17    0.34
  -5   0  14   96.92    7.16
  -5   0  14   89.32    7.15
  -5   0  13    8.49    2.14
  -5   0  13    8.32    2.30
  -5   0  12   25.79    3.78
  -5   0  12    6.24    2.18
  -5   0  11   84.90    7.25
  -5   0  11   81.48    7.46
  -5   0  10   -0.28    0.97
  -5   0  10   -0.82    1.33
  -5   0   9    3.15    1.24
  -5   0   8   86.48    7.18
   5   0  -8   77.05    6.45
  -5   0   8   90.29    7.49
   5   0  -8   84.27    7.02
   5   0  -8   79.11    6.49
   5   0  -7   18.75    3.12
  -5   0   7   14.30    2.61
  -5   0   7   18.27    3.28
   5   0  -7   14.63    2.70
   5   0  -7   14.87    2.79
  -5   0   6  329.45   12.71
   5   0  -6  327.56   12.54
  -5   0   6  347.17   13.68
   5   0  -6  297.92   11.73
   5   0  -6  328.02   11.78
  -5   0   5  574.53   15.95
   5   0  -5  601.06   16.50
  -5   0   5  598.49   17.12
  -5   0   5  616.80   16.55
   5   0  -5  597.41   15.18
  -5   0   4    8.05    1.45
   5   0  -4    8.39    1.38
  -5   0   4    9.33    2.03
  -5   0   4    8.86    1.85
   5   0  -4   11.36    2.36
   5   0  -4   13.04    2.58
  -5   0   4    9.70    1.95
  -5   0   3 1500.05   22.63
  -5   0   3 1447.05   23.89
  -5   0   3 1597.06   25.35
  -5   0   3 1539.23   24.03
   5   0  -3 1610.91   22.34
  -5   0   2    7.50    1.77
  -5   0   2    9.45    1.89
  -5   0   2    7.14    1.49
  -5   0   1  272.99    9.90
  -5   0   1  284.42   10.86
  -5   0   0  417.50   12.23
  -5   0   0  447.85   13.96
  -5   0  -1  140.61    7.43
  -5   0  -1  147.85    8.51
  -5   0  -2    6.08    1.85
  -5   0  -2   12.23    2.72
  -5   0  -3  631.45   18.47
   5   0   4   79.70    5.62
   5   0   4   77.11    7.30
   5   0   4   62.46    6.07
   5   0   4   78.07    7.35
   5   0   4   66.01    6.03
   5   0   5  226.77    9.55
   5   0   5  186.59   11.37
   5   0   5  234.59   13.23
   5   0   5  198.86   11.25
   5   0   5  235.62   13.35
   5   0   5  190.21   10.77
   5   0   6   82.42    5.88
   5   0   6   61.33    6.54
   5   0   6   80.48    7.11
   5   0   6   92.38    8.23
   5   0   6   73.68    6.95
   5   0   7   66.47    5.27
   5   0   7   62.95    6.18
   5   0   7   71.56    7.35
   5   0   7   59.79    6.36
   5   0   8   -0.48    0.86
   5   0   8   -0.43    0.91
   5   0   9   11.02    2.69
   5   0   9   14.44    2.94
   5   0  10   68.64    5.91
   5   0  10   78.31    6.01
   5   0  11   19.10    2.67
   5   0  11   23.27    2.78
  -5  -1  16    0.04    0.24
  -5  -1  15    3.98    1.15
  -5  -1  15    3.37    1.17
  -5  -1  14    1.86    1.09
  -5  -1  14    1.99    0.73
  -5  -1  13   55.43    5.52
  -5  -1  13   56.31    5.94
  -5  -1  12   23.38    3.73
  -5  -1  12   23.26    4.00
  -5  -1  11  347.59   14.59
  -5  -1  11  348.69   15.30
  -5  -1  10   85.63    6.95
  -5  -1  10   87.67    7.51
  -5  -1   9  149.33    9.40
   5   1  -8    5.01    1.50
  -5  -1   8    6.55    2.37
  -5  -1   8    5.35    1.73
   5   1  -8    3.50    1.50
   5   1  -8    3.60    1.23
   5   1  -7    8.57    2.00
  -5  -1   7    9.94    2.54
  -5  -1   7    6.40    1.73
   5   1  -7    9.22    2.23
   5   1  -7    6.34    1.97
  -5  -1   6  176.56    8.66
  -5  -1   6  180.71    9.38
   5   1  -6  190.88    9.13
  -5  -1   5  234.51    9.44
  -5  -1   5  236.71   10.30
  -5  -1   5  266.35    9.13
   5   1  -5  258.50    9.99
  -5  -1   4   65.30    4.74
  -5  -1   4   65.59    5.17
  -5  -1   4   69.12    4.81
  -5  -1   4   67.60    5.15
   5   1  -4   68.28    4.91
  -5  -1   3 1005.66   18.88
  -5  -1   3 1022.78   19.29
   5   1  -3 1048.10   18.77
  -5  -1   2   51.36    4.25
  -5  -1   2   51.52    4.34
  -5  -1   1   31.03    3.19
  -5  -1   1   31.03    3.48
  -5  -1   0   22.57    2.66
  -5  -1   0   25.66    3.26
  -5  -1  -1   52.67    4.72
  -5  -1  -2  317.20   12.16
  -5  -1  -3   25.03    3.27
   5   1   4    4.54    1.66
   5   1   4    3.97    1.45
   5   1   4    4.35    1.50
   5   1   4    4.93    1.77
   5   1   4    3.83    1.33
   5   1   5   54.84    6.40
   5   1   5   56.57    6.10
   5   1   5   56.64    5.98
   5   1   5   61.31    6.63
   5   1   5   53.31    5.52
   5   1   6   14.63    2.54
   5   1   6   16.89    3.37
   5   1   6   17.31    3.41
   5   1   6   19.76    3.61
   5   1   6   14.03    3.14
   5   1   6   16.95    3.20
   5   1   7   87.67    7.30
   5   1   7   94.28    8.22
   5   1   7   66.69    6.94
   5   1   7   89.04    7.53
   5   1   8   25.53    4.24
   5   1   8   15.90    3.23
   5   1   8   23.85    3.87
   5   1   9  207.33   11.21
   5   1   9  216.90   10.74
   5   1  10   21.85    3.19
   5   1  10   26.25    3.37
   5   1  11   70.02    5.02
   5   1  11   87.67    5.30
  -5  -2  16   14.32    1.93
  -5  -2  15   25.62    3.06
  -5  -2  15   24.96    3.21
  -5  -2  14   55.67    4.99
  -5  -2  14   57.96    5.53
  -5  -2  13   23.58    3.56
  -5  -2  13   25.30    3.82
  -5  -2  12   63.97    5.95
  -5  -2  12   55.72    6.02
  -5  -2  11   83.70    6.85
  -5  -2  11   86.44    7.48
  -5  -2  10  271.30   12.27
  -5  -2  10  259.74   12.84
  -5  -2   9    0.31    0.65
  -5  -2   9    0.66    0.29
  -5  -2   8    0.21    1.24
  -5  -2   7  180.86    9.06
  -5  -2   7  196.43    9.84
   5   2  -7  179.09    9.02
  -5  -2   6   23.15    2.87
  -5  -2   6   19.00    2.98
   5   2  -6   25.40    3.36
   5   2  -5    8.27    1.69
  -5  -2   5   13.12    2.55
  -5  -2   5   12.26    2.07
   5   2  -4    2.52    0.87
  -5  -2   4    4.40    1.70
  -5  -2   4    1.97    0.92
  -5  -2   3   75.40    5.13
  -5  -2   3   76.64    5.10
   5   2  -3   79.73    5.47
  -5  -2   2  863.49   17.34
  -5  -2   2  845.10   16.78
   5   2  -1   37.20    3.76
   5   2  -1   36.87    3.89
  -5  -2   1   36.57    3.62
  -5  -2   1   36.32    3.53
   5   2   0   16.78    2.73
   5   2   0   12.89    2.43
  -5  -2   0   11.15    1.99
   5   2   1   28.91    4.20
  -5  -2  -1   22.91    3.06
   5   2   2  147.87   10.03
  -5  -2  -2  128.73    7.43
   5   2   3    7.10    2.02
   5   2   3    5.53    1.79
   5   2   4   27.38    4.37
   5   2   4   22.56    3.84
   5   2   4   19.30    3.43
   5   2   4   22.71    3.70
   5   2   4   20.73    3.35
   5   2   5  116.93    9.37
   5   2   5  116.97    9.01
   5   2   5  114.35    8.69
   5   2   5  120.72    8.92
   5   2   5  116.63    9.55
   5   2   5  114.71    8.17
   5   2   6   24.00    4.05
   5   2   6   25.48    4.14
   5   2   6   31.42    4.53
   5   2   6   26.70    4.48
   5   2   6   24.82    3.92
   5   2   7  246.58   12.89
   5   2   7  263.99   12.63
   5   2   7  272.61   13.49
   5   2   7  253.99   13.96
   5   2   7  271.25   12.75
   5   2   8    7.04    2.13
   5   2   8    4.65    1.71
   5   2   8    6.22    1.85
   5   2   9    0.38    0.28
   5   2   9    0.38    0.27
   5   2   9    1.15    0.81
   5   2  10    2.20    0.80
   5   2  10    1.24    0.78
   5   2  11  134.14    6.43
  -5  -3  15   12.91    2.03
  -5  -3  15   12.66    2.17
  -5  -3  14   74.94    5.61
  -5  -3  14   77.50    6.12
  -5  -3  13    9.53    2.09
  -5  -3  13    9.94    2.32
  -5  -3  12   54.31    5.28
  -5  -3  12   58.80    6.05
  -5  -3  11   39.56    4.57
  -5  -3  11   40.50    4.98
  -5  -3  10  779.97   20.36
  -5  -3  10  764.75   22.01
  -5  -3   9   12.27    2.44
  -5  -3   9   11.49    2.61
  -5  -3   9    8.55    2.10
  -5  -3   8  119.66    8.37
  -5  -3   8  115.35    8.11
  -5  -3   7   58.91    5.54
  -5  -3   6   74.30    5.76
   5   3  -6   83.92    6.08
   5   3  -5    3.99    1.14
  -5  -3   5    3.18    0.78
  -5  -3   5    3.72    1.06
   5   3  -4  434.64   13.95
  -5  -3   4  464.03   13.03
   5   3  -3  138.05    7.82
  -5  -3   3  134.01    6.93
   5   3  -2  340.54   12.10
  -5  -3   2  326.57   10.82
   5   3  -1   87.52    6.25
   5   3  -1   68.27    6.28
  -5  -3   1   82.76    5.40
   5   3   0   74.11    6.82
  -5  -3   0   75.20    5.25
   5   3   1   12.48    3.15
  -5  -3  -1    9.39    1.93
   5   3   2   23.81    3.77
   5   3   2   23.79    4.54
   5   3   2   25.33    3.77
   5   3   3  401.49   16.55
   5   3   3  387.61   15.86
   5   3   3  381.14   15.24
   5   3   3  382.97   14.00
   5   3   4   18.65    3.62
   5   3   4   18.21    3.48
   5   3   4   15.91    3.12
   5   3   4   17.67    3.07
   5   3   4   15.57    3.37
   5   3   4   17.01    2.98
   5   3   5   38.32    5.25
   5   3   5   39.43    4.98
   5   3   5   38.07    4.74
   5   3   5   39.76    5.62
   5   3   5   40.96    4.88
   5   3   6   13.85    3.20
   5   3   6   12.65    2.75
   5   3   6   13.05    2.81
   5   3   6   14.00    3.18
   5   3   6   11.34    2.66
   5   3   7   60.10    6.30
   5   3   7   54.61    5.67
   5   3   7   54.09    5.56
   5   3   7   60.10    6.74
   5   3   7   64.46    6.02
   5   3   8   45.07    5.02
   5   3   8   45.54    4.71
   5   3   8   47.18    5.04
   5   3   8   44.41    5.44
   5   3   8   54.65    5.43
   5   3   9   57.49    5.15
   5   3   9   56.15    5.49
   5   3   9   71.32    5.74
   5   3  10    0.77    0.59
   5   3  10    0.52    0.49
  -5  -4  15   18.10    2.18
  -5  -4  15   17.14    2.35
  -5  -4  14    9.89    1.88
  -5  -4  14   11.08    2.17
  -5  -4  13  109.25    6.81
  -5  -4  13  111.74    7.73
  -5  -4  12    1.08    0.73
  -5  -4  12    2.30    1.31
  -5  -4  11    3.25    1.27
  -5  -4  11    1.50    0.75
  -5  -4  10  302.38   12.38
  -5  -4  10  309.14   13.91
  -5  -4   9   46.04    4.82
  -5  -4   9   45.28    5.21
  -5  -4   8   14.74    3.05
  -5  -4   8   14.12    2.83
  -5  -4   7    0.86    0.85
  -5  -4   7    2.40    0.92
  -5  -4   6  637.37   18.62
  -5  -4   6  649.04   18.71
  -5  -4   5  227.90   10.78
   5   4  -4    6.54    1.84
  -5  -4   4    6.94    1.75
   5   4  -3    1.01    0.42
  -5  -4   3    1.78    1.06
   5   4  -2   41.20    4.61
  -5  -4   2   40.22    3.94
   5   4  -1    3.09    0.96
   5   4  -1    1.73    0.53
   5   4   0  158.78    9.11
   5   4   0   87.88    7.95
   5   4   1  143.48    9.25
   5   4   1  139.08    9.08
   5   4   1  150.79    9.19
   5   4   2  231.79   12.19
   5   4   2  235.85   12.16
   5   4   2  243.61   12.24
   5   4   2  257.81   11.60
   5   4   3  117.46    9.02
   5   4   3  111.69    8.72
   5   4   3  114.56    8.48
   5   4   3  121.63    9.31
   5   4   3  122.62    8.27
   5   4   4   58.97    6.49
   5   4   4   58.03    6.10
   5   4   4   59.55    6.70
   5   4   4   58.98    5.86
   5   4   5    3.15    1.53
   5   4   5    3.51    1.47
   5   4   5    3.84    1.68
   5   4   5    2.97    1.44
   5   4   6    7.23    2.04
   5   4   6    9.44    2.30
   5   4   6    6.28    1.67
   5   4   6   10.93    3.00
   5   4   6    7.56    2.09
   5   4   7    4.42    1.37
   5   4   7    3.79    1.40
   5   4   7    4.36    1.34
   5   4   7    4.45    1.87
   5   4   7    5.19    1.73
   5   4   8  167.00    9.39
   5   4   8  159.92    8.42
   5   4   8  148.54    7.93
   5   4   8  174.27   10.27
   5   4   9   58.32    4.53
   5   4   9   64.10    5.47
   5   4  10    1.02    0.51
  -5  -5  14  110.31    5.62
  -5  -5  14  116.16    6.44
  -5  -5  13  131.21    6.85
  -5  -5  13  140.99    8.04
  -5  -5  12   33.57    3.69
  -5  -5  12   37.44    4.46
  -5  -5  11   15.03    2.63
  -5  -5  11   20.13    3.39
  -5  -5  10    3.61    1.33
  -5  -5  10    2.99    1.44
  -5  -5   9   26.07    3.49
  -5  -5   9   28.07    4.20
   5   5  -8  549.98   19.06
  -5  -5   8  490.25   17.27
   5   5  -7   12.20    2.90
  -5  -5   7   10.30    2.42
  -5  -5   7   11.44    2.69
   5   5  -6  622.00   20.07
  -5  -5   6  591.89   18.61
  -5  -5   6  557.40   17.67
   5   5  -5  134.20    9.29
  -5  -5   5  140.80    8.79
  -5  -5   5  120.44    7.96
   5   5  -4   11.51    2.73
  -5  -5   4   11.50    2.38
   5   5  -3    0.80    0.58
  -5  -5   3    1.12    0.34
   5   5  -2    2.52    1.20
  -5  -5   2    2.75    1.07
   5   5  -1  211.55   11.56
   5   5  -1  198.40   10.60
   5   5  -1  231.17   11.28
   5   5   0  454.79   16.92
   5   5   0  454.69   15.95
   5   5   0  452.35   16.40
   5   5   0  483.16   16.79
   5   5   1   92.61    7.61
   5   5   1   93.79    7.51
   5   5   1   97.96    7.80
   5   5   1  102.56    7.91
   5   5   2  423.56   16.76
   5   5   2  445.97   16.66
   5   5   2  415.12   16.75
   5   5   3    0.80    0.97
   5   5   3    0.22    0.43
   5   5   3    0.81    0.69
   5   5   4   61.30    6.60
   5   5   4   67.56    6.64
   5   5   4   62.11    6.73
   5   5   5   27.68    4.38
   5   5   5   29.43    4.13
   5   5   5   30.13    4.62
   5   5   6   30.42    4.42
   5   5   6   29.47    4.09
   5   5   6   32.38    4.72
   5   5   7   25.39    3.79
   5   5   7   22.65    3.30
   5   5   7   26.58    3.97
   5   5   8   12.27    2.34
   5   5   8   12.40    2.07
   5   5   8   14.37    2.70
   5   5   9   75.06    5.24
  -5  -6  14   68.22    4.19
  -5  -6  13    9.20    1.62
  -5  -6  13   11.19    2.05
  -5  -6  12   13.51    2.11
  -5  -6  12   13.75    2.54
  -5  -6  11   70.73    5.31
  -5  -6  11   74.48    6.17
  -5  -6  10   13.48    2.44
  -5  -6  10   16.31    3.06
  -5  -6   9   84.32    6.25
  -5  -6   9   84.37    7.06
  -5  -6   9   79.39    8.43
  -5  -6   8   16.80    2.77
   5   6  -8   18.47    3.44
  -5  -6   8   17.52    3.20
  -5  -6   8   16.26    4.07
   5   6  -7    0.04    0.19
  -5  -6   7    0.30    0.59
   5   6  -6   10.39    2.63
  -5  -6   6   13.52    3.16
   5   6  -5  199.00   11.70
  -5  -6   5  189.18   10.47
   5   6  -4  161.32   10.50
  -5  -6   4  133.17    8.12
   5   6  -3   10.94    2.78
  -5  -6   3    6.54    1.63
   5   6  -2   30.66    4.66
  -5  -6   2   24.79    3.24
   5   6  -1  106.25    8.51
   5   6  -1  106.33    7.72
   5   6  -1  109.45    7.97
   5   6   0   92.91    7.94
   5   6   0   79.22    6.89
   5   6   0   84.57    7.05
   5   6   0   75.82    6.44
   5   6   1  107.31    8.43
   5   6   1  105.73    8.14
   5   6   1  103.16    7.95
   5   6   1   94.51    7.57
   5   6   2   24.99    4.12
   5   6   2   24.84    4.06
   5   6   2   24.64    3.90
   5   6   3   10.66    2.80
   5   6   3   11.34    2.67
   5   6   3   10.30    2.54
   5   6   4  100.89    8.05
   5   6   4   94.27    7.44
   5   6   4  100.69    7.99
   5   6   5    8.34    2.10
   5   6   5    7.86    1.90
   5   6   5    7.73    1.99
   5   6   6   19.18    3.22
   5   6   6   18.10    2.94
   5   6   6   18.51    3.15
   5   6   7   53.16    4.96
   5   6   7   51.51    4.44
   5   6   7   53.03    4.95
   5   6   8    5.58    1.48
   5   6   8    5.05    1.13
   5   6   8    4.80    1.28
  -5  -7  13   17.61    2.15
  -5  -7  12   23.85    2.90
  -5  -7  11    1.12    0.36
  -5  -7  10  234.56   10.59
  -5  -7  10  195.97   11.52
  -5  -7   9  198.25   10.11
  -5  -7   9  200.49   12.74
   5   7  -8    4.20    1.40
  -5  -7   8    2.50    1.16
  -5  -7   8    1.54    0.96
   5   7  -7   81.65    7.39
  -5  -7   7   77.07    6.54
  -5  -7   7   92.63    9.73
   5   7  -6   43.95    5.49
  -5  -7   6   42.94    4.85
   5   7  -5  214.99   12.28
  -5  -7   5  205.98   10.78
   5   7  -4  174.84   11.09
   5   7  -3   14.63    3.37
   5   7  -2   22.92    4.08
   5   7  -1   17.19    3.39
   5   7  -1   20.14    3.27
   5   7   0   21.26    3.70
   5   7   0   24.06    3.59
   5   7   0   24.05    3.67
   5   7   1    1.77    1.11
   5   7   1    1.84    0.97
   5   7   1    2.29    1.25
   5   7   2    1.02    0.79
   5   7   2    1.01    0.98
   5   7   2    1.25    0.75
   5   7   3    0.37    0.64
   5   7   3   -0.03    0.29
   5   7   3    0.08    0.54
   5   7   4    4.24    1.43
   5   7   4    4.57    1.41
   5   7   4    4.49    1.45
   5   7   5   24.54    3.52
   5   7   5   24.04    3.23
   5   7   5   23.03    3.25
   5   7   6  130.92    7.40
   5   7   6  127.61    6.84
   5   7   6  127.28    7.04
   5   7   7   24.28    2.85
   5   7   7   21.61    2.39
   5   7   7   23.37    2.63
  -5  -8  12    5.25    1.04
  -5  -8  12    6.15    1.15
  -5  -8  11    3.82    1.10
  -5  -8  11    3.04    1.13
  -5  -8  10   42.16    3.92
  -5  -8  10   38.38    4.38
  -5  -8   9   36.83    3.85
  -5  -8   9   33.98    4.68
   5   8  -8   55.05    5.39
  -5  -8   8   50.09    4.72
  -5  -8   8   53.91    6.26
   5   8  -7   58.49    5.89
  -5  -8   7   52.92    5.00
  -5  -8   7   69.44    7.55
   5   8  -6   57.54    6.02
  -5  -8   6   47.89    4.81
   5   8  -5  280.17   13.54
  -5  -8   5  243.43   10.88
   5   8  -4   40.57    5.27
   5   8  -3   46.31    5.60
   5   8  -2  507.55   18.15
   5   8  -1  152.13    9.92
   5   8  -1  169.70    9.17
   5   8   0  167.99   10.20
   5   8   0  170.95    9.28
   5   8   1   20.05    3.41
   5   8   1   17.98    2.93
   5   8   1   21.32    3.23
   5   8   2   16.60    2.75
   5   8   2   16.05    2.73
   5   8   3   17.10    2.68
   5   8   3   20.05    2.89
   5   8   4    8.20    1.73
   5   8   4    9.14    1.85
   5   8   4    6.86    1.46
   5   8   5   79.06    5.22
   5   8   5   72.02    4.78
   5   8   5   66.75    4.17
   5   8   6  105.94    5.28
   5   8   6  100.25    4.83
  -5  -9  10    1.50    0.54
  -5  -9   9   34.27    3.08
  -5  -9   9   37.04    3.92
  -5  -9   8   62.80    4.49
  -5  -9   8   68.40    5.95
   5   9  -7   68.01    5.53
  -5  -9   7   53.13    4.26
  -5  -9   7   69.93    6.42
   5   9  -6   38.06    4.41
  -5  -9   6   27.57    3.13
  -5  -9   6   39.61    5.11
   5   9  -5    7.31    1.93
  -5  -9   5    6.07    1.46
  -5  -9   5   10.39    2.76
   5   9  -4   28.24    4.01
   5   9  -3  196.83   10.48
   5   9  -2   14.99    2.90
   5   9  -1    4.48    1.42
   5   9   0    7.32    1.89
   5   9   0    5.61    1.38
   5   9   1   51.04    4.70
   5   9   1   53.70    4.35
   5   9   2   21.28    3.17
   5   9   2   20.17    2.44
   5   9   2   21.45    2.59
   5   9   3   81.59    4.66
   5   9   3   85.69    4.95
   5   9   4   13.41    1.69
  -5 -10   7    9.69    1.77
   5  10  -6    0.70    0.41
  -5 -10   6    1.49    0.74
   5  10  -5   93.26    5.87
  -5 -10   5  102.16    6.65
   5  10  -4  105.01    6.44
  -5 -10   4  112.31    7.15
   5  10  -3   62.05    5.04
  -5 -10   3   68.11    5.64
   5  10  -2    0.95    0.54
   5  10  -1   44.86    4.00
   5  10   0    4.95    1.24
   6  -9  -7    4.30    1.02
   6  -9  -6   25.09    2.79
   6  -9  -5    3.53    1.14
   6  -9  -4    0.38    0.32
   6  -9  -3    2.19    0.94
   6  -9  -2   52.85    3.94
   6  -9  -2   55.12    4.51
   6  -9  -1    0.86    0.48
   6  -9  -1    1.20    0.62
   6  -9   0    3.88    1.10
   6  -9   0    3.51    1.05
   6  -9   1    0.79    0.49
   6  -9   1    0.62    0.41
   6  -9   2   22.59    2.52
   6  -9   2   19.14    2.31
   6  -9   3    0.06    0.05
   6  -9   3   -0.08    0.44
   6  -8  -9    7.10    1.17
   6  -8  -9    7.40    1.41
   6  -8  -8    0.71    0.32
   6  -8  -8    0.92    0.48
   6  -8  -7    0.58    0.53
   6  -8  -6   37.77    4.20
   6  -8  -5   19.57    3.17
   6  -8  -4    8.18    1.81
   6  -8  -4    9.43    2.23
   6  -8  -3    7.80    1.81
   6  -8  -3    7.70    2.08
   6  -8  -2    5.09    1.49
   6  -8  -2    5.39    1.71
   6  -8  -1    6.20    1.63
   6  -8  -1    6.37    1.90
   6  -8   0   10.63    2.10
   6  -8   0    9.67    2.17
   6  -8   1    0.14    0.40
   6  -8   1    0.08    0.38
   6  -8   2   10.83    2.09
   6  -8   2   13.83    2.38
   6  -8   3    4.10    1.29
   6  -8   3    4.96    1.33
   6  -8   4    1.40    0.61
   6  -8   4    1.47    0.63
   6  -8   5   -0.28    0.42
   6  -8   5    0.16    0.36
   6  -7 -11   26.03    2.55
   6  -7 -10    5.39    1.29
   6  -7 -10    5.33    1.27
   6  -7  -9    0.93    0.53
   6  -7  -9    0.63    0.61
   6  -7  -8   63.28    5.50
   6  -7  -8   69.67    5.30
   6  -7  -7    7.36    1.78
   6  -7  -7    6.72    1.89
   6  -7  -6    2.99    1.10
   6  -7  -6    3.75    1.52
   6  -7  -5   29.26    3.82
   6  -7  -5   30.89    3.69
   6  -7  -5   29.60    4.35
   6  -7  -4    5.70    1.76
   6  -7  -4    6.21    1.98
   6  -7  -3   15.12    2.89
   6  -7  -3   13.64    2.85
   6  -7  -2   23.16    3.65
   6  -7  -2   18.89    3.53
   6  -7  -1    0.96    0.59
   6  -7  -1    1.77    1.03
   6  -7   0    5.12    1.68
   6  -7   0    5.97    2.04
   6  -7   1   27.53    3.93
   6  -7   1   24.28    3.83
   6  -7   2    6.94    1.80
   6  -7   2    9.12    2.15
   6  -7   2    8.40    2.16
   6  -7   3   21.97    3.28
   6  -7   3   24.46    3.47
   6  -7   3   25.94    3.40
   6  -7   4    0.30    0.17
   6  -7   4    0.85    0.69
   6  -7   5    1.03    0.68
   6  -7   5   -0.17    0.48
   6  -7   6    6.49    1.32
   6  -7   6    9.45    1.74
   6  -7   6    7.45    1.62
   6  -7   7    5.94    1.25
   6  -6 -12    2.27    0.79
  -6   6  12    1.82    0.77
   6  -6 -11   21.48    2.82
   6  -6 -10    0.09    0.24
   6  -6  -9    5.30    1.56
   6  -6  -9    3.67    1.26
   6  -6  -8   24.02    3.55
   6  -6  -8   18.60    3.27
   6  -6  -7    0.29    0.40
   6  -6  -7    0.75    0.86
   6  -6  -6    0.41    0.63
   6  -6  -6    1.80    1.20
   6  -6  -5   20.27    3.54
   6  -6  -5   19.34    3.31
   6  -6  -5   19.02    3.69
   6  -6  -4    9.07    2.47
   6  -6  -4    8.58    2.43
   6  -6  -4    9.81    2.37
   6  -6  -3   24.55    3.98
   6  -6  -3   23.07    4.08
   6  -6  -2   19.98    3.58
   6  -6  -2   20.21    3.81
   6  -6  -1   18.68    3.49
   6  -6  -1   19.05    3.74
   6  -6   0   36.85    4.89
   6  -6   0   32.92    4.93
   6  -6   1   17.06    3.30
   6  -6   1   14.06    3.11
   6  -6   2   -0.09    1.04
   6  -6   2    0.38    0.55
   6  -6   2    1.81    0.91
   6  -6   2   -0.70    1.03
   6  -6   3   39.35    4.69
   6  -6   3   32.79    4.49
   6  -6   3   35.80    4.50
   6  -6   4   17.02    3.11
   6  -6   4   18.11    3.02
   6  -6   4   18.03    2.97
   6  -6   5   16.99    2.94
   6  -6   5   15.09    2.60
   6  -6   5   16.55    2.88
   6  -6   6   10.75    1.89
   6  -6   6   11.91    2.31
   6  -6   6   10.38    2.29
   6  -6   7   10.60    2.02
   6  -6   7    9.99    1.95
   6  -6   8    4.19    1.03
   6  -5 -13    0.79    0.54
  -6   5  13    0.21    0.29
   6  -5 -12   16.23    2.57
  -6   5  12   11.26    2.34
   6  -5 -11   35.89    4.14
   6  -5 -10    3.45    1.37
   6  -5  -9   43.83    5.12
   6  -5  -9   39.46    4.61
   6  -5  -8  114.68    8.40
   6  -5  -8  100.99    7.82
   6  -5  -7    1.91    1.07
   6  -5  -7    1.98    1.14
   6  -5  -6   39.89    5.04
   6  -5  -6   37.34    5.05
   6  -5  -5    4.46    1.69
   6  -5  -5    5.77    1.84
   6  -5  -5    3.57    1.41
   6  -5  -4   24.47    4.16
   6  -5  -4   22.66    3.69
   6  -5  -4   25.10    4.32
   6  -5  -3    7.84    2.22
   6  -5  -3    5.38    1.92
   6  -5  -3    4.08    1.77
   6  -5  -2   21.81    3.79
   6  -5  -2   16.50    3.62
   6  -5  -1   -0.01    0.54
   6  -5  -1    0.26    0.57
   6  -5   0   25.53    4.07
   6  -5   0   23.98    4.19
   6  -5   1   56.65    6.11
   6  -5   1   50.69    6.15
   6  -5   2   63.20    6.25
   6  -5   2   47.81    5.92
   6  -5   2   57.04    5.88
   6  -5   3   85.50    7.16
   6  -5   3   72.53    7.22
   6  -5   3   88.63    7.54
   6  -5   4   35.58    4.45
   6  -5   4   28.47    4.31
   6  -5   4   37.68    4.90
   6  -5   5   32.32    3.95
   6  -5   5   38.83    4.77
   6  -5   5   32.26    4.14
   6  -5   5   49.08    5.18
   6  -5   5   36.98    4.79
   6  -5   6    2.79    1.31
   6  -5   6    1.73    1.19
   6  -5   7    1.39    0.86
   6  -5   7    0.83    0.24
   6  -5   8    5.12    1.38
   6  -4 -14    3.45    0.89
  -6   4  14    3.73    1.13
  -6   4  13   59.12    4.57
   6  -4 -13   64.90    4.90
  -6   4  13   58.92    5.29
   6  -4 -12   55.12    5.13
  -6   4  12   49.16    5.18
   6  -4 -11   21.28    3.46
   6  -4 -10   14.17    2.86
   6  -4  -9   61.15    6.22
   6  -4  -8    2.32    1.15
   6  -4  -7   15.21    3.15
   6  -4  -7   15.14    3.01
   6  -4  -6    0.38    0.26
   6  -4  -6   -0.26    0.60
   6  -4  -5   33.27    4.98
   6  -4  -5   29.46    4.43
   6  -4  -5   34.14    4.77
   6  -4  -4   10.74    2.75
   6  -4  -4   10.07    2.49
   6  -4  -4   10.80    2.72
   6  -4  -3   26.44    4.35
   6  -4  -3   22.76    3.84
   6  -4  -3   26.14    4.27
   6  -4  -2  113.39    8.71
   6  -4  -2  104.70    8.19
   6  -4  -2  113.32    9.03
   6  -4  -1   34.12    4.87
   6  -4  -1   32.04    4.39
   6  -4  -1   39.40    5.45
   6  -4   0   19.69    3.61
   6  -4   0   21.53    4.03
   6  -4   1   34.68    4.41
   6  -4   1   31.70    4.43
   6  -4   1   30.37    4.75
   6  -4   2  106.60    8.25
   6  -4   2  112.34    9.28
   6  -4   2  110.09    8.27
   6  -4   3   43.90    5.09
   6  -4   3   45.03    5.87
   6  -4   3   35.16    5.03
   6  -4   3   41.30    5.28
   6  -4   4    1.90    1.05
   6  -4   4    1.55    0.97
   6  -4   4    1.31    0.83
   6  -4   4    1.36    1.14
   6  -4   5   37.29    4.87
   6  -4   5   28.30    4.24
   6  -4   5   33.78    4.75
   6  -4   5   35.87    4.87
   6  -4   6   35.27    4.72
   6  -4   6   31.57    4.34
   6  -4   6   31.47    4.44
   6  -4   7    1.41    0.88
   6  -4   7    1.23    0.82
   6  -4   7    0.61    0.23
   6  -4   8    0.45    0.25
   6  -4   8   -0.44    0.71
   6  -4   9    0.21    0.17
  -6   3  14   86.99    5.32
   6  -3 -14   80.55    4.80
  -6   3  14   82.97    5.91
  -6   3  13   31.15    3.63
   6  -3 -13   30.09    3.58
  -6   3  13   31.09    4.08
   6  -3 -12   23.83    3.52
  -6   3  12   21.13    3.49
   6  -3 -11  107.68    7.91
   6  -3 -10   64.47    6.40
   6  -3  -9  176.96   10.85
   6  -3  -8   13.10    2.85
   6  -3  -7  145.84    9.97
   6  -3  -6   73.08    7.01
   6  -3  -6   66.95    6.38
   6  -3  -5   40.97    5.44
   6  -3  -5   40.68    5.21
   6  -3  -5   36.64    4.78
   6  -3  -4   47.51    5.69
   6  -3  -4   46.36    5.52
   6  -3  -4   43.15    5.21
   6  -3  -3  121.64    8.98
   6  -3  -3  114.96    8.80
   6  -3  -3  116.42    8.81
   6  -3  -2  293.01   13.74
   6  -3  -2  289.78   13.74
   6  -3  -2  290.47   14.19
   6  -3  -1  121.42    8.70
   6  -3  -1  115.95    8.99
   6  -3  -1  107.44    8.39
   6  -3   0   12.50    2.70
   6  -3   0    6.96    2.05
   6  -3   0    7.65    2.12
   6  -3   1    4.50    1.53
   6  -3   1    4.88    1.71
   6  -3   1    5.82    2.07
   6  -3   2  108.90    8.09
   6  -3   2  133.77   10.15
   6  -3   2  109.01    8.16
   6  -3   3   24.76    4.00
   6  -3   3   21.89    3.49
   6  -3   3   29.68    4.79
   6  -3   3   21.16    3.87
   6  -3   4    6.82    2.07
   6  -3   4    7.00    2.27
   6  -3   4    4.94    1.77
   6  -3   5   19.84    3.73
   6  -3   5   14.54    3.19
   6  -3   5   12.45    3.01
   6  -3   5   17.42    3.37
   6  -3   6  272.31   13.39
   6  -3   6  268.97   12.30
   6  -3   6  297.67   13.88
   6  -3   7    1.33    0.88
   6  -3   7    1.72    0.80
   6  -3   8    3.64    1.28
   6  -3   8    1.54    0.65
   6  -3   9    0.81    0.46
   6  -3   9    1.37    0.89
  -6   2  15    7.08    1.50
  -6   2  14   36.69    3.70
  -6   2  14   39.51    4.33
  -6   2  13   43.65    4.54
   6  -2 -13   44.79    4.31
  -6   2  13   44.80    5.09
  -6   2  12  122.72    8.07
   6  -2 -12  118.59    7.89
  -6   2  12  126.72    9.17
   6  -2 -11  147.37    9.28
  -6   2  11  141.55    9.83
   6  -2 -10    1.69    1.04
   6  -2  -9   69.49    6.72
   6  -2  -8    1.27    0.91
   6  -2  -7   12.18    2.80
   6  -2  -6  122.13    8.89
   6  -2  -5    2.37    1.22
  -6   2   4   43.64    4.93
  -6   2   3  492.69   16.76
  -6   2   3  510.13   17.37
  -6   2   3  498.55   16.56
  -6   2   2   94.76    7.06
  -6   2   2   99.55    7.51
  -6   2   2  108.77    8.21
  -6   2   1   21.47    3.54
  -6   2   1   23.77    3.46
   6  -2   0   15.89    3.12
   6  -2   0   18.00    3.39
   6  -2   0   17.81    3.42
   6  -2   1  370.99   14.57
   6  -2   1  376.02   15.72
   6  -2   2   35.61    4.77
   6  -2   2   49.38    6.05
   6  -2   2   39.57    4.75
   6  -2   3   76.78    7.74
   6  -2   3   69.62    7.39
   6  -2   3   65.19    6.32
   6  -2   4  237.27   13.61
   6  -2   4  225.06   13.31
   6  -2   4  204.85   11.61
   6  -2   5   57.35    6.43
   6  -2   5   51.38    6.36
   6  -2   5   49.48    5.66
   6  -2   5   52.58    6.45
   6  -2   5   49.08    5.78
   6  -2   6  220.42   11.57
   6  -2   6  210.58   12.58
   6  -2   6  238.91   12.39
   6  -2   7    3.24    1.42
   6  -2   7    3.82    1.26
   6  -2   8   27.75    3.85
   6  -2   8   35.39    4.30
   6  -2   9    0.46    0.57
   6  -2   9    1.50    0.96
   6  -2  10   34.47    2.98
  -6   1  15   29.26    2.85
  -6   1  15   29.81    3.26
  -6   1  14    4.22    1.34
  -6   1  14    5.26    1.53
  -6   1  13  126.32    7.74
  -6   1  13  127.67    8.77
  -6   1  12   71.05    6.15
  -6   1  12   71.49    6.86
   6  -1 -11  225.97   11.22
  -6   1  11  220.15   12.33
   6  -1 -10    5.24    1.76
  -6   1  10    3.90    1.42
   6  -1  -9    1.11    1.09
  -6   1   9    3.56    1.35
   6  -1  -8    6.12    1.99
   6  -1  -7   40.21    5.04
   6  -1  -6    4.85    1.69
  -6   1   5  195.60   10.90
  -6   1   5  167.55   10.23
  -6   1   5  186.68   10.37
  -6   1   4  122.98    7.95
  -6   1   4  122.43    8.34
  -6   1   4  129.92    8.64
  -6   1   3  258.17   12.00
  -6   1   3  277.14   12.36
  -6   1   3  257.54   11.34
  -6   1   2   96.52    7.18
  -6   1   2   94.63    7.04
  -6   1   1  659.61   18.53
  -6   1   1  672.83   19.77
  -6   1   0    5.97    2.40
   6  -1   1  299.95   14.17
   6  -1   1  285.86   14.11
   6  -1   2   77.10    7.26
   6  -1   2   90.90    8.12
   6  -1   2   97.73    8.45
   6  -1   2   74.97    6.42
   6  -1   3  186.48   11.36
   6  -1   3  221.88   13.08
   6  -1   3  232.85   13.47
   6  -1   3  180.86   10.39
   6  -1   4  116.15    9.64
   6  -1   4  103.25    8.35
   6  -1   4  125.75    9.95
   6  -1   4  101.17    7.92
   6  -1   5   55.76    6.63
   6  -1   5   51.10    5.81
   6  -1   5   59.34    6.89
   6  -1   5   52.59    5.79
   6  -1   6   18.17    3.18
   6  -1   6   18.39    3.63
   6  -1   6   15.81    2.90
   6  -1   7   23.45    3.38
   6  -1   7   25.11    4.02
   6  -1   7   21.09    3.51
   6  -1   8  107.20    7.70
   6  -1   8  120.76    7.83
   6  -1   9    1.75    0.97
   6  -1   9    2.18    0.99
   6  -1  10   33.47    3.05
   6  -1  10   48.89    3.69
  -6   0  15    4.18    1.05
  -6   0  15    6.73    1.50
  -6   0  14    5.06    1.35
  -6   0  14    5.72    1.57
  -6   0  13  124.08    7.70
  -6   0  13  128.33    8.64
  -6   0  12   16.47    2.89
  -6   0  12   15.84    3.16
  -6   0  11  190.14   11.31
  -6   0  10    8.63    2.25
   6   0  -9  124.39    8.47
  -6   0   9  120.84    8.80
   6   0  -8  190.53   10.59
  -6   0   8  181.36   10.54
  -6   0   7    4.35    1.56
  -6   0   7    2.40    1.17
   6   0  -7    2.79    1.21
  -6   0   6   92.27    7.11
   6   0  -6   92.97    6.53
  -6   0   5  391.70   15.11
  -6   0   5  427.50   15.41
  -6   0   4  249.45   11.85
  -6   0   4  253.29   10.69
  -6   0   4  246.82   11.34
  -6   0   3   -0.32    0.90
  -6   0   3   -0.72    1.08
  -6   0   2  255.51   11.20
  -6   0   2  251.13   11.19
  -6   0   1   98.78    6.86
  -6   0   1  108.50    7.51
  -6   0   0   72.83    5.87
   6   0   1   13.58    3.08
   6   0   1   13.21    2.99
   6   0   2  322.18   15.07
   6   0   2  319.78   15.10
   6   0   2  296.01   13.58
   6   0   2  343.12   15.57
   6   0   2  272.79   12.06
   6   0   3   67.18    6.96
   6   0   3   69.98    7.26
   6   0   3   64.68    6.49
   6   0   3   76.90    7.50
   6   0   3   63.67    6.12
   6   0   4   64.99    7.18
   6   0   4   56.25    6.52
   6   0   4   59.08    6.22
   6   0   4   70.68    7.24
   6   0   4   56.28    5.84
   6   0   5   10.49    2.70
   6   0   5   16.42    3.16
   6   0   5   12.84    2.77
   6   0   5   14.64    3.23
   6   0   5    8.86    2.31
   6   0   5   10.74    2.51
   6   0   6   21.27    3.56
   6   0   6   23.01    3.97
   6   0   6   20.98    3.46
   6   0   7   64.83    5.85
   6   0   7   65.43    6.62
   6   0   7   69.95    6.32
   6   0   8   56.62    5.59
   6   0   8   60.44    5.45
   6   0   9   39.68    4.14
   6   0   9   42.31    4.03
   6   0  10    6.42    1.38
   6   0  10    7.57    1.50
  -6  -1  15   18.30    2.21
  -6  -1  15   19.80    2.67
  -6  -1  14    5.12    1.34
  -6  -1  14    6.88    1.71
  -6  -1  13    0.77    0.42
  -6  -1  13    0.25    0.17
  -6  -1  12  179.52    9.33
  -6  -1  12  180.30   10.82
  -6  -1  11   79.31    7.25
  -6  -1  10  338.13   14.93
  -6  -1   9   12.00    2.63
  -6  -1   9   14.27    2.88
  -6  -1   8   12.81    2.85
  -6  -1   8   10.01    2.36
   6   1  -7   73.09    6.27
  -6  -1   7   88.78    7.33
  -6  -1   7   71.46    6.33
   6   1  -6   82.42    6.70
  -6  -1   6   96.77    7.54
  -6  -1   5  217.99   10.80
   6   1  -5  232.35   10.05
  -6  -1   4    9.83    2.26
  -6  -1   4   15.53    2.99
  -6  -1   3  176.08    8.91
  -6  -1   3  169.78    8.96
  -6  -1   2   63.87    5.53
  -6  -1   2   66.89    5.68
  -6  -1   1  178.88    8.77
  -6  -1   1  184.19    9.47
   6   1   0   58.65    6.08
   6   1   0   50.53    5.46
   6   1   0   47.15    5.17
   6   1   1   23.88    4.08
   6   1   1   18.06    3.50
   6   1   1   17.75    3.23
   6   1   1   22.75    3.59
   6   1   2   63.64    6.67
   6   1   2   60.83    6.49
   6   1   2   52.42    5.80
   6   1   2   65.71    6.48
   6   1   2   49.95    4.98
   6   1   3  236.57   13.35
   6   1   3  222.91   12.89
   6   1   3  226.69   12.22
   6   1   3  239.56   12.94
   6   1   3  197.90   10.50
   6   1   4   10.59    2.88
   6   1   4    8.69    2.38
   6   1   4    9.84    2.34
   6   1   4    5.67    1.74
   6   1   5   62.85    6.86
   6   1   5   59.33    6.32
   6   1   5   57.50    6.23
   6   1   5   63.18    6.71
   6   1   5   50.04    6.21
   6   1   5   55.27    5.85
   6   1   6   53.92    5.84
   6   1   6   55.49    5.90
   6   1   6   60.25    6.30
   6   1   6   43.29    5.46
   6   1   6   53.63    5.63
   6   1   7   91.05    6.94
   6   1   7   95.71    7.58
   6   1   7   94.07    6.96
   6   1   8    0.55    0.63
   6   1   8   -0.02    0.31
   6   1   9  130.91    7.28
   6   1   9  152.97    7.48
   6   1  10    4.79    1.09
  -6  -2  15   33.28    2.84
  -6  -2  15   35.88    3.51
  -6  -2  14    3.44    1.03
  -6  -2  14    3.38    1.09
  -6  -2  13    0.65    0.58
  -6  -2  13    0.94    0.19
  -6  -2  12  176.33    8.93
  -6  -2  12  176.16   10.32
  -6  -2  11   90.20    7.61
  -6  -2  10  136.95    9.17
  -6  -2  10  143.94    9.55
  -6  -2   9   41.76    5.06
  -6  -2   9   37.81    4.86
  -6  -2   8   30.38    4.30
  -6  -2   8   25.11    3.91
  -6  -2   7    4.94    1.58
  -6  -2   7    4.68    1.69
  -6  -2   6   50.23    5.37
  -6  -2   5  436.33   15.60
  -6  -2   4  105.53    7.56
  -6  -2   4   98.49    6.70
  -6  -2   3   71.54    5.48
   6   2  -2   89.13    6.73
   6   2  -1  532.32   17.96
   6   2  -1  481.31   16.24
   6   2   0   12.82    2.82
   6   2   0   10.93    2.59
   6   2   0   11.56    2.57
   6   2   1   12.88    2.94
   6   2   1   12.72    2.84
   6   2   1   11.54    2.71
   6   2   2  131.75    9.68
   6   2   2  118.68    8.54
   6   2   2  126.09    8.69
   6   2   3   20.42    3.88
   6   2   3   13.52    2.92
   6   2   3   15.67    2.96
   6   2   3   15.42    2.85
   6   2   4    2.96    1.55
   6   2   4    1.88    1.12
   6   2   4    2.98    1.61
   6   2   4    2.30    1.34
   6   2   4    3.17    1.44
   6   2   4    4.91    1.60
   6   2   5  275.63   13.80
   6   2   5  284.03   13.37
   6   2   5  271.27   13.18
   6   2   5  275.73   14.64
   6   2   5  266.14   12.20
   6   2   6   29.18    4.34
   6   2   6   32.26    4.39
   6   2   6   34.11    4.50
   6   2   6   31.15    4.74
   6   2   6   35.69    4.40
   6   2   7   31.80    4.07
   6   2   7   31.97    4.01
   6   2   7   36.84    4.37
   6   2   7   27.86    4.07
   6   2   7   36.61    4.16
   6   2   8    7.06    1.64
   6   2   8    7.50    1.81
   6   2   8    9.18    2.03
   6   2   9   22.57    2.73
   6   2   9   28.86    3.16
  -6  -3  15    6.63    1.37
  -6  -3  14   94.69    5.34
  -6  -3  14  109.67    6.78
  -6  -3  13   40.12    3.81
  -6  -3  13   43.44    4.69
  -6  -3  12    5.23    1.47
  -6  -3  12    5.38    1.66
  -6  -3  11    9.35    2.33
  -6  -3  10    0.40    0.67
  -6  -3  10    1.47    0.77
  -6  -3   9    3.80    1.41
  -6  -3   9    4.79    1.42
  -6  -3   8   53.78    5.78
  -6  -3   8   51.73    5.58
  -6  -3   7    2.08    1.02
  -6  -3   7    1.22    0.66
  -6  -3   6  183.86   10.50
  -6  -3   5  417.11   15.40
   6   3  -4  196.26   10.05
  -6  -3   4  207.91   10.72
   6   3  -3   59.45    5.53
  -6  -3   3   58.39    5.49
   6   3  -2  150.51    9.23
  -6  -3   2  150.19    8.59
   6   3  -2  162.83    9.40
   6   3  -1  208.30   11.23
  -6  -3   1  197.00    9.71
   6   3  -1  220.58   11.13
   6   3   0  329.25   14.52
   6   3   0  320.18   13.84
   6   3   1  151.17   10.04
   6   3   1  139.87    9.23
   6   3   2   56.92    6.36
   6   3   2   53.67    6.12
   6   3   2   52.82    5.72
   6   3   3   19.48    3.75
   6   3   3   20.23    3.77
   6   3   3   18.77    3.52
   6   3   3   18.10    3.20
   6   3   4   11.90    2.85
   6   3   4   13.43    3.02
   6   3   4   16.12    3.04
   6   3   4   10.55    2.40
   6   3   4   12.23    3.03
   6   3   4   13.50    2.74
   6   3   5    5.33    1.95
   6   3   5    5.94    1.96
   6   3   5    6.17    1.83
   6   3   5   10.70    2.89
   6   3   5    6.28    1.84
   6   3   6   59.80    6.12
   6   3   6   62.17    5.79
   6   3   6   53.33    5.07
   6   3   6   57.80    6.22
   6   3   6   66.55    5.81
   6   3   7   38.80    4.39
   6   3   7   38.00    4.16
   6   3   7   37.36    3.95
   6   3   7   39.46    4.70
   6   3   7   44.18    4.54
   6   3   8   26.62    3.01
   6   3   8   25.81    2.79
   6   3   8   23.96    3.20
  -6  -4  14   42.65    3.18
  -6  -4  14   51.70    4.29
  -6  -4  13   60.73    4.38
  -6  -4  13   72.54    5.72
  -6  -4  12    0.58    0.19
  -6  -4  12    0.30    0.73
  -6  -4  11    2.49    1.18
  -6  -4  10   25.93    3.97
   6   4  -9   -0.18    0.79
  -6  -4   9   -0.43    0.89
  -6  -4   9    0.12    0.24
  -6  -4   8   20.29    3.49
  -6  -4   8   22.57    3.73
  -6  -4   7    0.60    0.59
  -6  -4   7    0.87    0.76
  -6  -4   6  346.44   14.32
  -6  -4   5   15.70    2.92
  -6  -4   4   59.18    5.67
  -6  -4   3    4.13    1.41
   6   4  -2   20.46    3.44
  -6  -4   2   20.93    3.15
   6   4  -2   25.16    3.76
   6   4  -1    1.93    0.90
   6   4  -1    2.40    0.99
  -6  -4   1    1.83    0.99
   6   4  -1    2.32    0.88
   6   4  -1    2.49    1.03
   6   4   0  288.11   13.39
   6   4   0  282.96   13.45
   6   4   0  283.53   13.35
   6   4   0  305.48   13.53
   6   4   1   59.54    6.28
   6   4   1   59.06    6.26
   6   4   1   62.29    6.18
   6   4   2    6.69    2.13
   6   4   2    5.75    2.01
   6   4   2    6.98    2.10
   6   4   3   76.86    7.24
   6   4   3   79.15    7.03
   6   4   3   73.83    7.36
   6   4   3   76.20    6.43
   6   4   4    3.64    1.30
   6   4   4    2.89    1.30
   6   4   4    3.87    1.64
   6   4   4    3.01    1.34
   6   4   5    3.81    1.51
   6   4   5    4.24    1.37
   6   4   5    5.12    1.80
   6   4   6  144.55    9.02
   6   4   6  144.44    8.50
   6   4   6  150.75    9.62
   6   4   7   17.28    2.72
   6   4   7   18.19    2.71
   6   4   7   15.73    2.20
   6   4   7   17.24    2.96
   6   4   8    1.13    0.41
  -6  -5  14   45.05    3.50
  -6  -5  13    1.53    0.55
  -6  -5  13    2.61    0.99
  -6  -5  12   43.67    3.61
  -6  -5  12   47.38    4.59
  -6  -5  11    0.05    0.32
  -6  -5  10  118.23    7.99
   6   5  -9   50.28    5.50
  -6  -5   9   46.14    5.06
   6   5  -8  220.02   11.95
  -6  -5   8  208.79   11.05
   6   5  -7    5.73    1.95
  -6  -5   7    3.51    1.47
  -6  -5   7    6.68    1.90
   6   5  -6   47.46    5.71
  -6  -5   6   41.56    4.84
   6   5  -5    7.20    2.22
  -6  -5   5    6.20    1.85
   6   5  -4  257.66   13.13
  -6  -5   4  224.95   10.96
   6   5  -3    4.36    1.70
  -6  -5   3    4.23    1.40
   6   5  -2    6.83    2.18
  -6  -5   2    7.09    1.70
   6   5  -2    6.52    1.96
   6   5  -2    8.02    2.04
   6   5  -1  122.65    8.99
   6   5  -1  118.80    8.20
   6   5  -1  121.14    8.47
   6   5  -1  133.05    8.77
   6   5   0   52.69    5.76
   6   5   0   49.94    5.51
   6   5   0   52.44    5.77
   6   5   0   55.38    5.78
   6   5   1   56.87    5.96
   6   5   1   59.64    6.18
   6   5   1   58.95    5.99
   6   5   1   59.47    6.18
   6   5   2   33.03    4.63
   6   5   2   33.79    4.50
   6   5   2   31.20    4.52
   6   5   3   15.00    3.10
   6   5   3   12.98    2.68
   6   5   3   14.27    3.13
   6   5   4    6.33    1.96
   6   5   4    8.18    2.15
   6   5   4    8.73    2.52
   6   5   5   61.29    5.84
   6   5   5   57.55    5.31
   6   5   5   60.85    5.93
   6   5   6   62.85    5.39
   6   5   6   55.55    4.78
   6   5   6   57.62    5.33
   6   5   7    9.71    1.86
   6   5   7   10.57    1.77
   6   5   7   10.97    2.04
  -6  -6  13    2.96    0.87
  -6  -6  12   11.11    2.01
  -6  -6  11   20.84    2.95
  -6  -6  10    1.33    1.00
   6   6  -9   77.79    6.64
  -6  -6   9   68.63    5.93
   6   6  -8  108.93    8.19
  -6  -6   8   96.45    7.19
   6   6  -7  107.98    8.42
  -6  -6   7   98.47    7.26
   6   6  -6    7.11    2.09
   6   6  -5   25.87    4.30
   6   6  -4    3.15    1.40
  -6  -6   4    3.39    1.14
   6   6  -3   23.81    4.03
  -6  -6   3   17.22    2.73
   6   6  -2    3.50    1.59
   6   6  -1   78.36    7.17
   6   6  -1   74.52    6.44
   6   6  -1   78.22    6.63
   6   6   0   32.98    4.59
   6   6   0   30.78    4.22
   6   6   0   31.32    4.22
   6   6   0   30.07    4.06
   6   6   1  151.85    9.36
   6   6   1  142.50    9.13
   6   6   1  152.37    9.24
   6   6   1  139.55    8.87
   6   6   2    6.73    1.89
   6   6   2    8.88    2.24
   6   6   2    7.03    1.95
   6   6   3   36.22    4.48
   6   6   3   34.19    4.22
   6   6   3   36.37    4.40
   6   6   4   32.56    4.12
   6   6   4   37.48    4.13
   6   6   4   34.39    4.15
   6   6   5   24.09    3.16
   6   6   5   25.03    3.13
   6   6   5   24.61    3.29
   6   6   6   93.35    5.75
   6   6   6   91.20    5.31
   6   6   6   89.91    5.66
  -6  -7  12    5.35    1.18
  -6  -7  11   42.21    3.69
  -6  -7  10   12.62    2.18
  -6  -7   9   31.85    3.62
   6   7  -8   54.10    5.39
  -6  -7   8   48.61    4.64
  -6  -7   8   50.73    5.80
   6   7  -7   62.18    6.05
  -6  -7   7   55.68    5.01
  -6  -7   7   65.09    7.08
   6   7  -6   14.87    3.04
   6   7  -5   16.17    3.20
   6   7  -4    0.48    0.70
   6   7  -3   32.64    4.57
   6   7  -2   14.06    2.85
   6   7  -1   46.06    5.20
   6   7  -1   49.12    4.78
   6   7   0    7.37    1.99
   6   7   0    8.43    1.97
   6   7   0    6.60    1.75
   6   7   1    5.40    1.57
   6   7   1    4.94    1.47
   6   7   1    4.82    1.37
   6   7   1    6.16    1.60
   6   7   2  117.63    7.36
   6   7   2  125.58    7.39
   6   7   2  109.24    6.69
   6   7   3  178.62    8.75
   6   7   3  185.48    8.58
   6   7   3  167.75    8.03
   6   7   4    0.76    0.56
   6   7   4    1.70    0.86
   6   7   4    1.83    0.70
   6   7   5   31.60    3.12
   6   7   5   28.89    2.84
   6   7   5   29.12    2.78
  -6  -8  10   37.82    3.07
  -6  -8   9    6.13    1.32
  -6  -8   9    6.05    1.51
   6   8  -8   14.86    2.44
  -6  -8   8   12.64    1.98
  -6  -8   8   11.26    2.32
   6   8  -7   11.86    2.34
  -6  -8   7   11.74    1.95
  -6  -8   7   12.88    2.73
   6   8  -6   94.87    6.94
  -6  -8   6  101.55    8.14
   6   8  -5   51.41    5.22
   6   8  -4    0.35    0.48
   6   8  -3   40.26    4.65
   6   8  -2   78.94    6.42
   6   8  -1    0.63    0.64
   6   8   0   15.94    2.72
   6   8   0   14.69    2.30
   6   8   1    4.64    1.27
   6   8   1    4.47    1.24
   6   8   2   26.62    2.85
   6   8   2   28.01    2.97
   6   8   3  148.54    6.33
   6   8   3  153.01    6.43
   6   9  -7   10.50    1.78
  -6  -9   7   10.40    1.92
   6   9  -6    1.44    0.71
  -6  -9   6    1.26    0.80
   6   9  -5  170.59    8.23
  -6  -9   5  178.33    9.25
   6   9  -4    9.05    1.95
  -6  -9   4    9.15    2.23
   6   9  -3   76.71    5.52
   6   9  -2    1.46    0.75
   6   9  -1   24.81    2.92
   7  -8  -7   17.71    2.14
   7  -8  -6   12.10    2.00
   7  -8  -5   93.52    5.73
   7  -8  -4   42.94    4.04
   7  -8  -3    0.43    0.47
   7  -8  -2    1.24    0.65
   7  -8  -2    1.11    0.65
   7  -8  -1    2.71    0.98
   7  -8  -1    2.02    0.87
   7  -8   0    1.47    0.69
   7  -8   0    1.56    0.69
   7  -8   1    6.89    1.44
   7  -8   1    7.28    1.34
   7  -8   2    0.87    0.41
   7  -7  -9   12.98    1.70
   7  -7  -9   10.29    1.60
   7  -7  -8    3.30    0.92
   7  -7  -8    3.38    1.07
   7  -7  -7    3.09    0.93
   7  -7  -7    3.36    1.06
   7  -7  -6    1.26    0.57
   7  -7  -6    0.89    0.62
   7  -7  -5   38.27    4.25
   7  -7  -4    0.31    0.28
   7  -7  -3    7.27    1.85
   7  -7  -3    6.74    1.89
   7  -7  -2    2.06    0.94
   7  -7  -2    2.27    1.09
   7  -7  -1    3.05    1.21
   7  -7  -1    4.17    1.43
   7  -7   0    8.65    1.89
   7  -7   0    7.56    1.82
   7  -7   0    9.98    1.85
   7  -7   1    7.88    1.61
   7  -7   1    9.09    1.97
   7  -7   1    9.82    2.06
   7  -7   2    0.31    0.24
   7  -7   2   -0.33    0.39
   7  -7   3    0.37    0.41
   7  -7   3    0.07    0.25
   7  -7   4    1.28    0.60
   7  -7   4    1.61    0.67
   7  -6 -11    3.60    0.95
  -7   6  11    2.98    0.89
   7  -6 -10   21.48    2.62
  -7   6  10   15.62    2.50
   7  -6  -9    4.90    1.30
   7  -6  -9    4.79    1.20
   7  -6  -8    1.73    0.85
   7  -6  -8    1.28    0.83
   7  -6  -7    2.23    1.02
   7  -6  -7    1.69    0.77
   7  -6  -6   25.35    3.70
   7  -6  -6   32.70    3.91
   7  -6  -5   12.18    2.43
   7  -6  -5   12.06    2.61
   7  -6  -4   35.09    4.45
   7  -6  -4   32.92    3.87
   7  -6  -4   28.96    4.19
   7  -6  -3    0.44    0.33
   7  -6  -3    0.61    0.22
   7  -6  -2    3.67    1.34
   7  -6  -2    3.38    1.32
   7  -6  -1    0.80    0.62
   7  -6  -1    0.31    0.11
   7  -6   0    1.18    0.55
   7  -6   0    2.21    1.04
   7  -6   1   25.59    3.25
   7  -6   1   27.47    3.73
   7  -6   1   26.54    3.89
   7  -6   1   37.12    4.19
   7  -6   2    0.28    0.35
   7  -6   2    0.01    0.41
   7  -6   2    0.52    0.55
   7  -6   2    0.86    0.58
   7  -6   3    0.76    0.46
   7  -6   3    1.15    0.31
   7  -6   3    1.65    0.80
   7  -6   3    1.19    0.76
   7  -6   4    9.74    1.81
   7  -6   4   10.80    2.04
   7  -6   5   58.78    4.23
   7  -5 -12   31.47    2.93
  -7   5  12   30.56    3.26
   7  -5 -11    1.13    0.69
  -7   5  11    0.22    0.46
   7  -5 -10    3.26    1.21
   7  -5  -9   -0.08    0.39
   7  -5  -8   19.50    3.16
   7  -5  -8   14.33    2.62
   7  -5  -7    5.70    1.78
   7  -5  -7    3.99    1.49
   7  -5  -6   19.15    3.28
   7  -5  -6   18.90    3.35
   7  -5  -5    8.78    2.26
   7  -5  -5    6.59    2.06
   7  -5  -4    8.05    2.29
   7  -5  -4    7.45    2.22
   7  -5  -4    7.81    2.19
   7  -5  -3   22.54    3.84
   7  -5  -3   26.14    3.77
   7  -5  -3   22.83    3.98
   7  -5  -2   55.48    6.03
   7  -5  -2   56.15    5.45
   7  -5  -2   51.17    6.03
   7  -5  -1    3.77    1.47
   7  -5  -1    4.79    1.76
   7  -5   0    3.71    1.56
   7  -5   0    4.79    1.75
   7  -5   1   27.65    3.59
   7  -5   1   27.68    3.96
   7  -5   1   27.35    4.29
   7  -5   2    6.14    1.73
   7  -5   2    5.58    1.65
   7  -5   2    4.12    1.60
   7  -5   2    6.77    1.92
   7  -5   3    0.17    0.39
   7  -5   3   -0.19    0.64
   7  -5   3    0.15    0.51
   7  -5   3    0.06    0.36
   7  -5   4   41.53    3.97
   7  -5   4   47.71    4.78
   7  -5   4   47.71    4.64
   7  -5   5   32.58    3.38
   7  -5   5   40.66    4.00
   7  -5   6   33.37    3.32
   7  -4 -13    0.06    0.26
  -7   4  13    0.06    0.40
   7  -4 -12    3.76    1.05
  -7   4  12    3.75    1.22
   7  -4 -11   37.56    3.99
  -7   4  11   31.03    3.93
   7  -4 -10   77.15    6.21
  -7   4  10   67.92    6.23
   7  -4  -9    9.06    2.22
   7  -4  -8    9.04    2.18
   7  -4  -7    4.00    1.42
   7  -4  -7    3.30    1.45
   7  -4  -6    0.51    0.63
   7  -4  -6    1.46    0.97
   7  -4  -5  125.80    9.08
   7  -4  -5  120.15    8.92
   7  -4  -4    0.84    0.99
   7  -4  -4    0.37    0.59
   7  -4  -4    0.36    0.85
   7  -4  -3   42.62    5.50
   7  -4  -3   35.96    4.83
   7  -4  -3   38.36    5.22
   7  -4  -2    3.08    1.48
   7  -4  -2    1.54    0.92
   7  -4  -2    2.49    1.28
   7  -4  -1   47.21    5.57
   7  -4  -1   43.01    5.05
   7  -4  -1   46.11    5.87
   7  -4   0    0.69    0.52
   7  -4   0    1.08    0.53
   7  -4   1    1.60    0.77
   7  -4   1    2.93    1.53
   7  -4   2   14.76    2.82
   7  -4   2   16.08    3.41
   7  -4   2   14.60    3.16
   7  -4   2   14.02    2.74
   7  -4   3   23.15    3.35
   7  -4   3   24.89    4.13
   7  -4   3   25.91    4.08
   7  -4   3   23.69    3.56
   7  -4   4   34.58    4.48
   7  -4   4   33.22    4.07
   7  -4   4   34.82    4.50
   7  -4   4   30.90    3.94
   7  -4   5    2.51    1.10
   7  -4   5    2.64    0.94
   7  -4   5    3.70    1.37
   7  -4   5    4.10    1.35
   7  -4   6   49.06    4.31
   7  -4   6   43.99    4.11
   7  -4   7    2.50    0.86
   7  -3 -13   58.16    4.16
  -7   3  13   67.30    5.23
   7  -3 -12    4.40    1.34
  -7   3  12    4.36    1.50
   7  -3 -11   11.07    2.29
  -7   3  11    9.94    2.31
   7  -3 -10    4.24    1.42
  -7   3  10    2.57    0.91
   7  -3  -9    1.15    0.64
  -7   3   9    1.04    0.44
   7  -3  -8    3.01    1.31
   7  -3  -7   41.04    5.16
   7  -3  -6  169.04   10.71
   7  -3  -6  154.01    9.69
   7  -3  -5  165.44   10.70
   7  -3  -5  147.37    9.82
   7  -3  -4  225.51   12.65
   7  -3  -4  210.94   12.08
   7  -3  -4  195.59   11.55
   7  -3  -3   36.23    5.02
   7  -3  -3   34.89    4.90
   7  -3  -3   35.81    4.96
   7  -3  -2    5.77    2.00
   7  -3  -2    5.01    1.87
   7  -3  -2    5.72    1.72
   7  -3  -1  285.30   13.69
   7  -3  -1  255.39   13.20
   7  -3  -1  303.61   14.99
   7  -3   0    1.11    1.09
   7  -3   0    0.09    0.29
   7  -3   0    0.37    0.82
   7  -3   1    4.53    1.68
   7  -3   1    4.52    1.67
   7  -3   1    6.15    2.15
   7  -3   2   45.59    4.96
   7  -3   2   54.40    6.35
   7  -3   2   46.36    5.89
   7  -3   2   46.81    5.01
   7  -3   3   36.62    5.10
   7  -3   3   31.61    4.70
   7  -3   3   32.57    4.16
   7  -3   4    1.88    1.00
   7  -3   4    1.22    0.61
   7  -3   4    2.78    1.49
   7  -3   4    2.55    1.13
   7  -3   5   20.18    3.11
   7  -3   5   18.20    3.24
   7  -3   5   21.08    3.17
   7  -3   6    2.74    0.99
   7  -3   6    2.45    1.08
   7  -3   6    2.10    0.91
   7  -3   7   22.78    2.82
   7  -3   7   26.70    3.04
  -7   2  14   38.66    3.65
   7  -2 -13   24.42    2.73
  -7   2  13   29.85    3.75
   7  -2 -12  154.05    7.99
  -7   2  12  163.37    9.44
   7  -2 -11    0.27    0.35
  -7   2  11   -0.56    0.86
   7  -2 -10    0.13    0.17
  -7   2  10   -0.11    0.84
   7  -2  -9    9.17    2.34
  -7   2   9    7.68    2.18
   7  -2  -8    7.02    2.02
  -7   2   8    6.37    1.95
   7  -2  -7   40.53    5.19
  -7   2   7   33.82    4.38
   7  -2  -6  498.75   18.51
   7  -2  -5   64.47    6.63
   7  -2  -5   48.69    5.50
   7  -2  -4   79.60    7.42
   7  -2  -4   73.48    6.75
   7  -2  -3   86.48    7.67
   7  -2  -3   95.19    8.05
   7  -2  -3   85.86    7.47
   7  -2  -2   11.86    2.80
   7  -2  -2   11.47    2.82
   7  -2  -2   12.91    3.06
   7  -2  -1  204.70   11.33
   7  -2  -1  218.49   12.37
   7  -2  -1  215.35   12.43
   7  -2   0    2.61    1.34
   7  -2   0    2.73    1.39
   7  -2   0    3.41    1.57
   7  -2   1    1.61    1.02
   7  -2   1    1.18    0.71
   7  -2   1    2.53    1.47
   7  -2   2    8.91    2.45
   7  -2   2   13.25    3.16
   7  -2   2   13.72    3.27
   7  -2   2   11.82    2.39
   7  -2   3  107.49    8.96
   7  -2   3  102.94    8.16
   7  -2   3  106.85    8.99
   7  -2   3   94.02    7.24
   7  -2   4    4.73    1.81
   7  -2   4    2.43    1.04
   7  -2   4    3.85    1.71
   7  -2   4    2.80    1.12
   7  -2   5   21.06    3.35
   7  -2   5   20.07    3.57
   7  -2   5   19.39    3.03
   7  -2   6    4.54    1.40
   7  -2   6    3.09    1.09
   7  -2   6    4.99    1.53
   7  -2   7   42.24    4.20
   7  -2   7   50.68    4.28
   7  -2   8   19.39    2.27
   7  -2   8   25.33    2.55
  -7   1  14    7.05    1.60
  -7   1  13   32.39    3.90
  -7   1  12    8.08    2.04
   7  -1 -11  102.30    7.02
  -7   1  11  106.91    7.98
   7  -1 -10    3.59    1.34
  -7   1  10    5.54    1.75
   7  -1  -9   21.37    3.54
  -7   1   9   16.98    3.25
   7  -1  -8   25.80    4.00
  -7   1   8   27.78    4.15
  -7   1   8   22.74    3.64
   7  -1  -7    1.05    0.87
  -7   1   7    0.30    0.42
   7  -1  -6   83.08    7.40
   7  -1  -5   21.23    3.66
   7  -1  -4   91.41    7.80
   7  -1  -4   79.55    6.85
   7  -1  -3    0.47    0.33
   7  -1  -3    0.82    0.70
   7  -1  -2  434.17   17.54
   7  -1  -2  376.55   15.83
   7  -1  -1    8.37    2.67
   7  -1  -1    7.54    2.35
   7  -1   0   75.76    7.33
   7  -1   0   74.18    7.30
   7  -1   1  123.32    9.37
   7  -1   1  127.74    9.90
   7  -1   1  139.47   10.34
   7  -1   2    2.16    1.48
   7  -1   2    2.38    1.53
   7  -1   2    1.23    1.14
   7  -1   2    1.94    1.43
   7  -1   3  126.72    9.26
   7  -1   3  181.24   11.77
   7  -1   3  158.41   10.15
   7  -1   3  176.60   11.43
   7  -1   3  142.16    8.79
   7  -1   4    6.16    1.95
   7  -1   4   12.96    3.07
   7  -1   4    7.77    2.24
   7  -1   4   10.38    2.69
   7  -1   4    8.66    1.96
   7  -1   5   53.34    5.46
   7  -1   5   53.09    5.84
   7  -1   5   53.59    5.13
   7  -1   6   22.85    3.29
   7  -1   6   23.69    3.61
   7  -1   6   23.90    3.24
   7  -1   7    0.37    0.33
   7  -1   7    0.58    0.46
   7  -1   8    0.39    0.37
   7  -1   8   -0.32    0.40
  -7   0  14   -0.22    0.57
  -7   0  13   45.03    4.65
  -7   0  12   45.89    5.04
  -7   0  11  217.44   11.34
   7   0 -10   34.17    4.15
  -7   0  10   35.60    4.75
   7   0  -9    2.44    1.02
  -7   0   9    2.21    0.92
  -7   0   9    0.39    0.46
   7   0  -8   36.20    4.59
  -7   0   8   44.18    5.26
  -7   0   8   34.25    4.47
   7   0  -7   58.29    6.02
  -7   0   7   67.44    6.53
   7   0  -6    1.06    0.38
   7   0  -5   15.63    3.23
   7   0  -4  389.19   16.22
   7   0  -3   87.51    7.72
   7   0  -3   70.58    6.48
   7   0  -2  476.34   18.27
   7   0  -2  412.30   16.16
   7   0  -1    5.01    1.71
   7   0  -1    4.71    1.77
   7   0  -1    6.22    1.70
   7   0   0  223.80   12.81
   7   0   0  218.87   12.43
   7   0   0  208.36   11.61
   7   0   0  231.44   12.72
   7   0   1  100.11    8.65
   7   0   1  104.30    8.73
   7   0   1   94.51    7.95
   7   0   1  103.23    8.66
   7   0   2  169.07   11.08
   7   0   2  178.95   11.58
   7   0   2  167.47   10.58
   7   0   2  189.95   11.62
   7   0   3   15.10    3.15
   7   0   3   19.02    3.88
   7   0   3   15.09    3.09
   7   0   3   19.59    3.69
   7   0   3   15.92    2.74
   7   0   4   40.54    5.13
   7   0   4   41.24    5.11
   7   0   4   46.20    5.38
   7   0   4   49.63    5.83
   7   0   4   33.41    4.50
   7   0   4   47.97    4.91
   7   0   5   67.14    5.90
   7   0   5   71.34    6.28
   7   0   5   74.97    6.76
   7   0   5   66.07    5.63
   7   0   6   -0.27    0.64
   7   0   6   -0.13    0.59
   7   0   6   -0.31    0.62
   7   0   7    6.80    1.48
   7   0   7    8.11    1.87
   7   0   7    8.62    1.74
   7   0   8   25.30    2.75
   7   0   8   30.52    2.87
  -7  -1  14   37.57    3.73
  -7  -1  13   37.77    4.17
  -7  -1  12  117.62    7.96
  -7  -1  11  179.63   10.17
  -7  -1  10    0.83    0.92
  -7  -1   9   47.58    5.47
  -7  -1   9   42.56    5.20
   7   1  -8  174.95    9.81
  -7  -1   8  203.29   11.49
  -7  -1   8  184.51   10.50
   7   1  -7  168.64    9.93
  -7  -1   7  206.44   11.63
   7   1  -6   62.43    6.02
  -7  -1   6   67.96    6.57
   7   1  -5  133.47    9.06
   7   1  -4    5.32    1.86
   7   1  -3    3.39    1.47
   7   1  -3    3.47    1.28
   7   1  -2   25.85    4.23
   7   1  -2   21.56    3.60
   7   1  -2   23.16    3.61
   7   1  -1  292.25   14.31
   7   1  -1  277.12   13.30
   7   1  -1  267.40   12.82
   7   1  -1  288.50   13.29
   7   1   0  441.56   17.80
   7   1   0  413.50   16.85
   7   1   0  389.39   15.78
   7   1   0  413.84   16.22
   7   1   1   46.89    5.79
   7   1   1   42.62    5.49
   7   1   1   43.48    5.20
   7   1   1   40.54    5.06
   7   1   2    7.79    2.26
   7   1   2    7.46    2.08
   7   1   2    8.46    2.24
   7   1   3   64.14    6.86
   7   1   3   70.60    6.84
   7   1   3   66.97    6.53
   7   1   3   67.45    6.64
   7   1   3   61.39    5.40
   7   1   4   55.53    6.10
   7   1   4   54.93    5.74
   7   1   4   51.33    5.67
   7   1   4   54.84    5.80
   7   1   4   46.82    5.58
   7   1   4   49.93    4.91
   7   1   5   34.68    4.38
   7   1   5   37.33    4.45
   7   1   5   38.51    4.55
   7   1   5   30.21    4.26
   7   1   5   36.84    4.04
   7   1   6   18.39    2.77
   7   1   6   20.07    2.97
   7   1   6   18.70    2.91
   7   1   6   13.67    2.47
   7   1   6   21.99    2.99
   7   1   7    0.29    0.25
   7   1   7    0.63    0.51
   7   1   7    0.15    0.37
   7   1   8   30.26    2.79
   7   1   8   37.27    3.04
  -7  -2  14   49.69    4.14
  -7  -2  13   78.30    5.89
  -7  -2  12    0.21    0.52
  -7  -2  11    4.98    1.57
  -7  -2  10   13.44    2.64
  -7  -2  10   13.58    2.82
  -7  -2   9  243.89   12.19
  -7  -2   9  240.65   11.96
  -7  -2   8  144.12    9.66
  -7  -2   8  147.20    9.21
  -7  -2   7   81.33    7.14
   7   2  -6  192.33   10.31
  -7  -2   6  216.14   11.74
   7   2  -5    9.00    2.12
  -7  -2   5    7.98    2.06
   7   2  -4    5.84    1.81
  -7  -2   4    7.60    2.06
   7   2  -3  178.78   10.67
  -7  -2   3  179.69   10.36
   7   2  -2   64.74    6.61
  -7  -2   2   63.57    6.11
   7   2  -2   60.55    5.87
   7   2  -1  474.22   18.01
  -7  -2   1  436.59   15.53
   7   2  -1  434.91   16.20
   7   2   0  157.85   10.52
  -7  -2   0  141.34    8.56
   7   2   0  147.99    9.63
   7   2   1   36.17    5.04
   7   2   1   31.62    4.36
   7   2   2   96.02    8.29
   7   2   2   88.47    7.72
   7   2   2   92.02    7.61
   7   2   2   82.15    6.85
   7   2   3    2.43    1.30
   7   2   3    3.33    1.45
   7   2   3    3.22    1.38
   7   2   3    2.99    1.34
   7   2   3    3.35    1.17
   7   2   4   66.14    6.35
   7   2   4   63.74    6.00
   7   2   4   60.33    5.58
   7   2   4   60.04    6.25
   7   2   4   58.86    5.15
   7   2   5   21.29    3.41
   7   2   5   23.25    3.34
   7   2   5   21.83    3.13
   7   2   5   19.87    3.39
   7   2   5   20.71    2.94
   7   2   6   30.72    3.53
   7   2   6   34.27    3.77
   7   2   6   30.28    3.38
   7   2   6   29.13    3.65
   7   2   6   38.25    3.76
   7   2   7   15.29    2.07
   7   2   7   16.57    2.21
   7   2   7   11.58    1.90
  -7  -3  14   42.14    3.52
  -7  -3  13   18.85    2.70
  -7  -3  12    0.86    0.54
  -7  -3  11   60.22    5.56
   7   3 -10   10.36    2.27
  -7  -3  10    8.36    2.07
  -7  -3  10    9.92    2.29
  -7  -3   9   84.14    6.97
  -7  -3   9   82.73    6.80
  -7  -3   8  165.39   10.01
  -7  -3   8  160.50    9.47
  -7  -3   7   19.20    3.35
  -7  -3   6   39.74    4.92
   7   3  -5   28.69    4.00
  -7  -3   5   31.92    4.33
   7   3  -4   60.74    5.92
  -7  -3   4   61.00    6.02
   7   3  -3    0.85    0.15
  -7  -3   3    0.21    0.74
   7   3  -2  261.87   12.87
  -7  -3   2  266.02   11.91
   7   3  -2  282.90   12.55
   7   3  -1   45.40    5.40
  -7  -3   1   40.29    4.54
   7   3  -1   42.01    4.96
   7   3   0   28.20    4.04
   7   3   0   31.97    4.54
   7   3   0   32.95    4.42
   7   3   1   28.40    4.39
   7   3   1   30.64    4.43
   7   3   1   31.15    4.30
   7   3   2  140.67    9.87
   7   3   2  143.99    9.67
   7   3   2  144.15    9.36
   7   3   3   29.40    4.39
   7   3   3   33.92    4.52
   7   3   3   29.50    4.15
   7   3   3   31.00    4.48
   7   3   4    5.03    1.80
   7   3   4    5.91    1.67
   7   3   4    7.34    2.07
   7   3   4    6.30    1.70
   7   3   5   15.67    2.76
   7   3   5   16.56    2.67
   7   3   5   15.03    2.26
   7   3   5   14.99    2.76
   7   3   6   34.53    3.64
   7   3   6   34.14    3.50
   7   3   6   33.28    2.98
   7   3   6   32.17    3.69
  -7  -4  13   13.02    2.06
  -7  -4  12   17.18    2.62
  -7  -4  11    0.62    0.30
   7   4 -10    6.00    1.72
  -7  -4  10    5.42    1.51
   7   4  -9    2.20    0.98
  -7  -4   9    2.04    0.93
  -7  -4   9    2.61    1.20
   7   4  -8  147.68    9.47
  -7  -4   8  134.69    8.72
  -7  -4   8  141.30    8.68
   7   4  -7   90.42    7.60
  -7  -4   7   82.62    6.93
  -7  -4   6   13.17    2.79
  -7  -4   5   81.34    6.72
  -7  -4   4    5.21    1.60
   7   4  -3    0.90    0.89
   7   4  -3    1.14    0.85
  -7  -4   3    0.75    0.37
   7   4  -3    0.50    0.32
   7   4  -2   44.06    5.27
   7   4  -2   40.30    4.83
  -7  -4   2   41.99    4.48
   7   4  -2   40.56    4.78
   7   4  -2   42.22    4.80
   7   4  -1   37.66    4.77
   7   4  -1   35.53    4.63
  -7  -4   1   36.81    4.13
   7   4  -1   37.18    4.64
   7   4  -1   39.81    4.75
   7   4   0    7.43    2.01
   7   4   0    9.57    2.33
   7   4   0    9.70    2.44
   7   4   0   10.37    2.42
   7   4   1   98.31    7.83
   7   4   1  100.08    7.79
   7   4   1   99.57    7.51
   7   4   2    7.38    2.01
   7   4   2    9.46    2.36
   7   4   2    7.32    2.19
   7   4   3   10.38    2.43
   7   4   3   11.51    2.38
   7   4   3    9.94    2.47
   7   4   4    2.35    1.12
   7   4   4    2.38    1.01
   7   4   4    2.94    1.23
   7   4   5   16.33    2.61
   7   4   5   14.66    2.30
   7   4   5   17.34    2.79
   7   4   6   44.45    3.74
   7   4   6   44.04    3.54
   7   4   6   47.44    4.07
  -7  -5  12   -0.17    0.46
  -7  -5  11    3.21    1.23
  -7  -5  10    3.48    1.19
   7   5  -9   16.10    2.89
  -7  -5   9   13.84    2.53
   7   5  -8    1.31    0.65
  -7  -5   8    2.73    2.01
   7   5  -7   42.16    5.10
  -7  -5   7   33.51    4.07
   7   5  -6    0.84    0.71
  -7  -5   6    2.14    1.02
   7   5  -5    2.60    0.98
  -7  -5   5    1.07    0.80
   7   5  -4    0.28    0.40
  -7  -5   4    0.78    0.35
   7   5  -3   36.49    4.75
  -7  -5   3   31.70    3.85
   7   5  -2    9.19    2.33
   7   5  -2    6.92    1.88
  -7  -5   2    6.11    1.61
   7   5  -2    7.01    1.85
   7   5  -2    7.72    1.90
   7   5  -1   29.61    4.12
   7   5  -1   28.76    3.85
   7   5  -1   26.46    3.77
   7   5  -1   28.78    3.80
   7   5   0   14.91    2.76
   7   5   0   14.62    2.81
   7   5   0   15.06    2.75
   7   5   0   14.35    2.75
   7   5   1   13.53    2.64
   7   5   1   13.20    2.54
   7   5   1   13.92    2.66
   7   5   2  124.41    8.03
   7   5   2  123.03    7.67
   7   5   2  120.18    7.97
   7   5   3  109.63    7.27
   7   5   3  112.21    6.97
   7   5   3  109.86    7.35
   7   5   4    0.79    0.43
   7   5   4    0.82    0.21
   7   5   4    1.34    0.73
   7   5   5    8.91    1.69
   7   5   5    8.40    1.53
   7   5   5   10.48    1.86
  -7  -6  11  162.20    6.74
  -7  -6  10   42.28    3.76
   7   6  -9   88.36    6.18
  -7  -6   9   79.98    5.35
   7   6  -8   54.28    5.26
   7   6  -7   22.40    3.48
   7   6  -6   70.54    6.33
   7   6  -5   12.83    2.65
   7   6  -4    7.44    2.03
   7   6  -3   24.58    3.75
   7   6  -2   52.86    5.44
   7   6  -1   23.83    3.50
   7   6  -1   20.58    2.96
   7   6  -1   22.66    3.03
   7   6  -1   20.49    2.95
   7   6   0   44.77    4.51
   7   6   0   41.32    4.30
   7   6   0   43.73    4.34
   7   6   0   42.78    4.30
   7   6   1   34.74    3.87
   7   6   1   40.74    4.09
   7   6   1   32.16    3.63
   7   6   2   94.13    6.19
   7   6   2   96.81    6.02
   7   6   2   93.06    6.02
   7   6   3   28.32    3.19
   7   6   3   29.88    3.14
   7   6   3   28.77    3.13
   7   6   4   22.55    2.60
   7   6   4   22.94    2.48
   7   6   4   19.76    2.38
   7   7  -9   22.28    2.62
   7   7  -8    2.78    0.95
   7   7  -7    5.13    1.42
   7   7  -6   64.15    5.50
  -7  -7   6   71.37    6.17
   7   7  -5   18.88    2.97
   7   7  -4   20.92    3.12
   7   7  -3    0.77    0.69
   7   7  -2    5.31    1.49
   7   7  -1   18.22    2.82
   7   7   0   13.03    2.13
   7   7   0   13.71    2.06
   7   7   0   13.82    2.05
   7   7   1   55.20    4.04
   7   7   1   58.63    4.10
   7   7   2    0.43    0.29
   7   7   2    0.86    0.47
   7   8  -7    2.90    0.92
   7   8  -6    5.14    1.28
  -7  -8   6    5.94    1.40
   7   8  -5   58.28    4.65
  -7  -8   5   60.11    4.88
   7   8  -4    0.41    0.25
   7   8  -3    2.36    0.83
   7   8  -2    6.20    1.41
   8  -7  -6    0.80    0.35
   8  -7  -5    0.16    0.21
   8  -7  -4    4.15    1.13
   8  -7  -3    1.46    0.65
   8  -7  -2    9.34    1.68
   8  -7  -2    9.40    1.45
   8  -7  -1    0.06    0.20
   8  -7   0    0.61    0.35
   8  -6  -9    7.45    1.24
   8  -6  -8    0.37    0.33
   8  -6  -7    3.53    0.94
   8  -6  -7    2.64    0.91
   8  -6  -6    0.08    0.13
   8  -6  -6   -0.02    0.30
   8  -6  -5    0.46    0.27
   8  -6  -5    0.66    0.44
   8  -6  -4    2.15    0.95
   8  -6  -3    2.09    0.92
   8  -6  -2    9.28    1.97
   8  -6  -1    0.32    0.36
   8  -6  -1    0.40    0.35
   8  -6   0    0.81    0.47
   8  -6   0    0.59    0.46
   8  -6   0    0.65    0.44
   8  -6   1    8.83    1.72
   8  -6   1   10.24    1.69
   8  -6   2    2.75    0.87
   8  -6   2    1.22    0.54
   8  -5 -10   11.94    1.78
  -8   5  10   12.01    1.83
   8  -5  -9    8.15    1.61
  -8   5   9    6.47    1.44
   8  -5  -8   22.34    2.86
   8  -5  -7   48.20    4.32
   8  -5  -7   40.60    3.87
   8  -5  -6    1.53    0.90
   8  -5  -6    0.58    0.53
   8  -5  -5    3.80    1.32
   8  -5  -5    4.07    1.37
   8  -5  -4    8.56    1.84
   8  -5  -4    8.05    2.09
   8  -5  -3    4.29    1.29
   8  -5  -3    2.52    1.25
   8  -5  -2   39.30    4.56
   8  -5  -1    9.15    2.06
   8  -5  -1    9.28    2.27
   8  -5   0    1.06    0.64
   8  -5   0    0.75    0.80
   8  -5   0    0.50    0.44
   8  -5   1    8.63    1.79
   8  -5   1    6.87    1.78
   8  -5   1   11.16    2.12
   8  -5   2    6.59    1.56
   8  -5   2    4.10    1.11
   8  -5   2    7.89    1.72
   8  -5   3    9.05    1.71
   8  -5   3    6.51    1.33
   8  -5   3   10.10    1.76
   8  -4 -11    6.04    1.28
  -8   4  11    5.28    1.24
   8  -4 -10    4.70    1.26
  -8   4  10    3.30    1.08
   8  -4  -9   -0.19    0.24
  -8   4   9   -0.07    0.33
   8  -4  -8   33.15    3.89
   8  -4  -7   14.53    2.63
   8  -4  -7   11.92    2.23
   8  -4  -6   41.70    4.60
   8  -4  -6   35.56    4.12
   8  -4  -5    0.92    0.60
   8  -4  -5    1.23    0.83
   8  -4  -4   14.37    2.82
   8  -4  -4   14.81    2.89
   8  -4  -3    0.71    0.57
   8  -4  -3    0.54    0.70
   8  -4  -2   35.48    4.12
   8  -4  -2   38.63    4.83
   8  -4  -1    0.59    0.39
   8  -4  -1    0.57    0.76
   8  -4   0    1.40    1.01
   8  -4   0    1.36    0.96
   8  -4   1    1.75    0.90
   8  -4   1    2.35    1.06
   8  -4   2    2.66    1.07
   8  -4   2    2.03    0.69
   8  -4   2    3.99    1.32
   8  -4   3    5.11    1.52
   8  -4   3    5.55    1.48
   8  -4   3    6.76    1.71
   8  -4   4   35.16    3.18
   8  -4   4   43.41    3.73
   8  -4   4   36.45    2.87
   8  -3 -12   31.49    2.76
  -8   3  12   37.76    3.41
   8  -3 -11   14.48    2.21
  -8   3  11   17.83    2.65
   8  -3 -10   18.70    2.75
  -8   3  10   19.33    2.90
   8  -3  -9    1.54    1.04
  -8   3   9    1.93    0.96
   8  -3  -8   41.21    4.59
   8  -3  -7    8.36    2.17
  -8   3   7    7.73    1.84
   8  -3  -6   53.52    5.55
   8  -3  -6   45.93    4.77
   8  -3  -5    0.84    0.65
   8  -3  -5    0.48    0.39
   8  -3  -4   43.64    5.13
   8  -3  -4   43.28    5.08
   8  -3  -3    2.61    1.26
   8  -3  -3    3.23    1.50
   8  -3  -2   25.50    3.75
   8  -3  -2   26.29    4.07
   8  -3  -1    9.52    2.24
   8  -3  -1   14.13    3.07
   8  -3   0    1.16    0.81
   8  -3   0    2.67    1.25
   8  -3   0    3.01    1.36
   8  -3   1    6.65    1.98
   8  -3   1    5.48    1.71
   8  -3   2    9.64    2.43
   8  -3   2    7.64    1.89
   8  -3   2    7.19    2.01
   8  -3   3   22.88    3.41
   8  -3   3   19.88    3.00
   8  -3   3   19.79    3.12
   8  -3   4   36.56    3.63
   8  -3   4   33.63    3.71
   8  -3   4   36.38    3.11
   8  -3   5    7.04    1.40
   8  -2 -12    0.93    0.49
  -8   2  12    1.02    0.67
   8  -2 -11    9.17    1.79
  -8   2  11    9.76    2.00
   8  -2 -10    6.05    1.54
  -8   2  10    8.02    1.88
   8  -2  -9   10.95    2.32
  -8   2   9    8.15    1.97
   8  -2  -8   17.88    3.17
   8  -2  -7    3.98    1.43
  -8   2   7    3.18    1.23
   8  -2  -6    4.34    1.61
   8  -2  -5   46.91    5.47
   8  -2  -5   40.43    4.71
   8  -2  -4   14.11    2.99
   8  -2  -4   13.28    2.82
   8  -2  -3   -0.30    0.79
   8  -2  -3    0.53    0.66
   8  -2  -2    1.14    0.79
   8  -2  -2    1.46    1.22
   8  -2  -1   74.97    6.78
   8  -2  -1   80.92    7.25
   8  -2   0   28.43    4.09
   8  -2   0   36.43    4.86
   8  -2   0   30.55    4.08
   8  -2   0   36.07    4.86
   8  -2   1    1.54    0.89
   8  -2   1    0.80    0.61
   8  -2   1    1.20    0.64
   8  -2   1    0.87    0.79
   8  -2   2    3.02    1.16
   8  -2   2    3.52    1.48
   8  -2   2    4.61    1.53
   8  -2   2    3.98    1.38
   8  -2   3    0.61    0.13
   8  -2   3    0.27    0.32
   8  -2   4   51.00    4.52
   8  -2   4   47.91    4.67
   8  -2   4   48.62    3.79
   8  -2   5    5.67    1.21
   8  -2   5    5.56    1.36
   8  -2   5    4.95    1.04
  -8   1  13   74.62    4.68
  -8   1  12    5.06    1.37
   8  -1 -11    0.15    0.21
  -8   1  11    0.83    0.69
   8  -1 -10    1.33    0.71
  -8   1  10    1.08    0.82
   8  -1  -9  123.03    7.84
  -8   1   9  128.09    8.05
   8  -1  -8    0.29    0.06
  -8   1   8    0.29    0.28
   8  -1  -7   32.69    4.40
  -8   1   7   30.81    4.29
   8  -1  -6   46.73    5.35
   8  -1  -5   30.72    4.47
   8  -1  -4    0.18    0.35
   8  -1  -4    1.62    0.92
   8  -1  -3  172.58   10.28
   8  -1  -3  165.61    9.57
   8  -1  -2    4.52    1.75
   8  -1  -2    3.27    1.44
   8  -1  -2    3.03    0.92
   8  -1  -1    9.11    2.45
   8  -1  -1    9.79    2.59
   8  -1  -1    8.11    2.05
   8  -1  -1    8.54    2.25
   8  -1   0   31.05    4.44
   8  -1   0   34.87    4.77
   8  -1   0   29.89    4.18
   8  -1   0   34.35    4.63
   8  -1   1   10.76    2.47
   8  -1   1   11.68    2.75
   8  -1   1   10.57    2.35
   8  -1   1   11.65    2.59
   8  -1   2   16.38    2.99
   8  -1   2   22.03    3.79
   8  -1   2   22.55    3.50
   8  -1   2   23.22    3.64
   8  -1   3    3.08    1.20
   8  -1   3    4.38    1.39
   8  -1   3    5.42    1.64
   8  -1   3    6.03    1.86
   8  -1   4   21.97    2.79
   8  -1   4   30.86    3.62
   8  -1   4   30.84    3.75
   8  -1   4   27.78    2.82
   8  -1   5    9.98    1.78
   8  -1   5    8.18    1.73
   8  -1   5    9.00    1.44
   8  -1   6    9.92    1.60
  -8   0  13    1.36    0.63
  -8   0  12   52.29    4.47
  -8   0  11   41.91    4.30
   8   0 -10   21.49    2.95
  -8   0  10   26.82    3.62
   8   0  -9   84.72    6.31
  -8   0   9   96.05    6.99
  -8   0   9  100.36    7.04
   8   0  -8    3.40    1.21
  -8   0   8    4.72    1.70
   8   0  -7   28.54    4.04
  -8   0   7   34.83    4.56
   8   0  -6    0.27    0.49
  -8   0   6    0.57    0.17
   8   0  -5   13.98    2.99
  -8   0   5   14.99    2.87
   8   0  -4   15.96    3.13
   8   0  -3   68.27    6.68
   8   0  -3   59.74    5.79
   8   0  -3   60.56    5.60
   8   0  -2    9.46    2.55
   8   0  -2    7.63    2.00
   8   0  -2    7.73    2.05
   8   0  -2   10.82    2.60
   8   0  -1    7.57    2.10
   8   0  -1    6.33    1.85
   8   0  -1    7.24    2.02
   8   0  -1    8.44    2.17
   8   0   0    1.37    0.89
   8   0   0    0.07    0.32
   8   0   0   -0.16    0.40
   8   0   0    0.59    0.76
   8   0   1   29.40    4.29
   8   0   1   30.51    4.41
   8   0   1   29.71    4.07
   8   0   1   27.68    4.10
   8   0   2   37.85    4.76
   8   0   2   41.37    4.75
   8   0   2   41.31    4.76
   8   0   3    1.72    0.99
   8   0   3    0.22    0.20
   8   0   3    0.88    0.77
   8   0   3    0.99    0.63
   8   0   3    0.93    0.60
   8   0   4   13.17    2.29
   8   0   4   16.06    2.60
   8   0   4   14.98    2.56
   8   0   4    8.84    1.83
   8   0   5   20.49    2.60
   8   0   5   20.51    2.64
   8   0   5   20.21    2.19
  -8  -1  13    0.98    0.42
  -8  -1  12   73.93    5.24
  -8  -1  11   12.29    2.26
  -8  -1  10    8.62    1.92
  -8  -1  10    9.55    2.07
   8   1  -9   27.09    3.30
  -8  -1   9   28.53    3.77
  -8  -1   9   29.26    3.73
   8   1  -8   -0.09    0.73
  -8  -1   8    1.51    0.76
   8   1  -7   49.51    5.12
  -8  -1   7   61.21    6.08
   8   1  -6   10.81    2.43
  -8  -1   6   14.41    2.97
   8   1  -5  194.82   10.81
  -8  -1   5  224.11   11.72
   8   1  -4   81.64    7.07
  -8  -1   4   86.44    7.31
   8   1  -3  106.96    8.28
  -8  -1   3  113.51    8.19
   8   1  -3  104.12    7.33
   8   1  -2  176.44   10.66
   8   1  -2  172.39    9.88
  -8  -1   2  174.18   10.01
   8   1  -2  159.88    9.36
   8   1  -1   73.26    6.96
  -8  -1   1   74.75    6.37
   8   1  -1   72.44    6.34
   8   1  -1   75.53    6.20
   8   1   0   29.60    4.29
  -8  -1   0   29.97    3.83
   8   1   0   33.40    4.30
   8   1   0   28.22    3.85
   8   1   1  133.11    9.13
  -8  -1  -1  132.34    7.75
   8   1   1  137.33    8.69
   8   1   1  130.76    8.22
   8   1   2    0.75    0.66
   8   1   2    1.01    0.86
   8   1   2    1.12    0.93
   8   1   2    0.53    0.18
   8   1   3   19.97    3.17
   8   1   3   18.11    3.07
   8   1   3   20.04    3.02
   8   1   3   18.49    2.81
   8   1   3   17.52    3.02
   8   1   4   92.71    6.18
   8   1   4  104.08    6.51
   8   1   4   99.82    6.09
   8   1   5   79.83    4.98
   8   1   5   74.94    4.66
  -8  -2  12   17.20    2.36
  -8  -2  11   -0.47    0.53
  -8  -2  10    3.18    1.08
  -8  -2  10    2.64    1.00
  -8  -2   9    0.21    0.49
  -8  -2   8   93.59    7.14
   8   2  -7   27.33    3.54
  -8  -2   7   35.69    4.47
   8   2  -6   21.35    3.29
  -8  -2   6   25.74    3.90
   8   2  -5    9.79    2.31
  -8  -2   5    9.41    2.28
   8   2  -4   14.21    2.78
  -8  -2   4   17.44    3.10
   8   2  -3   65.33    6.17
  -8  -2   3   64.65    6.06
   8   2  -2   69.92    6.60
  -8  -2   2   75.03    6.23
   8   2  -2   73.27    6.15
   8   2  -1   15.19    3.09
  -8  -2   1   15.01    2.74
   8   2  -1   16.60    3.04
   8   2   0   10.44    2.47
  -8  -2   0    9.84    2.05
   8   2   0   10.14    2.18
   8   2   1   30.86    4.31
   8   2   1   32.51    4.30
   8   2   1   32.38    3.99
   8   2   2    2.50    1.23
   8   2   2    2.31    1.24
   8   2   2    2.09    0.70
   8   2   2    1.43    0.70
   8   2   3   64.87    5.61
   8   2   3   71.68    5.59
   8   2   3   59.86    4.40
   8   2   3   66.75    5.69
   8   2   4   59.80    4.75
   8   2   4   61.69    4.76
   8   2   4   53.00    3.74
   8   2   4   56.22    4.70
   8   2   5    9.69    1.60
  -8  -3  12   21.57    2.40
  -8  -3  11    1.13    0.65
   8   3 -10    5.31    1.38
  -8  -3  10    5.03    1.39
   8   3  -9    5.87    1.59
  -8  -3   9    5.70    1.54
  -8  -3   8   86.80    6.63
  -8  -3   7   23.99    3.54
  -8  -3   6   11.31    2.43
   8   3  -5   33.29    3.99
  -8  -3   5   33.72    4.30
   8   3  -4  126.94    8.07
  -8  -3   4  133.20    8.29
   8   3  -3   -0.03    0.23
   8   3  -3    0.41    0.12
  -8  -3   3    0.14    0.32
   8   3  -2   74.03    6.28
   8   3  -2   72.19    6.32
  -8  -3   2   73.84    5.86
   8   3  -2   68.85    6.06
   8   3  -2   74.68    5.94
   8   3  -1   67.61    5.82
   8   3  -1   67.21    6.18
  -8  -3   1   66.48    5.29
   8   3  -1   66.92    6.07
   8   3  -1   69.61    5.84
   8   3   0   12.91    2.61
   8   3   0   11.98    2.49
   8   3   0   13.40    2.48
   8   3   1    1.19    0.58
   8   3   1    0.80    0.48
   8   3   1    1.48    0.90
   8   3   1    0.84    0.60
   8   3   2   42.58    4.53
   8   3   2   42.85    4.24
   8   3   2   41.04    4.60
   8   3   3   10.04    2.05
   8   3   3    9.38    1.80
   8   3   3   10.14    2.14
   8   3   4   36.60    3.46
   8   3   4   36.11    3.35
   8   3   4   34.18    3.49
  -8  -4  11   42.31    3.31
   8   4 -10   17.97    2.48
  -8  -4  10   24.09    2.85
   8   4  -9   31.76    3.69
   8   4  -8   12.00    2.38
  -8  -4   8   10.97    2.15
   8   4  -7    0.98    0.62
  -8  -4   7    0.45    0.47
   8   4  -6   48.23    5.13
  -8  -4   6   43.97    4.53
   8   4  -5   64.86    5.94
  -8  -4   5   57.87    5.16
   8   4  -4   74.50    6.33
   8   4  -4   65.70    5.25
  -8  -4   4   67.61    5.53
   8   4  -3    0.79    0.62
   8   4  -3    0.69    0.54
  -8  -4   3    0.20    0.18
   8   4  -3    0.03    0.45
   8   4  -2   19.21    3.01
   8   4  -2   17.24    2.87
  -8  -4   2   15.73    2.39
   8   4  -2   16.35    2.74
   8   4  -2   17.22    2.53
   8   4  -1  116.37    7.26
   8   4  -1  117.75    7.50
   8   4  -1  118.06    7.42
   8   4  -1  119.51    7.07
   8   4   0   11.22    2.30
   8   4   0   11.80    2.31
   8   4   0   10.64    2.07
   8   4   0   11.18    2.27
   8   4   1   17.22    2.77
   8   4   1   17.46    2.53
   8   4   1   15.86    2.67
   8   4   2   41.00    4.03
   8   4   2   40.44    3.79
   8   4   2   38.84    4.05
   8   4   3   13.26    2.09
   8   4   3   12.92    1.98
   8   4   3   12.33    2.07
   8   5  -9    3.78    1.19
   8   5  -8    0.27    0.04
   8   5  -7   35.23    4.00
   8   5  -6   78.67    6.10
   8   5  -5    2.61    1.14
  -8  -5   5    1.81    0.66
   8   5  -4    0.99    0.65
  -8  -5   4    0.43    0.34
   8   5  -3   16.83    2.80
  -8  -5   3   11.88    1.96
   8   5  -3   12.54    2.07
   8   5  -2   27.96    3.52
   8   5  -2   27.83    3.21
   8   5  -2   27.43    3.22
   8   5  -1  101.30    6.22
   8   5  -1   93.44    5.90
   8   5  -1   97.82    5.76
   8   5  -1   94.85    6.03
   8   5   0   -0.12    0.46
   8   5   0    0.61    0.35
   8   5   0    0.18    0.38
   8   5   1    1.76    0.58
   8   5   1    1.26    0.50
   8   5   1    1.79    0.67
   8   5   2   14.54    2.05
   8   5   2   16.49    2.05
   8   5   2   15.11    2.14
   8   6  -8   10.40    1.83
   8   6  -7   24.83    3.01
   8   6  -6   29.08    3.37
   8   6  -5    1.13    0.62
   8   6  -4   37.61    3.88
   8   6  -3    2.83    1.16
   8   6  -2   28.69    3.07
   8   6  -1   38.96    3.07
   8   7  -6   26.07    2.66
   8   7  -5   62.04    4.23
   8   7  -4    0.19    0.13
   9  -5  -5    2.27    0.71
   9  -5  -4   16.07    2.09
   9  -5  -3    1.18    0.48
   9  -5  -3    0.75    0.35
   9  -5  -3    1.39    0.63
   9  -5  -2   11.30    1.81
   9  -5  -2   10.08    1.52
   9  -5  -2   11.90    1.76
   9  -5  -1    0.38    0.23
   9  -5  -1   -0.18    0.31
   9  -5  -1    0.06    0.08
   9  -4  -8    2.36    0.79
   9  -4  -7    7.75    1.50
   9  -4  -6    2.74    0.91
  -9   4   6    3.12    0.90
   9  -4  -5   24.20    2.71
   9  -4  -5   20.06    2.52
  -9   4   5   29.07    3.12
   9  -4  -4    0.61    0.43
   9  -4  -4    0.22    0.18
   9  -4  -4    0.18    0.16
   9  -4  -3    1.02    0.60
   9  -4  -3    0.56    0.32
   9  -4  -3    0.10    0.25
   9  -4  -3   -0.02    0.38
   9  -4  -2    0.12    0.13
   9  -4  -2   -0.16    0.39
   9  -4  -2   -0.18    0.26
   9  -4  -2   -0.07    0.40
   9  -4  -1    1.61    0.79
   9  -4  -1    0.95    0.54
   9  -4  -1    1.93    0.78
   9  -4   0    3.55    1.08
   9  -4   0    3.36    0.95
   9  -4   0    4.57    1.17
   9  -4   1   22.14    2.46
   9  -4   1   18.11    2.15
   9  -4   1   20.16    2.27
   9  -3  -9    0.38    0.33
   9  -3  -8   21.91    2.63
   9  -3  -7    9.72    1.91
  -9   3   7   10.26    1.78
   9  -3  -6   19.18    2.74
  -9   3   6   22.51    2.89
   9  -3  -5    3.36    1.07
  -9   3   5    3.92    1.10
   9  -3  -5    3.59    1.15
   9  -3  -4    3.07    1.06
   9  -3  -4    2.03    0.87
   9  -3  -4    2.24    0.71
   9  -3  -3    0.12    0.41
   9  -3  -3   -0.21    0.51
   9  -3  -3   -0.31    0.51
   9  -3  -3   -0.18    0.68
   9  -3  -2    0.98    0.52
   9  -3  -2    0.83    0.65
   9  -3  -2    1.04    0.34
   9  -3  -2    0.33    0.21
   9  -3  -1    5.64    1.28
   9  -3  -1    5.30    1.56
   9  -3  -1    6.10    1.43
   9  -3  -1    5.62    1.44
   9  -3   0    2.31    0.99
   9  -3   0    2.48    0.88
   9  -3   0    1.79    0.78
   9  -3   1   20.75    2.55
   9  -3   1   23.45    2.76
   9  -3   2    0.21    0.36
   9  -3   2    0.08    0.24
   9  -2 -10    9.08    1.45
   9  -2  -9   15.54    2.24
   9  -2  -8   14.69    2.27
   9  -2  -7    0.81    0.40
  -9   2   7    0.75    0.33
   9  -2  -6    4.52    1.24
  -9   2   6    4.46    1.31
   9  -2  -5    6.88    1.63
  -9   2   5    6.42    1.72
   9  -2  -4   64.85    5.41
   9  -2  -4   62.04    4.99
   9  -2  -3    2.75    1.00
   9  -2  -3    3.12    1.18
   9  -2  -3    2.71    0.57
   9  -2  -3    2.95    1.19
   9  -2  -2    8.20    1.88
   9  -2  -2   10.15    2.16
   9  -2  -2    9.51    1.81
   9  -2  -2   10.38    2.15
   9  -2  -1    7.40    1.72
   9  -2  -1   10.03    2.15
   9  -2  -1    8.31    1.78
   9  -2  -1    9.70    2.01
   9  -2   0    0.51    0.47
   9  -2   0    0.97    0.65
   9  -2   0    0.36    0.42
   9  -2   0    0.81    0.61
   9  -2   1    0.41    0.29
   9  -2   1    1.06    0.57
   9  -2   1    1.48    0.79
   9  -2   2    0.27    0.30
   9  -2   2    0.39    0.07
   9  -1 -10    0.33    0.16
   9  -1  -9   24.37    2.79
   9  -1  -8   -0.08    0.48
  -9   1   8    0.37    0.26
   9  -1  -7    2.68    0.79
  -9   1   7    4.34    1.34
   9  -1  -6   12.90    2.31
  -9   1   6   16.04    2.65
   9  -1  -5    8.61    1.89
  -9   1   5    9.25    2.00
   9  -1  -4   25.01    3.36
  -9   1   4   26.50    3.62
   9  -1  -4   25.27    3.19
   9  -1  -3   10.18    2.25
  -9   1   3   12.80    2.35
   9  -1  -3   10.59    2.11
   9  -1  -3   10.88    2.01
   9  -1  -3   11.42    2.20
   9  -1  -2    5.48    1.61
   9  -1  -2    6.28    1.68
   9  -1  -2    5.74    1.55
   9  -1  -2    6.84    1.69
   9  -1  -1    1.93    0.88
   9  -1  -1    1.82    1.03
   9  -1  -1    1.34    0.79
   9  -1  -1    1.85    0.87
   9  -1   0    0.85    0.61
   9  -1   0    0.34    0.49
   9  -1   0    0.17    0.22
   9  -1   1    1.22    0.66
  -9   1  -1    0.90    0.45
   9  -1   1    0.20    0.51
   9  -1   1    2.25    0.88
   9  -1   1    1.44    0.56
   9  -1   1    0.65    0.11
   9  -1   2    0.20    0.24
   9  -1   2    0.21    0.23
   9  -1   2   -0.09    0.33
   9   0  -9   17.35    2.25
  -9   0   9   18.31    2.38
   9   0  -8    0.24    0.45
  -9   0   8    0.82    0.57
   9   0  -7    3.10    1.01
  -9   0   7    4.83    1.48
   9   0  -6   -0.18    0.59
  -9   0   6    0.40    0.10
   9   0  -5   10.93    2.21
  -9   0   5   13.00    2.39
   9   0  -4   65.32    5.60
  -9   0   4   69.15    5.89
   9   0  -3   48.81    4.88
  -9   0   3   47.77    4.78
   9   0  -3   43.58    4.02
   9   0  -2   78.92    6.22
  -9   0   2   84.40    6.17
   9   0  -2   76.80    5.47
   9   0  -2   77.07    5.38
   9   0  -1    1.75    0.96
  -9   0   1    0.25    0.69
   9   0  -1    1.65    0.88
   9   0  -1    1.84    0.92
   9   0   0   10.80    2.12
  -9   0   0   13.06    2.13
   9   0   0   12.53    2.16
   9   0   0   10.69    1.89
   9   0   1    2.18    0.86
   9   0   1    2.43    0.89
   9   0   1    2.23    0.72
   9   0   1    1.48    0.49
   9   0   1    0.59    0.32
   9   0   2    5.40    1.21
   9   0   2    6.89    1.43
   9   0   2    6.26    1.22
   9   1 -10   11.70    1.80
  -9  -1   9    0.64    0.47
   9   1  -8   10.08    1.81
  -9  -1   8   14.68    2.38
   9   1  -7   86.57    5.67
  -9  -1   7  104.45    6.70
   9   1  -6   52.47    4.66
  -9  -1   6   63.06    5.30
   9   1  -5    0.12    0.38
  -9  -1   5    0.72    0.82
   9   1  -4  234.24   10.33
  -9  -1   4  256.61   10.86
   9   1  -3   73.89    5.90
  -9  -1   3   79.14    5.91
   9   1  -2  169.52    7.99
   9   1  -2  182.16    9.29
  -9  -1   2  201.10    9.17
   9   1  -2  184.36    8.18
   9   1  -1    4.40    1.36
  -9  -1   1    4.65    1.33
   9   1  -1    3.73    1.31
   9   1  -1    3.83    1.29
   9   1   0    1.42    0.58
  -9  -1   0    2.68    0.90
   9   1   0    1.95    0.87
   9   1   0    1.51    0.70
   9   1   1   20.23    2.72
   9   1   1   21.89    2.75
   9   1   1   20.35    2.57
   9   1   1   17.43    2.54
   9   1   2    0.57    0.44
   9   1   2    1.42    0.68
   9   1   2    0.90    0.56
   9   2 -10   10.61    1.69
   9   2  -9   59.53    4.50
  -9  -2   9   51.10    3.94
   9   2  -8  127.93    7.05
  -9  -2   8  120.66    6.63
   9   2  -7    1.49    0.70
  -9  -2   7    1.19    0.83
   9   2  -6    5.20    1.39
  -9  -2   6    5.51    1.56
   9   2  -5   69.47    5.21
  -9  -2   5   78.91    5.74
   9   2  -5   66.16    4.83
   9   2  -4   26.46    3.38
   9   2  -4   22.82    3.07
  -9  -2   4   25.45    3.21
   9   2  -4   24.46    3.00
   9   2  -3    4.47    1.42
   9   2  -3    3.91    1.33
  -9  -2   3    3.91    1.26
   9   2  -3    4.04    1.32
   9   2  -2   79.09    5.29
   9   2  -2   90.87    6.20
  -9  -2   2   91.02    5.72
   9   2  -2   88.80    5.93
   9   2  -2   89.29    5.34
   9   2  -1    2.09    0.88
  -9  -2   1    2.13    0.85
   9   2  -1    1.77    0.79
   9   2  -1    2.02    0.82
   9   2   0   56.06    4.58
   9   2   0   57.15    4.54
   9   2   0   57.71    4.25
   9   2   0   52.17    4.57
   9   2   1    5.26    1.38
   9   2   1    5.48    1.29
   9   2   1    5.16    1.36
   9   3  -9   18.28    2.34
   9   3  -8    0.50    0.41
  -9  -3   8    0.40    0.37
   9   3  -7    3.88    1.13
  -9  -3   7    4.60    1.23
   9   3  -6   67.83    5.25
  -9  -3   6   64.01    4.74
   9   3  -5    5.21    1.42
   9   3  -5    4.52    1.17
  -9  -3   5    5.60    1.40
   9   3  -4   22.87    2.97
   9   3  -4   20.43    2.65
  -9  -3   4   24.96    2.93
   9   3  -4   21.19    2.54
   9   3  -3    5.09    1.29
   9   3  -3    4.69    1.31
  -9  -3   3    5.15    1.26
   9   3  -3    4.68    1.19
   9   3  -2    3.07    0.93
   9   3  -2    2.81    1.03
  -9  -3   2    3.52    0.96
   9   3  -2    3.24    1.05
   9   3  -1   39.99    3.71
   9   3  -1   40.56    3.64
   9   3  -1   37.74    3.16
   9   3  -1   39.40    3.84
   9   3   0   80.18    4.97
   9   3   0   76.69    4.41
   9   3   0   79.24    5.05
   9   3   1    1.75    0.69
   9   3   1    1.02    0.51
   9   4  -8   61.26    4.24
   9   4  -7   47.43    3.91
   9   4  -6    5.25    1.29
   9   4  -5   14.15    2.16
  -9  -4   5   12.44    1.81
   9   4  -4   44.95    3.80
  -9  -4   4   39.79    3.21
   9   4  -4   41.98    3.31
   9   4  -3    5.62    1.32
   9   4  -3    4.87    1.16
   9   4  -2   10.31    1.58
   9   4  -2    9.57    1.64
   9   4  -1   26.29    2.59
   9   5  -5   12.22    1.76
   0   0   0    0.00    0.00


TITL 424-5-1 in P-1
REM P-1 (#2 in standard setting)
CELL 1.54184   8.079256   9.965214  13.694306  93.1981 105.7892  91.3766
ZERR   12.00   0.000244   0.000313   0.000324   0.0022   0.0023   0.0025
LATT  1
SFAC C H N O F S
UNIT 12.00 12.00 12.00 12.00 12.00 12.00
TREF
HKLF 4
END
_computing_structure_solution     'SHELXT 2014/5 (Sheldrick, 2014)'
;
_shelx_hkl_checksum              8410
loop_
_space_group_symop_operation_xyz
'x, y, z'
'-x, -y, -z'
loop_
_atom_site_label
_atom_site_type_symbol
_atom_site_fract_x
_atom_site_fract_y
_atom_site_fract_z
_atom_site_U_iso_or_equiv
_atom_site_adp_type
_atom_site_occupancy
_atom_site_site_symmetry_order
_atom_site_calc_flag
_atom_site_refinement_flags_posn
_atom_site_refinement_flags_adp
S8 S 0.36343(6) 0.44580(5) 0.60841(3) 0.03943(18) Uani 1 1 d . .
F21 F 1.04862(18) 0.77184(16) 0.77090(12) 0.0645(4) Uani 1 1 d . .
F22 F 1.18608(17) 0.61213(16) 0.85195(13) 0.0663(4) Uani 1 1 d . .
F23 F 1.14660(19) 0.79298(18) 0.93355(13) 0.0734(5) Uani 1 1 d . .
O19 O 0.9494(2) 0.36807(17) 0.88719(11) 0.0534(4) Uani 1 1 d . .
N9 N 0.5424(2) 0.53469(16) 0.64254(11) 0.0350(4) Uani 1 1 d . .
H9 H 0.5864 0.5691 0.5986 0.042 Uiso 1 1 calc R U
O25 O 0.3666(3) 0.35054(18) 0.52700(12) 0.0708(6) Uani 1 1 d . .
O24 O 0.2143(2) 0.5256(2) 0.59137(15) 0.0687(6) Uani 1 1 d . .
C17 C 0.6129(2) 0.69484(17) 0.79626(13) 0.0309(4) Uani 1 1 d . .
C1 C 0.6259(2) 0.55381(17) 0.75177(12) 0.0287(4) Uani 1 1 d . .
C3 C 0.5701(2) 0.41860(19) 0.89845(13) 0.0344(4) Uani 1 1 d . .
H3 H 0.6599 0.4639 0.9473 0.041 Uiso 1 1 calc R U
C2 C 0.5336(2) 0.44834(16) 0.79708(13) 0.0284(4) Uani 1 1 d . .
C10 C 0.8268(2) 0.53870(18) 0.77750(13) 0.0313(4) Uani 1 1 d . .
H10 H 0.8644 0.5638 0.7185 0.038 Uiso 1 1 calc R U
C7 C 0.3985(2) 0.37888(17) 0.72695(13) 0.0313(4) Uani 1 1 d . .
C12 C 0.7669(2) 0.74290(18) 0.86258(14) 0.0341(4) Uani 1 1 d . .
C6 C 0.2962(2) 0.28003(19) 0.75233(15) 0.0366(4) Uani 1 1 d . .
H6 H 0.2060 0.2350 0.7035 0.044 Uiso 1 1 calc R U
C11 C 0.9061(2) 0.64337(19) 0.86620(14) 0.0359(4) Uani 1 1 d . .
H11 H 0.9296 0.5993 0.9305 0.043 Uiso 1 1 calc R U
C18 C 0.8822(2) 0.3952(2) 0.80038(14) 0.0357(4) Uani 1 1 d . .
C16 C 0.4673(3) 0.7709(2) 0.77755(16) 0.0406(4) Uani 1 1 d . .
H16 H 0.3646 0.7386 0.7320 0.049 Uiso 1 1 calc R U
C5 C 0.3347(3) 0.25191(19) 0.85345(15) 0.0405(4) Uani 1 1 d . .
H5 H 0.2692 0.1865 0.8736 0.049 Uiso 1 1 calc R U
C4 C 0.4696(3) 0.3197(2) 0.92533(14) 0.0387(4) Uani 1 1 d . .
H4 H 0.4934 0.2986 0.9929 0.046 Uiso 1 1 calc R U
C26 C 0.8449(3) 0.29057(19) 0.71551(16) 0.0387(4) Uani 1 1 d . .
C13 C 0.7763(3) 0.8681(2) 0.91516(16) 0.0460(5) Uani 1 1 d . .
H13 H 0.8787 0.9001 0.9613 0.055 Uiso 1 1 calc R U
C27 C 0.8413(3) 0.3168(2) 0.61725(16) 0.0452(5) Uani 1 1 d . .
H27 H 0.8582 0.4048 0.6016 0.054 Uiso 1 1 calc R U
C14 C 0.6313(3) 0.9436(2) 0.89762(19) 0.0531(6) Uani 1 1 d . .
H14 H 0.6358 1.0270 0.9325 0.064 Uiso 1 1 calc R U
C15 C 0.4791(3) 0.8960(2) 0.8285(2) 0.0520(6) Uani 1 1 d . .
H15 H 0.3834 0.9491 0.8162 0.062 Uiso 1 1 calc R U
C20 C 1.0703(3) 0.7055(2) 0.85541(17) 0.0471(5) Uani 1 1 d . .
C28 C 0.8129(4) 0.2145(3) 0.5416(2) 0.0595(6) Uani 1 1 d . .
H28 H 0.8133 0.2342 0.4760 0.071 Uiso 1 1 calc R U
C31 C 0.8202(4) 0.1579(2) 0.7372(2) 0.0631(7) Uani 1 1 d . .
H31 H 0.8253 0.1375 0.8034 0.076 Uiso 1 1 calc R U
C29 C 0.7840(4) 0.0829(3) 0.5621(2) 0.0713(8) Uani 1 1 d . .
C30 C 0.7882(5) 0.0568(3) 0.6609(3) 0.0826(10) Uani 1 1 d . .
H30 H 0.7690 -0.0310 0.6761 0.099 Uiso 1 1 calc R U
C32 C 0.7489(7) -0.0285(4) 0.4785(3) 0.1163(16) Uani 1 1 d . .
H32A H 0.6284 -0.0339 0.4434 0.174 Uiso 1 1 calc R U
H32B H 0.7820 -0.1126 0.5076 0.174 Uiso 1 1 calc R U
H32C H 0.8141 -0.0099 0.4314 0.174 Uiso 1 1 calc R U
loop_
_atom_site_aniso_label
_atom_site_aniso_U_11
_atom_site_aniso_U_22
_atom_site_aniso_U_33
_atom_site_aniso_U_23
_atom_site_aniso_U_13
_atom_site_aniso_U_12
S8 0.0454(3) 0.0418(3) 0.0253(3) 0.00498(19) 0.0012(2) -0.0185(2)
F21 0.0512(8) 0.0759(10) 0.0710(10) 0.0248(8) 0.0221(7) -0.0156(7)
F22 0.0364(7) 0.0744(10) 0.0884(11) 0.0076(8) 0.0178(7) -0.0017(6)
F23 0.0498(8) 0.0778(11) 0.0794(11) -0.0180(8) 0.0025(7) -0.0319(7)
O19 0.0667(10) 0.0572(10) 0.0362(8) 0.0100(7) 0.0117(7) 0.0128(8)
N9 0.0432(8) 0.0384(8) 0.0222(7) 0.0032(6) 0.0080(6) -0.0144(7)
O25 0.1173(16) 0.0635(11) 0.0282(8) -0.0123(7) 0.0217(9) -0.0496(11)
O24 0.0400(8) 0.0829(13) 0.0752(12) 0.0408(10) -0.0044(8) -0.0062(8)
C17 0.0368(9) 0.0281(8) 0.0297(9) 0.0018(6) 0.0135(7) -0.0083(7)
C1 0.0330(8) 0.0293(8) 0.0233(8) 0.0009(6) 0.0078(6) -0.0070(6)
C3 0.0386(9) 0.0401(10) 0.0254(9) 0.0011(7) 0.0112(7) -0.0037(7)
C2 0.0333(8) 0.0266(8) 0.0267(8) 0.0018(6) 0.0113(7) -0.0032(6)
C10 0.0329(8) 0.0348(9) 0.0271(8) 0.0006(7) 0.0108(7) -0.0063(7)
C7 0.0365(9) 0.0289(8) 0.0292(9) 0.0020(6) 0.0106(7) -0.0057(7)
C12 0.0405(9) 0.0331(9) 0.0302(9) -0.0010(7) 0.0139(7) -0.0120(7)
C6 0.0402(9) 0.0326(9) 0.0384(10) 0.0000(7) 0.0143(8) -0.0103(7)
C11 0.0340(9) 0.0414(10) 0.0298(9) 0.0007(7) 0.0062(7) -0.0109(8)
C18 0.0346(9) 0.0414(10) 0.0332(10) 0.0049(7) 0.0127(7) -0.0005(7)
C16 0.0392(10) 0.0355(10) 0.0488(11) 0.0025(8) 0.0155(8) -0.0049(8)
C5 0.0483(11) 0.0346(10) 0.0454(11) 0.0081(8) 0.0239(9) -0.0059(8)
C4 0.0496(11) 0.0403(10) 0.0317(10) 0.0094(7) 0.0191(8) 0.0014(8)
C26 0.0403(10) 0.0333(10) 0.0444(11) 0.0033(8) 0.0151(8) -0.0011(7)
C13 0.0541(12) 0.0392(11) 0.0449(12) -0.0114(8) 0.0184(9) -0.0201(9)
C27 0.0595(13) 0.0352(10) 0.0395(11) 0.0008(8) 0.0113(9) 0.0023(9)
C14 0.0739(15) 0.0312(10) 0.0614(14) -0.0090(9) 0.0342(12) -0.0120(10)
C15 0.0592(13) 0.0344(11) 0.0701(15) 0.0030(10) 0.0309(12) 0.0025(9)
C20 0.0352(10) 0.0534(13) 0.0493(12) 0.0022(9) 0.0072(9) -0.0129(9)
C28 0.0828(18) 0.0442(12) 0.0483(13) -0.0068(10) 0.0140(12) 0.0048(12)
C31 0.0900(19) 0.0395(12) 0.0672(16) 0.0109(11) 0.0335(14) -0.0067(12)
C29 0.089(2) 0.0414(13) 0.079(2) -0.0149(12) 0.0189(16) -0.0052(13)
C30 0.123(3) 0.0331(13) 0.097(2) 0.0000(13) 0.041(2) -0.0142(15)
C32 0.165(4) 0.056(2) 0.115(3) -0.039(2) 0.027(3) -0.011(2)
loop_
_atom_type_symbol
_atom_type_description
_atom_type_scat_dispersion_real
_atom_type_scat_dispersion_imag
_atom_type_scat_source
C C 0.0181 0.0091 'International Tables Vol C Tables 4.2.6.8 and 6.1.1.4'
H H 0.0000 0.0000 'International Tables Vol C Tables 4.2.6.8 and 6.1.1.4'
F F 0.0727 0.0534 'International Tables Vol C Tables 4.2.6.8 and 6.1.1.4'
N N 0.0311 0.0180 'International Tables Vol C Tables 4.2.6.8 and 6.1.1.4'
O O 0.0492 0.0322 'International Tables Vol C Tables 4.2.6.8 and 6.1.1.4'
S S 0.3331 0.5567 'International Tables Vol C Tables 4.2.6.8 and 6.1.1.4'
loop_
_geom_angle_atom_site_label_1
_geom_angle_atom_site_label_2
_geom_angle_atom_site_label_3
_geom_angle
O25 S8 O24 115.45(13)
O25 S8 N9 109.64(10)
O24 S8 N9 113.21(10)
O25 S8 C7 114.75(10)
O24 S8 C7 108.82(10)
N9 S8 C7 92.90(8)
C1 N9 S8 116.83(12)
C1 N9 H9 121.6
S8 N9 H9 121.6
C12 C17 C16 121.33(17)
C12 C17 C1 112.02(16)
C16 C17 C1 126.64(16)
N9 C1 C17 113.70(14)
N9 C1 C2 103.35(13)
C17 C1 C2 112.02(13)
N9 C1 C10 112.19(14)
C17 C1 C10 102.17(13)
C2 C1 C10 113.81(14)
C2 C3 C4 118.61(17)
C2 C3 H3 120.7
C4 C3 H3 120.7
C7 C2 C3 118.83(16)
C7 C2 C1 114.10(15)
C3 C2 C1 127.06(15)
C18 C10 C11 113.38(15)
C18 C10 C1 113.36(14)
C11 C10 C1 105.85(14)
C18 C10 H10 108.0
C11 C10 H10 108.0
C1 C10 H10 108.0
C2 C7 C6 123.44(17)
C2 C7 S8 110.31(13)
C6 C7 S8 125.91(14)
C17 C12 C13 119.97(19)
C17 C12 C11 110.79(15)
C13 C12 C11 129.25(18)
C5 C6 C7 116.81(17)
C5 C6 H6 121.6
C7 C6 H6 121.6
C20 C11 C12 113.54(17)
C20 C11 C10 110.99(16)
C12 C11 C10 104.50(14)
C20 C11 H11 109.2
C12 C11 H11 109.2
C10 C11 H11 109.2
O19 C18 C26 121.25(18)
O19 C18 C10 120.08(17)
C26 C18 C10 118.62(16)
C15 C16 C17 118.2(2)
C15 C16 H16 120.9
C17 C16 H16 120.9
C6 C5 C4 120.99(17)
C6 C5 H5 119.5
C4 C5 H5 119.5
C5 C4 C3 121.31(17)
C5 C4 H4 119.3
C3 C4 H4 119.3
C27 C26 C31 118.4(2)
C27 C26 C18 123.37(18)
C31 C26 C18 118.1(2)
C14 C13 C12 118.9(2)
C14 C13 H13 120.5
C12 C13 H13 120.5
C26 C27 C28 121.1(2)
C26 C27 H27 119.5
C28 C27 H27 119.5
C13 C14 C15 120.51(19)
C13 C14 H14 119.7
C15 C14 H14 119.7
C16 C15 C14 121.0(2)
C16 C15 H15 119.5
C14 C15 H15 119.5
F21 C20 F23 106.65(19)
F21 C20 F22 106.46(19)
F23 C20 F22 106.04(18)
F21 C20 C11 113.11(17)
F23 C20 C11 112.60(19)
F22 C20 C11 111.49(18)
C27 C28 C29 120.7(3)
C27 C28 H28 119.6
C29 C28 H28 119.6
C30 C31 C26 120.2(3)
C30 C31 H31 119.9
C26 C31 H31 119.9
C30 C29 C28 118.1(2)
C30 C29 C32 121.3(3)
C28 C29 C32 120.6(3)
C31 C30 C29 121.5(2)
C31 C30 H30 119.3
C29 C30 H30 119.3
C29 C32 H32A 109.5
C29 C32 H32B 109.5
H32A C32 H32B 109.5
C29 C32 H32C 109.5
H32A C32 H32C 109.5
H32B C32 H32C 109.5
loop_
_geom_bond_atom_site_label_1
_geom_bond_atom_site_label_2
_geom_bond_distance
S8 O25 1.4293(17)
S8 O24 1.4325(19)
S8 N9 1.6182(15)
S8 C7 1.7434(18)
F21 C20 1.337(3)
F22 C20 1.343(3)
F23 C20 1.340(3)
O19 C18 1.214(2)
N9 C1 1.463(2)
N9 H9 0.8600
C17 C12 1.382(3)
C17 C16 1.387(3)
C17 C1 1.518(2)
C1 C2 1.528(2)
C1 C10 1.577(2)
C3 C2 1.389(2)
C3 C4 1.389(3)
C3 H3 0.9300
C2 C7 1.382(2)
C10 C18 1.532(3)
C10 C11 1.542(2)
C10 H10 0.9800
C7 C6 1.389(2)
C12 C13 1.395(3)
C12 C11 1.510(3)
C6 C5 1.380(3)
C6 H6 0.9300
C11 C20 1.497(3)
C11 H11 0.9800
C18 C26 1.479(3)
C16 C15 1.383(3)
C16 H16 0.9300
C5 C4 1.385(3)
C5 H5 0.9300
C4 H4 0.9300
C26 C27 1.378(3)
C26 C31 1.393(3)
C13 C14 1.381(3)
C13 H13 0.9300
C27 C28 1.382(3)
C27 H27 0.9300
C14 C15 1.386(4)
C14 H14 0.9300
C15 H15 0.9300
C28 C29 1.384(4)
C28 H28 0.9300
C31 C30 1.377(4)
C31 H31 0.9300
C29 C30 1.383(5)
C29 C32 1.514(4)
C30 H30 0.9300
C32 H32A 0.9600
C32 H32B 0.9600
C32 H32C 0.9600
loop_
_geom_torsion_atom_site_label_1
_geom_torsion_atom_site_label_2
_geom_torsion_atom_site_label_3
_geom_torsion_atom_site_label_4
_geom_torsion
O25 S8 N9 C1 -133.65(15)
O24 S8 N9 C1 95.86(16)
C7 S8 N9 C1 -16.05(15)
S8 N9 C1 C17 -107.15(15)
S8 N9 C1 C2 14.51(18)
S8 N9 C1 C10 137.53(13)
C12 C17 C1 N9 -136.62(16)
C16 C17 C1 N9 44.6(2)
C12 C17 C1 C2 106.67(17)
C16 C17 C1 C2 -72.1(2)
C12 C17 C1 C10 -15.52(18)
C16 C17 C1 C10 165.75(17)
C4 C3 C2 C7 0.2(3)
C4 C3 C2 C1 179.22(17)
N9 C1 C2 C7 -4.8(2)
C17 C1 C2 C7 118.03(17)
C10 C1 C2 C7 -126.69(16)
N9 C1 C2 C3 176.19(17)
C17 C1 C2 C3 -61.0(2)
C10 C1 C2 C3 54.3(2)
N9 C1 C10 C18 -91.80(17)
C17 C1 C10 C18 146.06(14)
C2 C1 C10 C18 25.1(2)
N9 C1 C10 C11 143.31(14)
C17 C1 C10 C11 21.17(17)
C2 C1 C10 C11 -99.78(16)
C3 C2 C7 C6 0.0(3)
C1 C2 C7 C6 -179.11(16)
C3 C2 C7 S8 173.64(13)
C1 C2 C7 S8 -5.50(19)
O25 S8 C7 C2 125.21(15)
O24 S8 C7 C2 -103.72(15)
N9 S8 C7 C2 12.01(14)
O25 S8 C7 C6 -61.4(2)
O24 S8 C7 C6 69.70(19)
N9 S8 C7 C6 -174.57(17)
C16 C17 C12 C13 2.4(3)
C1 C17 C12 C13 -176.36(16)
C16 C17 C12 C11 -177.76(16)
C1 C17 C12 C11 3.4(2)
C2 C7 C6 C5 -0.1(3)
S8 C7 C6 C5 -172.68(14)
C17 C12 C11 C20 131.72(18)
C13 C12 C11 C20 -48.5(3)
C17 C12 C11 C10 10.6(2)
C13 C12 C11 C10 -169.59(19)
C18 C10 C11 C20 92.7(2)
C1 C10 C11 C20 -142.47(16)
C18 C10 C11 C12 -144.59(15)
C1 C10 C11 C12 -19.71(18)
C11 C10 C18 O19 15.0(3)
C1 C10 C18 O19 -105.7(2)
C11 C10 C18 C26 -167.61(16)
C1 C10 C18 C26 71.7(2)
C12 C17 C16 C15 -1.1(3)
C1 C17 C16 C15 177.55(18)
C7 C6 C5 C4 -0.1(3)
C6 C5 C4 C3 0.3(3)
C2 C3 C4 C5 -0.4(3)
O19 C18 C26 C27 -150.8(2)
C10 C18 C26 C27 31.8(3)
O19 C18 C26 C31 26.1(3)
C10 C18 C26 C31 -151.2(2)
C17 C12 C13 C14 -1.7(3)
C11 C12 C13 C14 178.54(19)
C31 C26 C27 C28 0.3(3)
C18 C26 C27 C28 177.3(2)
C12 C13 C14 C15 -0.3(3)
C17 C16 C15 C14 -1.0(3)
C13 C14 C15 C16 1.7(4)
C12 C11 C20 F21 -55.7(2)
C10 C11 C20 F21 61.6(2)
C12 C11 C20 F23 65.3(2)
C10 C11 C20 F23 -177.38(18)
C12 C11 C20 F22 -175.69(16)
C10 C11 C20 F22 -58.3(2)
C26 C27 C28 C29 1.3(4)
C27 C26 C31 C30 -1.8(4)
C18 C26 C31 C30 -178.9(3)
C27 C28 C29 C30 -1.5(5)
C27 C28 C29 C32 178.6(3)
C26 C31 C30 C29 1.6(5)
C28 C29 C30 C31 0.0(5)
C32 C29 C30 C31 179.9(4)
