#------------------------------------------------------------------------------
#$Date: 2019-03-18 09:35:25 +0200 (Mon, 18 Mar 2019) $
#$Revision: 214153 $
#$URL: file:///home/coder/svn-repositories/cod/cif/1/54/71/1547168.cif $
#------------------------------------------------------------------------------
#
# This file is available in the Crystallography Open Database (COD),
# http://www.crystallography.net/
#
# All data on this site have been placed in the public domain by the
# contributors.
#
data_1547168
loop_
_publ_author_name
'Kazak, Mihail'
'Priede, Martins'
'Shubin, Kirill'
'Bartrum, Hannah E.'
'Poisson, Jean-Fran\,cois'
'Suna, Edgars'
_publ_section_title
;
 Stereodivergent Synthesis of Pseudotabersonine Alkaloids.
;
_journal_issue                   19
_journal_name_full               'Organic letters'
_journal_page_first              5356
_journal_page_last               5359
_journal_paper_doi               10.1021/acs.orglett.7b02635
_journal_volume                  19
_journal_year                    2017
_chemical_formula_moiety         'C21 H25 N O3 S'
_chemical_formula_sum            'C21 H25 N O3 S'
_chemical_formula_weight         371.48
_space_group_crystal_system      monoclinic
_space_group_IT_number           14
_space_group_name_Hall           '-P 2ybc'
_space_group_name_H-M_alt        'P 1 21/c 1'
_symmetry_space_group_name_Hall  '-P 2ybc'
_symmetry_space_group_name_H-M   'P 1 21/c 1'
_atom_sites_solution_hydrogens   geom
_audit_creation_method           SHELXL-2014/7
_cell_angle_alpha                90
_cell_angle_beta                 117.4430(10)
_cell_angle_gamma                90
_cell_formula_units_Z            8
_cell_length_a                   12.5138(3)
_cell_length_b                   17.6266(4)
_cell_length_c                   19.7375(4)
_cell_measurement_reflns_used    55738
_cell_measurement_temperature    190(2)
_cell_measurement_theta_max      27.485
_cell_measurement_theta_min      0.998
_cell_volume                     3863.70(15)
_computing_structure_refinement  'SHELXL-2014/7 (Sheldrick, 2014)'
_diffrn_ambient_temperature      190(2)
_diffrn_measured_fraction_theta_full 0.995
_diffrn_measured_fraction_theta_max 0.984
_diffrn_measurement_device_type  KappaCCD
_diffrn_measurement_method       CCD
_diffrn_radiation_type           MoK\a
_diffrn_radiation_wavelength     0.71073
_diffrn_reflns_av_R_equivalents  0.0380
_diffrn_reflns_av_unetI/netI     0.0639
_diffrn_reflns_Laue_measured_fraction_full 0.995
_diffrn_reflns_Laue_measured_fraction_max 0.984
_diffrn_reflns_limit_h_max       16
_diffrn_reflns_limit_h_min       -16
_diffrn_reflns_limit_k_max       20
_diffrn_reflns_limit_k_min       -22
_diffrn_reflns_limit_l_max       25
_diffrn_reflns_limit_l_min       -25
_diffrn_reflns_number            14864
_diffrn_reflns_point_group_measured_fraction_full 0.995
_diffrn_reflns_point_group_measured_fraction_max 0.984
_diffrn_reflns_theta_full        25.242
_diffrn_reflns_theta_max         27.441
_diffrn_reflns_theta_min         2.587
_exptl_absorpt_coefficient_mu    0.188
_exptl_absorpt_correction_type   none
_exptl_crystal_colour            colourless
_exptl_crystal_density_diffrn    1.277
_exptl_crystal_description       block
_exptl_crystal_F_000             1584
_exptl_crystal_size_max          0.45
_exptl_crystal_size_mid          0.42
_exptl_crystal_size_min          0.25
_refine_diff_density_max         0.445
_refine_diff_density_min         -0.420
_refine_diff_density_rms         0.054
_refine_ls_extinction_method     none
_refine_ls_goodness_of_fit_ref   1.009
_refine_ls_hydrogen_treatment    constr
_refine_ls_matrix_type           full
_refine_ls_number_parameters     477
_refine_ls_number_reflns         8687
_refine_ls_number_restraints     0
_refine_ls_restrained_S_all      1.009
_refine_ls_R_factor_all          0.0946
_refine_ls_R_factor_gt           0.0534
_refine_ls_shift/su_max          0.000
_refine_ls_shift/su_mean         0.000
_refine_ls_structure_factor_coef Fsqd
_refine_ls_weighting_details
'w=1/[\s^2^(Fo^2^)+(0.0530P)^2^+1.7243P] where P=(Fo^2^+2Fc^2^)/3'
_refine_ls_weighting_scheme      calc
_refine_ls_wR_factor_gt          0.1133
_refine_ls_wR_factor_ref         0.1297
_reflns_Friedel_coverage         0.000
_reflns_number_gt                5855
_reflns_number_total             8687
_reflns_threshold_expression     'I > 2\s(I)'
_cod_data_source_file            ol7b02635_si_003.cif
_cod_data_source_block           mps_858
_cod_depositor_comments
;
Adding full bibliography for 1547168--1547169.cif.

2019-02-08
Z value and formula fixed to values more according to usual
chemical conventions.                 miguel
;
_cod_original_formula_sum            'C42 H50 N2 O6 S2'
_cod_original_formula_weight         742.96
_cod_original_formula_moiety         'C21 H25 N1 O3 S1'
_cod_original_formula_units_Z            4
_cod_database_code               1547168
_shelx_shelxl_version_number     2014/7
_shelx_space_group_comment
;
The symmetry employed for this shelxl refinement is uniquely defined
by the following loop, which should always be used as a source of
symmetry information in preference to the above space-group names.
They are only intended as comments.
;
_shelx_res_file
;

    mps_858.res created by SHELXL-2014/7


TITL test structure: mps_858_p21c
REM  transformed to space group : P121/c1:b1
CELL   0.71073 12.5138 17.6266 19.7375   90.000  117.443   90.000
ZERR   4        0.0003  0.0004  0.0004    0.000    0.001    0.000
LATT    1
SYMM   -X,1/2+Y,1/2-Z
SFAC  C    H    N    O    S
UNIT  168  200  8    24   8
LIST 6 ! automatically inserted. Change 6 to 4 for CHECKCIF!!
OMIT    -1   1   1
OMIT     1   0   0
OMIT    -1   0   2
OMIT    -1   1   2
OMIT     1   1   0
OMIT     0   1   1
MERG   2
FMAP   2
PLAN   25
L.S.   4
ACTA
BOND $H
WGHT    0.053000    1.724300
FVAR       0.35956
S1    5    0.284645   -0.191448    0.114432    11.00000    0.02466    0.03246 =
         0.03487    0.00713    0.01368    0.00010
S2    5    0.229242    0.307757   -0.097758    11.00000    0.04509    0.03475 =
         0.04932   -0.00937    0.03170   -0.01348
O1    4    0.202588   -0.213098   -0.087526    11.00000    0.05118    0.02543 =
         0.04434   -0.00466    0.02803   -0.00104
AFIX 147
H1A   2    0.248892   -0.221585   -0.042536    11.00000   -1.50000
AFIX   0
N2    3    0.315342    0.371359   -0.110312    11.00000    0.03008    0.03096 =
         0.04000   -0.00507    0.02197   -0.00660
O4    4    0.064992    0.463966   -0.209972    11.00000    0.03061    0.06952 =
         0.02896   -0.01982    0.00794    0.00135
AFIX 147
H2A   2    0.061555    0.423272   -0.190938    11.00000   -1.50000
AFIX   0
N1    3    0.140611   -0.171163    0.059060    11.00000    0.02486    0.03016 =
         0.02990    0.00430    0.01382    0.00035
O3    4    0.349706   -0.124268    0.152412    11.00000    0.03470    0.03964 =
         0.04812    0.00717    0.00964   -0.01091
O2    4    0.331430   -0.235411    0.072012    11.00000    0.03721    0.05923 =
         0.04611    0.01095    0.02548    0.01674
C1    1    0.107266   -0.129033   -0.001250    11.00000    0.02934    0.02074 =
         0.02723   -0.00271    0.01670    0.00031
C33   1    0.029242    0.553978   -0.128333    11.00000    0.02093    0.03292 =
         0.02198    0.00067    0.00553    0.00122
C3    1   -0.106236   -0.162726   -0.038476    11.00000    0.03183    0.02518 =
         0.03000   -0.00172    0.01924    0.00063
AFIX  43
H1    2   -0.078718   -0.200530   -0.001442    11.00000   -1.20000
AFIX   0
C8    1    0.021183   -0.000148   -0.108377    11.00000    0.03977    0.02542 =
         0.03105    0.00161    0.02237    0.00297
AFIX  23
H2A   2   -0.006351    0.050941   -0.106752    11.00000   -1.20000
H2B   2    0.019156   -0.007084   -0.157709    11.00000   -1.20000
AFIX   0
C2    1   -0.023247   -0.115252   -0.047222    11.00000    0.02678    0.02377 =
         0.02368   -0.00270    0.01539    0.00144
C7    1   -0.064097   -0.056031   -0.100811    11.00000    0.03409    0.02818 =
         0.02284   -0.00352    0.01725    0.00266
C13   1    0.248295   -0.047087   -0.177627    11.00000    0.03210    0.03481 =
         0.03236   -0.00326    0.01974    0.00031
AFIX  43
H5    2    0.167318   -0.040088   -0.211539    11.00000   -1.20000
AFIX   0
C10   1    0.188924   -0.091893   -0.029078    11.00000    0.02541    0.02438 =
         0.02702   -0.00089    0.01618   -0.00147
AFIX  13
H6    2    0.271541   -0.093294    0.012463    11.00000   -1.20000
AFIX   0
C12   1    0.280658   -0.096772   -0.117034    11.00000    0.02720    0.03117 =
         0.02849   -0.00766    0.01745   -0.00313
C25   1    0.520572    0.502086   -0.180172    11.00000    0.03045    0.06268 =
         0.02704    0.00366    0.01613   -0.00327
AFIX  43
H8    2    0.555427    0.480999   -0.208470    11.00000   -1.20000
AFIX   0
C22   1    0.308623    0.443851   -0.103248    11.00000    0.02088    0.03247 =
         0.02027   -0.00113    0.00828   -0.00267
C30   1    0.298202    0.546495   -0.021111    11.00000    0.02626    0.03226 =
         0.02349   -0.00209    0.00876    0.00222
AFIX  23
H10A  2    0.244805    0.573831   -0.006438    11.00000   -1.20000
H10B  2    0.359079    0.521798    0.024164    11.00000   -1.20000
AFIX   0
C28   1    0.415643    0.566295   -0.095004    11.00000    0.02019    0.03394 =
         0.02601    0.00624    0.00522    0.00049
C6    1   -0.188236   -0.048234   -0.146941    11.00000    0.03618    0.03684 =
         0.02482    0.00277    0.01468    0.00787
AFIX  43
H12   2   -0.216917   -0.009774   -0.183250    11.00000   -1.20000
AFIX   0
C31   1    0.225657    0.485774   -0.079865    11.00000    0.02321    0.03066 =
         0.02312    0.00029    0.01208   -0.00080
AFIX  13
H13   2    0.194248    0.449621   -0.055717    11.00000   -1.20000
AFIX   0
C9    1    0.150019   -0.008446   -0.046346    11.00000    0.03673    0.02290 =
         0.03224   -0.00302    0.02328   -0.00364
AFIX  23
H14A  2    0.158018    0.015763   -0.000105    11.00000   -1.20000
H14B  2    0.203275    0.017469   -0.062117    11.00000   -1.20000
AFIX   0
C29   1    0.359362    0.602974   -0.050278    11.00000    0.02910    0.02782 =
         0.03641   -0.00267    0.01018   -0.00116
AFIX  23
H15A  2    0.300429    0.639970   -0.082467    11.00000   -1.20000
H15B  2    0.421221    0.629845   -0.007145    11.00000   -1.20000
AFIX   0
C24   1    0.444730    0.459453   -0.162682    11.00000    0.02487    0.04570 =
         0.02470   -0.00264    0.01073   -0.00428
AFIX  43
H16   2    0.428581    0.409358   -0.179071    11.00000   -1.20000
AFIX   0
C14   1    0.334888   -0.007702   -0.188381    11.00000    0.05157    0.03632 =
         0.04585   -0.00294    0.03706   -0.00338
AFIX  43
H17   2    0.311637    0.025573   -0.229321    11.00000   -1.20000
AFIX   0
C32   1    0.117873    0.519431   -0.151572    11.00000    0.02241    0.04004 =
         0.02298   -0.00005    0.01003   -0.00281
AFIX  13
H18   2    0.148944    0.560290   -0.171271    11.00000   -1.20000
AFIX   0
C5    1   -0.268974   -0.096725   -0.139466    11.00000    0.02692    0.04796 =
         0.02824   -0.00395    0.01157    0.00414
AFIX  43
H19   2   -0.351052   -0.091264   -0.171423    11.00000   -1.20000
AFIX   0
C39   1    0.239506    0.231591   -0.154339    11.00000    0.04056    0.02980 =
         0.05322   -0.00923    0.02767   -0.00614
C4    1   -0.228243   -0.153666   -0.084429    11.00000    0.02858    0.03650 =
         0.03353   -0.00541    0.01841   -0.00374
AFIX  43
H21   2   -0.282897   -0.185386   -0.078672    11.00000   -1.20000
AFIX   0
C27   1    0.494014    0.608353   -0.113133    11.00000    0.02832    0.03552 =
         0.04176    0.01058    0.01124   -0.00267
AFIX  43
H22   2    0.512036    0.658271   -0.096467    11.00000   -1.20000
AFIX   0
C23   1    0.391320    0.491042   -0.120155    11.00000    0.01995    0.03404 =
         0.02221    0.00213    0.00710   -0.00205
C35   1   -0.045504    0.662458   -0.090390    11.00000    0.05220    0.04195 =
         0.05730   -0.00851    0.01906    0.01294
AFIX  43
H24   2   -0.043586    0.714484   -0.082063    11.00000   -1.20000
AFIX   0
C15   1    0.455161   -0.017394   -0.138957    11.00000    0.04648    0.05305 =
         0.05170   -0.01745    0.03726   -0.01988
AFIX  43
H25   2    0.513146    0.010078   -0.145546    11.00000   -1.20000
AFIX   0
C21   1    0.402681   -0.277756    0.237659    11.00000    0.03867    0.04413 =
         0.04341    0.01266    0.01124    0.00413
AFIX 137
H26A  2    0.403013   -0.309598    0.277215    11.00000   -1.50000
H26B  2    0.451135   -0.233619    0.260109    11.00000   -1.50000
H26C  2    0.434969   -0.305322    0.209283    11.00000   -1.50000
AFIX   0
C17   1    0.401972   -0.108226   -0.068815    11.00000    0.03119    0.06487 =
         0.03644    0.00838    0.01859    0.00243
AFIX  43
H27   2    0.425462   -0.142894   -0.028983    11.00000   -1.20000
AFIX   0
C36   1   -0.122462    0.617149   -0.076084    11.00000    0.04371    0.07205 =
         0.03645   -0.00583    0.01940    0.02372
AFIX  43
H28   2   -0.172692    0.638363   -0.058166    11.00000   -1.20000
AFIX   0
C34   1    0.028713    0.630818   -0.117038    11.00000    0.03526    0.03376 =
         0.04927    0.00160    0.01657    0.00383
AFIX  43
H29   2    0.079210    0.662001   -0.127529    11.00000   -1.20000
AFIX   0
C26   1    0.544892    0.576444   -0.155554    11.00000    0.02946    0.06082 =
         0.04018    0.01869    0.01664   -0.00536
AFIX  43
H30   2    0.595973    0.605321   -0.167628    11.00000   -1.20000
AFIX   0
O5    4    0.105233    0.330156   -0.129994    11.00000    0.04911    0.03953 =
         0.17392   -0.02442    0.07434   -0.01287
C18   1    0.273093   -0.253348    0.183904    11.00000    0.03344    0.03339 =
         0.03294    0.00835    0.01242   -0.00369
C37   1   -0.124465    0.540249   -0.088505    11.00000    0.03655    0.06333 =
         0.05358   -0.00019    0.02992    0.00057
AFIX  43
H33   2   -0.177273    0.509483   -0.079804    11.00000   -1.20000
AFIX   0
C11   1    0.186462   -0.133416   -0.099309    11.00000    0.02953    0.02582 =
         0.03105   -0.00466    0.01777   -0.00178
AFIX  13
H34   2    0.107330   -0.124737   -0.142992    11.00000   -1.20000
AFIX   0
C38   1   -0.047970    0.508351   -0.113984    11.00000    0.03382    0.03781 =
         0.04655   -0.00663    0.02349   -0.00355
AFIX  43
H35   2   -0.048671    0.456215   -0.121410    11.00000   -1.20000
AFIX   0
O6    4    0.283141    0.287029   -0.019283    11.00000    0.13871    0.09532 =
         0.03973   -0.01431    0.04387   -0.07296
C20   1    0.195542   -0.321403    0.142955    11.00000    0.05825    0.04281 =
         0.04955    0.01062    0.01108   -0.01746
AFIX 137
H37A  2    0.195566   -0.356861    0.179880    11.00000   -1.50000
H37B  2    0.227455   -0.345441    0.112500    11.00000   -1.50000
H37C  2    0.114632   -0.304883    0.110625    11.00000   -1.50000
AFIX   0
C16   1    0.488866   -0.068334   -0.079477    11.00000    0.02774    0.09284 =
         0.04104   -0.00836    0.01909   -0.00933
AFIX  43
H38   2    0.570038   -0.075988   -0.046409    11.00000   -1.20000
AFIX   0
C19   1    0.220329   -0.207905    0.227239    11.00000    0.04467    0.06895 =
         0.03850    0.01323    0.02070    0.00581
AFIX 137
H39A  2    0.140885   -0.190920    0.192300    11.00000   -1.50000
H39B  2    0.270666   -0.164808    0.251014    11.00000   -1.50000
H39C  2    0.216248   -0.239405    0.265658    11.00000   -1.50000
AFIX   0
C40   1    0.156423    0.169093   -0.152351    11.00000    0.06013    0.03027 =
         0.07543   -0.00810    0.03529   -0.01168
AFIX 137
H40A  2    0.074782    0.186993   -0.176220    11.00000   -1.50000
H40B  2    0.179471    0.155630   -0.100306    11.00000   -1.50000
H40C  2    0.162804    0.125380   -0.179276    11.00000   -1.50000
AFIX   0
C41   1    0.368587    0.204627   -0.118049    11.00000    0.05153    0.05101 =
         0.22894   -0.02647    0.06249    0.00675
AFIX 137
H41A  2    0.376991    0.165098   -0.148717    11.00000   -1.50000
H41B  2    0.390375    0.185425   -0.067850    11.00000   -1.50000
H41C  2    0.420431    0.246221   -0.114517    11.00000   -1.50000
AFIX   0
C42   1    0.197678    0.260192   -0.234490    11.00000    0.17095    0.08102 =
         0.05276   -0.03076    0.06053   -0.06467
AFIX 137
H42A  2    0.248903    0.300942   -0.234034    11.00000   -1.50000
H42B  2    0.116338    0.278161   -0.254576    11.00000   -1.50000
H42C  2    0.201127    0.219707   -0.265959    11.00000   -1.50000
AFIX   0
HKLF    4

REM  test structure: mps_858_p21c
REM R1 =  0.0534 for    5855 Fo > 4sig(Fo)  and  0.0946 for all    8687 data
REM    477 parameters refined using      0 restraints

END

WGHT      0.0520      1.7675

REM Highest difference peak  0.445,  deepest hole -0.420,  1-sigma level  0.054
Q1    1   0.3327  0.2577 -0.0324  11.00000  0.05    0.44
Q2    1   0.1446  0.3092 -0.1010  11.00000  0.05    0.27
Q3    1   0.1741  0.5009 -0.1185  11.00000  0.05    0.25
Q4    1   0.2636  0.6669 -0.1109  11.00000  0.05    0.23
Q5    1  -0.0277 -0.0217 -0.0999  11.00000  0.05    0.23
Q6    1   0.3927  0.5335 -0.1111  11.00000  0.05    0.22
Q7    1   0.2006 -0.3390  0.0507  11.00000  0.05    0.21
Q8    1   0.2739 -0.2252  0.1517  11.00000  0.05    0.21
Q9    1  -0.1212 -0.0455 -0.1096  11.00000  0.05    0.20
Q10   1   0.1123  0.3340 -0.1683  11.00000  0.05    0.20
Q11   1   0.0598  0.5840 -0.1023  11.00000  0.05    0.20
Q12   1   0.3874  0.5862 -0.0777  11.00000  0.05    0.20
Q13   1  -0.0017  0.5414 -0.1104  11.00000  0.05    0.20
Q14   1   0.0617  0.5339 -0.1327  11.00000  0.05    0.19
Q15   1   0.1768  0.6601 -0.0891  11.00000  0.05    0.19
Q16   1   0.4202  0.5781 -0.1189  11.00000  0.05    0.19
Q17   1   0.1759  0.6782 -0.1688  11.00000  0.05    0.19
Q18   1   0.0072  0.5818 -0.1482  11.00000  0.05    0.18
Q19   1   0.2326 -0.1120 -0.1084  11.00000  0.05    0.18
Q20   1   0.4153  0.2297 -0.0908  11.00000  0.05    0.18
Q21   1   0.3698  0.5084 -0.1495  11.00000  0.05    0.18
Q22   1   0.1620  0.6019 -0.1788  11.00000  0.05    0.17
Q23   1   0.2413  0.2571 -0.1222  11.00000  0.05    0.17
Q24   1   0.2230  0.6160 -0.0787  11.00000  0.05    0.17
Q25   1   0.3180  0.5854 -0.0340  11.00000  0.05    0.17
;
_shelx_res_checksum              8760
_shelx_hkl_file
;
   0   0  -6 1688.70   52.20   1
   0   0  -7  4.2000  2.2000   1
   0   0  -9  0.0000  1.1000   1
   0   0 -10 360.500   9.600   1
   0   0 -11  0.0000  1.2000   1
   0   0 -12 36.3000  2.1000   1
   0   0 -13  1.8000  1.2000   1
   0   0 -14 163.700   5.900   1
   0   0 -15  0.5000  1.3000   1
   0   0 -16 79.8000  4.2000   1
   0   0 -17 -0.4000  1.8000   1
   0   0 -18 26.4000  2.6000   1
   0   0 -19  2.2000  2.4000   1
   0   0 -20 13.8000  5.6000   1
   0   0 -21 -4.4000  8.1000   1
   0   0 -22 -2.5000  8.6000   1
   0  -1  -1  0.0000  0.1000   1
   0   1   1 -0.1000  0.1000   1
   0  -1  -2 916.400  35.600   1
   0  -1  -3 504.100  11.600   1
   0   1   3 514.700  13.600   1
   0  -1  -4 1910.90   52.60   1
   0   1   4 1899.70   47.40   1
   0  -1  -5 306.100  11.700   1
   0   1   5 312.700   8.100   1
   0  -1  -6 220.800   7.000   1
   0   1   6 232.900   6.100   1
   0  -1  -7 25.2000  1.9000   1
   0   1   7 24.5000  1.5000   1
   0  -1  -8  8.8000  2.4000   1
   0   1   8 14.6000  1.3000   1
   0  -1  -9 403.200  25.900   1
   0   1   9 382.500  11.100   1
   0  -1 -10 179.200   6.900   1
   0   1  10 189.900   5.000   1
   0  -1 -11 95.0000  4.7000   1
   0   1  11 101.900   3.200   1
   0  -1 -12 -0.6000  1.9000   1
   0   1  12  2.6000  1.0000   1
   0  -1 -13  0.0000  1.5000   1
   0   1  13 -0.8000  1.0000   1
   0  -1 -14  3.2000  1.7000   1
   0   1  14  3.8000  1.7000   1
   0  -1 -15 16.7000  2.0000   1
   0   1  15 13.4000  2.1000   1
   0  -1 -16 73.4000  5.4000   1
   0   1  16 59.4000  3.9000   1
   0  -1 -17  8.4000  2.2000   1
   0   1  17  3.4000  1.7000   1
   0  -1 -18  9.6000  2.4000   1
   0   1  18  9.3000  2.4000   1
   0  -1 -19 -0.4000  2.3000   1
   0   1  19 -0.8000  3.7000   1
   0  -1 -20 42.2000  7.4000   1
   0   1  20 47.1000  6.8000   1
   0  -1 -21 36.2000  9.2000   1
   0   1  21 39.7000  8.7000   1
   0  -1 -22 37.0000 10.0000   1
   0   1  22 36.0000 10.2000   1
   0  -2  -1 113.300   6.000   1
   0   2   1 82.2000  7.4000   1
   0  -2  -2  3.5000  0.3000   1
   0   2   2  4.4000  0.4000   1
   0  -2  -3 215.700   5.200   1
   0   2   3 212.900   5.200   1
   0  -2  -4 944.000  21.200   1
   0   2   4 954.900  22.700   1
   0  -2  -5 227.500   5.900   1
   0   2   5 221.100   5.700   1
   0  -2  -6 1325.20   35.80   1
   0   2   6 1344.60   30.50   1
   0  -2  -7  1.6000  1.3000   1
   0   2   7  0.4000  0.7000   1
   0  -2  -8 107.000   6.800   1
   0   2   8 122.000   3.200   1
   0  -2  -9 33.4000  2.7000   1
   0   2   9 31.4000  1.4000   1
   0  -2 -10  4.6000  2.0000   1
   0   2  10  2.7000  1.0000   1
   0  -2 -11 94.3000  4.6000   1
   0   2  11 90.6000  3.0000   1
   0  -2 -12 69.3000  6.3000   1
   0   2  12 70.2000  2.5000   1
   0  -2 -13 80.1000  6.4000   1
   0   2  13 82.1000  3.3000   1
   0  -2 -14  6.2000  4.5000   1
   0   2  14  1.6000  1.3000   1
   0  -2 -15 15.8000  2.2000   1
   0   2  15 12.7000  1.8000   1
   0  -2 -16 -0.9000  2.1000   1
   0   2  16  2.0000  1.6000   1
   0  -2 -17  6.8000  2.4000   1
   0   2  17  6.0000  2.0000   1
   0  -2 -18  1.2000  2.1000   1
   0   2  18  0.0000  2.1000   1
   0  -2 -19 68.6000  5.0000   1
   0   2  19 69.9000  6.0000   1
   0  -2 -20  7.8000  7.9000   1
   0   2  20  8.3000  5.5000   1
   0  -2 -21 -9.3000  7.6000   1
   0   2  21  4.4000  7.4000   1
   0  -2 -22  5.7000  5.7000   1
   0   2  22  9.2000  8.7000   1
   0  -3  -1 1313.80   30.30   1
   0   3   1 1130.60   51.30   1
   0  -3  -3 14.6000  0.7000   1
   0   3   3 16.3000  0.7000   1
   0  -3  -4 1286.90   27.70   1
   0   3   4 1247.70   32.20   1
   0  -3  -5  3.8000  0.7000   1
   0   3   5  5.4000  0.8000   1
   0  -3  -6 11.9000  1.0000   1
   0   3   6 10.8000  0.9000   1
   0  -3  -7  9.9000  1.7000   1
   0   3   7 11.7000  1.3000   1
   0  -3  -8  5.9000  2.7000   1
   0   3   8 10.0000  1.1000   1
   0  -3  -9  9.3000  3.4000   1
   0   3   9 17.9000  1.0000   1
   0  -3 -10 91.4000  6.2000   1
   0   3  10 94.7000  2.8000   1
   0  -3 -11 14.7000  2.9000   1
   0   3  11 18.9000  1.5000   1
   0  -3 -12  3.4000  1.9000   1
   0   3  12  4.0000  1.2000   1
   0  -3 -13  9.6000  4.5000   1
   0   3  13 17.8000  1.6000   1
   0  -3 -14 15.1000  5.5000   1
   0   3  14 22.3000  1.7000   1
   0  -3 -15  6.4000  3.4000   1
   0   3  15 14.0000  1.5000   1
   0  -3 -16  2.8000  3.3000   1
   0   3  16  6.3000  1.7000   1
   0  -3 -17 13.0000  3.2000   1
   0   3  17  9.5000  1.8000   1
   0  -3 -18 23.4000  3.6000   1
   0   3  18 21.0000  2.4000   1
   0  -3 -19  2.1000  3.1000   1
   0   3  19  7.4000  3.9000   1
   0  -3 -20 -2.0000  6.7000   1
   0   3  20  8.2000  5.7000   1
   0  -3 -21 63.4000  9.9000   1
   0   3  21 73.5000 11.3000   1
   0  -3 -22  8.5000  9.2000   1
   0   3  22  2.8000  9.3000   1
   0  -4  -1 626.100  24.000   1
   0   4   1 615.100  23.900   1
   0  -4  -2 2451.30   57.30   1
   0   4   2 2403.50   81.90   1
   0  -4  -3  3.1000  0.6000   1
   0  -4  -4 197.700   5.100   1
   0   4   4 201.200   4.900   1
   0  -4  -5 181.100   4.300   1
   0   4   5 181.200   4.700   1
   0  -4  -6  6.6000  1.0000   1
   0   4   6  5.8000  0.8000   1
   0  -4  -7 20.9000  1.3000   1
   0   4   7 24.3000  1.3000   1
   0  -4  -8 52.7000  2.2000   1
   0   4   8 49.3000  1.9000   1
   0  -4  -9 16.6000  1.3000   1
   0   4   9 17.5000  1.2000   1
   0  -4 -10 39.9000  2.8000   1
   0   4  10 39.6000  1.7000   1
   0  -4 -11  2.1000  3.4000   1
   0   4  11 -0.1000  1.0000   1
   0  -4 -12 31.3000  3.7000   1
   0   4  12 30.1000  1.9000   1
   0  -4 -13 156.500   8.700   1
   0   4  13 178.200   5.100   1
   0  -4 -14  4.4000  2.8000   1
   0   4  14  3.7000  1.2000   1
   0  -4 -15 103.000   6.000   1
   0   4  15 96.4000  3.7000   1
   0  -4 -16  0.1000  4.5000   1
   0   4  16  1.4000  1.4000   1
   0  -4 -17  5.0000  5.1000   1
   0   4  17  4.8000  1.6000   1
   0  -4 -18  2.7000  3.2000   1
   0   4  18  8.1000  1.8000   1
   0  -4 -19 68.3000  5.2000   1
   0  -4 -20 26.4000  8.5000   1
   0   4  20 25.3000  7.3000   1
   0  -4 -21  0.0000  7.5000   1
   0   4  21  9.2000  8.5000   1
   0  -4 -22  8.5000  7.4000   1
   0   4  22 -2.7000  8.3000   1
   0  -5  -1 25.9000  2.0000   1
   0   5   1 25.6000  1.9000   1
   0  -5  -2 627.900  15.000   1
   0   5   2 638.900  22.100   1
   0  -5  -3 39.3000  1.4000   1
   0   5   3 39.0000  2.7000   1
   0  -5  -4 116.100   3.300   1
   0   5   4 112.500   3.000   1
   0  -5  -5 133.300   3.200   1
   0   5   5 125.900   3.200   1
   0  -5  -6 1194.40   28.30   1
   0   5   6 1186.60   31.90   1
   0  -5  -7 102.600   3.300   1
   0   5   7 97.4000  2.9000   1
   0  -5  -8 317.600   8.600   1
   0   5   8 319.900   8.000   1
   0  -5  -9 12.7000  1.3000   1
   0   5   9 16.5000  1.1000   1
   0  -5 -10 28.9000  2.8000   1
   0   5  10 29.4000  1.6000   1
   0  -5 -11 21.5000  2.6000   1
   0   5  11 22.9000  1.4000   1
   0  -5 -12  3.4000  3.7000   1
   0   5  12 -0.9000  1.0000   1
   0  -5 -13 95.1000  5.5000   1
   0   5  13 101.600   3.500   1
   0  -5 -14 -2.4000  3.3000   1
   0   5  14  0.9000  1.4000   1
   0  -5 -15 -3.3000  4.4000   1
   0   5  15  8.2000  1.3000   1
   0  -5 -16 -2.5000  4.9000   1
   0   5  16  4.7000  1.5000   1
   0  -5 -17 68.8000  8.1000   1
   0   5  17 71.4000  3.4000   1
   0  -5 -18 -0.2000  3.7000   1
   0   5  18  3.4000  2.4000   1
   0  -5 -19 18.3000  3.2000   1
   0   5  19 14.4000  7.1000   1
   0  -5 -20 -8.5000  7.1000   1
   0   5  20  0.6000  7.4000   1
   0  -5 -21  3.8000  7.5000   1
   0   5  21 19.5000  8.6000   1
   0  -5 -22 16.2000  9.1000   1
   0   5  22  1.0000  9.0000   1
   0  -6  -1 449.700  17.500   1
   0   6   1 441.500  15.900   1
   0  -6  -2 38.5000  1.9000   1
   0   6   2 35.3000  2.5000   1
   0  -6  -3 33.5000  1.3000   1
   0   6   3 33.9000  2.7000   1
   0  -6  -4 1209.20   31.30   1
   0   6   4 1221.20   42.70   1
   0  -6  -5  0.8000  0.7000   1
   0   6   5 -2.3000  0.7000   1
   0  -6  -6 44.8000  1.5000   1
   0   6   6 45.6000  1.7000   1
   0  -6  -7 21.3000  1.5000   1
   0   6   7 25.2000  1.2000   1
   0  -6  -8 63.8000  2.5000   1
   0   6   8 67.8000  2.2000   1
   0  -6  -9 116.900   3.700   1
   0   6   9 109.400   3.500   1
   0  -6 -10 107.300   4.100   1
   0   6  10 113.100   4.600   1
   0  -6 -11 43.5000  2.4000   1
   0   6  11 48.2000  2.1000   1
   0  -6 -12 72.9000  6.2000   1
   0   6  12 63.2000  2.6000   1
   0  -6 -13 42.8000  3.2000   1
   0   6  13 43.5000  2.1000   1
   0  -6 -14 35.5000  4.6000   1
   0   6  14 34.8000  1.9000   1
   0  -6 -15 58.1000  7.5000   1
   0   6  15 57.7000  2.8000   1
   0   6  16  1.8000  1.3000   1
   0  -6 -17  2.2000  4.0000   1
   0   6  17 -0.9000  2.1000   1
   0  -6 -18 11.9000  6.6000   1
   0  -6 -19 41.7000  8.1000   1
   0   6  19 42.8000  7.3000   1
   0  -6 -20  3.7000  6.6000   1
   0   6  20  6.2000  7.6000   1
   0  -6 -21  4.6000  7.2000   1
   0   6  21  1.8000  7.9000   1
   0  -7   0  0.3000  1.4000   1
   0  -7  -1  1.6000  1.0000   1
   0   7   1 -2.4000  1.4000   1
   0  -7  -2 1172.00   33.40   1
   0   7   2 1146.00   42.80   1
   0  -7  -3 362.500   9.200   1
   0   7   3 361.600  15.000   1
   0  -7  -4 554.100  13.800   1
   0   7   4 534.300  21.100   1
   0  -7  -5 669.400  18.500   1
   0   7   5 649.600  26.900   1
   0  -7  -6 158.400   4.600   1
   0   7   6 150.200   4.700   1
   0  -7  -7 18.0000  1.5000   1
   0   7   7 17.4000  1.1000   1
   0  -7  -8 204.000   6.200   1
   0   7   8 192.500   5.400   1
   0  -7  -9 42.5000  2.1000   1
   0   7   9 42.4000  1.7000   1
   0  -7 -10 173.600   5.400   1
   0   7  10 175.700   4.800   1
   0  -7 -11 -0.3000  1.3000   1
   0   7  11  1.1000  0.9000   1
   0  -7 -12  9.0000  1.5000   1
   0   7  12  8.1000  1.2000   1
   0  -7 -13  4.7000  2.9000   1
   0   7  13  7.8000  1.2000   1
   0  -7 -14 90.4000  5.7000   1
   0   7  14 92.3000  3.4000   1
   0  -7 -15  7.4000  4.8000   1
   0   7  15 19.8000  1.6000   1
   0  -7 -16 44.3000  6.7000   1
   0   7  16 58.1000  4.0000   1
   0  -7 -17 23.3000  6.1000   1
   0   7  17 18.9000  2.5000   1
   0  -7 -18  0.6000  5.8000   1
   0  -7 -19  5.4000  6.5000   1
   0   7  19 13.0000  7.4000   1
   0  -7 -20 62.8000  9.2000   1
   0   7  20 57.3000 10.1000   1
   0  -7 -21 86.0000 12.0000   1
   0   7  21 61.0000 10.5000   1
   0  -8   0  4.8000  1.7000   1
   0  -8  -1 149.100   4.700   1
   0  -8  -2  9.8000  2.0000   1
   0   8   2  4.0000  1.7000   1
   0  -8  -3 15.0000  1.2000   1
   0   8   3  8.9000  2.1000   1
   0  -8  -4 282.900   7.100   1
   0   8   4 266.600  10.500   1
   0  -8  -5 220.500   6.200   1
   0   8   5 198.600   8.700   1
   0  -8  -6 144.200   4.300   1
   0   8   6 133.400   6.600   1
   0  -8  -7 12.1000  0.9000   1
   0   8   7 13.6000  3.5000   1
   0  -8  -8 150.000   4.700   1
   0   8   8 136.000   4.500   1
   0  -8  -9 29.0000  1.9000   1
   0   8   9 27.0000  1.5000   1
   0  -8 -10 135.700   4.800   1
   0   8  10 129.700   4.500   1
   0  -8 -11 -0.1000  1.4000   1
   0   8  11  1.9000  1.1000   1
   0  -8 -12  0.4000  1.6000   1
   0   8  12 -0.8000  1.0000   1
   0  -8 -13 32.7000  2.4000   1
   0   8  13 42.7000  2.5000   1
   0  -8 -14 28.6000  4.1000   1
   0   8  14 27.0000  2.2000   1
   0  -8 -15  8.9000  5.1000   1
   0   8  15  7.1000  1.7000   1
   0  -8 -16 134.400  10.500   1
   0   8  16 129.000   6.300   1
   0  -8 -17 40.2000  7.3000   1
   0   8  17 57.4000  8.8000   1
   0  -8 -18  0.6000  6.4000   1
   0   8  18-13.6000  6.8000   1
   0  -8 -19 -6.8000  6.9000   1
   0   8  19  4.6000  8.0000   1
   0  -8 -20  1.9000  7.9000   1
   0   8  20 -7.5000  8.1000   1
   0  -8 -21  8.1000  7.7000   1
   0  -9   0  2.0000  1.9000   1
   0  -9  -1 274.800   6.800   1
   0  -9  -2 265.500  13.200   1
   0   9   2 254.800  11.500   1
   0  -9  -3 88.4000  2.9000   1
   0   9   3 89.0000  5.5000   1
   0  -9  -4 197.500   5.500   1
   0   9   4 190.000   8.600   1
   0  -9  -5 21.3000  1.3000   1
   0   9   5 18.1000  3.2000   1
   0  -9  -6 285.900   8.100   1
   0   9   6 282.000  13.100   1
   0  -9  -7 32.2000  1.4000   1
   0   9   7 30.1000  4.0000   1
   0  -9  -8 112.600   3.100   1
   0   9   8 99.3000  6.4000   1
   0  -9  -9  4.2000  1.4000   1
   0   9   9  9.4000  2.8000   1
   0  -9 -10 81.8000  3.6000   1
   0   9  10 71.1000  6.3000   1
   0  -9 -11  5.0000  1.6000   1
   0   9  11  6.7000  4.2000   1
   0  -9 -12 166.000   6.500   1
   0   9  12 160.300  10.800   1
   0  -9 -13  8.1000  1.7000   1
   0   9  13  9.4000  1.0000   1
   0  -9 -14 -1.8000  3.2000   1
   0   9  14 -0.4000  1.1000   1
   0  -9 -15 -3.7000  4.8000   1
   0   9  15  2.7000  1.3000   1
   0  -9 -16 32.7000  5.4000   1
   0  -9 -17 40.3000  6.8000   1
   0  -9 -18 -2.6000  6.1000   1
   0   9  18 14.7000  7.6000   1
   0   9  19 38.5000  8.9000   1
   0  -9 -20 14.4000  8.0000   1
   0   9  20 -2.0000  5.6000   1
   0 -10   0 427.800  19.000   1
   0 -10  -1 30.0000  1.8000   1
   0 -10  -2 129.200   4.000   1
   0 -10  -3  7.9000  1.2000   1
   0  10   3  9.3000  2.4000   1
   0 -10  -4 149.400   4.100   1
   0  10   4 133.800   7.000   1
   0 -10  -5 99.4000  3.4000   1
   0  10   5 96.8000  5.8000   1
   0 -10  -6 120.800   4.000   1
   0  10   6 109.900   7.500   1
   0 -10  -7  0.7000  0.9000   1
   0  10   7 -2.6000  2.0000   1
   0 -10  -8 81.7000  2.7000   1
   0  10   8 80.7000  5.8000   1
   0 -10  -9  8.7000  1.8000   1
   0  10   9 10.4000  3.9000   1
   0 -10 -10 15.0000  1.8000   1
   0  10  10 15.1000  4.1000   1
   0 -10 -11  6.4000  1.7000   1
   0  10  11 15.8000  4.7000   1
   0 -10 -12 113.800   4.200   1
   0  10  12 94.4000  8.3000   1
   0 -10 -13  4.1000  1.9000   1
   0  10  13  3.0000  5.1000   1
   0 -10 -14 63.5000  3.8000   1
   0  10  14 56.7000  6.2000   1
   0 -10 -15 39.1000  6.7000   1
   0  10  15 37.5000  5.5000   1
   0 -10 -16  6.4000  5.5000   1
   0  10  16 14.9000  4.7000   1
   0  10  17 16.0000  4.9000   1
   0 -10 -18 18.9000  7.4000   1
   0  10  18 25.4000  6.1000   1
   0 -10 -19 18.2000  7.2000   1
   0 -10 -20 -5.2000  8.0000   1
   0  10  20 -0.1000  8.6000   1
   0 -11   0 -1.3000  1.6000   1
   0 -11  -1 10.5000  1.2000   1
   0 -11  -2  6.0000  1.2000   1
   0 -11  -3 36.3000  1.9000   1
   0  11   3 39.2000  3.6000   1
   0 -11  -4  8.8000  1.3000   1
   0  11   4 11.6000  2.7000   1
   0 -11  -5 48.8000  2.1000   1
   0  11   5 51.1000  4.0000   1
   0 -11  -6 49.0000  2.3000   1
   0  11   6 55.9000  4.6000   1
   0 -11  -7 -0.5000  1.0000   1
   0 -11  -8 183.400   5.700   1
   0  11   8 166.600   9.500   1
   0 -11  -9 58.0000  2.8000   1
   0  11   9 48.0000  5.4000   1
   0 -11 -10 25.2000  2.2000   1
   0  11  10 32.5000  5.0000   1
   0 -11 -11 113.100   4.500   1
   0  11  11 118.900   9.300   1
   0 -11 -12 90.6000  4.2000   1
   0  11  12 84.1000  9.0000   1
   0 -11 -13 148.300   6.700   1
   0  11  13 149.600  10.600   1
   0 -11 -14 117.700   6.200   1
   0  11  14 125.300  10.100   1
   0 -11 -15  0.3000  2.0000   1
   0  11  15  6.9000  6.2000   1
   0 -11 -16 -2.2000  5.2000   1
   0  11  16  7.1000  6.6000   1
   0 -11 -17 19.0000  6.7000   1
   0  11  17 39.1000  7.9000   1
   0 -11 -18  3.0000  5.0000   1
   0  11  18  5.3000  7.2000   1
   0 -11 -19 10.5000  8.4000   1
   0  11  19 -0.4000  8.4000   1
   0 -12   0 73.5000  4.0000   1
   0 -12  -1  3.2000  1.4000   1
   0 -12  -2  5.8000  1.2000   1
   0 -12  -3 19.8000  1.5000   1
   0 -12  -4  4.7000  2.2000   1
   0  12   4 -2.3000  2.4000   1
   0 -12  -5 -0.4000  1.1000   1
   0 -12  -6 24.4000  1.9000   1
   0  12   6 31.7000  3.9000   1
   0 -12  -7 31.4000  1.8000   1
   0  12   7 26.1000  4.1000   1
   0 -12  -8 107.600   3.500   1
   0  12   8 117.900   7.800   1
   0 -12  -9  4.0000  1.9000   1
   0  12   9  6.2000  4.0000   1
   0 -12 -10 148.600   6.000   1
   0  12  10 162.300  10.100   1
   0 -12 -11  1.5000  1.9000   1
   0  12  11  0.4000  4.6000   1
   0 -12 -12 39.4000  3.1000   1
   0  12  12 34.1000  6.4000   1
   0 -12 -13 11.3000  3.4000   1
   0  12  13 22.6000  4.4000   1
   0 -12 -14  0.4000  1.8000   1
   0  12  14  8.6000  5.6000   1
   0 -12 -15 47.1000  3.9000   1
   0  12  15 51.6000  8.2000   1
   0  12  16 32.4000  6.3000   1
   0 -12 -17 -0.1000  5.8000   1
   0  12  17  2.0000  5.3000   1
   0 -12 -18  3.2000  7.0000   1
   0  12  18 14.9000  6.5000   1
   0 -12 -19 -5.0000  8.1000   1
   0  12  19 18.2000  7.3000   1
   0 -13   0 -1.0000  1.4000   1
   0 -13  -1 59.5000  3.4000   1
   0 -13  -2 41.3000  1.8000   1
   0 -13  -3 36.5000  1.7000   1
   0 -13  -4  3.4000  1.5000   1
   0  13   4  4.7000  2.8000   1
   0 -13  -5 10.9000  1.7000   1
   0  13   5 18.4000  3.5000   1
   0 -13  -6 15.1000  1.6000   1
   0  13   6  7.4000  3.4000   1
   0 -13  -7 93.7000  4.0000   1
   0  13   7 97.2000  7.1000   1
   0 -13  -8 59.7000  2.8000   1
   0  13   8 54.5000  6.0000   1
   0 -13  -9 13.8000  2.3000   1
   0  13   9  4.7000  4.3000   1
   0 -13 -10 51.9000  3.2000   1
   0  13  10 53.2000  6.6000   1
   0 -13 -11 14.2000  2.3000   1
   0  13  11 14.7000  4.9000   1
   0 -13 -12  0.5000  2.5000   1
   0  13  12  6.7000  5.2000   1
   0 -13 -13 11.0000  2.8000   1
   0  13  13 14.0000  5.9000   1
   0 -13 -14  5.2000  2.6000   1
   0  13  14  4.5000  5.4000   1
   0 -13 -15  0.1000  5.7000   1
   0  13  15  7.9000  5.1000   1
   0 -13 -16 12.4000  7.1000   1
   0  13  16  3.7000  6.9000   1
   0 -13 -17 68.8000 10.0000   1
   0  13  17 90.5000 11.1000   1
   0 -13 -18  9.7000  7.9000   1
   0  13  18 -3.2000  8.0000   1
   0 -14   0 45.0000  2.5000   1
   0 -14  -1  6.8000  1.6000   1
   0 -14  -2  2.2000  1.7000   1
   0 -14  -3  8.2000  1.3000   1
   0 -14  -4  8.9000  1.4000   1
   0 -14  -5  1.1000  1.4000   1
   0  14   5 -0.4000  3.4000   1
   0 -14  -6 31.6000  2.2000   1
   0  14   6 34.0000  4.3000   1
   0 -14  -7  1.8000  1.4000   1
   0  14   7  1.3000  3.8000   1
   0 -14  -8  3.5000  1.1000   1
   0  14   8 10.2000  4.4000   1
   0 -14  -9 152.100   5.800   1
   0  14   9 164.500  10.400   1
   0 -14 -10 68.9000  3.7000   1
   0  14  10 60.9000  6.9000   1
   0 -14 -11 56.6000  3.5000   1
   0  14  11 48.8000  6.5000   1
   0 -14 -12 54.8000  4.2000   1
   0  14  12 81.2000  8.3000   1
   0 -14 -13 25.3000  3.3000   1
   0  14  13 35.2000  7.1000   1
   0 -14 -14  7.7000  2.9000   1
   0  14  14  1.7000  4.7000   1
   0 -14 -15 13.9000  5.9000   1
   0  14  15 24.1000  7.0000   1
   0 -14 -16  6.4000  5.6000   1
   0  14  16 -3.3000  6.8000   1
   0 -14 -17 48.1000  5.8000   1
   0  14  17 53.8000  8.3000   1
   0 -15   0  0.8000  3.0000   1
   0 -15  -1  6.3000  1.5000   1
   0 -15  -2 269.700   8.300   1
   0 -15  -3  6.4000  1.4000   1
   0 -15  -4  1.9000  1.4000   1
   0 -15  -5 17.9000  1.7000   1
   0  15   5 14.9000  3.9000   1
   0 -15  -6 71.8000  3.2000   1
   0  15   6 50.0000  5.5000   1
   0 -15  -7  0.7000  1.4000   1
   0  15   7  8.7000  4.2000   1
   0 -15  -8  1.4000  1.3000   1
   0  15   8  2.3000  4.6000   1
   0 -15  -9 29.6000  2.9000   1
   0  15   9 40.5000  5.7000   1
   0 -15 -10  0.6000  2.4000   1
   0  15  10  0.7000  5.0000   1
   0 -15 -11 -4.7000  2.5000   1
   0  15  11  2.2000  5.3000   1
   0 -15 -12 16.8000  3.5000   1
   0  15  12 24.3000  6.2000   1
   0 -15 -13  0.2000  3.1000   1
   0  15  13  7.3000  6.3000   1
   0 -15 -14  5.3000  5.2000   1
   0  15  14  7.6000  6.7000   1
   0 -15 -15  0.5000  4.1000   1
   0  15  15 -6.0000  7.2000   1
   0 -15 -16 -0.3000  5.2000   1
   0  15  16 14.6000  7.5000   1
   0 -15 -17  5.4000  7.1000   1
   0  15  17  7.9000  9.7000   1
   0 -16   0 316.400  10.800   1
   0 -16  -1  5.1000  1.4000   1
   0 -16  -2  3.3000  1.4000   1
   0 -16  -3 72.5000  2.6000   1
   0 -16  -4 311.700  10.000   1
   0 -16  -5 67.6000  2.8000   1
   0 -16  -6 25.5000  2.1000   1
   0  16   6 19.3000  4.4000   1
   0 -16  -7  3.0000  1.5000   1
   0  16   7  2.1000  4.5000   1
   0 -16  -8 47.3000  2.5000   1
   0  16   8 49.7000  5.9000   1
   0 -16  -9 33.6000  2.9000   1
   0  16   9 30.2000  5.5000   1
   0 -16 -10 186.300   7.800   1
   0  16  10 224.400  14.000   1
   0 -16 -11  3.9000  2.7000   1
   0  16  11  2.1000  5.5000   1
   0 -16 -12 -0.4000  3.0000   1
   0  16  12 19.2000  6.7000   1
   0 -16 -13 -1.6000  4.1000   1
   0  16  13  7.9000  7.0000   1
   0 -16 -14 92.9000  7.7000   1
   0  16  14 96.3000 11.2000   1
   0 -16 -15  7.1000  4.2000   1
   0  16  15 15.7000  6.3000   1
   0 -16 -16  5.2000  8.1000   1
   0  16  16  9.1000  8.8000   1
   0 -17   0  2.4000  2.4000   1
   0 -17  -1  0.2000  1.5000   1
   0 -17  -2 249.700   6.100   1
   0 -17  -3  5.5000  1.8000   1
   0 -17  -4 146.300   4.100   1
   0 -17  -5 42.0000  2.8000   1
   0 -17  -6 26.5000  2.1000   1
   0 -17  -7  5.6000  1.6000   1
   0  17   7  1.4000  4.1000   1
   0 -17  -8 61.9000  2.7000   1
   0  17   8 57.1000  7.5000   1
   0 -17  -9 102.200   4.900   1
   0  17   9 138.100   9.500   1
   0 -17 -10  8.5000  3.0000   1
   0  17  10 11.3000  5.3000   1
   0 -17 -11  1.6000  2.9000   1
   0  17  11 -8.1000  5.4000   1
   0 -17 -12 81.5000  6.2000   1
   0  17  12 102.200   8.700   1
   0 -17 -13 11.8000  9.0000   1
   0  17  13 14.1000  7.0000   1
   0 -17 -14 -1.2000  6.2000   1
   0  17  14 20.1000  7.9000   1
   0  17  15  1.2000  7.7000   1
   0 -18   0 46.1000  3.3000   1
   0 -18  -1 12.2000  1.9000   1
   0 -18  -2  6.0000  1.7000   1
   0 -18  -3  3.2000  1.6000   1
   0 -18  -4  2.8000  1.6000   1
   0 -18  -5 23.4000  2.2000   1
   0 -18  -6  0.5000  1.9000   1
   0 -18  -7  4.4000  2.0000   1
   0 -18  -8 13.8000  2.7000   1
   0  18   8 19.1000  5.4000   1
   0 -18  -9 -6.0000  2.7000   1
   0  18   9  3.7000  5.6000   1
   0 -18 -10 55.1000  5.2000   1
   0  18  10 53.2000  8.3000   1
   0 -18 -11 10.7000  3.6000   1
   0  18  11 22.8000  6.2000   1
   0  18  12  5.4000  6.7000   1
   0  18  13  2.5000  5.9000   1
   0 -19   0  4.1000  3.4000   1
   0 -19  -1  5.4000  2.1000   1
   0 -19  -2 22.6000  2.4000   1
   0 -19  -3  8.5000  2.2000   1
   0 -19  -4 13.0000  2.2000   1
   0 -19  -5  5.4000  2.2000   1
   0 -19  -6  0.2000  2.5000   1
   0 -19  -7 15.9000  4.1000   1
   0 -19  -8 52.8000  4.0000   1
   0 -19  -9 -2.5000  4.5000   1
   0  19   9  1.2000  5.6000   1
   0 -19 -10 -1.9000  6.5000   1
   0  19  10  3.8000  6.0000   1
   0  19  11 -1.0000  7.9000   1
   0  19  12 20.8000  8.1000   1
   0 -20   0 57.7000  5.1000   1
   0 -20  -1  3.0000  2.6000   1
   0 -20  -2  5.1000  2.9000   1
   0 -20  -3 14.8000  3.0000   1
   0 -20  -4 25.4000  3.1000   1
   0 -20  -5  4.3000  3.5000   1
   0 -20  -6  5.9000  4.0000   1
   0 -20  -7  1.3000  4.8000   1
   0 -20  -8  0.8000  5.0000   1
   0 -20  -9 10.2000  4.8000   1
   0 -20 -10 39.0000 10.8000   1
   0 -21   0  0.8000  4.9000   1
   0 -21  -1  0.0000  2.6000   1
   0 -21  -2 28.6000  3.5000   1
   0 -21  -3 21.9000  3.6000   1
   0 -21  -4 -2.3000  4.5000   1
   0 -21  -5  4.5000  5.0000   1
   0 -21  -6 -2.5000  5.0000   1
   0 -21  -7 13.0000  4.5000   1
   0 -21  -8 21.8000  5.7000   1
   0 -22   0 44.5000  7.2000   1
   0 -22  -1  2.8000  3.5000   1
   0 -22  -2 -1.8000  4.2000   1
   0 -22  -3 -1.5000  5.0000   1
   0 -22  -4 15.8000  5.9000   1
   0 -22  -5 -8.6000  5.3000   1
   0 -22  -6 16.3000  6.0000   1
   1   0  21 17.9000  8.8000   1
   1   0  20 27.5000  9.2000   1
   1   0  19  6.8000  4.5000   1
   1   0  18 12.4000  7.0000   1
   1   0  17 -4.0000  1.7000   1
   1   0  16 32.5000  2.5000   1
   1   0  15  4.4000  2.0000   1
   1   0  14 188.700   8.800   1
   1   0  13 -0.9000  1.5000   1
   1   0  12 135.900   5.400   1
   1   0  11  0.1000  1.2000   1
   1   0  10 145.900   5.600   1
   1   0   9 -3.0000  1.9000   1
   1   0   8  2.9000  1.5000   1
   1   0   7  6.3000  1.8000   1
   1   0   6 129.500   7.300   1
   1   0   5 -2.0000  1.2000   1
   1   0   4 320.500  16.300   1
   1   0   3  1.7000  0.8000   1
   1   0   2 4362.80  167.00   1
   1   0   1  0.2000  0.2000   1
   1   0   0 -0.7000  0.2000   1
   1   0  -1 -0.1000  0.3000   1
   1   0  -2  0.0000  0.4000   1
   1   0  -3  1.2000  0.3000   1
   1   0  -4 445.100   9.000   1
   1   0  -5  0.1000  0.7000   1
   1   0  -6 402.200   8.900   1
   1   0  -7  0.4000  1.0000   1
   1   0  -8 210.700   5.000   1
   1   0  -9  1.8000  1.1000   1
   1   0 -10  2.8000  1.1000   1
   1   0 -11  2.3000  1.3000   1
   1   0 -12 1494.10   40.20   1
   1   0 -13  1.8000  1.3000   1
   1   0 -14 123.800   3.800   1
   1   0 -15  1.6000  1.6000   1
   1   0 -16  3.2000  1.9000   1
   1   0 -17  4.0000  2.1000   1
   1   0 -18 46.2000  3.5000   1
   1   0 -19 -0.8000  2.2000   1
   1   0 -20 34.0000  8.5000   1
   1   0 -21  0.5000  5.0000   1
   1   0 -22 10.4000  5.9000   1
   1   0 -23 -0.8000  6.2000   1
   1  -1  21-16.7000  8.3000   1
  -1   1 -21  1.5000  8.6000   1
   1  -1  20  3.7000  5.2000   1
  -1   1 -20  8.9000  7.7000   1
   1  -1  19 46.2000  8.8000   1
  -1   1 -19 50.6000  7.0000   1
   1  -1  18 34.1000  2.9000   1
  -1   1 -18 38.9000  3.3000   1
   1  -1  17 83.4000  4.6000   1
  -1   1 -17 72.0000  3.8000   1
   1  -1  16 172.200   7.000   1
  -1   1 -16 163.600   6.500   1
  -1   1 -15 332.400  11.000   1
   1  -1  14  8.0000  1.9000   1
  -1   1 -14  5.7000  1.4000   1
   1  -1  13 57.1000  2.9000   1
  -1   1 -13 63.4000  2.9000   1
   1  -1  12 127.800   8.300   1
  -1   1 -12 130.300   5.600   1
   1  -1  11  0.4000  3.1000   1
  -1   1 -11  4.5000  1.1000   1
   1  -1  10 16.2000  2.5000   1
  -1   1 -10 21.0000  1.5000   1
   1  -1   9 163.200   8.500   1
  -1   1  -9 155.500   5.000   1
   1  -1   8  5.9000  2.0000   1
  -1   1  -8  6.5000  1.0000   1
  -1   1  -7 458.000  11.900   1
   1  -1   6  3.1000  2.1000   1
  -1   1  -6  1.0000  1.2000   1
   1  -1   5 334.700  10.900   1
  -1   1  -5 328.000  10.100   1
   1  -1   4 64.1000  2.5000   1
  -1   1  -4 67.5000  2.1000   1
   1  -1   3 42.6000  2.2000   1
  -1   1  -3 45.7000  2.1000   1
   1  -1   2 283.600   7.000   1
  -1   1  -2 279.300   6.500   1
   1  -1   1 36.4000  1.0000   1
  -1   1  -1 36.2000  1.8000   1
   1  -1   0 -0.4000  0.5000   1
  -1   1   0  0.2000  0.2000   1
   1  -1  -1 -0.3000  0.4000   1
  -1   1   1  0.0000  0.2000   1
  -1   1   2  1.6000  0.6000   1
   1  -1  -3 2330.00   48.20   1
  -1   1   3 2290.20   57.50   1
   1  -1  -4 666.500  12.800   1
  -1   1   4 679.400  22.100   1
   1  -1  -5 30.6000  1.1000   1
  -1   1   5 29.6000  1.2000   1
   1  -1  -6 53.7000  2.6000   1
  -1   1   6 51.1000  1.9000   1
   1  -1  -7 110.400   4.600   1
  -1   1   7 120.400   3.500   1
   1  -1  -8 152.200   4.200   1
  -1   1   8 156.200   5.500   1
   1  -1  -9 31.4000  2.0000   1
  -1   1   9 32.6000  1.7000   1
   1  -1 -10  6.0000  1.3000   1
  -1   1  10  5.1000  1.0000   1
   1  -1 -11 132.200   4.400   1
  -1   1  11 140.300   3.900   1
   1  -1 -12  1.7000  2.0000   1
  -1   1  12  2.2000  1.1000   1
   1  -1 -13 88.6000  2.9000   1
  -1   1  13 91.5000  3.6000   1
   1  -1 -14  6.9000  1.8000   1
  -1   1  14  6.8000  1.3000   1
   1  -1 -15 86.9000  3.4000   1
  -1   1  15 84.5000  3.7000   1
   1  -1 -16 123.900   5.000   1
  -1   1  16 112.900   5.900   1
   1  -1 -17  4.1000  2.5000   1
  -1   1  17  1.4000  2.0000   1
   1  -1 -18 41.5000  3.7000   1
  -1   1  18 38.1000  3.5000   1
   1  -1 -19 40.0000  3.5000   1
  -1   1  19 48.3000  3.7000   1
   1  -1 -20 46.8000  4.3000   1
  -1   1  20 42.7000  5.5000   1
   1  -1 -21 71.9000 10.6000   1
  -1   1  21 86.5000  9.3000   1
   1  -1 -22  2.0000  8.0000   1
  -1   1  22 15.6000  6.7000   1
   1  -1 -23  5.2000  6.6000   1
  -1   1  23 14.7000  8.5000   1
   1  -2  21 31.8000  7.7000   1
  -1   2 -21 31.6000 10.5000   1
   1  -2  20 27.8000  7.9000   1
  -1   2 -20 34.1000  8.5000   1
   1  -2  19 91.6000 10.7000   1
  -1   2 -19 91.2000  9.1000   1
   1  -2  18 74.5000  5.0000   1
  -1   2 -18 73.6000  5.6000   1
   1  -2  17 209.900   8.500   1
  -1   2 -17 221.900   7.400   1
   1  -2  16 29.3000  3.0000   1
  -1   2 -16 31.4000  2.3000   1
   1  -2  15 32.7000  3.4000   1
  -1   2 -15 34.6000  2.3000   1
   1  -2  14 120.500   9.600   1
  -1   2 -14 116.700   5.200   1
   1  -2  13 60.3000  7.3000   1
  -1   2 -13 79.4000  2.9000   1
   1  -2  12 49.9000  4.0000   1
  -1   2 -12 52.4000  2.9000   1
   1  -2  11 35.7000  4.1000   1
  -1   2 -11 36.7000  1.7000   1
   1  -2  10 36.6000  3.2000   1
  -1   2 -10 37.2000  1.9000   1
   1  -2   9 125.400   5.000   1
  -1   2  -9 121.400   4.300   1
   1  -2   8 48.6000  2.9000   1
  -1   2  -8 49.1000  2.1000   1
   1  -2   7 343.700  12.200   1
  -1   2  -7 343.600   9.400   1
   1  -2   6 14.8000  2.6000   1
  -1   2  -6 18.6000  1.0000   1
   1  -2   5 522.500  25.000   1
  -1   2  -5 511.000  16.200   1
  -1   2  -4 25.8000  1.6000   1
   1  -2   3 96.2000  3.1000   1
  -1   2  -3 91.8000  3.7000   1
   1  -2   2 711.900  22.200   1
  -1   2  -2 676.500  16.000   1
   1  -2   1 1587.50   46.70   1
  -1   2  -1 1458.10   42.80   1
   1  -2   0  4.7000  0.2000   1
  -1   2   0  6.3000  0.8000   1
   1  -2  -1 2214.80   83.90   1
  -1   2   1 1845.30   92.60   1
   1  -2  -2 577.700  14.000   1
  -1   2   2 518.200  28.600   1
   1  -2  -3 24.6000  1.0000   1
  -1   2   3 24.5000  1.0000   1
   1  -2  -4 59.5000  1.8000   1
  -1   2   4 56.9000  1.8000   1
   1  -2  -5 1152.00   22.10   1
  -1   2   5 1163.10   39.70   1
   1  -2  -6 1681.60   42.10   1
  -1   2   6 1696.40   54.70   1
   1  -2  -7 19.5000  1.5000   1
  -1   2   7 24.1000  1.4000   1
   1  -2  -8 114.700   4.400   1
  -1   2   8 130.000   4.500   1
   1  -2  -9 1320.60   46.40   1
  -1   2   9 1331.20   39.90   1
   1  -2 -10 55.6000  3.3000   1
  -1   2  10 50.7000  2.1000   1
   1  -2 -11 584.300  21.900   1
  -1   2  11 599.300  15.600   1
   1  -2 -12 88.7000  4.1000   1
  -1   2  12 90.8000  3.3000   1
   1  -2 -13 21.6000  2.4000   1
  -1   2  13 22.6000  1.7000   1
   1  -2 -14 259.000   9.700   1
  -1   2  14 273.100   7.800   1
   1  -2 -15 80.9000  3.2000   1
  -1   2  15 76.2000  3.4000   1
   1  -2 -16 29.3000  2.6000   1
  -1   2  16 30.5000  2.3000   1
   1  -2 -17 -0.8000  2.1000   1
  -1   2  17  3.2000  1.6000   1
   1  -2 -18 48.3000  3.7000   1
  -1   2  18 47.7000  3.5000   1
   1  -2 -19  0.9000  2.9000   1
  -1   2  19  2.8000  2.5000   1
   1  -2 -20  8.0000  3.6000   1
  -1   2  20 -1.6000  3.8000   1
   1  -2 -21  5.5000  6.9000   1
  -1   2  21  2.0000  5.8000   1
   1  -2 -22 -5.9000  8.3000   1
  -1   2  22 -3.8000  5.6000   1
   1  -2 -23  1.2000  9.6000   1
  -1   2  23-14.4000  7.8000   1
   1  -3  21  6.0000  8.2000   1
  -1   3 -21  4.5000  5.6000   1
   1  -3  20 -1.4000  6.8000   1
  -1   3 -20  8.0000  7.7000   1
   1  -3  19  1.8000  7.2000   1
  -1   3 -19  9.0000  5.0000   1
   1  -3  18  9.6000  2.9000   1
  -1   3 -18  0.6000  2.9000   1
   1  -3  17  2.2000  2.1000   1
  -1   3 -17  6.2000  2.9000   1
   1  -3  16 -3.2000  3.6000   1
  -1   3 -16 -2.5000  1.1000   1
   1  -3  15 335.800  17.700   1
  -1   3 -15 310.800   8.700   1
   1  -3  14 15.2000  3.9000   1
  -1   3 -14 13.1000  1.4000   1
   1  -3  13  0.7000  4.6000   1
  -1   3 -13  0.2000  1.1000   1
   1  -3  12 -2.4000  2.2000   1
  -1   3 -12  0.1000  0.9000   1
   1  -3  11 393.200  28.800   1
  -1   3 -11 399.000   9.400   1
  -1   3 -10 60.1000  2.0000   1
   1  -3   9  0.1000  1.5000   1
  -1   3  -9  1.9000  0.7000   1
   1  -3   8  1.4000  2.0000   1
  -1   3  -8  3.7000  0.8000   1
   1  -3   7 -0.5000  1.6000   1
  -1   3  -7  2.3000  0.6000   1
   1  -3   6 1123.80   34.50   1
  -1   3  -6 1113.60   22.30   1
   1  -3   5 23.8000  1.0000   1
  -1   3  -5 24.7000  1.1000   1
   1  -3   4 803.400  19.800   1
  -1   3  -4 804.500  19.000   1
   1  -3   3  5.1000  0.6000   1
  -1   3  -3  8.3000  1.1000   1
   1  -3   2 457.500  13.900   1
  -1   3  -2 463.300  17.600   1
   1  -3   1 483.300   9.300   1
  -1   3  -1 468.100  16.600   1
   1  -3   0  8.5000  1.1000   1
  -1   3   0 10.0000  1.0000   1
   1  -3  -1 193.100   4.900   1
  -1   3   1 195.800   5.100   1
   1  -3  -2 285.100   6.800   1
  -1   3   2 289.100   6.300   1
   1  -3  -3 1431.00   31.70   1
  -1   3   3 1399.60   32.20   1
   1  -3  -4 369.600   9.000   1
  -1   3   4 361.900   8.500   1
   1  -3  -5 1804.60   42.40   1
  -1   3   5 1801.60   48.30   1
   1  -3  -6 210.400   4.800   1
  -1   3   6 211.300   5.400   1
   1  -3  -7 207.700   5.100   1
  -1   3   7 211.000   5.100   1
   1  -3  -8 475.100  17.500   1
  -1   3   8 463.600  12.400   1
   1  -3  -9 22.7000  1.6000   1
  -1   3   9 24.8000  1.6000   1
   1  -3 -10  8.2000  2.1000   1
  -1   3  10  7.8000  1.3000   1
   1  -3 -11 20.7000  2.6000   1
  -1   3  11 19.0000  1.7000   1
   1  -3 -12  0.2000  1.9000   1
  -1   3  12  4.3000  1.4000   1
   1  -3 -13 59.4000  4.0000   1
  -1   3  13 63.3000  2.9000   1
   1  -3 -14 26.0000  3.1000   1
  -1   3  14 32.4000  2.2000   1
   1  -3 -15 71.9000  5.5000   1
  -1   3  15 77.0000  3.3000   1
   1  -3 -16 64.4000  3.4000   1
  -1   3  16 59.1000  3.7000   1
   1  -3 -17 67.1000  4.1000   1
  -1   3  17 75.4000  4.1000   1
   1  -3 -18 11.1000  2.7000   1
  -1   3  18  9.1000  2.1000   1
   1  -3 -19 15.9000  7.1000   1
  -1   3  19 11.3000  2.4000   1
   1  -3 -20  2.8000  3.5000   1
   1  -3 -21 -7.4000  7.5000   1
  -1   3  21  7.1000  6.1000   1
   1  -3 -22  2.6000  7.6000   1
  -1   3  22  1.6000  5.8000   1
   1  -3 -23 22.5000  9.4000   1
  -1   3  23 22.0000 10.6000   1
   1  -4  21 19.8000  9.2000   1
  -1   4 -21 12.5000  6.8000   1
   1  -4  20  1.6000  7.6000   1
  -1   4 -20 14.4000  7.4000   1
   1  -4  19  3.0000  4.0000   1
  -1   4 -19 -2.4000  5.5000   1
   1  -4  18 -4.8000  2.3000   1
  -1   4 -18 11.9000  6.4000   1
   1  -4  17  2.9000  5.4000   1
  -1   4 -17  3.8000  2.3000   1
   1  -4  16  3.9000  4.7000   1
  -1   4 -16  9.6000  2.5000   1
   1  -4  15  4.0000  4.5000   1
  -1   4 -15  1.9000  2.2000   1
   1  -4  14 61.8000  4.9000   1
  -1   4 -14 61.4000  4.0000   1
   1  -4  13 -1.8000  4.1000   1
  -1   4 -13 10.4000  1.9000   1
   1  -4  12 132.500   6.400   1
  -1   4 -12 117.500   3.400   1
   1  -4  11 18.8000  3.1000   1
  -1   4 -11 17.4000  1.6000   1
   1  -4  10 -2.9000  3.1000   1
  -1   4 -10  2.8000  0.7000   1
  -1   4  -9 297.800   7.400   1
   1  -4   8 250.100   8.600   1
  -1   4  -8 245.100   5.400   1
   1  -4   7 60.4000  3.2000   1
  -1   4  -7 62.8000  1.9000   1
   1  -4   6 13.1000  1.0000   1
  -1   4  -6 14.8000  0.9000   1
   1  -4   5 86.0000  2.6000   1
  -1   4  -5 84.0000  3.0000   1
   1  -4   4 258.500   5.900   1
  -1   4  -4 252.700   9.800   1
   1  -4   3 128.500   3.600   1
  -1   4  -3 117.700   5.300   1
   1  -4   2 130.400   3.800   1
  -1   4  -2 114.500   5.600   1
   1  -4   1 647.900  24.900   1
  -1   4  -1 657.800  25.400   1
   1  -4   0 97.7000  2.7000   1
  -1   4   0 88.5000  4.0000   1
   1  -4  -1 977.100  23.500   1
  -1   4   1 969.500  25.000   1
   1  -4  -2 498.500  12.900   1
  -1   4   2 501.500  12.000   1
   1  -4  -3 1000.40   24.60   1
  -1   4   3 1007.90   23.00   1
   1  -4  -4 30.5000  1.3000   1
  -1   4   4 30.2000  1.3000   1
   1  -4  -5 1700.80   38.00   1
  -1   4   5 1597.20   35.50   1
   1  -4  -6 326.500   7.800   1
  -1   4   6 309.900   7.600   1
   1  -4  -7 167.500   4.800   1
  -1   4   7 173.800   4.500   1
   1  -4  -8 96.0000  2.7000   1
  -1   4   8 94.2000  3.0000   1
   1  -4  -9 749.500  26.000   1
  -1   4   9 747.600  19.600   1
   1  -4 -10 37.3000  2.0000   1
  -1   4  10 39.0000  1.8000   1
   1  -4 -11  0.4000  2.1000   1
  -1   4  11  1.6000  1.2000   1
   1  -4 -12 44.7000  3.3000   1
  -1   4  12 44.2000  2.2000   1
   1  -4 -13 19.7000  3.3000   1
  -1   4  13 19.3000  1.7000   1
   1  -4 -14 32.8000  3.3000   1
  -1   4  14 32.4000  2.1000   1
   1  -4 -15 43.3000  4.6000   1
  -1   4  15 55.8000  2.9000   1
   1  -4 -16 175.700   9.100   1
  -1   4  16 206.800   7.100   1
   1  -4 -17 33.0000  4.3000   1
  -1   4  17 41.4000  2.9000   1
   1  -4 -18 34.7000  4.0000   1
  -1   4  18 34.8000  3.1000   1
   1  -4 -19 33.9000  4.4000   1
  -1   4  19 34.5000  2.7000   1
   1  -4 -20 42.3000  5.0000   1
   1  -4 -21 17.0000  8.1000   1
  -1   4  21 -7.8000  6.9000   1
   1  -4 -22 11.0000  6.0000   1
  -1   4  22  6.0000  6.3000   1
   1  -4 -23 44.3000  8.3000   1
  -1   4  23 47.9000 11.2000   1
   1  -5  21 24.9000  9.3000   1
  -1   5 -21 19.6000  7.0000   1
   1  -5  20 45.1000  9.1000   1
  -1   5 -20 42.7000 10.7000   1
   1  -5  19 141.800  13.200   1
  -1   5 -19 153.600  13.200   1
   1  -5  18 59.1000  8.4000   1
  -1   5 -18 60.3000  8.8000   1
   1  -5  17 32.2000  7.1000   1
  -1   5 -17 19.6000  3.5000   1
   1  -5  16  7.8000  6.1000   1
  -1   5 -16  9.9000  2.4000   1
   1  -5  15  2.5000  4.7000   1
  -1   5 -15  7.3000  2.2000   1
   1  -5  14 33.1000  3.9000   1
  -1   5 -14 33.0000  3.3000   1
   1  -5  13 31.8000  3.5000   1
  -1   5 -13 26.7000  2.3000   1
   1  -5  12 26.7000  3.6000   1
  -1   5 -12 28.3000  2.1000   1
   1  -5  11 160.200   9.300   1
  -1   5 -11 163.100   5.800   1
   1  -5  10 29.6000  2.8000   1
  -1   5 -10 33.8000  2.1000   1
   1  -5   9 12.9000  2.9000   1
  -1   5  -9 19.1000  1.5000   1
   1  -5   8 367.000  12.700   1
  -1   5  -8 365.000  10.300   1
   1  -5   7 178.800   7.100   1
  -1   5  -7 169.600   5.900   1
   1  -5   6 55.0000  2.0000   1
  -1   5  -6 54.9000  2.1000   1
   1  -5   5 39.2000  1.6000   1
  -1   5  -5 38.8000  3.3000   1
   1  -5   4 76.8000  2.3000   1
  -1   5  -4 78.3000  4.7000   1
   1  -5   3 208.200   4.900   1
  -1   5  -3 199.300   8.400   1
   1  -5   2 -1.2000  1.5000   1
  -1   5  -2  0.3000  1.5000   1
   1  -5   0  9.4000  1.2000   1
   1  -5  -1 25.2000  1.3000   1
  -1   5   1 25.2000  1.3000   1
   1  -5  -2 203.400   5.100   1
  -1   5   2 202.200   4.900   1
   1  -5  -3 1030.00   24.00   1
  -1   5   3 1032.70   26.30   1
   1  -5  -4  7.2000  0.9000   1
  -1   5   4  4.8000  0.8000   1
   1  -5  -5 974.200  24.800   1
  -1   5   5 960.100  23.500   1
   1  -5  -6 226.700   5.900   1
  -1   5   6 215.400   5.700   1
   1  -5  -7 1088.90   25.20   1
  -1   5   7 1050.80   28.80   1
   1  -5  -8 95.8000  3.2000   1
  -1   5   8 93.7000  3.1000   1
   1  -5  -9 230.700   6.600   1
  -1   5   9 225.000   5.900   1
   1  -5 -10 10.4000  1.5000   1
  -1   5  10 13.3000  1.3000   1
   1  -5 -11 362.200  10.100   1
  -1   5  11 350.200   8.300   1
   1  -5 -12 -1.0000  3.4000   1
  -1   5  12  2.8000  1.4000   1
   1  -5 -13 138.200   7.000   1
  -1   5  13 151.500   4.800   1
   1  -5 -14 34.9000  3.6000   1
  -1   5  14 50.2000  2.4000   1
   1  -5 -15 -2.6000  4.9000   1
  -1   5  15  0.2000  1.4000   1
   1  -5 -16  1.2000  2.9000   1
  -1   5  16  3.2000  1.8000   1
   1  -5 -17  5.1000  5.1000   1
  -1   5  17  7.4000  1.8000   1
   1  -5 -18 16.8000  6.2000   1
  -1   5  18  4.7000  1.9000   1
   1  -5 -19  1.9000  3.9000   1
  -1   5  19  3.6000  6.2000   1
   1  -5 -20 13.4000  3.3000   1
  -1   5  20 18.5000  7.2000   1
   1  -5 -21 -6.7000  6.5000   1
  -1   5  21  7.9000  7.8000   1
   1  -5 -22 12.5000  8.4000   1
  -1   5  22 24.0000  6.6000   1
   1  -6  21  3.4000  8.0000   1
  -1   6 -21  3.3000  6.5000   1
   1  -6  20  8.5000  8.5000   1
  -1   6 -20  2.2000  8.6000   1
   1  -6  19  3.8000  4.0000   1
  -1   6 -19 -3.8000  7.1000   1
   1  -6  18  6.4000  5.8000   1
  -1   6 -18  4.4000  5.1000   1
   1  -6  17-11.0000  5.1000   1
   1  -6  16 13.7000  5.6000   1
  -1   6 -16  2.1000  1.9000   1
   1  -6  15 45.6000  6.3000   1
  -1   6 -15 54.6000  3.2000   1
   1  -6  14 21.9000  4.7000   1
  -1   6 -14  8.3000  1.9000   1
   1  -6  13 91.4000  5.7000   1
  -1   6 -13 85.0000  3.7000   1
   1  -6  12  0.7000  2.7000   1
  -1   6 -12  2.3000  1.3000   1
   1  -6  11  8.3000  2.6000   1
  -1   6 -11  7.5000  1.2000   1
   1  -6  10 152.800   7.200   1
  -1   6 -10 157.900   5.900   1
   1  -6   9 546.900  15.600   1
  -1   6  -9 547.500  16.700   1
   1  -6   8  5.8000  1.1000   1
  -1   6  -8  6.9000  0.7000   1
   1  -6   7 221.200   6.300   1
  -1   6  -7 213.900  10.800   1
   1  -6   6 355.500   8.100   1
  -1   6  -6 339.900  14.800   1
   1  -6   5 473.100  13.000   1
  -1   6  -5 481.300  20.700   1
   1  -6   4 861.100  19.300   1
  -1   6  -4 875.400  31.300   1
   1  -6   3 16.3000  1.0000   1
  -1   6  -3 22.8000  2.8000   1
   1  -6   2 561.000  23.900   1
  -1   6  -2 530.800  20.800   1
   1  -6   1 428.800  18.400   1
  -1   6  -1 411.300  15.000   1
   1  -6   0 2164.30   64.20   1
   1  -6  -1 222.900   5.600   1
   1  -6  -2 173.600   4.500   1
  -1   6   2 167.900   5.500   1
   1  -6  -3  2.9000  0.8000   1
  -1   6   3  1.0000  0.8000   1
   1  -6  -4  8.9000  0.9000   1
  -1   6   4  8.9000  1.0000   1
   1  -6  -5 92.6000  2.9000   1
  -1   6   5 91.8000  2.9000   1
   1  -6  -6 108.900   3.300   1
  -1   6   6 111.300   3.200   1
   1  -6  -7 1722.90   43.10   1
  -1   6   7 1660.30   39.60   1
   1  -6  -8  0.8000  0.8000   1
  -1   6   8 -0.5000  1.1000   1
   1  -6  -9 10.7000  1.1000   1
  -1   6   9  8.4000  1.1000   1
   1  -6 -10 63.6000  2.7000   1
  -1   6  10 67.5000  2.7000   1
   1  -6 -11 293.300  10.300   1
  -1   6  11 284.800   8.000   1
   1  -6 -12 41.6000  2.7000   1
  -1   6  12 38.0000  2.1000   1
   1  -6 -13 41.2000  4.0000   1
  -1   6  13 50.8000  2.7000   1
   1  -6 -14  2.9000  2.6000   1
  -1   6  14  1.4000  1.8000   1
   1  -6 -15 13.5000  3.8000   1
  -1   6  15 22.6000  2.0000   1
   1  -6 -16 80.6000  7.7000   1
  -1   6  16 93.5000  4.4000   1
   1  -6 -17 16.4000  5.3000   1
  -1   6  17 15.8000  2.0000   1
   1  -6 -18 27.5000  6.6000   1
  -1   6  18 38.2000  2.7000   1
   1  -6 -19  6.6000  4.0000   1
  -1   6  19 -1.1000  6.2000   1
   1  -6 -20 46.7000  5.3000   1
  -1   6  20 57.4000  7.9000   1
   1  -6 -21  3.0000  7.9000   1
  -1   6  21 -2.4000  6.8000   1
   1  -6 -22  7.0000  8.8000   1
  -1   6  22 -0.7000  8.4000   1
   1  -7  20 19.6000  7.8000   1
  -1   7 -20  6.6000  7.8000   1
   1  -7  19  2.2000  4.1000   1
  -1   7 -19 15.7000  8.0000   1
   1  -7  18  9.3000  6.3000   1
  -1   7 -18 14.7000  5.4000   1
   1  -7  17  1.5000  5.9000   1
  -1   7 -17  5.7000  2.3000   1
   1  -7  16 120.200  11.700   1
  -1   7 -16 121.900   4.300   1
   1  -7  15  1.3000  3.6000   1
  -1   7 -15  0.7000  1.5000   1
   1  -7  14  0.7000  4.5000   1
  -1   7 -14  0.0000  1.4000   1
   1  -7  13 -2.2000  3.2000   1
  -1   7 -13  9.5000  1.5000   1
   1  -7  12 122.100   6.000   1
  -1   7 -12 117.000   5.800   1
   1  -7  11 146.400   7.000   1
  -1   7 -11 141.700   5.300   1
   1  -7  10 77.0000  3.6000   1
  -1   7 -10 76.2000  2.2000   1
   1  -7   9  5.5000  1.0000   1
  -1   7  -9  3.5000  3.9000   1
   1  -7   8 70.2000  2.8000   1
   1  -7   7 102.200   3.500   1
   1  -7   6 621.100  15.400   1
  -1   7  -6 597.800  22.100   1
   1  -7   5 60.3000  2.2000   1
  -1   7  -5 52.8000  4.4000   1
   1  -7   4 11.7000  0.7000   1
  -1   7  -4 14.9000  2.8000   1
   1  -7   3 299.800   9.000   1
  -1   7  -3 293.300  11.400   1
   1  -7   2 356.100  16.700   1
  -1   7  -2 325.000  13.300   1
   1  -7   1 117.700   6.700   1
   1  -7   0 538.700  21.100   1
   1  -7  -1 12.6000  1.1000   1
   1  -7  -2 189.300   6.300   1
  -1   7   2 184.900   7.400   1
   1  -7  -3 64.9000  2.2000   1
  -1   7   3 66.1000  2.9000   1
   1  -7  -4 143.100   4.000   1
  -1   7   4 146.600   4.200   1
   1  -7  -5 64.6000  2.4000   1
  -1   7   5 65.1000  2.2000   1
   1  -7  -6  4.4000  1.0000   1
  -1   7   6  4.7000  1.0000   1
   1  -7  -7 -0.2000  0.9000   1
  -1   7   7  1.4000  1.0000   1
   1  -7  -8 57.5000  2.2000   1
  -1   7   8 54.9000  2.1000   1
   1  -7  -9  0.5000  1.0000   1
  -1   7   9 -0.3000  1.2000   1
   1  -7 -10 77.2000  3.3000   1
  -1   7  10 75.4000  2.7000   1
   1  -7 -11 143.000   5.800   1
  -1   7  11 134.300   4.200   1
   1  -7 -12 38.7000  2.4000   1
  -1   7  12 38.7000  2.1000   1
   1  -7 -13 176.400   6.400   1
  -1   7  13 190.600   5.500   1
   1  -7 -14  6.4000  2.7000   1
  -1   7  14  3.4000  1.4000   1
   1  -7 -15 40.5000  6.8000   1
  -1   7  15 46.8000  2.6000   1
   1  -7 -16 15.2000  6.0000   1
  -1   7  16  8.0000  1.6000   1
   1  -7 -17 112.900   9.800   1
  -1   7  17 95.3000  3.8000   1
   1  -7 -18 12.8000  6.1000   1
  -1   7  18  4.3000  2.8000   1
   1  -7 -19  9.3000  6.4000   1
  -1   7  19 -1.3000  5.2000   1
   1  -7 -20 15.4000  7.3000   1
  -1   7  20 -2.1000  6.9000   1
   1  -7 -21 23.2000  6.3000   1
  -1   7  21 19.4000  9.8000   1
   1  -7 -22  8.6000  9.2000   1
  -1   7  22 15.1000  9.2000   1
   1  -8  20 48.2000 10.3000   1
  -1   8 -20 12.4000  7.5000   1
   1  -8  19  5.6000  4.4000   1
  -1   8 -19  7.3000  7.4000   1
   1  -8  18 43.4000  5.5000   1
  -1   8 -18 40.5000  8.9000   1
   1  -8  17  6.2000  6.0000   1
  -1   8 -17 15.2000  4.9000   1
   1  -8  16 79.9000  8.0000   1
  -1   8 -16 65.3000  3.0000   1
   1  -8  15  4.1000  4.9000   1
  -1   8 -15  3.3000  0.8000   1
   1  -8  14 89.3000  8.0000   1
  -1   8 -14 90.7000  8.2000   1
   1  -8  13 -1.0000  3.3000   1
   1  -8  12 17.5000  3.6000   1
  -1   8 -12 30.2000  5.5000   1
   1  -8  11 25.3000  1.8000   1
  -1   8 -11 19.1000  4.9000   1
   1  -8  10 241.300   7.400   1
  -1   8 -10 243.100  12.900   1
   1  -8   9 23.1000  1.8000   1
  -1   8  -9 17.5000  4.0000   1
   1  -8   8  3.0000  1.5000   1
  -1   8  -8  8.1000  3.5000   1
   1  -8   7 17.4000  1.5000   1
  -1   8  -7 22.9000  3.9000   1
   1  -8   6 174.700   5.400   1
  -1   8  -6 196.700   9.500   1
   1  -8   5 40.4000  1.9000   1
  -1   8  -5 40.7000  3.7000   1
   1  -8   4 68.1000  2.7000   1
  -1   8  -4 69.2000  4.9000   1
   1  -8   3 64.3000  2.5000   1
  -1   8  -3 57.4000  4.0000   1
   1  -8   2 271.000  12.400   1
  -1   8  -2 260.800  10.000   1
   1  -8   1 65.0000  2.6000   1
  -1   8  -1 60.2000  3.2000   1
   1  -8   0 44.8000  3.3000   1
   1  -8  -1 625.900  23.200   1
   1  -8  -2 43.0000  2.2000   1
  -1   8   2 40.2000  2.5000   1
   1  -8  -3 1163.60   28.10   1
  -1   8   3 1128.00   42.50   1
   1  -8  -4 37.4000  1.8000   1
  -1   8   4 36.8000  2.9000   1
   1  -8  -5 184.900   5.400   1
  -1   8   5 190.500   5.300   1
   1  -8  -6  1.2000  0.9000   1
  -1   8   6  0.8000  1.0000   1
   1  -8  -7 16.6000  1.4000   1
  -1   8   7 15.9000  1.5000   1
   1  -8  -8  7.4000  1.2000   1
  -1   8   8  4.5000  1.2000   1
   1  -8  -9 94.3000  2.9000   1
  -1   8   9 94.1000  3.1000   1
   1  -8 -10 110.700   3.800   1
  -1   8  10 112.500   3.600   1
   1  -8 -11  3.6000  1.5000   1
  -1   8  11  2.0000  1.1000   1
   1  -8 -12 104.700   4.200   1
  -1   8  12 104.600   3.700   1
   1  -8 -13 24.4000  2.4000   1
  -1   8  13 27.4000  1.8000   1
   1  -8 -14 72.2000  3.4000   1
  -1   8  14 72.6000  2.9000   1
   1  -8 -15 34.0000  5.5000   1
  -1   8  15 37.7000  2.4000   1
   1  -8 -16  3.6000  5.2000   1
  -1   8  16  3.5000  1.6000   1
   1  -8 -17 39.1000  7.1000   1
  -1   8  17 46.1000  2.7000   1
   1  -8 -18  4.1000  6.3000   1
  -1   8  18  0.0000  3.5000   1
   1  -8 -19  7.7000  4.8000   1
  -1   8  19  9.6000  7.3000   1
   1  -8 -20  6.2000  7.4000   1
  -1   8  20  7.7000  8.3000   1
   1  -8 -21 -7.0000  8.3000   1
  -1   8  21  6.9000  8.5000   1
   1  -9  20  5.0000  8.2000   1
  -1   9 -20 19.7000  7.3000   1
   1  -9  19  8.1000  4.8000   1
  -1   9 -19  7.8000  8.3000   1
   1  -9  18  2.6000  3.8000   1
  -1   9 -18 -1.6000  7.7000   1
   1  -9  17 -1.0000  5.2000   1
  -1   9 -17 -1.2000  6.3000   1
   1  -9  16 -1.1000  5.5000   1
  -1   9 -16 -3.0000  6.7000   1
   1  -9  15 -0.2000  4.9000   1
  -1   9 -15 -1.4000  6.2000   1
   1  -9  14 -1.5000  4.3000   1
  -1   9 -14  7.1000  5.4000   1
   1  -9  13 15.8000  4.4000   1
   1  -9  12 114.000  10.000   1
  -1   9 -12 122.000   7.700   1
   1  -9  11 13.3000  1.8000   1
  -1   9 -11  4.5000  3.9000   1
   1  -9  10 18.4000  1.7000   1
  -1   9 -10 17.0000  4.5000   1
   1  -9   9 20.0000  1.8000   1
  -1   9  -9 28.5000  4.7000   1
   1  -9   8 122.600   4.300   1
  -1   9  -8 122.000   7.700   1
   1  -9   7 17.6000  1.7000   1
  -1   9  -7 18.9000  3.9000   1
   1  -9   6 424.500  11.500   1
  -1   9  -6 406.100  16.600   1
   1  -9   5 75.6000  2.2000   1
  -1   9  -5 97.3000  5.6000   1
   1  -9   4 15.9000  1.2000   1
  -1   9  -4 21.4000  3.4000   1
   1  -9   3 356.900   9.100   1
  -1   9  -3 360.000  14.600   1
   1  -9   2 533.500  21.800   1
  -1   9  -2 497.500  18.900   1
   1  -9   1 218.200   7.300   1
   1  -9   0 15.5000  1.2000   1
   1  -9  -1 19.9000  1.4000   1
   1  -9  -2 610.500  15.700   1
  -1   9   2 593.200  22.500   1
   1  -9  -3 335.600   9.000   1
  -1   9   3 324.000  12.200   1
   1  -9  -4 121.900   3.800   1
  -1   9   4 117.600   5.400   1
   1  -9  -5 18.7000  1.5000   1
  -1   9   5 21.0000  2.5000   1
   1  -9  -6 20.8000  1.6000   1
  -1   9   6 20.5000  2.2000   1
   1  -9  -7 25.3000  1.7000   1
  -1   9   7 23.7000  1.6000   1
   1  -9  -8 19.0000  1.6000   1
  -1   9   8 19.9000  1.6000   1
   1  -9  -9 193.400   5.800   1
  -1   9   9 211.900   6.000   1
   1  -9 -10 21.6000  1.3000   1
  -1   9  10 22.3000  1.6000   1
   1  -9 -11 72.8000  3.5000   1
  -1   9  11 76.5000  2.7000   1
   1  -9 -12 52.9000  3.1000   1
  -1   9  12 56.0000  2.5000   1
   1  -9 -13 129.900   5.000   1
  -1   9  13 133.700   4.100   1
   1  -9 -14 13.4000  2.1000   1
  -1   9  14 13.6000  1.7000   1
   1  -9 -15 21.9000  2.5000   1
  -1   9  15 18.9000  1.7000   1
   1  -9 -16 10.8000  4.4000   1
  -1   9  16 22.5000  2.0000   1
   1  -9 -17 59.2000  8.3000   1
  -1   9  17 60.5000  4.4000   1
   1  -9 -18 35.8000  5.8000   1
  -1   9  18 44.3000  7.6000   1
   1  -9 -19 10.2000  6.5000   1
  -1   9  19  0.1000  7.0000   1
   1  -9 -20 44.6000  9.1000   1
  -1   9  20 32.7000  7.1000   1
   1  -9 -21  9.1000  8.3000   1
  -1   9  21  8.7000  8.1000   1
   1 -10  19  4.5000  5.4000   1
  -1  10 -19 -1.9000  5.0000   1
   1 -10  18 12.9000  4.6000   1
  -1  10 -18  9.7000  4.8000   1
   1 -10  17  6.7000  4.2000   1
  -1  10 -17 15.5000  7.3000   1
   1 -10  16  2.0000  5.1000   1
  -1  10 -16  0.3000  5.8000   1
   1 -10  15  4.6000  5.0000   1
  -1  10 -15  0.0000  3.8000   1
   1 -10  14  1.0000  4.4000   1
  -1  10 -14  4.2000  3.9000   1
   1 -10  13 130.300   6.100   1
  -1  10 -13 126.200   9.500   1
   1 -10  12 41.5000  2.6000   1
  -1  10 -12 40.6000  6.2000   1
   1 -10  11 55.9000  3.2000   1
  -1  10 -11 53.1000  5.9000   1
   1 -10  10 154.900   6.800   1
  -1  10 -10 141.500   8.800   1
   1 -10   9 13.9000  2.3000   1
  -1  10  -9 17.9000  3.9000   1
   1 -10   8 32.7000  2.1000   1
  -1  10  -8 31.9000  5.1000   1
   1 -10   7 130.100   4.500   1
  -1  10  -7 120.400   7.700   1
   1 -10   6 47.9000  2.4000   1
  -1  10  -6 36.5000  4.4000   1
   1 -10   5 115.600   3.300   1
  -1  10  -5 104.500   6.900   1
   1 -10   4 897.000  23.300   1
  -1  10  -4 879.000  31.100   1
   1 -10   3 24.0000  1.6000   1
  -1  10  -3 29.1000  3.4000   1
   1 -10   2 259.300   9.000   1
   1 -10   1 365.300  11.200   1
   1 -10   0 293.100   9.100   1
   1 -10  -1 30.8000  1.8000   1
   1 -10  -2 24.6000  1.8000   1
   1 -10  -3 19.2000  1.5000   1
  -1  10   3 15.2000  2.2000   1
   1 -10  -4 159.400   6.000   1
  -1  10   4 156.700   7.800   1
   1 -10  -5 136.000   4.400   1
  -1  10   5 137.300   6.600   1
   1 -10  -6 103.700   3.600   1
  -1  10   6 95.6000  5.9000   1
   1 -10  -7  4.1000  1.3000   1
  -1  10   7  3.6000  2.7000   1
   1 -10  -8 -0.1000  1.1000   1
  -1  10   8  5.8000  3.5000   1
   1 -10  -9 60.2000  3.0000   1
  -1  10   9 57.6000  2.6000   1
   1 -10 -10 87.8000  3.0000   1
  -1  10  10 89.2000  3.1000   1
   1 -10 -11  0.1000  1.7000   1
  -1  10  11  3.6000  1.2000   1
   1 -10 -12 16.9000  2.7000   1
  -1  10  12 15.5000  1.7000   1
   1 -10 -13 27.3000  2.5000   1
  -1  10  13 22.3000  1.7000   1
   1 -10 -14 12.7000  2.2000   1
  -1  10  14 10.4000  1.3000   1
   1 -10 -15 13.2000  2.8000   1
  -1  10  15  6.4000  1.9000   1
   1 -10 -16 98.6000  5.5000   1
   1 -10 -17 18.9000  6.8000   1
  -1  10  17 25.7000  4.8000   1
   1 -10 -18 22.4000  6.9000   1
  -1  10  18 18.5000  6.0000   1
   1 -10 -19  6.2000  5.6000   1
  -1  10  19  8.3000  7.3000   1
   1 -10 -20 55.0000 10.3000   1
  -1  10  20 72.3000 10.6000   1
   1 -10 -21  9.5000  9.3000   1
  -1  10  21 -3.3000  8.4000   1
   1 -11  19  8.6000  5.1000   1
  -1  11 -19 -6.0000  8.7000   1
   1 -11  18 27.0000  5.4000   1
  -1  11 -18 21.8000  8.8000   1
   1 -11  17  8.5000  3.9000   1
  -1  11 -17 -2.4000  6.7000   1
   1 -11  16  3.7000  4.2000   1
  -1  11 -16 11.1000  7.2000   1
   1 -11  15 62.6000  7.5000   1
  -1  11 -15 60.9000  8.3000   1
   1 -11  14 15.8000  5.3000   1
  -1  11 -14  6.5000  6.1000   1
   1 -11  13 42.5000  2.8000   1
  -1  11 -13 40.3000  5.5000   1
   1 -11  12  2.5000  1.7000   1
  -1  11 -12 -0.5000  5.3000   1
   1 -11  11 29.8000  2.3000   1
  -1  11 -11 22.1000  5.8000   1
   1 -11  10 11.1000  1.8000   1
  -1  11 -10  6.9000  3.2000   1
   1 -11   9  6.9000  1.7000   1
  -1  11  -9  4.3000  3.2000   1
   1 -11   8  1.8000  1.9000   1
  -1  11  -8  3.3000  3.5000   1
   1 -11   7 54.7000  2.6000   1
  -1  11  -7 59.4000  5.6000   1
   1 -11   6 41.2000  1.2000   1
  -1  11  -6 37.0000  5.0000   1
   1 -11   5  8.7000  1.2000   1
  -1  11  -5 11.0000  3.7000   1
   1 -11   4 16.7000  1.3000   1
  -1  11  -4 21.3000  3.6000   1
   1 -11   3 103.500   2.900   1
  -1  11  -3 107.100   6.700   1
   1 -11   2 166.900   4.400   1
   1 -11   1 13.6000  1.4000   1
   1 -11   0 72.2000  3.1000   1
   1 -11  -1 27.2000  1.8000   1
   1 -11  -2 31.0000  1.8000   1
   1 -11  -3 77.4000  2.4000   1
  -1  11   3 71.0000  4.0000   1
   1 -11  -4 14.5000  1.5000   1
  -1  11   4 15.9000  2.3000   1
   1 -11  -5 -0.1000  1.3000   1
   1 -11  -6  1.8000  1.1000   1
  -1  11   6  1.7000  2.6000   1
   1 -11  -7 298.500   9.200   1
  -1  11   7 290.500  13.800   1
   1 -11  -8 116.500   4.200   1
  -1  11   8 114.400   7.300   1
   1 -11  -9 261.300   8.100   1
  -1  11   9 260.300  12.600   1
   1 -11 -10 45.4000  3.0000   1
  -1  11  10 37.2000  5.7000   1
   1 -11 -11 29.2000  1.7000   1
  -1  11  11 32.1000  4.8000   1
   1 -11 -12 40.2000  2.9000   1
  -1  11  12 32.6000  5.5000   1
   1 -11 -13 -1.9000  2.3000   1
  -1  11  13  2.4000  5.0000   1
   1 -11 -14  1.0000  2.4000   1
  -1  11  14 -7.5000  4.8000   1
   1 -11 -15  5.4000  2.1000   1
  -1  11  15 10.9000  5.5000   1
   1 -11 -16 11.2000  2.7000   1
  -1  11  16 19.4000  6.0000   1
  -1  11  17 15.0000  6.8000   1
   1 -11 -18 18.4000  6.8000   1
  -1  11  18 19.4000  7.6000   1
   1 -11 -19  7.1000  6.9000   1
  -1  11  19 -1.4000  8.0000   1
   1 -11 -20 16.5000  9.3000   1
  -1  11  20 13.3000  7.4000   1
   1 -12  18 -3.7000  5.2000   1
  -1  12 -18 -1.9000  9.4000   1
   1 -12  17 11.0000  5.1000   1
  -1  12 -17 12.1000  8.3000   1
   1 -12  16 36.5000  5.3000   1
  -1  12 -16 46.3000  9.2000   1
   1 -12  15  4.5000  4.0000   1
  -1  12 -15  3.3000  4.7000   1
   1 -12  14 29.8000  4.3000   1
  -1  12 -14 37.4000  7.2000   1
   1 -12  13 28.7000  2.5000   1
  -1  12 -13 28.7000  6.9000   1
   1 -12  12 63.2000  4.1000   1
  -1  12 -12 57.9000  7.5000   1
   1 -12  11  2.9000  1.9000   1
  -1  12 -11 -1.7000  3.1000   1
   1 -12  10  2.7000  1.8000   1
  -1  12 -10  2.8000  4.7000   1
   1 -12   9 56.0000  3.3000   1
  -1  12  -9 60.2000  6.5000   1
   1 -12   8 40.5000  2.5000   1
  -1  12  -8 30.9000  4.5000   1
   1 -12   7  1.2000  1.4000   1
  -1  12  -7 -0.9000  3.7000   1
   1 -12   6 15.5000  1.1000   1
  -1  12  -6 22.9000  4.2000   1
   1 -12   5 351.500   8.300   1
  -1  12  -5 347.600  16.300   1
   1 -12   4 134.800   3.800   1
  -1  12  -4 143.300   7.500   1
   1 -12   3 60.3000  2.0000   1
  -1  12  -3 59.9000  5.0000   1
   1 -12   2 11.0000  1.4000   1
   1 -12   1 292.300   7.200   1
   1 -12   0  1.2000  1.5000   1
   1 -12  -1 282.800   9.100   1
   1 -12  -2 82.6000  3.5000   1
   1 -12  -3 67.3000  2.5000   1
   1 -12  -4 35.5000  2.0000   1
  -1  12   4 39.5000  3.6000   1
   1 -12  -5 128.700   4.100   1
  -1  12   5 137.300   6.800   1
   1 -12  -6  7.8000  1.5000   1
  -1  12   6  9.8000  3.0000   1
   1 -12  -7 11.0000  1.6000   1
  -1  12   7  9.2000  3.2000   1
   1 -12  -8  3.5000  1.4000   1
  -1  12   8  0.4000  3.2000   1
   1 -12  -9 229.500   7.700   1
  -1  12   9 200.900  10.800   1
   1 -12 -10 132.900   4.100   1
  -1  12  10 130.100   8.900   1
   1 -12 -11 88.0000  3.3000   1
  -1  12  11 74.5000  6.8000   1
   1 -12 -12 59.1000  3.6000   1
  -1  12  12 60.2000  7.0000   1
   1 -12 -13 91.6000  5.1000   1
  -1  12  13 82.0000  8.2000   1
   1 -12 -14  8.2000  2.9000   1
  -1  12  14  0.9000  5.2000   1
   1 -12 -15 90.8000  5.3000   1
  -1  12  15 88.5000  9.1000   1
   1 -12 -16  4.6000  3.5000   1
  -1  12  16 -1.5000  5.6000   1
   1 -12 -17-12.7000  6.0000   1
  -1  12  17  1.6000  6.3000   1
   1 -12 -18  6.0000  5.1000   1
  -1  12  18  6.2000  8.2000   1
   1 -12 -19  6.8000  7.3000   1
  -1  12  19 -1.7000  7.4000   1
   1 -13  17 29.6000  5.7000   1
   1 -13  16  6.4000  4.6000   1
  -1  13 -16 18.7000  8.4000   1
   1 -13  15 17.8000  4.9000   1
  -1  13 -15 33.1000  7.7000   1
   1 -13  14 20.5000  3.7000   1
  -1  13 -14 34.0000  7.4000   1
   1 -13  13 -0.6000  2.0000   1
  -1  13 -13  4.5000  5.9000   1
   1 -13  12 73.0000  3.9000   1
  -1  13 -12 88.4000  8.9000   1
   1 -13  11 76.9000  4.1000   1
  -1  13 -11 57.5000  7.3000   1
   1 -13  10  1.6000  1.7000   1
  -1  13 -10 -0.2000  5.0000   1
   1 -13   9 60.8000  3.3000   1
  -1  13  -9 56.6000  6.8000   1
   1 -13   8 24.5000  2.2000   1
  -1  13  -8 16.5000  4.9000   1
   1 -13   7 55.8000  2.6000   1
  -1  13  -7 62.7000  6.6000   1
   1 -13   6 29.7000  1.8000   1
  -1  13  -6 26.7000  4.7000   1
   1 -13   5 115.300   3.700   1
  -1  13  -5 111.900   7.700   1
   1 -13   4 -0.3000  1.4000   1
  -1  13  -4  1.4000  3.4000   1
   1 -13   3 30.2000  1.6000   1
   1 -13   2 342.200   7.500   1
   1 -13   1 309.800   8.500   1
   1 -13   0 -1.2000  1.6000   1
   1 -13  -1 103.100   3.300   1
   1 -13  -2 95.3000  3.4000   1
   1 -13  -3 267.000   7.000   1
   1 -13  -4  0.3000  1.4000   1
  -1  13   4  3.7000  2.4000   1
   1 -13  -5 32.5000  2.2000   1
  -1  13   5 36.4000  3.8000   1
   1 -13  -6 132.200   4.900   1
  -1  13   6 127.700   6.800   1
   1 -13  -7 22.3000  1.9000   1
  -1  13   7 22.6000  3.8000   1
   1 -13  -8  0.6000  1.5000   1
  -1  13   8  8.8000  3.1000   1
   1 -13  -9  0.4000  1.5000   1
  -1  13   9  3.9000  3.7000   1
   1 -13 -10 40.0000  2.1000   1
  -1  13  10 39.7000  5.3000   1
   1 -13 -11 105.000   4.000   1
  -1  13  11 103.700   8.300   1
   1 -13 -12 15.2000  2.5000   1
  -1  13  12 13.9000  4.7000   1
   1 -13 -13 32.6000  4.4000   1
  -1  13  13 33.2000  6.1000   1
   1 -13 -14  4.2000  3.6000   1
  -1  13  14  8.3000  5.4000   1
   1 -13 -15  8.9000  3.1000   1
  -1  13  15 11.3000  5.9000   1
   1 -13 -16 21.1000  6.4000   1
  -1  13  16 22.3000  5.3000   1
   1 -13 -17 34.6000  7.6000   1
  -1  13  17 44.4000  9.0000   1
   1 -13 -18 -9.5000  6.3000   1
  -1  13  18  0.0000  7.7000   1
   1 -13 -19 -1.9000  8.1000   1
  -1  13  19 -9.1000  7.8000   1
   1 -14  17  0.8000  4.5000   1
  -1  14 -17 10.4000  9.5000   1
   1 -14  16  2.7000  4.8000   1
  -1  14 -16 20.0000  8.2000   1
   1 -14  15 33.4000  5.5000   1
  -1  14 -15 31.8000  6.6000   1
   1 -14  14 18.9000  4.4000   1
  -1  14 -14 16.0000  6.9000   1
   1 -14  13 18.0000  4.3000   1
  -1  14 -13 10.9000  4.9000   1
   1 -14  12  1.5000  2.9000   1
  -1  14 -12  0.0000  6.0000   1
   1 -14  11 32.1000  2.9000   1
  -1  14 -11 21.7000  6.6000   1
   1 -14  10  0.3000  2.1000   1
  -1  14 -10 -3.4000  4.5000   1
   1 -14   9 64.5000  3.0000   1
  -1  14  -9 62.5000  7.1000   1
   1 -14   8 10.5000  2.0000   1
  -1  14  -8 16.7000  4.1000   1
   1 -14   7 33.8000  2.3000   1
  -1  14  -7 30.6000  5.6000   1
   1 -14   6 28.8000  1.6000   1
  -1  14  -6 25.6000  5.0000   1
   1 -14   5 39.6000  2.1000   1
  -1  14  -5 39.8000  5.2000   1
   1 -14   4 11.2000  1.4000   1
   1 -14   3 230.500   4.900   1
   1 -14   2 158.300   3.600   1
   1 -14   1 37.0000  2.2000   1
   1 -14   0 15.4000  2.1000   1
   1 -14  -1 262.800   7.900   1
   1 -14  -2 21.6000  1.6000   1
   1 -14  -3 86.8000  3.2000   1
   1 -14  -4 47.4000  2.3000   1
   1 -14  -5 230.600   6.900   1
  -1  14   5 224.900  10.400   1
   1 -14  -6  2.5000  1.6000   1
  -1  14   6  6.1000  3.1000   1
   1 -14  -7  2.3000  1.7000   1
  -1  14   7 -0.7000  3.2000   1
   1 -14  -8 15.1000  1.9000   1
  -1  14   8 22.1000  4.1000   1
   1 -14  -9 50.2000  2.8000   1
  -1  14   9 54.8000  5.9000   1
   1 -14 -10 19.1000  1.7000   1
  -1  14  10 23.9000  5.0000   1
   1 -14 -11 60.2000  2.5000   1
  -1  14  11 56.5000  6.2000   1
   1 -14 -12  7.5000  2.8000   1
  -1  14  12  9.8000  4.1000   1
   1 -14 -13  0.9000  2.8000   1
  -1  14  13  1.8000  5.2000   1
   1 -14 -14  1.1000  2.8000   1
  -1  14  14 -0.2000  5.4000   1
   1 -14 -15 44.2000  4.3000   1
  -1  14  15 71.4000  8.9000   1
   1 -14 -16 12.7000  7.2000   1
  -1  14  16 -1.6000  6.4000   1
  -1  14  17  9.0000  7.1000   1
   1 -14 -18  3.2000  8.3000   1
  -1  14  18 11.1000  7.4000   1
   1 -15  16 47.6000  9.7000   1
  -1  15 -16 41.5000 11.2000   1
   1 -15  15 -5.3000  4.0000   1
  -1  15 -15  4.8000  8.2000   1
   1 -15  14 -4.3000  4.0000   1
  -1  15 -14 12.5000  7.5000   1
   1 -15  13 20.7000  4.5000   1
  -1  15 -13 13.9000  7.1000   1
   1 -15  12  1.2000  2.5000   1
  -1  15 -12 -1.9000  6.2000   1
   1 -15  11  4.4000  2.4000   1
  -1  15 -11 -2.9000  5.5000   1
   1 -15  10 -1.6000  2.0000   1
  -1  15 -10 -1.6000  5.4000   1
   1 -15   9 32.5000  3.1000   1
  -1  15  -9 24.0000  6.0000   1
   1 -15   8  2.5000  1.9000   1
  -1  15  -8 -0.9000  4.2000   1
   1 -15   7 70.7000  3.6000   1
  -1  15  -7 62.8000  6.9000   1
   1 -15   6 83.7000  3.2000   1
  -1  15  -6 79.0000  7.9000   1
   1 -15   5 32.9000  2.2000   1
  -1  15  -5 45.2000  5.1000   1
   1 -15   4  6.8000  1.3000   1
   1 -15   3 68.6000  2.4000   1
   1 -15   2  0.2000  1.3000   1
   1 -15   1 33.4000  1.8000   1
   1 -15   0  3.2000  1.3000   1
   1 -15  -1 74.4000  2.8000   1
   1 -15  -2  6.5000  1.7000   1
   1 -15  -3 38.5000  2.1000   1
   1 -15  -4  9.4000  1.6000   1
   1 -15  -5 91.4000  3.4000   1
   1 -15  -6 19.3000  2.0000   1
  -1  15   6 21.4000  4.3000   1
   1 -15  -7 201.800   6.900   1
  -1  15   7 208.000  12.500   1
   1 -15  -8  6.8000  1.8000   1
  -1  15   8 13.3000  4.3000   1
   1 -15  -9 27.5000  2.4000   1
  -1  15   9 16.3000  4.7000   1
   1 -15 -10  9.4000  1.6000   1
  -1  15  10  6.0000  4.8000   1
   1 -15 -11 163.100   5.100   1
  -1  15  11 177.100  11.700   1
   1 -15 -12  5.4000  3.2000   1
  -1  15  12 23.7000  6.5000   1
   1 -15 -13 95.7000  5.6000   1
  -1  15  13 83.4000  8.2000   1
   1 -15 -14  3.5000  3.5000   1
  -1  15  14 -2.9000  5.9000   1
   1 -15 -15  7.2000  6.3000   1
  -1  15  15  9.0000  5.4000   1
   1 -15 -16 53.6000  8.4000   1
  -1  15  16 47.9000  8.2000   1
   1 -15 -17 26.6000  7.7000   1
  -1  15  17 19.8000  9.0000   1
  -1  16 -15 32.3000 10.4000   1
   1 -16  14  1.2000  8.7000   1
  -1  16 -14 17.7000  8.1000   1
   1 -16  13 11.1000  4.8000   1
  -1  16 -13  9.2000  7.4000   1
   1 -16  12  5.1000  3.2000   1
  -1  16 -12  1.9000  6.2000   1
   1 -16  11 19.3000  2.8000   1
  -1  16 -11 24.7000  5.8000   1
   1 -16  10  6.0000  2.5000   1
   1 -16   9 47.1000  3.4000   1
  -1  16  -9 44.2000  6.8000   1
   1 -16   8  9.8000  2.3000   1
  -1  16  -8 11.5000  5.6000   1
   1 -16   7  8.9000  2.2000   1
  -1  16  -7  9.2000  5.1000   1
   1 -16   6  0.7000  1.0000   1
  -1  16  -6  3.9000  4.5000   1
   1 -16   5 13.8000  1.5000   1
   1 -16   4 29.4000  1.8000   1
   1 -16   3  1.2000  1.4000   1
   1 -16   2  4.1000  1.4000   1
   1 -16   1 141.300   3.600   1
   1 -16   0  1.6000  1.9000   1
   1 -16  -1 62.1000  2.6000   1
   1 -16  -2 13.9000  1.8000   1
   1 -16  -3 10.9000  1.8000   1
   1 -16  -4 26.2000  2.1000   1
   1 -16  -5  4.2000  1.7000   1
   1 -16  -6  8.2000  1.9000   1
   1 -16  -7  7.4000  2.1000   1
  -1  16   7 12.8000  4.1000   1
   1 -16  -8 190.500   7.300   1
  -1  16   8 196.100  10.500   1
   1 -16  -9  0.9000  1.6000   1
  -1  16   9  1.5000  4.2000   1
   1 -16 -10  7.4000  1.6000   1
  -1  16  10  2.1000  4.8000   1
   1 -16 -11 25.1000  3.3000   1
  -1  16  11 39.2000  5.8000   1
   1 -16 -12 14.2000  3.4000   1
  -1  16  12 21.0000  6.1000   1
   1 -16 -13  2.0000  3.2000   1
  -1  16  13  0.6000  5.9000   1
   1 -16 -14 16.9000  4.3000   1
  -1  16  14 28.1000  7.2000   1
   1 -16 -15-13.1000  6.0000   1
  -1  16  15 -4.5000  6.8000   1
   1 -16 -16 17.5000  6.5000   1
  -1  16  16 20.4000  8.1000   1
  -1  17 -14 57.4000 11.6000   1
   1 -17  12 26.0000  6.6000   1
  -1  17 -12 19.8000  7.3000   1
  -1  17 -11 23.1000  7.0000   1
   1 -17  10 51.4000  5.3000   1
  -1  17 -10 66.4000  7.8000   1
   1 -17   9  3.4000  2.3000   1
  -1  17  -9  0.9000  5.7000   1
   1 -17   8 14.9000  3.2000   1
  -1  17  -8 19.2000  5.4000   1
   1 -17   7  9.2000  2.1000   1
  -1  17  -7 12.3000  4.7000   1
   1 -17   6 135.000   3.500   1
   1 -17   5  8.7000  1.4000   1
   1 -17   4 22.0000  1.8000   1
   1 -17   3 23.3000  1.8000   1
   1 -17   2 33.6000  2.5000   1
   1 -17   1 20.6000  1.8000   1
   1 -17   0  7.4000  1.7000   1
   1 -17  -1 17.2000  1.9000   1
   1 -17  -2  1.4000  1.6000   1
   1 -17  -3 45.0000  3.3000   1
   1 -17  -4 17.1000  2.0000   1
   1 -17  -5  4.0000  1.6000   1
   1 -17  -6 26.3000  2.2000   1
   1 -17  -7 37.7000  2.4000   1
  -1  17   7 48.6000  6.3000   1
   1 -17  -8  9.5000  3.8000   1
  -1  17   8 15.3000  4.7000   1
   1 -17  -9  4.4000  2.0000   1
  -1  17   9  3.4000  4.3000   1
   1 -17 -10  2.2000  2.8000   1
  -1  17  10  5.6000  4.8000   1
   1 -17 -11 21.1000  3.9000   1
  -1  17  11 14.8000  5.4000   1
   1 -17 -12  2.8000  3.7000   1
  -1  17  12 -2.9000  5.6000   1
   1 -17 -13  8.4000  4.0000   1
  -1  17  13 14.2000  6.8000   1
   1 -17 -14 19.2000  6.8000   1
  -1  17  14 14.9000  7.2000   1
   1 -17 -15 19.9000  7.0000   1
  -1  17  15 23.6000  8.2000   1
   1 -18  13  9.3000  6.4000   1
  -1  18 -13 21.4000  9.2000   1
   1 -18  12  5.9000  5.8000   1
  -1  18 -12 -2.9000  6.7000   1
   1 -18  11 -7.6000  6.9000   1
  -1  18 -11  8.2000  7.0000   1
   1 -18  10  1.4000  3.5000   1
  -1  18 -10 -3.3000  5.7000   1
   1 -18   9 18.1000  3.8000   1
  -1  18  -9 18.0000  5.3000   1
   1 -18   8  7.9000  3.1000   1
  -1  18  -8 16.3000  5.7000   1
   1 -18   7  2.0000  2.4000   1
   1 -18   6 12.3000  2.4000   1
   1 -18   5 30.9000  2.3000   1
   1 -18   4 90.3000  3.6000   1
   1 -18   3  1.9000  1.7000   1
   1 -18   2 33.5000  2.2000   1
   1 -18   1 55.5000  2.6000   1
   1 -18   0 25.9000  1.9000   1
   1 -18  -1 35.0000  2.2000   1
   1 -18  -2  0.4000  1.6000   1
   1 -18  -3 -0.9000  1.6000   1
   1 -18  -4 -0.6000  2.0000   1
   1 -18  -5 23.5000  2.4000   1
   1 -18  -6  2.2000  2.1000   1
   1 -18  -7  0.9000  1.8000   1
   1 -18  -8 10.3000  2.4000   1
  -1  18   8 15.1000  5.0000   1
   1 -18  -9  5.2000  4.3000   1
  -1  18   9 -3.0000  4.6000   1
   1 -18 -10 15.3000  3.4000   1
  -1  18  10 17.9000  5.5000   1
   1 -18 -11 28.3000  4.1000   1
  -1  18  11 25.6000  5.9000   1
   1 -18 -12 19.9000  4.2000   1
  -1  18  12 24.7000  7.0000   1
   1 -18 -13  8.6000  6.0000   1
  -1  18  13 -0.5000  6.9000   1
  -1  18  14  8.1000  7.0000   1
   1 -19  11  9.7000  8.8000   1
  -1  19 -11 -2.3000  7.1000   1
   1 -19  10 26.1000  9.2000   1
  -1  19 -10 27.2000  8.2000   1
   1 -19   9  4.6000  4.6000   1
  -1  19  -9 16.7000  6.6000   1
   1 -19   8 11.2000  3.5000   1
   1 -19   7 41.5000  4.7000   1
   1 -19   6 23.1000  4.0000   1
   1 -19   5 18.7000  2.3000   1
   1 -19   4 -0.6000  1.9000   1
   1 -19   3  7.2000  2.1000   1
   1 -19   2  2.0000  2.1000   1
   1 -19   1 67.9000  3.8000   1
   1 -19   0  5.3000  2.5000   1
   1 -19  -1  3.3000  2.0000   1
   1 -19  -2  0.8000  1.9000   1
   1 -19  -3 37.3000  2.7000   1
   1 -19  -4  6.3000  2.3000   1
   1 -19  -5  5.7000  2.4000   1
   1 -19  -6  1.8000  2.4000   1
   1 -19  -7 22.6000  3.0000   1
   1 -19  -8 17.1000  6.9000   1
   1 -19  -9 12.4000  5.0000   1
   1 -19 -10-11.3000  4.1000   1
  -1  19  10  2.9000  5.6000   1
   1 -19 -11 20.0000  4.3000   1
  -1  19  11 21.4000  6.4000   1
  -1  19  12 11.1000  6.5000   1
  -1  19  13 -3.1000  6.5000   1
   1 -20  10  1.3000  8.4000   1
   1 -20   9 32.7000  9.6000   1
   1 -20   8  0.6000  4.8000   1
   1 -20   7 10.5000  5.4000   1
   1 -20   6  9.7000  5.3000   1
   1 -20   5 11.2000  3.8000   1
   1 -20   4  1.4000  3.2000   1
   1 -20   3 -1.7000  2.7000   1
   1 -20   2  0.1000  2.6000   1
   1 -20   1 11.7000  2.8000   1
   1 -20   0  8.5000  2.9000   1
   1 -20  -1 39.4000  3.5000   1
   1 -20  -2  5.5000  2.8000   1
   1 -20  -3  5.9000  2.5000   1
   1 -20  -4 23.9000  3.2000   1
   1 -20  -5 57.7000  4.1000   1
   1 -20  -6 45.3000  5.0000   1
   1 -20  -7  0.9000  3.7000   1
   1 -20  -8 -0.8000  7.1000   1
   1 -20  -9 44.3000  8.5000   1
   1 -20 -10  6.8000  6.3000   1
   1 -20 -11  9.0000  6.7000   1
  -1  20  11 -6.1000  7.6000   1
   1 -21   8  4.5000  8.1000   1
   1 -21   7 89.7000  8.4000   1
   1 -21   6 -1.5000  4.8000   1
   1 -21   5  3.3000  5.1000   1
   1 -21   4  3.1000  5.0000   1
   1 -21   3 54.1000  6.4000   1
   1 -21   2 18.3000  4.0000   1
   1 -21   1 12.6000  3.4000   1
   1 -21   0  7.8000  3.1000   1
   1 -21  -1  7.4000  3.0000   1
   1 -21  -2  4.2000  3.0000   1
   1 -21  -3 35.5000  4.8000   1
   1 -21  -4  2.9000  2.9000   1
   1 -21  -5  2.8000  4.7000   1
   1 -21  -6  4.6000  4.2000   1
   1 -21  -7 32.3000  6.1000   1
   1 -21  -8  5.5000  5.2000   1
   1 -21  -9 -2.4000  5.4000   1
   1 -22   5 59.2000  7.4000   1
   1 -22   4 11.0000  5.9000   1
   1 -22   3 14.7000  5.3000   1
   1 -22   2  4.8000  5.2000   1
   1 -22   1  4.8000  4.9000   1
   1 -22   0  5.8000  3.8000   1
   1 -22  -1 13.4000  4.5000   1
   1 -22  -2 -2.0000  4.0000   1
   1 -22  -3 -1.9000  5.8000   1
   1 -22  -4 17.2000  5.6000   1
   1 -22  -5  0.1000  4.8000   1
   1 -22  -6 26.5000  6.1000   1
   2   0  21 -3.7000  4.4000   1
   2   0  20  2.7000  7.7000   1
   2   0  19 -4.0000  5.7000   1
   2   0  18  9.1000  4.4000   1
   2   0  17  0.2000  1.8000   1
   2   0  16 27.2000  1.9000   1
   2   0  15  0.8000  1.2000   1
   2   0  14 70.6000  2.9000   1
   2   0  13  3.6000  1.0000   1
   2   0  12 168.300   5.400   1
   2   0  11  0.7000  0.9000   1
   2   0  10 31.1000  1.9000   1
   2   0   9 -0.1000  1.0000   1
   2   0   8  3.9000  1.0000   1
   2   0   7  1.9000  1.8000   1
   2   0   6 31.0000  1.9000   1
   2   0   5 -0.5000  0.8000   1
   2   0   4 1143.60   21.70   1
   2   0   3  3.8000  0.8000   1
   2   0   2 738.000  13.500   1
   2   0   1  1.1000  0.5000   1
   2   0  -1  0.1000  0.4000   1
   2   0  -2  7.2000  0.6000   1
   2   0  -3  1.3000  0.4000   1
   2   0  -4 2875.30   74.40   1
   2   0  -5  1.5000  1.0000   1
   2   0  -6 353.800   8.000   1
   2   0  -7 -1.5000  0.8000   1
   2   0  -8 314.700   8.200   1
   2   0  -9  1.9000  1.1000   1
   2   0 -10 252.600   6.300   1
   2   0 -11 -0.1000  1.1000   1
   2   0 -12  5.8000  1.3000   1
   2   0 -13  1.7000  1.6000   1
   2   0 -14  4.2000  1.8000   1
   2   0 -15  1.4000  1.8000   1
   2   0 -16 35.1000  2.5000   1
   2   0 -17  0.8000  1.9000   1
   2   0 -18 55.8000  4.4000   1
   2   0 -19  3.1000  2.6000   1
   2   0 -20  2.2000  2.8000   1
   2   0 -21 -6.1000  6.6000   1
   2   0 -22 -2.1000  7.4000   1
   2   0 -23  5.2000  8.2000   1
   2  -1  21  3.0000  5.3000   1
  -2   1 -21 -3.7000  6.3000   1
   2  -1  20  5.0000  8.0000   1
  -2   1 -20 13.1000  4.3000   1
   2  -1  19 13.8000  5.5000   1
  -2   1 -19  6.4000  7.8000   1
   2  -1  18  9.4000  6.8000   1
  -2   1 -18 -2.7000  6.6000   1
   2  -1  17 46.8000  2.7000   1
  -2   1 -17 45.9000  4.9000   1
   2  -1  16 68.2000  3.2000   1
  -2   1 -16 82.8000  2.5000   1
   2  -1  15 17.0000  1.7000   1
  -2   1 -15 13.4000  1.2000   1
   2  -1  14  2.9000  1.7000   1
  -2   1 -14  0.7000  0.9000   1
   2  -1  13 164.600   6.800   1
  -2   1 -13 158.200   4.600   1
   2  -1  12 81.1000  4.8000   1
  -2   1 -12 77.6000  2.7000   1
   2  -1  11 96.8000  5.1000   1
  -2   1 -11 98.4000  3.6000   1
  -2   1 -10 24.4000  1.2000   1
   2  -1   9  4.3000  2.1000   1
  -2   1  -9  2.6000  0.6000   1
   2  -1   8 155.100   5.500   1
  -2   1  -8 168.200   4.600   1
   2  -1   7 483.600  12.300   1
  -2   1  -7 489.600  13.400   1
   2  -1   6 849.700  22.500   1
  -2   1  -6 857.800  26.200   1
   2  -1   5 34.5000  1.9000   1
  -2   1  -5 32.3000  1.4000   1
   2  -1   4 38.3000  1.6000   1
  -2   1  -4 34.4000  1.5000   1
   2  -1   3 7130.20  208.20   1
  -2   1  -3 7001.20  268.80   1
   2  -1   2 2787.90   48.80   1
  -2   1  -2 2833.00   65.90   1
   2  -1   1 254.500   4.600   1
  -2   1  -1 261.500   4.600   1
   2  -1   0 1442.20   28.60   1
  -2   1   0 1432.70   25.90   1
   2  -1  -1 187.100   4.100   1
  -2   1   1 187.100   3.900   1
   2  -1  -2 5643.60  205.30   1
   2  -1  -3 546.300  11.600   1
  -2   1   3 552.700  14.900   1
   2  -1  -4 288.200   6.800   1
  -2   1   4 285.400   6.900   1
   2  -1  -5 553.100  19.200   1
  -2   1   5 554.500  12.800   1
   2  -1  -6 11.6000  1.1000   1
  -2   1   6 12.7000  1.0000   1
   2  -1  -7  9.1000  0.8000   1
  -2   1   7  8.9000  1.0000   1
   2  -1  -8 26.6000  1.5000   1
  -2   1   8 20.3000  1.5000   1
   2  -1  -9  2.3000  1.0000   1
  -2   1   9  2.7000  0.9000   1
   2  -1 -10 507.900  12.300   1
  -2   1  10 488.300  13.500   1
   2  -1 -11  2.5000  1.2000   1
  -2   1  11  0.0000  1.2000   1
   2  -1 -12 57.0000  2.4000   1
  -2   1  12 59.8000  3.1000   1
   2  -1 -13 34.5000  3.4000   1
  -2   1  13 35.7000  3.0000   1
   2  -1 -14 12.0000  1.9000   1
  -2   1  14 12.4000  1.7000   1
   2  -1 -15 -0.6000  1.5000   1
  -2   1  15  0.6000  1.5000   1
   2  -1 -16 102.000   5.400   1
  -2   1  16 90.6000  4.8000   1
   2  -1 -17  0.3000  1.7000   1
  -2   1  17  3.5000  2.3000   1
   2  -1 -18  3.0000  2.2000   1
  -2   1  18  7.8000  2.5000   1
   2  -1 -19  4.2000  2.8000   1
  -2   1  19  2.1000  2.8000   1
   2  -1 -20 31.8000  4.0000   1
  -2   1  20 26.2000  3.4000   1
   2  -1 -21 14.0000  3.3000   1
  -2   1  21 17.1000  7.7000   1
   2  -1 -22 26.7000  8.0000   1
  -2   1  22 30.5000  8.8000   1
   2  -1 -23  3.6000  9.2000   1
  -2   1  23 12.2000  8.5000   1
   2  -2  21 -7.9000  8.6000   1
  -2   2 -21  8.0000  9.4000   1
   2  -2  20  4.5000  5.5000   1
  -2   2 -20 -1.8000  8.1000   1
   2  -2  19 20.4000  8.4000   1
  -2   2 -19 28.2000  4.5000   1
   2  -2  18 10.2000  6.1000   1
  -2   2 -18  6.2000  5.1000   1
   2  -2  17  0.1000  1.7000   1
  -2   2 -17  2.4000  3.6000   1
   2  -2  16  1.9000  1.7000   1
  -2   2 -16 -2.6000  3.1000   1
   2  -2  15 21.7000  5.5000   1
  -2   2 -15 24.6000  3.2000   1
   2  -2  14 60.6000  4.5000   1
  -2   2 -14 61.9000  6.2000   1
   2  -2  13 141.000   7.800   1
  -2   2 -13 147.800  10.900   1
   2  -2  12 48.5000  6.5000   1
  -2   2 -12 57.1000  6.6000   1
   2  -2  11 183.300  11.500   1
  -2   2 -11 192.700   7.600   1
   2  -2  10 221.900  13.100   1
  -2   2 -10 223.500  12.300   1
   2  -2   9  2.2000  1.6000   1
  -2   2  -9 -5.7000  3.2000   1
   2  -2   8 778.700  20.700   1
  -2   2  -8 769.200  20.400   1
   2  -2   7 1842.40   44.80   1
  -2   2  -7 1864.90   55.80   1
   2  -2   6 76.3000  2.8000   1
  -2   2  -6 84.9000  3.9000   1
   2  -2   5 210.500   5.400   1
  -2   2  -5 195.900   5.400   1
   2  -2   4 2202.60   56.70   1
  -2   2  -4 2164.60   55.80   1
   2  -2   3 4307.80  119.70   1
  -2   2  -3 4384.30  137.20   1
   2  -2   2 1691.00   32.60   1
  -2   2  -2 1695.80   38.30   1
   2  -2   1 1071.10   17.60   1
  -2   2  -1 1059.00   19.50   1
   2  -2  -1 318.400   7.200   1
  -2   2   1 318.500   8.800   1
   2  -2  -2 570.400  15.200   1
  -2   2   2 575.900  12.600   1
   2  -2  -3 74.0000  2.1000   1
  -2   2   3 78.7000  2.0000   1
   2  -2  -4 1517.30   32.40   1
  -2   2   4 1504.90   33.20   1
   2  -2  -5 746.700  15.100   1
  -2   2   5 731.500  18.100   1
   2  -2  -6 2484.00   47.70   1
  -2   2   6 2448.20   57.10   1
   2  -2  -7  5.1000  0.8000   1
  -2   2   7  6.4000  1.0000   1
   2  -2  -8 87.2000  2.5000   1
  -2   2   8 83.5000  3.1000   1
   2  -2  -9 221.900   4.900   1
  -2   2   9 219.500   5.800   1
   2  -2 -10 92.9000  4.6000   1
  -2   2  10 100.900   3.200   1
   2  -2 -11 10.6000  1.6000   1
  -2   2  11  4.5000  1.3000   1
   2  -2 -12 98.3000  3.2000   1
  -2   2  12 102.700   3.400   1
   2  -2 -13 98.8000  4.9000   1
  -2   2  13 95.8000  3.7000   1
   2  -2 -14  2.4000  1.7000   1
  -2   2  14  4.0000  1.3000   1
   2  -2 -15  0.7000  1.4000   1
  -2   2  15  2.6000  1.6000   1
   2  -2 -16 76.9000  4.0000   1
  -2   2  16 69.7000  3.5000   1
   2  -2 -17  3.1000  2.5000   1
  -2   2  17 -0.2000  1.9000   1
   2  -2 -18 125.600   5.700   1
  -2   2  18 137.600   5.400   1
   2  -2 -19 17.6000  4.2000   1
  -2   2  19 12.5000  2.8000   1
   2  -2 -20  6.0000  3.6000   1
  -2   2  20  0.5000  2.4000   1
   2  -2 -21 21.8000  3.8000   1
  -2   2  21 32.9000  8.3000   1
   2  -2 -22  4.5000  7.5000   1
  -2   2  22 -3.3000  8.1000   1
   2  -2 -23  2.5000  8.5000   1
  -2   2  23  0.2000  8.6000   1
   2  -3  20 -4.5000  7.8000   1
  -2   3 -20 -0.7000  6.2000   1
   2  -3  19  7.2000  7.1000   1
  -2   3 -19  5.2000  3.9000   1
   2  -3  18 19.8000  5.4000   1
  -2   3 -18 22.2000  4.1000   1
   2  -3  17  0.7000  1.6000   1
  -2   3 -17  0.7000  3.4000   1
   2  -3  16 12.4000  3.0000   1
  -2   3 -16 14.1000  3.4000   1
   2  -3  15 60.0000  3.8000   1
  -2   3 -15 64.5000  4.2000   1
   2  -3  14  6.1000  2.6000   1
  -2   3 -14  8.6000  2.1000   1
   2  -3  13  4.3000  2.2000   1
  -2   3 -13  4.6000  2.8000   1
   2  -3  12 18.2000  2.8000   1
  -2   3 -12 21.0000  2.3000   1
   2  -3  11 12.1000  4.3000   1
  -2   3 -11 11.2000  3.2000   1
   2  -3  10 17.8000  2.4000   1
  -2   3 -10 14.5000  3.5000   1
   2  -3   9 238.600   8.300   1
  -2   3  -9 234.600   9.500   1
   2  -3   8 377.900  13.100   1
  -2   3  -8 400.900  12.500   1
   2  -3   7 37.1000  2.6000   1
  -2   3  -7 30.3000  1.6000   1
   2  -3   6 355.100   8.600   1
  -2   3  -6 337.600   8.400   1
   2  -3   5 108.900   3.100   1
  -2   3  -5 109.400   3.000   1
   2  -3   4 289.900   8.500   1
  -2   3  -4 276.300   6.400   1
   2  -3   3 59.7000  2.2000   1
  -2   3  -3 55.6000  2.0000   1
   2  -3   2 71.2000  1.7000   1
  -2   3  -2 68.4000  2.3000   1
   2  -3   1 15.8000  0.7000   1
  -2   3  -1 14.7000  0.7000   1
   2  -3   0 78.4000  2.1000   1
  -2   3   0 78.4000  2.0000   1
   2  -3  -1 877.100  19.600   1
  -2   3   1 894.200  24.300   1
   2  -3  -2 964.500  21.000   1
  -2   3   2 961.200  21.000   1
   2  -3  -3 168.500   4.100   1
  -2   3   3 166.100   4.200   1
   2  -3  -4 1277.40   24.80   1
  -2   3   4 1266.00   34.40   1
   2  -3  -5 6305.90  152.00   1
  -2   3   5 6196.20  166.20   1
   2  -3  -6 48.0000  1.6000   1
  -2   3   6 45.3000  1.7000   1
   2  -3  -7  8.5000  0.9000   1
  -2   3   7  8.7000  1.5000   1
   2  -3  -8 12.1000  1.0000   1
  -2   3   8 13.4000  1.2000   1
   2  -3  -9 120.800   2.900   1
  -2   3   9 131.400   5.000   1
   2  -3 -10 101.500   3.000   1
  -2   3  10 107.700   3.600   1
   2  -3 -11 21.4000  1.9000   1
  -2   3  11 22.9000  1.8000   1
   2  -3 -12 17.7000  2.0000   1
  -2   3  12 18.2000  1.6000   1
   2  -3 -13 31.7000  3.0000   1
  -2   3  13 30.6000  2.0000   1
   2  -3 -14 139.500   7.000   1
  -2   3  14 149.100   5.100   1
   2  -3 -15 148.000   6.300   1
  -2   3  15 161.000   6.900   1
   2  -3 -16 12.0000  2.5000   1
  -2   3  16 12.4000  2.1000   1
   2  -3 -17 17.8000  2.6000   1
  -2   3  17 19.9000  2.4000   1
   2  -3 -18  1.6000  3.0000   1
  -2   3  18  2.9000  2.4000   1
   2  -3 -19 13.2000  3.4000   1
  -2   3  19 18.5000  2.6000   1
   2  -3 -20  1.8000  3.6000   1
  -2   3  20  2.0000  2.5000   1
   2  -3 -21  9.3000  3.6000   1
  -2   3  21 -1.2000  6.9000   1
  -2   3  22  7.5000  7.2000   1
   2  -3 -23  9.9000  6.5000   1
  -2   3  23 16.9000  8.4000   1
   2  -4  20  4.7000  6.7000   1
  -2   4 -20  5.0000  6.7000   1
   2  -4  19 16.4000  6.9000   1
  -2   4 -19  8.4000  7.5000   1
   2  -4  18  4.4000  3.5000   1
  -2   4 -18  1.7000  2.9000   1
   2  -4  17  8.1000  3.5000   1
  -2   4 -17  8.2000  2.8000   1
   2  -4  16  4.0000  2.6000   1
  -2   4 -16  3.9000  2.3000   1
   2  -4  15 109.700   6.000   1
  -2   4 -15 103.800   8.100   1
   2  -4  14 17.5000  3.5000   1
  -2   4 -14 18.8000  2.2000   1
   2  -4  13 245.800   9.900   1
  -2   4 -13 246.000   7.700   1
   2  -4  12 182.600   7.300   1
  -2   4 -12 187.300   6.200   1
   2  -4  11 -2.7000  2.6000   1
  -2   4 -11  0.3000  1.1000   1
   2  -4  10 55.6000  4.0000   1
  -2   4 -10 56.1000  2.6000   1
   2  -4   9 328.700  10.700   1
  -2   4  -9 335.900   8.400   1
   2  -4   8 -0.9000  1.6000   1
  -2   4  -8  3.4000  1.1000   1
   2  -4   7 23.2000  2.3000   1
  -2   4  -7 20.6000  1.3000   1
   2  -4   6 966.300  24.100   1
  -2   4  -6 936.600  22.400   1
   2  -4   5 122.300   3.300   1
  -2   4  -5 117.300   3.900   1
   2  -4   4 162.600   3.700   1
  -2   4  -4 160.300   4.700   1
   2  -4   3 102.400   3.200   1
  -2   4  -3 105.800   2.800   1
   2  -4   2 108.800   2.600   1
  -2   4  -2 108.700   2.900   1
   2  -4   1 75.0000  2.0000   1
  -2   4  -1 74.3000  2.3000   1
   2  -4   0 188.700   3.900   1
  -2   4   0 187.800   4.900   1
   2  -4  -1 230.200   5.000   1
  -2   4   1 223.000   6.700   1
   2  -4  -2 237.000   5.200   1
  -2   4   2 243.400   6.800   1
   2  -4  -3 1395.20   27.00   1
  -2   4   3 1400.90   32.30   1
   2  -4  -4 3938.40   78.40   1
  -2   4   4 3792.10   91.40   1
   2  -4  -5 2409.80   45.00   1
  -2   4   5 2359.90   50.20   1
   2  -4  -6 836.600  18.100   1
  -2   4   6 817.200  16.900   1
   2  -4  -7  1.7000  1.0000   1
  -2   4   7 -0.1000  0.9000   1
   2  -4  -8 1151.10   25.60   1
  -2   4   8 1150.80   29.40   1
   2  -4  -9 507.600  10.500   1
  -2   4   9 506.600  11.300   1
   2  -4 -10 233.900   5.000   1
  -2   4  10 248.300   6.400   1
   2  -4 -11 20.5000  1.7000   1
  -2   4  11 21.9000  1.5000   1
   2  -4 -12  8.2000  1.4000   1
  -2   4  12 11.3000  1.5000   1
   2  -4 -13 26.6000  3.2000   1
  -2   4  13 37.5000  2.2000   1
   2  -4 -14  3.0000  1.8000   1
  -2   4  14  2.2000  1.5000   1
   2  -4 -15 276.700  11.000   1
  -2   4  15 290.600   8.300   1
   2  -4 -16 10.2000  3.0000   1
  -2   4  16  5.7000  1.9000   1
   2  -4 -17 16.4000  2.9000   1
  -2   4  17 17.8000  2.2000   1
   2  -4 -18  1.0000  2.3000   1
  -2   4  18 -0.4000  2.3000   1
   2  -4 -19 135.200   7.700   1
  -2   4  19 134.100   6.700   1
   2  -4 -20  4.7000  3.4000   1
  -2   4  20  7.1000  2.5000   1
   2  -4 -21  9.8000  3.7000   1
  -2   4  21 10.0000  6.1000   1
   2  -4 -22 -2.4000  5.5000   1
  -2   4  22  4.6000  7.9000   1
   2  -4 -23 31.8000  9.5000   1
  -2   4  23 29.2000  9.1000   1
   2  -5  20  4.5000  7.7000   1
  -2   5 -20 -2.4000  5.7000   1
   2  -5  19  2.7000  6.6000   1
  -2   5 -19 10.9000  7.6000   1
   2  -5  18 -6.4000  3.1000   1
  -2   5 -18  5.9000  5.6000   1
   2  -5  17 55.4000  4.4000   1
  -2   5 -17 58.4000  4.2000   1
   2  -5  16 27.4000  3.7000   1
  -2   5 -16 27.9000  2.5000   1
   2  -5  15 46.0000  4.3000   1
  -2   5 -15 46.6000  2.7000   1
   2  -5  14 31.4000  5.4000   1
  -2   5 -14 26.2000  2.1000   1
   2  -5  13  2.4000  2.3000   1
  -2   5 -13  4.9000  1.6000   1
   2  -5  12  1.3000  2.0000   1
  -2   5 -12  0.2000  1.1000   1
   2  -5  11 37.1000  3.7000   1
  -2   5 -11 45.8000  2.0000   1
   2  -5  10 12.7000  2.9000   1
  -2   5 -10 11.8000  1.1000   1
   2  -5   9 11.7000  2.1000   1
  -2   5  -9 14.7000  1.0000   1
   2  -5   8 85.0000  3.8000   1
  -2   5  -8 85.3000  2.3000   1
   2  -5   7 72.8000  3.1000   1
  -2   5  -7 74.1000  2.1000   1
   2  -5   6 266.100   6.800   1
  -2   5  -6 269.500   8.100   1
   2  -5   5 154.600   4.100   1
  -2   5  -5 156.400   5.700   1
   2  -5   4 378.900  10.100   1
  -2   5  -4 365.000  16.500   1
   2  -5   3 137.900   3.800   1
  -2   5  -3 126.900   7.000   1
   2  -5   2 11.2000  0.6000   1
  -2   5  -2  7.4000  1.6000   1
   2  -5   1 192.300   4.300   1
  -2   5  -1 182.900   8.400   1
   2  -5   0 43.7000  1.4000   1
  -2   5   0 50.5000  2.2000   1
   2  -5  -1 701.700  12.400   1
  -2   5   1 693.400  20.200   1
   2  -5  -2 27.1000  1.1000   1
  -2   5   2 28.5000  1.2000   1
   2  -5  -3 105.200   3.000   1
  -2   5   3 113.800   3.200   1
   2  -5  -4 13.3000  1.1000   1
  -2   5   4 11.8000  1.0000   1
   2  -5  -5 29.1000  1.5000   1
  -2   5   5 24.3000  1.4000   1
   2  -5  -6 373.600  10.100   1
  -2   5   6 358.800   9.700   1
   2  -5  -7 1130.20   33.90   1
  -2   5   7 1131.80   27.20   1
   2  -5  -8 90.3000  3.0000   1
  -2   5   8 84.2000  2.7000   1
   2  -5  -9 103.400   3.600   1
  -2   5   9 107.700   3.400   1
   2  -5 -10 627.400  14.300   1
  -2   5  10 616.300  14.900   1
   2  -5 -11  1.8000  1.1000   1
  -2   5  11  3.4000  1.4000   1
   2  -5 -12 69.9000  2.9000   1
  -2   5  12 76.0000  2.8000   1
   2  -5 -13 22.8000  1.9000   1
  -2   5  13 26.6000  2.0000   1
   2  -5 -14  3.9000  2.1000   1
  -2   5  14  2.3000  1.5000   1
   2  -5 -15  1.0000  2.3000   1
  -2   5  15  0.5000  1.7000   1
   2  -5 -16 10.2000  5.2000   1
  -2   5  16  4.3000  1.6000   1
   2  -5 -17 137.700  12.000   1
  -2   5  17 159.800   5.600   1
   2  -5 -18  5.8000  3.3000   1
  -2   5  18  6.8000  1.9000   1
   2  -5 -19 56.3000  5.9000   1
  -2   5  19 44.7000  3.8000   1
   2  -5 -20 34.5000  4.5000   1
   2  -5 -21  2.8000  3.9000   1
  -2   5  21  1.9000  5.0000   1
   2  -5 -22  3.6000  7.8000   1
   2  -5 -23 10.2000 10.1000   1
  -2   5  23 -9.3000  8.4000   1
   2  -6  20 -5.3000  5.4000   1
  -2   6 -20  2.6000  8.6000   1
   2  -6  19 48.4000  7.8000   1
  -2   6 -19 74.8000 10.1000   1
   2  -6  18 19.4000  4.2000   1
  -2   6 -18  7.9000  7.5000   1
   2  -6  17  2.6000  3.4000   1
  -2   6 -17 -7.2000  4.5000   1
   2  -6  16 -2.1000  2.9000   1
  -2   6 -16  0.4000  2.5000   1
   2  -6  15  2.9000  3.2000   1
  -2   6 -15 -1.0000  1.3000   1
   2  -6  14  6.5000  3.4000   1
  -2   6 -14  2.2000  1.2000   1
   2  -6  13 10.1000  2.5000   1
  -2   6 -13  8.7000  1.4000   1
   2  -6  12 -3.3000  2.2000   1
  -2   6 -12 -0.5000  1.0000   1
   2  -6  11 167.500   8.000   1
  -2   6 -11 174.400   4.700   1
   2  -6  10 18.6000  2.9000   1
  -2   6 -10 12.9000  0.9000   1
   2  -6   9  9.3000  2.1000   1
  -2   6  -9  9.5000  0.6000   1
   2  -6   8  5.5000  1.8000   1
  -2   6  -8  8.1000  2.8000   1
   2  -6   7  6.8000  0.8000   1
  -2   6  -7  5.3000  2.4000   1
   2  -6   6 62.4000  2.2000   1
  -2   6  -6 65.8000  5.2000   1
   2  -6   5 56.3000  2.5000   1
  -2   6  -5 63.6000  4.7000   1
   2  -6   4 122.000   4.300   1
  -2   6  -4 132.300   7.000   1
   2  -6   3  4.3000  1.4000   1
  -2   6  -3  4.8000  2.4000   1
   2  -6   2 31.4000  1.5000   1
  -2   6  -2 31.5000  2.4000   1
   2  -6   1 152.000   3.700   1
   2  -6   0 14.0000  1.0000   1
  -2   6   0 13.5000  2.0000   1
   2  -6  -1 73.8000  2.4000   1
  -2   6   1 75.7000  5.2000   1
   2  -6  -2 212.600   5.200   1
  -2   6   2 211.600   5.100   1
   2  -6  -3 147.600   4.600   1
  -2   6   3 152.400   4.400   1
   2  -6  -4 41.7000  2.4000   1
  -2   6   4 42.3000  1.7000   1
   2  -6  -5 124.300   3.500   1
  -2   6   5 125.300   3.700   1
   2  -6  -6 1477.60   34.60   1
  -2   6   6 1443.10   31.80   1
   2  -6  -7 1572.00   37.40   1
  -2   6   7 1533.80   37.90   1
   2  -6  -8 58.1000  2.3000   1
  -2   6   8 58.9000  2.2000   1
   2  -6  -9 123.700   3.800   1
  -2   6   9 124.800   3.600   1
   2  -6 -10 62.3000  2.2000   1
  -2   6  10 55.3000  2.3000   1
   2  -6 -11 115.400   3.800   1
  -2   6  11 113.100   3.600   1
   2  -6 -12 49.1000  3.1000   1
  -2   6  12 51.8000  2.4000   1
   2  -6 -13 70.9000  4.4000   1
  -2   6  13 64.3000  2.7000   1
   2  -6 -14  7.0000  1.5000   1
  -2   6  14 13.2000  1.8000   1
   2  -6 -15 92.6000  4.9000   1
  -2   6  15 89.5000  3.6000   1
   2  -6 -16 13.2000  2.8000   1
  -2   6  16 22.5000  2.2000   1
   2  -6 -17 26.4000  4.6000   1
  -2   6  17 27.7000  2.4000   1
   2  -6 -18 22.0000  6.4000   1
  -2   6  18 35.6000  3.1000   1
   2  -6 -19 39.1000  7.0000   1
  -2   6  19 32.1000  2.7000   1
   2  -6 -20 35.5000  4.8000   1
   2  -6 -21 19.4000  4.8000   1
  -2   6  21  9.0000  7.2000   1
   2  -6 -22 11.7000  8.9000   1
  -2   6  22  0.5000  5.9000   1
   2  -6 -23 30.2000  8.1000   1
  -2   6  23  9.7000  9.3000   1
   2  -7  19  3.6000  7.3000   1
  -2   7 -19  4.2000  8.4000   1
   2  -7  18  4.1000  3.9000   1
  -2   7 -18 12.7000  7.1000   1
   2  -7  17 -2.5000  5.4000   1
  -2   7 -17  2.7000  4.9000   1
   2  -7  16 53.1000  4.6000   1
  -2   7 -16 58.2000  8.3000   1
   2  -7  15 -0.9000  3.2000   1
  -2   7 -15  1.0000  1.0000   1
   2  -7  14 30.5000  3.6000   1
  -2   7 -14 32.2000  1.5000   1
   2  -7  13  0.8000  2.5000   1
  -2   7 -13  1.2000  0.8000   1
   2  -7  12 12.3000  2.5000   1
   2  -7  11 134.900   5.200   1
  -2   7 -11 132.400   9.400   1
   2  -7  10 742.100  22.200   1
   2  -7   9 13.4000  2.2000   1
  -2   7  -9 11.7000  2.9000   1
   2  -7   8  0.6000  0.8000   1
  -2   7  -8  5.8000  4.0000   1
   2  -7   7  9.8000  1.1000   1
  -2   7  -7 16.1000  3.0000   1
   2  -7   6 387.500   9.900   1
  -2   7  -6 396.200  19.700   1
   2  -7   5 90.2000  2.9000   1
  -2   7  -5 83.6000  5.9000   1
   2  -7   4 295.900   7.000   1
  -2   7  -4 290.000  14.200   1
   2  -7   3 275.300   5.600   1
  -2   7  -3 254.400  10.500   1
   2  -7   2 208.000   5.100   1
  -2   7  -2 202.600   8.900   1
   2  -7   1 98.6000  2.4000   1
  -2   7  -1 87.2000  4.4000   1
   2  -7   0 36.8000  2.1000   1
   2  -7  -1 70.7000  2.3000   1
  -2   7   1 65.0000  5.3000   1
   2  -7  -2 147.700   4.100   1
  -2   7   2 154.100   5.000   1
   2  -7  -3 107.500   3.100   1
  -2   7   3 103.100   3.200   1
   2  -7  -4 827.600  19.500   1
  -2   7   4 830.000  19.200   1
   2  -7  -5 26.3000  1.4000   1
  -2   7   5 29.2000  1.6000   1
   2  -7  -6 1367.00   31.50   1
  -2   7   6 1363.00   34.00   1
   2  -7  -7 566.400  15.300   1
  -2   7   7 549.100  12.200   1
   2  -7  -8 1315.40   36.20   1
  -2   7   8 1287.80   29.60   1
   2  -7  -9 84.7000  3.1000   1
  -2   7   9 78.0000  2.8000   1
   2  -7 -10 82.6000  3.0000   1
  -2   7  10 85.4000  3.0000   1
   2  -7 -11 199.000   5.900   1
  -2   7  11 188.300   5.600   1
   2  -7 -12 186.700   5.100   1
  -2   7  12 185.400   5.900   1
   2  -7 -13 23.1000  2.1000   1
  -2   7  13 27.3000  2.2000   1
   2  -7 -14 35.7000  2.6000   1
  -2   7  14 37.8000  2.3000   1
   2  -7 -15 55.5000  3.0000   1
  -2   7  15 62.0000  3.1000   1
   2  -7 -16 15.6000  4.9000   1
  -2   7  16 14.9000  2.1000   1
   2  -7 -17 23.3000  6.3000   1
  -2   7  17 30.6000  2.5000   1
   2  -7 -18 -4.2000  5.5000   1
  -2   7  18  1.2000  2.0000   1
   2  -7 -19 10.7000  6.7000   1
   2  -7 -20  7.1000  6.7000   1
  -2   7  20 -0.3000  5.0000   1
   2  -7 -21 18.3000  4.3000   1
  -2   7  21 31.3000  8.3000   1
   2  -7 -22 -3.8000  8.7000   1
  -2   7  22  4.9000  9.0000   1
   2  -8  19 -4.4000  6.8000   1
  -2   8 -19-11.5000  7.8000   1
   2  -8  18 14.1000  4.3000   1
  -2   8 -18 -2.6000  7.4000   1
   2  -8  17 -2.1000  3.7000   1
  -2   8 -17  8.7000  6.9000   1
   2  -8  16 -0.9000  3.5000   1
   2  -8  15  4.8000  3.3000   1
   2  -8  14  5.8000  3.3000   1
   2  -8  13  1.8000  2.8000   1
  -2   8 -13 -2.6000  5.6000   1
   2  -8  12 120.200   5.000   1
  -2   8 -12 127.100   8.900   1
   2  -8  11  1.6000  2.3000   1
   2  -8  10 11.4000  2.3000   1
  -2   8 -10 18.9000  4.4000   1
   2  -8   9 31.3000  1.7000   1
  -2   8  -9 27.9000  4.7000   1
   2  -8   8 447.200  11.300   1
  -2   8  -8 436.800  19.900   1
   2  -8   7 135.600   4.400   1
  -2   8  -7 125.100   7.500   1
   2  -8   6 -0.4000  1.1000   1
  -2   8  -6  4.5000  3.2000   1
   2  -8   5  2.1000  1.1000   1
  -2   8  -5  4.7000  3.1000   1
   2  -8   4 108.500   3.600   1
  -2   8  -4 99.4000  6.7000   1
   2  -8   3 81.7000  2.6000   1
  -2   8  -3 87.6000  5.6000   1
   2  -8   2 160.300   4.300   1
  -2   8  -2 154.200   8.200   1
   2  -8   1  6.8000  0.7000   1
   2  -8   0 445.100  13.300   1
   2  -8  -1  1.9000  0.8000   1
   2  -8  -2 50.2000  2.1000   1
  -2   8   2 46.5000  4.7000   1
   2  -8  -3 135.200   4.500   1
  -2   8   3 128.300   4.500   1
   2  -8  -4 311.600   7.700   1
  -2   8   4 317.000   7.200   1
   2  -8  -5 10.6000  1.5000   1
  -2   8   5  6.2000  1.2000   1
   2  -8  -6 140.200   4.200   1
  -2   8   6 136.700   4.000   1
   2  -8  -7 45.4000  2.7000   1
  -2   8   7 45.3000  2.1000   1
   2  -8  -8 192.700   5.700   1
  -2   8   8 193.500   5.300   1
   2  -8  -9 221.000   6.800   1
  -2   8   9 214.400   5.900   1
   2  -8 -10 232.500   7.300   1
  -2   8  10 241.000   6.400   1
   2  -8 -11 243.700   7.800   1
  -2   8  11 237.800   6.500   1
   2  -8 -12  1.5000  1.3000   1
  -2   8  12 -0.5000  1.4000   1
   2  -8 -13  1.9000  1.7000   1
  -2   8  13  4.0000  1.5000   1
   2  -8 -14 521.900  18.300   1
  -2   8  14 516.700  12.400   1
   2  -8 -15 102.100   6.000   1
  -2   8  15 110.000   4.300   1
   2  -8 -16  2.8000  2.0000   1
  -2   8  16  1.8000  1.8000   1
   2  -8 -17  6.1000  5.5000   1
  -2   8  17  8.0000  1.9000   1
   2  -8 -18 169.500  13.200   1
  -2   8  18 184.100   8.300   1
   2  -8 -19  7.4000  6.5000   1
  -2   8  19  4.1000  7.0000   1
   2  -8 -20 19.9000  6.7000   1
   2  -8 -21 11.3000  7.7000   1
  -2   8  21  7.8000  5.3000   1
   2  -8 -22 35.9000  9.9000   1
  -2   8  22 32.9000  9.3000   1
   2  -9  19 10.7000  7.9000   1
  -2   9 -19 -4.1000  8.1000   1
   2  -9  18 -4.3000  4.3000   1
  -2   9 -18  0.3000  8.4000   1
   2  -9  17  8.1000  4.5000   1
  -2   9 -17 -3.9000  6.9000   1
   2  -9  16  4.0000  3.5000   1
   2  -9  15  7.1000  3.2000   1
   2  -9  14 -4.6000  3.0000   1
   2  -9  13 -0.4000  3.1000   1
  -2   9 -13  6.6000  3.8000   1
   2  -9  12 30.4000  3.6000   1
   2  -9  11  2.1000  2.3000   1
  -2   9 -11  4.0000  3.9000   1
   2  -9  10 81.7000  3.1000   1
  -2   9 -10 69.7000  6.9000   1
   2  -9   9 15.4000  1.4000   1
  -2   9  -9 15.4000  4.9000   1
   2  -9   8  1.8000  1.2000   1
  -2   9  -8  2.1000  3.9000   1
   2  -9   7 15.7000  1.6000   1
  -2   9  -7 18.5000  4.1000   1
   2  -9   6 56.7000  2.7000   1
  -2   9  -6 61.1000  5.2000   1
   2  -9   5 67.7000  3.1000   1
  -2   9  -5 74.2000  5.8000   1
   2  -9   4  8.1000  2.0000   1
  -2   9  -4  8.8000  3.4000   1
   2  -9   3 584.500  14.100   1
  -2   9  -3 556.900  21.400   1
   2  -9   2 205.800   5.500   1
   2  -9   1  5.1000  0.9000   1
   2  -9   0 24.5000  1.3000   1
   2  -9  -1 64.4000  2.5000   1
   2  -9  -2 44.7000  1.9000   1
   2  -9  -3 511.600  13.400   1
  -2   9   3 501.600  20.100   1
   2  -9  -4 177.800   5.600   1
  -2   9   4 176.100   6.300   1
   2  -9  -5  8.5000  1.3000   1
  -2   9   5  5.5000  1.2000   1
   2  -9  -6 12.5000  1.4000   1
  -2   9   6 13.1000  1.5000   1
   2  -9  -7 15.7000  1.6000   1
  -2   9   7 14.7000  1.6000   1
   2  -9  -8 646.100  16.500   1
  -2   9   8 617.800  14.900   1
   2  -9  -9 114.500   3.900   1
  -2   9   9 112.900   3.700   1
   2  -9 -10 33.4000  2.0000   1
  -2   9  10 36.8000  2.0000   1
   2  -9 -11 21.5000  1.6000   1
  -2   9  11 21.3000  1.9000   1
   2  -9 -12 141.300   4.300   1
  -2   9  12 137.900   4.600   1
   2  -9 -13 111.200   4.600   1
  -2   9  13 109.400   4.700   1
   2  -9 -14 200.700   7.200   1
  -2   9  14 191.700   6.200   1
   2  -9 -15 37.2000  3.2000   1
  -2   9  15 42.4000  2.7000   1
   2  -9 -16 49.9000  4.1000   1
  -2   9  16 52.5000  2.9000   1
  -2   9  17  5.8000  2.0000   1
   2  -9 -18 214.900  12.700   1
  -2   9  18 199.600   9.700   1
   2  -9 -19  3.0000  4.2000   1
  -2   9  19 16.4000  7.2000   1
   2  -9 -20  4.5000  6.9000   1
  -2   9  20  3.2000  4.7000   1
   2  -9 -21-12.8000  5.7000   1
  -2   9  21 -4.3000  8.6000   1
   2  -9 -22  8.0000  8.8000   1
  -2   9  22  4.5000  6.3000   1
   2 -10  18 13.9000  5.1000   1
  -2  10 -18 22.7000  7.0000   1
   2 -10  17 10.4000  4.5000   1
  -2  10 -17 12.6000  7.5000   1
   2 -10  16  4.0000  3.7000   1
  -2  10 -16  4.6000  6.6000   1
   2 -10  15 43.5000  5.0000   1
  -2  10 -15 46.2000  6.7000   1
   2 -10  14 71.6000  5.9000   1
  -2  10 -14 72.4000  7.4000   1
   2 -10  13 11.0000  3.3000   1
  -2  10 -13 22.9000  6.7000   1
   2 -10  12 109.100   6.100   1
  -2  10 -12 101.200   7.300   1
   2 -10  11 41.2000  2.3000   1
  -2  10 -11 49.1000  6.6000   1
   2 -10  10 36.4000  2.2000   1
  -2  10 -10 41.1000  5.6000   1
   2 -10   9  5.6000  1.4000   1
  -2  10  -9 -2.6000  2.9000   1
   2 -10   8 103.700   3.400   1
  -2  10  -8 111.500   6.500   1
   2 -10   7 112.000   3.400   1
  -2  10  -7 104.700   7.100   1
   2 -10   6 72.3000  2.8000   1
  -2  10  -6 85.8000  5.8000   1
   2 -10   5 57.3000  2.5000   1
  -2  10  -5 52.8000  5.1000   1
   2 -10   4 394.500   7.300   1
   2 -10   3 140.400   3.100   1
  -2  10  -3 145.500   8.300   1
   2 -10   2 14.5000  1.8000   1
  -2  10  -2 11.8000  2.6000   1
   2 -10   1 34.3000  3.7000   1
   2 -10   0 209.300   6.600   1
   2 -10  -1  1.3000  1.1000   1
   2 -10  -2 216.000   5.600   1
   2 -10  -3  0.0000  0.9000   1
  -2  10   3 -0.7000  1.6000   1
   2 -10  -4 -0.1000  1.0000   1
  -2  10   4  2.8000  1.4000   1
   2 -10  -5 11.6000  1.4000   1
  -2  10   5 16.4000  1.9000   1
   2 -10  -6 312.700   9.200   1
  -2  10   6 300.700   7.800   1
   2 -10  -7  8.8000  1.5000   1
  -2  10   7  9.4000  1.5000   1
   2 -10  -8 127.000   4.600   1
  -2  10   8 122.600   3.900   1
   2 -10  -9 195.800   6.500   1
  -2  10   9 205.900   5.900   1
   2 -10 -10 108.600   3.900   1
  -2  10  10 110.200   4.000   1
   2 -10 -11 42.2000  2.4000   1
  -2  10  11 39.4000  2.3000   1
   2 -10 -12 23.9000  2.0000   1
  -2  10  12 20.4000  2.0000   1
   2 -10 -13  5.2000  1.5000   1
  -2  10  13  7.5000  1.9000   1
   2 -10 -14 66.4000  4.0000   1
  -2  10  14 70.2000  3.3000   1
   2 -10 -15 32.6000  3.2000   1
  -2  10  15 29.6000  2.4000   1
   2 -10 -16 48.5000  4.2000   1
  -2  10  16 54.4000  3.7000   1
   2 -10 -17 10.6000  3.2000   1
  -2  10  17  4.1000  2.8000   1
   2 -10 -18 40.6000  7.3000   1
  -2  10  18 46.9000  7.0000   1
   2 -10 -19 20.8000  7.7000   1
  -2  10  19 34.9000  7.4000   1
   2 -10 -20  4.6000  7.0000   1
  -2  10  20 -7.3000  7.5000   1
   2 -10 -21 19.9000  9.0000   1
  -2  10  21 -6.7000  6.1000   1
   2 -11  18  3.0000  5.3000   1
   2 -11  17 27.5000  4.9000   1
  -2  11 -17 29.3000  6.8000   1
   2 -11  16 -1.1000  4.0000   1
  -2  11 -16  7.2000  7.2000   1
   2 -11  15 29.5000  4.8000   1
  -2  11 -15 32.1000  7.9000   1
   2 -11  14  9.9000  3.8000   1
  -2  11 -14  0.9000  6.0000   1
   2 -11  13 18.4000  3.7000   1
  -2  11 -13 13.5000  4.4000   1
   2 -11  12  2.6000  3.0000   1
  -2  11 -12 -4.1000  5.1000   1
   2 -11  11 41.3000  2.5000   1
  -2  11 -11 35.9000  4.2000   1
   2 -11  10 18.3000  1.8000   1
  -2  11 -10 15.7000  5.4000   1
   2 -11   9 13.6000  1.6000   1
  -2  11  -9  5.1000  4.9000   1
   2 -11   8 47.1000  2.6000   1
  -2  11  -8 59.6000  6.1000   1
   2 -11   7 67.8000  3.5000   1
   2 -11   6 77.9000  2.8000   1
   2 -11   5 15.9000  1.5000   1
  -2  11  -5 19.5000  4.3000   1
   2 -11   4 112.400   2.600   1
  -2  11  -4 95.0000  6.6000   1
   2 -11   3 279.800   5.900   1
  -2  11  -3 280.900  13.000   1
   2 -11   2 13.6000  1.3000   1
   2 -11   1  5.2000  1.2000   1
   2 -11   0 26.0000  1.7000   1
   2 -11  -1  2.0000  1.0000   1
   2 -11  -2 52.8000  2.4000   1
   2 -11  -3  2.2000  1.1000   1
   2 -11  -4 26.0000  1.6000   1
  -2  11   4 28.3000  2.8000   1
   2 -11  -5 31.0000  2.0000   1
  -2  11   5 33.9000  3.0000   1
   2 -11  -6 20.7000  1.8000   1
  -2  11   6 17.1000  2.6000   1
   2 -11  -7 45.3000  2.5000   1
  -2  11   7 45.7000  3.3000   1
   2 -11  -8  9.8000  1.5000   1
  -2  11   8  9.0000  1.6000   1
   2 -11  -9 324.900  10.000   1
  -2  11   9 318.800   9.100   1
   2 -11 -10 60.1000  3.0000   1
  -2  11  10 57.1000  2.7000   1
   2 -11 -11  3.4000  2.4000   1
  -2  11  11  0.6000  1.5000   1
   2 -11 -12 33.0000  2.1000   1
  -2  11  12 37.1000  2.5000   1
   2 -11 -13 327.000  10.000   1
  -2  11  13 351.800   9.600   1
   2 -11 -14  6.2000  2.4000   1
  -2  11  14  4.3000  1.7000   1
   2 -11 -15 31.6000  3.2000   1
  -2  11  15 24.8000  2.2000   1
   2 -11 -16 42.0000  4.4000   1
  -2  11  16 38.7000  7.2000   1
   2 -11 -17 40.1000  4.1000   1
  -2  11  17 43.3000  4.2000   1
   2 -11 -18 -4.6000  6.2000   1
  -2  11  18  5.6000  6.2000   1
   2 -11 -19 21.2000  8.3000   1
  -2  11  19  1.3000  4.6000   1
   2 -11 -20  8.0000  7.6000   1
  -2  11  20  0.9000  5.1000   1
   2 -11 -21 27.2000 10.4000   1
  -2  11  21 19.8000  9.5000   1
   2 -12  17  1.0000  8.1000   1
  -2  12 -17 -4.7000  8.2000   1
   2 -12  16 15.9000  4.9000   1
  -2  12 -16 15.2000  8.2000   1
   2 -12  15 14.9000  4.5000   1
  -2  12 -15 28.8000  8.1000   1
   2 -12  14  1.9000  3.6000   1
  -2  12 -14  7.1000  4.8000   1
   2 -12  13 -0.6000  3.5000   1
  -2  12 -13  9.7000  6.3000   1
   2 -12  12 19.3000  1.8000   1
  -2  12 -12 14.0000  6.0000   1
   2 -12  11  4.8000  1.7000   1
  -2  12 -11  6.9000  5.5000   1
   2 -12  10 41.3000  2.7000   1
  -2  12 -10 42.6000  6.4000   1
   2 -12   9 27.5000  2.1000   1
  -2  12  -9 22.1000  5.2000   1
   2 -12   8 70.5000  3.1000   1
  -2  12  -8 72.7000  7.0000   1
   2 -12   7 20.7000  2.5000   1
  -2  12  -7 32.6000  5.1000   1
   2 -12   6 41.0000  2.3000   1
  -2  12  -6 39.4000  5.3000   1
   2 -12   5  3.0000  2.0000   1
  -2  12  -5  7.5000  4.1000   1
   2 -12   4 62.4000  1.8000   1
  -2  12  -4 58.9000  5.9000   1
   2 -12   3 69.4000  1.8000   1
  -2  12  -3 79.0000  6.1000   1
   2 -12   2 26.3000  1.5000   1
   2 -12   1 10.5000  1.2000   1
   2 -12   0 71.4000  2.9000   1
   2 -12  -1 39.9000  1.9000   1
   2 -12  -2  0.9000  1.1000   1
   2 -12  -3 39.7000  1.9000   1
   2 -12  -4 97.4000  3.3000   1
  -2  12   4 104.700   5.400   1
   2 -12  -5 18.2000  1.9000   1
  -2  12   5 24.0000  2.8000   1
   2 -12  -6  9.3000  1.4000   1
  -2  12   6 10.8000  2.4000   1
   2 -12  -7 73.6000  3.2000   1
  -2  12   7 74.6000  5.0000   1
   2 -12  -8  3.4000  1.4000   1
  -2  12   8  7.3000  3.0000   1
   2 -12  -9 -1.6000  1.6000   1
  -2  12   9 -4.7000  3.0000   1
   2 -12 -10 77.4000  3.1000   1
  -2  12  10 70.1000  6.6000   1
   2 -12 -11  4.5000  1.6000   1
  -2  12  11  1.7000  2.5000   1
   2 -12 -12 51.1000  2.6000   1
  -2  12  12 53.6000  2.9000   1
   2 -12 -13 32.4000  2.1000   1
  -2  12  13 33.8000  2.3000   1
   2 -12 -14 93.2000  4.7000   1
  -2  12  14 99.9000  4.0000   1
   2 -12 -15 46.7000  4.0000   1
  -2  12  15 50.9000  3.2000   1
   2 -12 -16 37.0000  5.1000   1
  -2  12  16 56.1000  8.1000   1
   2 -12 -17 12.2000  6.9000   1
  -2  12  17 29.5000  7.5000   1
   2 -12 -18  1.7000  6.4000   1
  -2  12  18  1.0000  6.7000   1
   2 -12 -19 37.7000  7.9000   1
  -2  12  19 36.9000  9.2000   1
   2 -12 -20  3.4000  7.6000   1
  -2  12  20 14.3000  8.9000   1
   2 -13  17 27.1000  5.5000   1
  -2  13 -17 39.0000 11.0000   1
   2 -13  16 22.6000  5.1000   1
  -2  13 -16 17.1000  9.3000   1
   2 -13  15  6.7000  3.9000   1
   2 -13  14 -2.3000  3.7000   1
  -2  13 -14  3.6000  6.9000   1
   2 -13  13 42.8000  4.6000   1
  -2  13 -13 34.4000  6.8000   1
   2 -13  12  6.4000  1.8000   1
  -2  13 -12  0.4000  6.1000   1
   2 -13  11  4.6000  1.9000   1
  -2  13 -11 -3.7000  5.7000   1
   2 -13  10  1.8000  2.0000   1
  -2  13 -10 -1.9000  3.6000   1
   2 -13   9  5.9000  1.8000   1
  -2  13  -9  1.6000  3.4000   1
   2 -13   8  8.4000  2.0000   1
  -2  13  -8 14.4000  5.2000   1
   2 -13   7  5.8000  1.7000   1
  -2  13  -7 11.2000  5.2000   1
   2 -13   6 -0.9000  1.3000   1
   2 -13   5 24.0000  1.2000   1
  -2  13  -5 19.3000  4.2000   1
   2 -13   4 35.3000  1.4000   1
  -2  13  -4 37.8000  4.9000   1
   2 -13   3 12.0000  0.9000   1
   2 -13   2 14.7000  1.4000   1
   2 -13   1 119.800   3.900   1
   2 -13   0 98.0000  3.6000   1
   2 -13  -1  6.3000  1.4000   1
   2 -13  -2  2.7000  1.2000   1
   2 -13  -3 99.6000  3.5000   1
   2 -13  -4  8.8000  1.5000   1
   2 -13  -5  8.4000  1.8000   1
  -2  13   5  9.8000  2.3000   1
   2 -13  -6 17.5000  2.6000   1
  -2  13   6 29.4000  4.3000   1
   2 -13  -7 97.4000  4.1000   1
  -2  13   7 84.9000  5.4000   1
   2 -13  -8  6.8000  1.8000   1
  -2  13   8 13.0000  3.5000   1
   2 -13  -9 111.500   4.900   1
  -2  13   9 121.100   8.200   1
   2 -13 -10 302.400  11.000   1
  -2  13  10 287.900  15.500   1
   2 -13 -11 69.1000  3.1000   1
  -2  13  11 67.5000  6.3000   1
   2 -13 -12 10.0000  1.8000   1
  -2  13  12 10.2000  4.7000   1
   2 -13 -13  4.8000  1.7000   1
  -2  13  13  8.5000  5.0000   1
   2 -13 -14 18.8000  3.8000   1
  -2  13  14 17.5000  5.7000   1
   2 -13 -15  3.5000  2.9000   1
  -2  13  15  1.8000  5.1000   1
   2 -13 -16  3.4000  3.6000   1
  -2  13  16 -7.7000  5.7000   1
   2 -13 -17 82.2000  9.7000   1
  -2  13  17 61.7000  9.2000   1
   2 -13 -18 -5.1000  6.8000   1
  -2  13  18 10.3000  7.4000   1
  -2  13  19 13.9000  7.5000   1
   2 -14  16 10.6000  5.3000   1
  -2  14 -16  0.8000  9.0000   1
   2 -14  15  6.8000  4.8000   1
  -2  14 -15 23.7000  9.2000   1
   2 -14  14  8.3000  4.4000   1
  -2  14 -14 18.8000  6.2000   1
   2 -14  13 24.6000  7.9000   1
  -2  14 -13 17.7000  7.5000   1
   2 -14  12 44.7000  4.9000   1
  -2  14 -12 56.1000  6.9000   1
   2 -14  11  6.5000  2.5000   1
  -2  14 -11 13.9000  6.2000   1
   2 -14  10  2.9000  2.0000   1
  -2  14 -10 -0.8000  5.4000   1
   2 -14   9  7.3000  2.1000   1
  -2  14  -9  1.4000  5.3000   1
   2 -14   8 67.4000  2.9000   1
  -2  14  -8 78.0000  8.6000   1
   2 -14   7  1.7000  1.5000   1
  -2  14  -7  3.2000  4.5000   1
   2 -14   6 85.1000  3.2000   1
  -2  14  -6 94.4000  7.4000   1
   2 -14   5  0.6000  0.7000   1
  -2  14  -5  5.4000  4.1000   1
   2 -14   4 -0.1000  0.8000   1
  -2  14  -4 -1.6000  2.7000   1
   2 -14   3 21.9000  1.2000   1
   2 -14   2 11.2000  1.2000   1
   2 -14   1  1.2000  1.1000   1
   2 -14   0 67.6000  2.9000   1
   2 -14  -1  4.7000  1.2000   1
   2 -14  -2  4.9000  1.4000   1
   2 -14  -3 14.8000  1.7000   1
   2 -14  -4 301.300   8.700   1
   2 -14  -5 69.0000  3.0000   1
  -2  14   5 73.2000  5.5000   1
   2 -14  -6  9.3000  1.9000   1
  -2  14   6  9.8000  3.2000   1
   2 -14  -7  5.5000  1.8000   1
  -2  14   7 12.0000  3.1000   1
   2 -14  -8  3.1000  1.9000   1
  -2  14   8  3.1000  3.0000   1
   2 -14  -9  4.9000  1.9000   1
  -2  14   9 11.9000  4.4000   1
   2 -14 -10 30.1000  2.5000   1
  -2  14  10 37.9000  5.3000   1
   2 -14 -11 62.2000  3.2000   1
  -2  14  11 62.8000  6.5000   1
   2 -14 -12 16.8000  1.9000   1
  -2  14  12 20.5000  4.7000   1
   2 -14 -13  6.3000  1.6000   1
  -2  14  13 -1.5000  4.9000   1
   2 -14 -14 20.6000  3.5000   1
  -2  14  14 24.7000  5.9000   1
   2 -14 -15 -4.4000  5.8000   1
  -2  14  15  7.3000  5.8000   1
   2 -14 -16 21.3000  3.6000   1
  -2  14  16  7.4000  6.7000   1
   2 -14 -17 -2.7000  6.6000   1
   2 -14 -18  7.6000  7.0000   1
  -2  14  18  7.1000  5.0000   1
   2 -14 -19 -1.0000  7.6000   1
  -2  14  19  1.6000  7.6000   1
   2 -15  15 15.4000  6.3000   1
  -2  15 -15 15.5000  7.2000   1
   2 -15  14 21.7000  5.2000   1
  -2  15 -14 23.2000  8.7000   1
   2 -15  13 10.4000  3.2000   1
  -2  15 -13 17.0000  5.6000   1
   2 -15  12 22.1000  3.4000   1
  -2  15 -12 12.5000  7.1000   1
   2 -15  11 30.3000  2.7000   1
  -2  15 -11 46.9000  7.9000   1
   2 -15  10 13.0000  2.2000   1
  -2  15 -10 28.5000  6.6000   1
   2 -15   9  3.1000  1.9000   1
  -2  15  -9 12.7000  5.9000   1
   2 -15   8 71.1000  3.6000   1
  -2  15  -8 68.2000  7.9000   1
   2 -15   7 44.9000  2.5000   1
   2 -15   6 44.1000  2.8000   1
  -2  15  -6 43.8000  6.4000   1
   2 -15   5  5.0000  0.8000   1
  -2  15  -5 14.2000  5.2000   1
   2 -15   4  5.0000  0.9000   1
   2 -15   3 16.2000  1.5000   1
   2 -15   2 278.300   6.700   1
   2 -15   1 136.600   4.100   1
   2 -15   0 106.300   4.300   1
   2 -15  -1  3.2000  1.4000   1
   2 -15  -2 108.400   4.200   1
   2 -15  -3 45.8000  2.6000   1
   2 -15  -4 237.000   7.900   1
   2 -15  -5 27.2000  2.1000   1
   2 -15  -6 44.3000  2.4000   1
  -2  15   6 63.5000  5.5000   1
   2 -15  -7 30.2000  2.8000   1
  -2  15   7 31.8000  4.0000   1
   2 -15  -8 94.9000  4.5000   1
  -2  15   8 112.100   7.300   1
   2 -15  -9  0.3000  1.9000   1
  -2  15   9  0.0000  3.3000   1
   2 -15 -10 30.7000  2.7000   1
  -2  15  10 18.3000  4.8000   1
   2 -15 -11  1.6000  1.7000   1
  -2  15  11  4.2000  4.2000   1
   2 -15 -12 58.2000  2.8000   1
  -2  15  12 66.6000  7.0000   1
   2 -15 -13 39.6000  4.1000   1
  -2  15  13 31.5000  6.1000   1
   2 -15 -14  9.2000  3.5000   1
  -2  15  14  6.2000  5.6000   1
   2 -15 -15  8.2000  3.8000   1
  -2  15  15  4.8000  5.7000   1
   2 -15 -16 19.7000  7.2000   1
  -2  15  16 14.9000  7.1000   1
   2 -15 -17  2.8000  6.9000   1
  -2  15  17  4.2000  4.7000   1
   2 -15 -18 24.5000  7.9000   1
  -2  15  18 10.3000  7.6000   1
   2 -16  14 -3.8000  8.9000   1
  -2  16 -14  2.0000  6.7000   1
   2 -16  13 12.5000  5.5000   1
  -2  16 -13 26.3000  8.6000   1
   2 -16  12 -6.0000  5.5000   1
  -2  16 -12  9.8000  7.5000   1
   2 -16  11 -3.7000  3.3000   1
  -2  16 -11 -5.2000  4.3000   1
   2 -16  10 16.0000  2.4000   1
  -2  16 -10 25.9000  7.2000   1
   2 -16   9 11.3000  2.5000   1
  -2  16  -9 17.2000  4.2000   1
   2 -16   8 -0.5000  2.1000   1
  -2  16  -8  1.1000  5.1000   1
   2 -16   7 13.2000  2.3000   1
  -2  16  -7  2.4000  5.4000   1
   2 -16   6 11.8000  2.0000   1
  -2  16  -6 14.0000  5.2000   1
   2 -16   5 18.5000  1.2000   1
   2 -16   4 46.8000  1.6000   1
   2 -16   3 62.6000  1.9000   1
   2 -16   2 37.4000  1.9000   1
   2 -16   1 11.7000  1.4000   1
   2 -16   0 10.1000  1.4000   1
   2 -16  -1  0.5000  2.0000   1
   2 -16  -2  3.3000  1.4000   1
   2 -16  -3 23.6000  2.7000   1
   2 -16  -4  8.1000  1.7000   1
   2 -16  -5 74.5000  3.4000   1
   2 -16  -6  8.2000  1.9000   1
   2 -16  -7 19.9000  2.1000   1
  -2  16   7 22.1000  3.7000   1
   2 -16  -8 18.3000  2.4000   1
  -2  16   8 16.9000  3.8000   1
   2 -16  -9 11.4000  2.0000   1
  -2  16   9 11.8000  3.7000   1
   2 -16 -10 20.1000  2.4000   1
  -2  16  10  6.0000  4.1000   1
   2 -16 -11 23.9000  2.4000   1
  -2  16  11 18.2000  5.7000   1
   2 -16 -12  4.1000  3.2000   1
  -2  16  12 -3.2000  4.3000   1
   2 -16 -13  1.2000  4.6000   1
  -2  16  13  3.6000  5.1000   1
   2 -16 -14 33.4000  4.2000   1
  -2  16  14 34.3000  7.0000   1
   2 -16 -15 60.0000  5.6000   1
  -2  16  15 62.2000  8.4000   1
   2 -16 -16  1.1000  7.2000   1
  -2  16  16  9.2000  7.3000   1
   2 -16 -17 -5.2000  7.3000   1
  -2  16  17  0.6000  7.1000   1
   2 -17  13 -0.3000  8.9000   1
   2 -17  12 35.6000 10.2000   1
  -2  17 -12 50.2000  9.4000   1
   2 -17  11 -5.7000  5.6000   1
  -2  17 -11  5.5000  6.8000   1
   2 -17  10 15.5000  5.6000   1
  -2  17 -10 25.1000  6.9000   1
   2 -17   9 21.0000  3.4000   1
  -2  17  -9 16.6000  6.7000   1
   2 -17   8 39.3000  3.1000   1
  -2  17  -8 36.3000  6.3000   1
   2 -17   7 21.9000  2.7000   1
  -2  17  -7 18.9000  5.8000   1
   2 -17   6 57.0000  3.2000   1
   2 -17   5 31.7000  1.8000   1
   2 -17   4 -0.6000  1.0000   1
   2 -17   3 13.9000  1.6000   1
   2 -17   2 228.100   5.600   1
   2 -17   1 31.3000  1.8000   1
   2 -17   0 38.9000  2.0000   1
   2 -17  -1  6.4000  1.4000   1
   2 -17  -2 498.600  14.300   1
   2 -17  -3  2.1000  1.6000   1
   2 -17  -4 31.9000  2.4000   1
   2 -17  -5 -1.6000  1.9000   1
   2 -17  -6 35.8000  2.6000   1
   2 -17  -7  6.2000  2.1000   1
   2 -17  -8 11.6000  2.1000   1
  -2  17   8 16.7000  5.0000   1
   2 -17  -9 13.8000  2.6000   1
  -2  17   9  9.2000  4.1000   1
   2 -17 -10  7.7000  2.4000   1
  -2  17  10  9.0000  4.4000   1
   2 -17 -11 -0.1000  3.8000   1
  -2  17  11  6.8000  4.8000   1
   2 -17 -12 24.1000  4.5000   1
  -2  17  12 23.4000  6.0000   1
   2 -17 -13  0.0000  3.7000   1
  -2  17  13 -0.8000  5.2000   1
   2 -17 -14 14.4000  4.6000   1
  -2  17  14 11.4000  6.3000   1
   2 -17 -15 26.2000  7.9000   1
  -2  17  15 32.3000  7.5000   1
   2 -17 -16  2.6000  7.7000   1
  -2  17  16  9.3000  7.8000   1
   2 -18  12 33.8000 10.2000   1
  -2  18 -12 30.9000  9.1000   1
   2 -18  11  8.4000  8.4000   1
  -2  18 -11 11.0000  7.1000   1
   2 -18  10 33.7000  9.8000   1
  -2  18 -10 34.9000  8.6000   1
   2 -18   9  2.7000  3.2000   1
  -2  18  -9  9.3000  6.7000   1
   2 -18   8 36.1000  4.6000   1
  -2  18  -8 40.7000  8.1000   1
   2 -18   7  4.8000  3.7000   1
   2 -18   6 88.6000  5.4000   1
   2 -18   5  4.7000  3.1000   1
   2 -18   4 214.800   5.700   1
   2 -18   3  3.7000  1.8000   1
   2 -18   2 12.3000  1.8000   1
   2 -18   1  9.5000  2.0000   1
   2 -18   0 174.600   4.500   1
   2 -18  -1 -1.1000  1.6000   1
   2 -18  -2 122.100   4.200   1
   2 -18  -3 70.3000  3.5000   1
   2 -18  -4 10.1000  2.0000   1
   2 -18  -5  1.0000  1.8000   1
   2 -18  -6 75.2000  7.3000   1
   2 -18  -7  1.3000  2.2000   1
   2 -18  -8  4.5000  2.5000   1
   2 -18  -9  7.2000  2.4000   1
  -2  18   9 10.0000  4.3000   1
   2 -18 -10 117.200  10.100   1
  -2  18  10 103.200   8.300   1
   2 -18 -11 10.4000  5.7000   1
  -2  18  11 -1.6000  4.8000   1
   2 -18 -12 -2.0000  3.7000   1
  -2  18  12  3.7000  5.4000   1
   2 -18 -13  8.0000  5.3000   1
  -2  18  13  1.6000  6.6000   1
   2 -18 -14 88.6000 10.3000   1
  -2  18  14 88.8000 10.7000   1
   2 -18 -15 -2.4000  6.8000   1
  -2  18  15-13.0000  6.7000   1
   2 -19  10 12.6000  8.7000   1
  -2  19 -10  9.3000  7.7000   1
   2 -19   9  1.2000  7.9000   1
   2 -19   8 25.1000  5.2000   1
   2 -19   7  0.4000  4.2000   1
   2 -19   6  3.0000  3.9000   1
   2 -19   5  2.5000  3.3000   1
   2 -19   4 12.1000  3.9000   1
   2 -19   3  7.2000  2.2000   1
   2 -19   2 -1.5000  1.9000   1
   2 -19   1  3.1000  2.4000   1
   2 -19   0 -0.8000  2.1000   1
   2 -19  -1  0.1000  2.1000   1
   2 -19  -2 30.4000  2.7000   1
   2 -19  -3 18.2000  2.4000   1
   2 -19  -4  0.4000  2.7000   1
   2 -19  -5  7.1000  2.5000   1
   2 -19  -6  0.2000  2.8000   1
   2 -19  -7  4.0000  2.7000   1
   2 -19  -8 45.4000  4.0000   1
   2 -19  -9  2.4000  6.4000   1
   2 -19 -10  3.0000  6.7000   1
  -2  19  10 -4.3000  4.5000   1
   2 -19 -11  9.8000  6.2000   1
  -2  19  11  3.8000  5.1000   1
   2 -19 -12 45.0000  5.1000   1
  -2  19  12 31.2000  6.9000   1
   2 -19 -13  5.1000  6.3000   1
  -2  19  13  6.4000  5.9000   1
   2 -20   9  9.7000  8.8000   1
   2 -20   8 -1.7000  5.8000   1
   2 -20   7  5.9000  5.0000   1
   2 -20   6  8.4000  5.0000   1
   2 -20   5 24.0000  4.4000   1
   2 -20   4  7.1000  3.9000   1
   2 -20   3  2.3000  3.4000   1
   2 -20   2 26.1000  3.0000   1
   2 -20   1 -0.5000  2.7000   1
   2 -20   0 45.4000  3.6000   1
   2 -20  -1 -3.3000  2.7000   1
   2 -20  -2  4.1000  2.7000   1
   2 -20  -3  5.3000  2.8000   1
   2 -20  -4  9.4000  2.9000   1
   2 -20  -5  6.8000  3.5000   1
   2 -20  -6  2.6000  2.8000   1
   2 -20  -7 -0.7000  2.8000   1
   2 -20  -8 -4.6000  6.5000   1
   2 -20  -9  3.1000  6.5000   1
   2 -20 -10  5.6000  7.0000   1
   2 -20 -11  3.3000  6.8000   1
  -2  20  11  2.2000  5.6000   1
   2 -20 -12  9.9000  6.2000   1
  -2  20  12 10.2000  6.1000   1
   2 -21   6  0.4000  5.0000   1
   2 -21   5 -7.1000  4.9000   1
   2 -21   4  6.8000  4.8000   1
   2 -21   3 20.0000  5.1000   1
   2 -21   2 35.4000  6.0000   1
   2 -21   1  2.8000  4.6000   1
   2 -21   0 12.5000  3.1000   1
   2 -21  -1  8.2000  3.2000   1
   2 -21  -2  1.2000  3.0000   1
   2 -21  -3  1.2000  2.7000   1
   2 -21  -4  2.3000  3.3000   1
   2 -21  -5 23.6000  4.0000   1
   2 -21  -6 -8.7000  4.9000   1
   2 -21  -7 58.3000 10.2000   1
   2 -21  -8 -1.6000  5.0000   1
   2 -21  -9  1.5000  7.3000   1
   2 -22   3 12.8000  5.6000   1
   2 -22   2  1.2000  5.1000   1
   2 -22   1  9.2000  5.3000   1
   2 -22   0 21.3000  5.5000   1
   2 -22  -1 10.8000  4.6000   1
   2 -22  -2 12.5000  4.6000   1
   2 -22  -3 -2.5000  3.8000   1
   2 -22  -4 14.9000  4.2000   1
   2 -22  -5 -3.3000  5.9000   1
   2 -22  -6 12.6000  6.3000   1
   3   0  20 13.9000  9.0000   1
   3   0  19 -3.0000  4.0000   1
   3   0  18 58.9000  5.8000   1
   3   0  17  2.0000  4.0000   1
   3   0  16 112.300   7.500   1
   3   0  15  0.3000  0.9000   1
   3   0  14 472.700  16.200   1
   3   0  13  0.7000  1.4000   1
   3   0  12 706.800  21.100   1
   3   0  11 -0.9000  1.3000   1
   3   0  10 473.500  13.400   1
   3   0   9  0.9000  1.2000   1
   3   0   8 416.300  10.600   1
   3   0   7 -0.3000  0.9000   1
   3   0   6 324.900   8.100   1
   3   0   5  0.4000  0.9000   1
   3   0   4 1749.60   35.90   1
   3   0   3 -0.6000  0.6000   1
   3   0   2 134.700   2.600   1
   3   0   1  0.3000  0.6000   1
   3   0   0 80.4000  1.8000   1
   3   0  -1  3.1000  0.7000   1
   3   0  -2  6.0000  0.8000   1
   3   0  -3  3.6000  0.8000   1
   3   0  -4 1121.00   24.00   1
   3   0  -5 -1.6000  1.1000   1
   3   0  -6 617.400  13.500   1
   3   0  -7  0.7000  0.9000   1
   3   0  -8 118.600   3.000   1
   3   0  -9  0.8000  1.0000   1
   3   0 -10 31.5000  1.9000   1
   3   0 -11  2.1000  1.3000   1
   3   0 -12 39.6000  2.1000   1
   3   0 -13 -0.1000  1.5000   1
   3   0 -14 67.6000  2.8000   1
   3   0 -15  2.6000  1.8000   1
   3   0 -16 84.6000  4.4000   1
   3   0 -17  0.7000  1.9000   1
   3   0 -18 23.4000  3.0000   1
   3   0 -19  4.3000  3.3000   1
   3   0 -20 93.1000  6.3000   1
   3   0 -21  0.5000  3.3000   1
   3   0 -22 31.5000  6.3000   1
   3   0 -23  7.9000  6.5000   1
   3   0 -24  0.2000  6.2000   1
   3  -1  20 22.8000  5.3000   1
  -3   1 -20  7.3000  6.8000   1
   3  -1  19 -0.6000  3.6000   1
  -3   1 -19  2.1000  4.3000   1
   3  -1  18  3.4000  4.8000   1
  -3   1 -18 -0.2000  3.5000   1
   3  -1  17 48.4000  4.7000   1
  -3   1 -17 51.2000  5.4000   1
   3  -1  16 -0.6000  1.9000   1
  -3   1 -16 -0.5000  3.2000   1
   3  -1  15 10.7000  1.4000   1
  -3   1 -15 10.6000  3.9000   1
   3  -1  14 88.2000  3.9000   1
  -3   1 -14 89.4000  7.4000   1
   3  -1  13 42.8000  2.9000   1
  -3   1 -13 38.8000  3.8000   1
   3  -1  12 277.400   8.500   1
  -3   1 -12 292.600  12.600   1
   3  -1  11 15.4000  1.9000   1
  -3   1 -11 17.0000  2.7000   1
   3  -1  10 10.0000  1.6000   1
  -3   1 -10 10.2000  0.8000   1
   3  -1   9 121.200   4.300   1
  -3   1  -9 122.100   3.600   1
   3  -1   8 23.2000  1.9000   1
  -3   1  -8 23.0000  1.2000   1
   3  -1   7 83.8000  2.9000   1
  -3   1  -7 82.8000  2.3000   1
   3  -1   6 133.500   3.400   1
  -3   1  -6 133.300   3.300   1
   3  -1   5 92.7000  4.4000   1
  -3   1  -5 94.0000  2.6000   1
   3  -1   4 481.800  10.900   1
  -3   1  -4 498.000  10.600   1
   3  -1   3 91.0000  2.1000   1
  -3   1  -3 89.1000  2.0000   1
   3  -1   2 594.400  10.200   1
  -3   1  -2 595.900  10.700   1
   3  -1   1 300.400   6.000   1
  -3   1  -1 302.100   5.400   1
   3  -1   0 51.7000  1.7000   1
  -3   1   0 55.9000  1.3000   1
   3  -1  -1 167.800   3.400   1
  -3   1   1 161.800   3.500   1
   3  -1  -2 163.700   3.700   1
  -3   1   2 170.400   4.000   1
   3  -1  -3 2842.80   56.70   1
  -3   1   3 2811.70   59.40   1
   3  -1  -4  0.2000  0.7000   1
  -3   1   4  0.3000  0.6000   1
   3  -1  -5 125.900   3.000   1
  -3   1   5 129.800   4.300   1
   3  -1  -6  4.1000  0.8000   1
  -3   1   6  1.9000  0.8000   1
   3  -1  -7 226.200   5.400   1
  -3   1   7 221.700   4.600   1
   3  -1  -8 237.400   4.800   1
  -3   1   8 235.900   5.200   1
   3  -1  -9 44.5000  1.6000   1
  -3   1   9 46.6000  2.0000   1
   3  -1 -10  0.2000  1.1000   1
  -3   1  10 -1.9000  1.3000   1
   3  -1 -11 374.800   9.300   1
  -3   1  11 376.600   9.500   1
   3  -1 -12  1.6000  1.4000   1
  -3   1  12  0.1000  1.3000   1
   3  -1 -13  2.4000  1.8000   1
  -3   1  13  6.3000  1.6000   1
   3  -1 -14 11.5000  1.8000   1
  -3   1  14  7.8000  1.9000   1
   3  -1 -15 122.200   4.500   1
  -3   1  15 112.000   4.400   1
   3  -1 -16 57.7000  3.3000   1
  -3   1  16 55.3000  3.2000   1
   3  -1 -17 18.6000  3.0000   1
  -3   1  17 21.4000  2.3000   1
   3  -1 -18 26.9000  2.9000   1
  -3   1  18 20.6000  2.8000   1
   3  -1 -19  3.9000  2.8000   1
  -3   1  19  4.9000  2.6000   1
   3  -1 -20 11.7000  3.4000   1
  -3   1  20  9.8000  3.0000   1
   3  -1 -21  4.5000  3.2000   1
  -3   1  21  3.3000  3.5000   1
   3  -1 -22 28.0000  4.1000   1
  -3   1  22 35.4000  7.9000   1
   3  -1 -23  7.0000  6.5000   1
  -3   1  23 -2.4000  5.8000   1
   3  -1 -24 12.6000  7.3000   1
  -3   1  24  1.5000  6.3000   1
   3  -2  20  4.4000  4.6000   1
  -3   2 -20  2.8000  8.8000   1
   3  -2  19 20.5000  5.1000   1
  -3   2 -19 17.6000  7.9000   1
   3  -2  18 25.0000  4.8000   1
  -3   2 -18 25.5000  4.9000   1
   3  -2  17 16.4000  4.3000   1
  -3   2 -17 11.5000  3.9000   1
   3  -2  16  6.6000  1.7000   1
  -3   2 -16  8.2000  2.4000   1
   3  -2  15 231.600  10.700   1
  -3   2 -15 217.400  11.200   1
   3  -2  14  3.9000  2.4000   1
  -3   2 -14 -3.0000  3.2000   1
   3  -2  13 402.700  14.100   1
  -3   2 -13 397.700  16.600   1
   3  -2  12 177.300   7.400   1
  -3   2 -12 185.900   7.700   1
   3  -2  11 -1.3000  1.6000   1
  -3   2 -11  2.4000  2.2000   1
   3  -2  10 100.100   4.400   1
  -3   2 -10 109.600   4.700   1
   3  -2   9 141.600   4.900   1
  -3   2  -9 139.400   4.500   1
   3  -2   8 130.900   4.700   1
  -3   2  -8 128.400   4.500   1
   3  -2   7  2.1000  1.4000   1
  -3   2  -7  1.2000  1.2000   1
   3  -2   6 25.8000  1.6000   1
  -3   2  -6 27.1000  1.6000   1
   3  -2   5 133.500   3.700   1
  -3   2  -5 120.300   3.800   1
   3  -2   4  0.7000  1.0000   1
  -3   2  -4  1.9000  1.0000   1
   3  -2   3 132.500   2.900   1
  -3   2  -3 134.300   3.300   1
   3  -2   2 29.5000  0.9000   1
  -3   2  -2 29.3000  1.3000   1
   3  -2   1  6.9000  0.6000   1
  -3   2  -1  5.8000  0.7000   1
   3  -2   0  4.2000  0.7000   1
  -3   2   0  3.6000  0.7000   1
   3  -2  -1 467.600  10.100   1
  -3   2   1 474.500  13.900   1
   3  -2  -2 425.300   8.600   1
  -3   2   2 429.100  10.300   1
   3  -2  -3 646.700  13.700   1
  -3   2   3 635.200  16.100   1
   3  -2  -4 -0.1000  0.8000   1
  -3   2   4 -0.5000  0.9000   1
   3  -2  -5 727.200  19.100   1
  -3   2   5 726.800  16.900   1
   3  -2  -6 414.300   9.300   1
  -3   2   6 407.700   8.100   1
   3  -2  -7 132.200   3.700   1
  -3   2   7 135.800   3.400   1
   3  -2  -8 172.000   3.700   1
  -3   2   8 169.100   4.500   1
   3  -2  -9 1183.70   26.20   1
  -3   2   9 1186.10   27.40   1
   3  -2 -10 55.7000  1.8000   1
  -3   2  10 60.2000  3.1000   1
   3  -2 -11 41.9000  2.5000   1
  -3   2  11 45.1000  2.8000   1
   3  -2 -12 13.3000  1.8000   1
  -3   2  12  7.9000  1.4000   1
   3  -2 -13 474.100  13.000   1
  -3   2  13 459.100  13.700   1
   3  -2 -14 229.300   6.700   1
  -3   2  14 231.900   7.200   1
   3  -2 -15 192.900   7.400   1
  -3   2  15 182.000   6.000   1
   3  -2 -16 57.3000  3.4000   1
  -3   2  16 53.5000  3.1000   1
   3  -2 -17 46.7000  3.4000   1
  -3   2  17 57.7000  3.1000   1
   3  -2 -18 155.500   7.100   1
  -3   2  18 170.900   7.000   1
   3  -2 -19 -0.1000  3.4000   1
  -3   2  19 -1.2000  2.1000   1
   3  -2 -20 29.9000  3.8000   1
  -3   2  20 21.2000  2.8000   1
   3  -2 -21  6.8000  3.8000   1
  -3   2  21  2.2000  2.5000   1
   3  -2 -22  3.6000  3.8000   1
  -3   2  22  2.3000  5.2000   1
   3  -2 -23 -2.1000  8.5000   1
  -3   2  23  4.4000  5.8000   1
   3  -2 -24 18.9000 10.6000   1
  -3   2  24 13.8000  6.2000   1
   3  -3  19 16.2000  5.3000   1
  -3   3 -19  7.3000  6.1000   1
   3  -3  18 16.1000  4.9000   1
  -3   3 -18 35.1000  4.3000   1
   3  -3  17  6.4000  4.3000   1
  -3   3 -17 -0.7000  3.7000   1
   3  -3  16 37.5000  2.9000   1
  -3   3 -16 38.6000  3.8000   1
   3  -3  15  2.6000  2.7000   1
  -3   3 -15  8.1000  2.0000   1
   3  -3  14 139.000   7.500   1
  -3   3 -14 135.800   5.600   1
   3  -3  13  0.5000  2.4000   1
  -3   3 -13  0.4000  2.2000   1
   3  -3  12 11.8000  2.3000   1
  -3   3 -12 16.5000  2.7000   1
   3  -3  11 10.0000  2.0000   1
  -3   3 -11  8.3000  1.7000   1
   3  -3  10 -3.0000  2.1000   1
  -3   3 -10  2.5000  1.4000   1
   3  -3   9  0.9000  1.7000   1
  -3   3  -9  4.6000  2.1000   1
   3  -3   8  1.3000  1.4000   1
  -3   3  -8  1.5000  1.3000   1
   3  -3   7 32.3000  2.0000   1
  -3   3  -7 32.4000  1.8000   1
   3  -3   6 162.100   5.000   1
  -3   3  -6 160.800   5.300   1
   3  -3   5 98.1000  3.5000   1
  -3   3  -5 100.600   3.900   1
   3  -3   4 623.500  13.900   1
  -3   3  -4 599.400  14.400   1
   3  -3   3 13.6000  0.7000   1
  -3   3  -3 12.4000  1.0000   1
   3  -3   2 211.100   3.900   1
  -3   3  -2 214.100   5.300   1
   3  -3   1 561.000  10.000   1
  -3   3  -1 549.900  11.300   1
   3  -3   0 24.4000  1.1000   1
  -3   3   0 24.6000  0.9000   1
   3  -3  -1 373.300   9.800   1
  -3   3   1 369.500   8.100   1
   3  -3  -2  2.9000  0.9000   1
  -3   3   2  3.0000  1.0000   1
   3  -3  -3 23.7000  1.3000   1
  -3   3   3 22.0000  1.3000   1
   3  -3  -4 33.6000  1.6000   1
  -3   3   4 38.1000  1.4000   1
   3  -3  -5 227.300   5.400   1
  -3   3   5 225.200   5.400   1
   3  -3  -6 14.2000  1.3000   1
  -3   3   6 14.5000  1.1000   1
   3  -3  -7 2079.60   46.60   1
  -3   3   7 2068.00   51.50   1
   3  -3  -8 77.2000  2.9000   1
  -3   3   8 80.8000  2.9000   1
   3  -3  -9 586.700  12.300   1
  -3   3   9 576.900  19.700   1
   3  -3 -10  4.0000  1.1000   1
  -3   3  10  6.1000  1.2000   1
   3  -3 -11 963.200  18.000   1
  -3   3  11 938.600  23.200   1
   3  -3 -12  4.3000  1.2000   1
  -3   3  12  6.6000  1.5000   1
   3  -3 -13 273.700   7.200   1
  -3   3  13 284.400   8.300   1
   3  -3 -14 11.7000  1.9000   1
  -3   3  14 14.3000  1.9000   1
   3  -3 -15  8.9000  1.7000   1
  -3   3  15  5.9000  1.7000   1
   3  -3 -16 61.9000  4.5000   1
  -3   3  16 62.8000  3.5000   1
   3  -3 -17 18.6000  3.2000   1
  -3   3  17 21.2000  2.4000   1
   3  -3 -18 59.0000  4.8000   1
  -3   3  18 59.2000  3.9000   1
   3  -3 -19  8.2000  4.1000   1
  -3   3  19  8.1000  3.1000   1
   3  -3 -20 -2.4000  3.5000   1
  -3   3  20  2.3000  3.0000   1
   3  -3 -21 13.0000  3.8000   1
  -3   3  21 24.0000  3.3000   1
   3  -3 -22  7.3000  3.4000   1
  -3   3  22 10.9000  7.3000   1
   3  -3 -23  0.1000  8.2000   1
  -3   3  23  7.4000  6.0000   1
   3  -3 -24 21.8000  9.9000   1
  -3   3  24 12.3000  7.0000   1
   3  -4  19  2.6000  5.2000   1
  -3   4 -19  1.3000  6.2000   1
   3  -4  18 17.2000  4.9000   1
  -3   4 -18  9.4000  7.5000   1
   3  -4  17 14.7000  4.0000   1
  -3   4 -17 18.4000  3.8000   1
   3  -4  16  0.3000  3.0000   1
  -3   4 -16  5.4000  2.5000   1
   3  -4  15 -2.8000  3.0000   1
  -3   4 -15  0.6000  1.8000   1
   3  -4  14 34.5000  4.1000   1
  -3   4 -14 32.2000  2.9000   1
   3  -4  13 42.3000  3.7000   1
  -3   4 -13 49.4000  2.6000   1
   3  -4  12 -2.7000  2.0000   1
  -3   4 -12  0.7000  1.2000   1
   3  -4  11 102.100   4.900   1
  -3   4 -11 102.500   4.100   1
   3  -4  10 319.000   9.900   1
  -3   4 -10 326.100  12.100   1
   3  -4   9 535.700  15.900   1
  -3   4  -9 523.000  14.300   1
   3  -4   8 44.0000  2.5000   1
  -3   4  -8 43.4000  2.5000   1
   3  -4   7 523.800  13.800   1
  -3   4  -7 525.300  12.800   1
   3  -4   6 19.3000  1.7000   1
  -3   4  -6 18.0000  1.3000   1
   3  -4   5 162.100   4.600   1
  -3   4  -5 151.000   4.700   1
   3  -4   4 39.1000  1.3000   1
  -3   4  -4 37.1000  1.6000   1
   3  -4   3 634.000  11.200   1
  -3   4  -3 608.700  15.200   1
   3  -4   2 130.800   3.100   1
  -3   4  -2 126.500   3.400   1
   3  -4   1  0.9000  0.6000   1
  -3   4  -1  0.2000  0.7000   1
   3  -4   0  2.1000  0.8000   1
  -3   4   0 -1.0000  0.6000   1
   3  -4  -1 1297.90   25.10   1
  -3   4   1 1326.30   32.00   1
   3  -4  -2 141.700   3.800   1
  -3   4   2 143.600   5.200   1
   3  -4  -3 453.700  11.700   1
  -3   4   3 439.000  10.600   1
   3  -4  -4 237.700   5.700   1
  -3   4   4 244.600   5.500   1
   3  -4  -5 116.700   3.300   1
  -3   4   5 124.900   4.100   1
   3  -4  -6 11.5000  1.2000   1
  -3   4   6 13.1000  1.2000   1
   3  -4  -7 1400.20   28.40   1
  -3   4   7 1379.50   44.30   1
   3  -4  -8 12.8000  1.2000   1
  -3   4   8 11.9000  1.3000   1
   3  -4  -9  1.1000  0.8000   1
  -3   4   9  1.1000  1.1000   1
   3  -4 -10 259.300   5.700   1
  -3   4  10 267.500   6.800   1
   3  -4 -11 76.8000  2.4000   1
  -3   4  11 80.9000  2.9000   1
   3  -4 -12  0.7000  1.0000   1
  -3   4  12  2.6000  1.6000   1
   3  -4 -13 76.0000  3.4000   1
  -3   4  13 74.7000  3.2000   1
   3  -4 -14 44.0000  3.3000   1
  -3   4  14 41.4000  2.6000   1
   3  -4 -15 140.300   5.300   1
  -3   4  15 149.000   5.400   1
   3  -4 -16 91.9000  6.3000   1
  -3   4  16 85.3000  4.0000   1
   3  -4 -17 82.8000  4.7000   1
  -3   4  17 74.6000  3.8000   1
   3  -4 -18 18.8000  4.4000   1
  -3   4  18 18.3000  2.5000   1
   3  -4 -19  3.2000  3.1000   1
  -3   4  19 -2.0000  2.8000   1
   3  -4 -20 36.0000  4.9000   1
  -3   4  20 54.8000  4.4000   1
   3  -4 -21 -4.9000  3.3000   1
  -3   4  21  1.4000  6.6000   1
   3  -4 -22 26.2000  9.4000   1
  -3   4  22 18.9000  8.4000   1
   3  -4 -23  7.5000  8.5000   1
  -3   4  23 23.4000  9.0000   1
  -3   4  24 -3.0000  6.7000   1
   3  -5  19 -6.6000  4.9000   1
  -3   5 -19  6.7000  7.9000   1
   3  -5  18 15.7000  3.8000   1
  -3   5 -18 43.3000  9.7000   1
   3  -5  17  8.9000  3.4000   1
  -3   5 -17 18.2000  7.8000   1
   3  -5  16 -1.5000  3.3000   1
  -3   5 -16 -3.2000  2.4000   1
   3  -5  15 77.5000  6.5000   1
  -3   5 -15 83.4000  3.7000   1
   3  -5  14  0.0000  3.0000   1
  -3   5 -14  2.2000  2.0000   1
   3  -5  13 15.5000  2.6000   1
  -3   5 -13 20.1000  1.7000   1
   3  -5  12 62.7000  3.6000   1
  -3   5 -12 67.9000  2.7000   1
   3  -5  11 609.000  17.900   1
  -3   5 -11 608.000  17.000   1
   3  -5  10 288.600  10.000   1
  -3   5 -10 292.600   8.100   1
   3  -5   9 23.9000  2.3000   1
  -3   5  -9 24.3000  1.4000   1
   3  -5   8 62.7000  3.0000   1
  -3   5  -8 61.3000  2.7000   1
   3  -5   7 418.700  10.700   1
  -3   5  -7 423.200  14.200   1
   3  -5   6 -2.9000  1.3000   1
  -3   5  -6  1.8000  0.8000   1
   3  -5   5 -0.2000  0.4000   1
  -3   5  -5  1.4000  0.6000   1
   3  -5   4  0.9000  1.2000   1
  -3   5  -4  0.9000  0.6000   1
   3  -5   3 86.9000  2.2000   1
  -3   5  -3 90.8000  2.7000   1
   3  -5   2 323.200   9.400   1
  -3   5  -2 329.400  11.200   1
   3  -5   1 575.900  11.900   1
  -3   5  -1 578.900  16.900   1
   3  -5   0 68.1000  2.0000   1
  -3   5   0 71.5000  2.5000   1
   3  -5  -1 199.700   4.500   1
  -3   5   1 209.800   6.200   1
   3  -5  -2 519.100  12.500   1
  -3   5   2 540.200  13.100   1
   3  -5  -3 1144.50   25.20   1
  -3   5   3 1128.30   26.10   1
   3  -5  -4 312.400   7.400   1
  -3   5   4 306.100   9.700   1
   3  -5  -5 585.800  12.400   1
  -3   5   5 573.400  12.800   1
   3  -5  -6 241.100   5.500   1
  -3   5   6 234.500   5.900   1
   3  -5  -7 536.800  10.700   1
  -3   5   7 525.900  13.600   1
   3  -5  -8 221.900   5.500   1
  -3   5   8 217.600   6.800   1
   3  -5  -9 349.300   8.000   1
  -3   5   9 369.800   9.800   1
   3  -5 -10 49.6000  2.0000   1
  -3   5  10 56.5000  2.4000   1
   3  -5 -11 73.7000  2.4000   1
  -3   5  11 80.9000  3.1000   1
   3  -5 -12  3.8000  1.3000   1
  -3   5  12 -2.3000  1.4000   1
   3  -5 -13 729.900  17.100   1
  -3   5  13 716.600  17.500   1
   3  -5 -14  1.3000  2.1000   1
  -3   5  14 -0.4000  1.6000   1
   3  -5 -15 18.5000  2.3000   1
  -3   5  15 23.6000  2.4000   1
   3  -5 -16 42.0000  4.6000   1
  -3   5  16 40.5000  2.6000   1
   3  -5 -17 100.000   6.800   1
  -3   5  17 112.200   5.500   1
   3  -5 -18 11.1000  2.9000   1
  -3   5  18  6.0000  2.2000   1
   3  -5 -19  5.0000  3.6000   1
  -3   5  19  1.5000  2.6000   1
   3  -5 -20  8.2000  5.0000   1
  -3   5  20  3.8000  2.3000   1
   3  -5 -21  2.1000  4.2000   1
  -3   5  21  1.1000  6.3000   1
   3  -5 -22  4.9000  4.2000   1
  -3   5  22 -6.8000  6.9000   1
   3  -5 -23 16.8000  7.0000   1
  -3   5  23 27.7000  9.8000   1
   3  -6  19 10.7000  5.8000   1
  -3   6 -19  9.1000  8.4000   1
   3  -6  18  1.1000  5.1000   1
  -3   6 -18 13.5000  7.3000   1
   3  -6  17 -0.5000  3.1000   1
  -3   6 -17 -0.3000  7.1000   1
   3  -6  16  8.1000  3.5000   1
   3  -6  15  8.4000  3.1000   1
  -3   6 -15  3.8000  2.0000   1
   3  -6  14 13.2000  2.8000   1
  -3   6 -14 13.5000  1.5000   1
   3  -6  13 27.2000  3.6000   1
  -3   6 -13 24.7000  1.7000   1
   3  -6  12 21.8000  3.1000   1
  -3   6 -12 22.8000  1.4000   1
   3  -6  11 58.8000  3.6000   1
  -3   6 -11 65.7000  2.3000   1
   3  -6  10 395.900  12.800   1
  -3   6 -10 412.600  10.500   1
   3  -6   9 122.200   4.900   1
  -3   6  -9 137.900   3.300   1
   3  -6   8 264.900   9.300   1
  -3   6  -8 293.600  14.700   1
   3  -6   7 36.7000  2.4000   1
  -3   6  -7 42.7000  2.8000   1
   3  -6   6 258.700   5.400   1
  -3   6  -6 247.500   8.300   1
   3  -6   5 327.700   7.500   1
  -3   6  -5 308.700  10.400   1
   3  -6   4 114.300   3.500   1
  -3   6  -4 119.100   4.700   1
   3  -6   3 699.300  15.200   1
   3  -6   2  3.3000  0.6000   1
   3  -6   1 260.300   6.400   1
  -3   6  -1 247.700  16.300   1
   3  -6   0 453.100  14.000   1
  -3   6   0 447.500  21.000   1
   3  -6  -1 1576.00   31.90   1
  -3   6   1 1610.20   46.00   1
   3  -6  -2 701.000  15.400   1
  -3   6   2 717.500  22.000   1
   3  -6  -3 697.100  20.300   1
  -3   6   3 700.300  18.200   1
   3  -6  -4 376.500   8.600   1
  -3   6   4 381.600   9.200   1
   3  -6  -5 513.800  11.600   1
  -3   6   5 504.400  12.700   1
   3  -6  -6 247.400   5.400   1
  -3   6   6 245.700   6.800   1
   3  -6  -7 598.700  14.200   1
  -3   6   7 568.000  15.500   1
   3  -6  -8 44.0000  1.9000   1
  -3   6   8 41.0000  2.1000   1
   3  -6  -9 310.200   7.200   1
  -3   6   9 288.400   7.500   1
   3  -6 -10 10.9000  1.3000   1
  -3   6  10  9.8000  1.5000   1
   3  -6 -11 436.200   9.900   1
  -3   6  11 418.300  10.300   1
   3  -6 -12 16.0000  2.1000   1
  -3   6  12 17.2000  1.7000   1
   3  -6 -13 12.8000  1.6000   1
  -3   6  13 14.0000  1.7000   1
   3  -6 -14 31.9000  2.1000   1
  -3   6  14 35.4000  2.2000   1
   3  -6 -15 121.400   4.900   1
  -3   6  15 114.900   4.200   1
   3  -6 -16  0.4000  3.1000   1
  -3   6  16  4.5000  1.9000   1
   3  -6 -17  3.1000  5.0000   1
  -3   6  17 30.0000  2.7000   1
   3  -6 -18 -3.8000  4.2000   1
  -3   6  18  2.8000  1.9000   1
   3  -6 -19 -0.3000  3.3000   1
  -3   6  19  1.9000  2.5000   1
   3  -6 -20 106.000   7.000   1
  -3   6  20 109.800   6.300   1
   3  -6 -21 11.1000  4.6000   1
  -3   6  21  9.8000  7.7000   1
   3  -6 -22 22.5000  6.4000   1
  -3   6  22 14.4000  6.4000   1
   3  -6 -23 -3.4000  9.5000   1
  -3   6  23  8.4000  9.0000   1
   3  -7  19 29.7000  5.3000   1
  -3   7 -19 39.7000 10.0000   1
   3  -7  18 38.6000  6.2000   1
  -3   7 -18 50.2000  9.5000   1
   3  -7  17  1.2000  3.5000   1
  -3   7 -17  1.4000  7.0000   1
   3  -7  16 31.8000  4.6000   1
   3  -7  15  1.3000  3.4000   1
  -3   7 -15  1.1000  6.0000   1
   3  -7  14 26.2000  3.7000   1
  -3   7 -14 31.4000  7.3000   1
   3  -7  13 18.4000  3.4000   1
   3  -7  12  9.2000  3.0000   1
   3  -7  11  4.8000  2.4000   1
  -3   7 -11  6.1000  4.0000   1
   3  -7  10 39.8000  2.8000   1
   3  -7   9 339.200  10.100   1
   3  -7   8 111.300   4.000   1
   3  -7   7  7.6000  0.7000   1
   3  -7   6 45.4000  2.4000   1
   3  -7   5 216.400   5.200   1
  -3   7  -5 210.000  10.000   1
   3  -7   4 -0.7000  1.2000   1
  -3   7  -4  1.0000  2.9000   1
   3  -7   3 14.9000  0.7000   1
  -3   7  -3 16.4000  2.9000   1
   3  -7   2 12.1000  0.8000   1
   3  -7   1 96.7000  2.9000   1
  -3   7  -1 82.3000  4.9000   1
   3  -7   0 415.100  10.400   1
  -3   7   0 380.800  22.100   1
   3  -7  -1 -0.3000  1.1000   1
  -3   7   1 -2.0000  2.6000   1
   3  -7  -2 431.700  11.600   1
  -3   7   2 440.300  13.400   1
   3  -7  -3 38.6000  1.6000   1
  -3   7   3 38.4000  1.6000   1
   3  -7  -4 37.5000  2.6000   1
  -3   7   4 38.2000  1.6000   1
   3  -7  -5 362.600   8.000   1
  -3   7   5 383.000  10.800   1
   3  -7  -6 142.800   4.000   1
  -3   7   6 145.200   4.400   1
   3  -7  -7 41.9000  1.8000   1
  -3   7   7 48.4000  2.2000   1
   3  -7  -8 106.700   3.100   1
  -3   7   8 105.800   3.500   1
   3  -7  -9 79.0000  2.6000   1
  -3   7   9 82.2000  3.2000   1
   3  -7 -10 25.9000  1.7000   1
  -3   7  10 24.1000  1.8000   1
   3  -7 -11 118.900   3.800   1
  -3   7  11 117.500   4.000   1
   3  -7 -12 59.8000  3.0000   1
  -3   7  12 63.4000  2.9000   1
   3  -7 -13  8.0000  1.5000   1
  -3   7  13  6.9000  1.7000   1
   3  -7 -14 53.3000  2.4000   1
  -3   7  14 55.2000  2.9000   1
   3  -7 -15  3.4000  1.6000   1
  -3   7  15  3.3000  1.9000   1
   3  -7 -16  9.2000  2.3000   1
  -3   7  16 11.0000  1.9000   1
   3  -7 -17 111.500   9.000   1
  -3   7  17 94.9000  4.2000   1
   3  -7 -18  6.1000  6.1000   1
  -3   7  18  7.5000  2.4000   1
   3  -7 -19 19.5000  5.2000   1
  -3   7  19 18.2000  2.8000   1
   3  -7 -20 10.0000  4.4000   1
  -3   7  20 21.1000  6.1000   1
   3  -7 -21 16.1000  6.7000   1
  -3   7  21 16.8000  8.1000   1
   3  -7 -22 20.2000  8.5000   1
  -3   7  22 15.9000  8.4000   1
   3  -7 -23  4.3000  9.0000   1
  -3   7  23 -5.8000  8.5000   1
   3  -8  18 -2.8000  3.6000   1
  -3   8 -18  0.4000  7.4000   1
   3  -8  17 -2.1000  3.5000   1
  -3   8 -17  7.5000  7.2000   1
   3  -8  16  9.3000  3.1000   1
  -3   8 -16 -7.7000  6.7000   1
   3  -8  15  0.7000  3.8000   1
  -3   8 -15 -8.3000  6.2000   1
   3  -8  14 34.2000  3.8000   1
  -3   8 -14 26.3000  6.8000   1
   3  -8  13 -0.1000  3.0000   1
   3  -8  12 45.7000  4.2000   1
  -3   8 -12 37.9000  5.8000   1
   3  -8  11 11.1000  2.9000   1
  -3   8 -11 12.0000  5.8000   1
   3  -8  10 134.600   5.700   1
  -3   8 -10 147.700   9.700   1
   3  -8   9 402.000  12.500   1
  -3   8  -9 414.600  19.200   1
   3  -8   8 24.4000  2.4000   1
   3  -8   7 74.7000  2.4000   1
  -3   8  -7 66.3000  5.5000   1
   3  -8   6 62.3000  2.3000   1
   3  -8   5 153.100   5.000   1
  -3   8  -5 138.400   6.700   1
   3  -8   4  6.2000  1.2000   1
  -3   8  -4  6.8000  2.4000   1
   3  -8   3  6.0000  0.6000   1
   3  -8   2  0.8000  0.6000   1
   3  -8   1 519.400  13.200   1
  -3   8  -1 511.300  19.100   1
   3  -8   0 266.400   6.900   1
   3  -8  -1 338.600   9.000   1
  -3   8   1 352.200  21.700   1
   3  -8  -2  0.9000  1.2000   1
  -3   8   2 -3.2000  1.9000   1
   3  -8  -3 12.9000  1.5000   1
  -3   8   3 17.0000  1.1000   1
   3  -8  -4 403.700   9.400   1
  -3   8   4 401.800  10.000   1
   3  -8  -5  9.2000  1.1000   1
  -3   8   5  7.3000  1.1000   1
   3  -8  -6 50.7000  2.2000   1
  -3   8   6 50.7000  2.2000   1
   3  -8  -7 57.9000  2.0000   1
  -3   8   7 50.8000  2.3000   1
   3  -8  -8 115.600   3.800   1
  -3   8   8 119.500   3.800   1
   3  -8  -9 46.5000  2.0000   1
  -3   8   9 44.4000  2.4000   1
   3  -8 -10  8.3000  1.3000   1
  -3   8  10 10.7000  1.6000   1
   3  -8 -11 13.6000  1.6000   1
  -3   8  11 12.3000  1.8000   1
   3  -8 -12 39.1000  2.0000   1
  -3   8  12 39.1000  2.4000   1
   3  -8 -13  7.1000  1.3000   1
  -3   8  13  4.4000  1.6000   1
   3  -8 -14 -0.1000  1.3000   1
  -3   8  14  2.6000  1.8000   1
   3  -8 -15 15.9000  2.2000   1
  -3   8  15 14.9000  2.1000   1
   3  -8 -16  4.2000  2.2000   1
  -3   8  16  4.2000  2.2000   1
   3  -8 -17  4.5000  2.8000   1
  -3   8  17  2.6000  2.0000   1
   3  -8 -18 11.8000  6.3000   1
  -3   8  18  9.1000  2.2000   1
   3  -8 -19 -0.2000  6.4000   1
  -3   8  19  0.5000  2.7000   1
   3  -8 -20 38.7000  6.1000   1
  -3   8  20 42.6000  9.1000   1
   3  -8 -21  3.7000  7.1000   1
  -3   8  21  1.3000  5.1000   1
  -3   8  22 30.3000  9.3000   1
   3  -8 -23  9.4000 10.1000   1
  -3   8  23 -3.5000  9.1000   1
   3  -9  18  2.1000  5.6000   1
  -3   9 -18  9.2000  8.2000   1
   3  -9  17  0.8000  3.0000   1
  -3   9 -17 -4.4000  7.3000   1
   3  -9  16 18.6000  4.0000   1
  -3   9 -16 25.0000  7.7000   1
   3  -9  15  5.1000  2.9000   1
  -3   9 -15  3.7000  6.5000   1
   3  -9  14  6.4000  3.3000   1
  -3   9 -14 22.0000  6.9000   1
   3  -9  13  2.8000  3.3000   1
  -3   9 -13  4.8000  4.4000   1
   3  -9  12 42.6000  3.7000   1
  -3   9 -12 44.4000  6.6000   1
   3  -9  11 -3.9000  2.5000   1
  -3   9 -11  0.0000  3.5000   1
   3  -9  10 69.7000  4.0000   1
  -3   9 -10 60.8000  7.2000   1
   3  -9   9 31.0000  3.6000   1
  -3   9  -9 48.9000  6.2000   1
   3  -9   8 132.300   4.200   1
   3  -9   7  1.1000  1.2000   1
   3  -9   6 26.3000  1.7000   1
  -3   9  -6 36.8000  4.7000   1
   3  -9   5  0.8000  1.3000   1
  -3   9  -5  0.3000  3.6000   1
   3  -9   4 19.4000  1.5000   1
  -3   9  -4 19.6000  4.0000   1
   3  -9   3 92.3000  3.2000   1
  -3   9  -3 86.3000  6.0000   1
   3  -9   2 71.9000  2.6000   1
  -3   9  -2 74.6000  5.7000   1
   3  -9   1 494.800  15.500   1
   3  -9   0 10.6000  1.5000   1
   3  -9  -1  1.6000  1.3000   1
   3  -9  -2 76.1000  2.4000   1
  -3   9   2 76.4000  6.4000   1
   3  -9  -3 111.200   3.300   1
  -3   9   3 115.300   4.100   1
   3  -9  -4 28.7000  2.1000   1
  -3   9   4 32.1000  1.6000   1
   3  -9  -5 29.3000  1.8000   1
  -3   9   5 28.0000  1.7000   1
   3  -9  -6 69.5000  3.3000   1
  -3   9   6 69.8000  2.7000   1
   3  -9  -7 48.5000  2.3000   1
  -3   9   7 43.0000  2.3000   1
   3  -9  -8 323.800   8.700   1
  -3   9   8 309.000   8.800   1
   3  -9  -9 90.6000  3.4000   1
  -3   9   9 81.7000  3.1000   1
   3  -9 -10  8.8000  1.4000   1
  -3   9  10  8.2000  1.7000   1
   3  -9 -11  1.3000  1.4000   1
  -3   9  11  1.4000  1.7000   1
   3  -9 -12 11.1000  1.7000   1
  -3   9  12 13.2000  2.0000   1
   3  -9 -13 24.8000  1.9000   1
  -3   9  13 25.2000  2.2000   1
   3  -9 -14  5.2000  1.7000   1
  -3   9  14 10.9000  2.0000   1
   3  -9 -15 22.2000  2.8000   1
  -3   9  15 18.3000  2.2000   1
   3  -9 -16 16.4000  3.2000   1
  -3   9  16 11.6000  2.0000   1
   3  -9 -17  9.4000  3.1000   1
  -3   9  17 12.1000  2.2000   1
   3  -9 -18 101.100   9.500   1
  -3   9  18 86.7000  4.1000   1
  -3   9  19  2.5000  5.9000   1
   3  -9 -20 -1.1000  6.9000   1
  -3   9  20 -4.4000  4.9000   1
   3  -9 -21  5.1000  6.1000   1
  -3   9  21 -5.0000  7.9000   1
   3  -9 -22 63.9000 11.0000   1
  -3   9  22 47.6000  8.1000   1
   3 -10  17  3.0000  3.5000   1
  -3  10 -17 -0.2000  7.8000   1
   3 -10  16  9.8000  5.0000   1
  -3  10 -16  3.8000  7.8000   1
   3 -10  15 -0.4000  4.4000   1
  -3  10 -15 -3.3000  4.8000   1
   3 -10  14 14.9000  3.1000   1
  -3  10 -14 12.9000  5.2000   1
   3 -10  13 33.3000  4.3000   1
  -3  10 -13 36.6000  7.0000   1
   3 -10  12 19.8000  3.2000   1
  -3  10 -12 16.8000  6.5000   1
   3 -10  11 24.9000  3.7000   1
  -3  10 -11 27.3000  7.0000   1
   3 -10  10  6.9000  2.6000   1
  -3  10 -10  7.0000  4.1000   1
   3 -10   9 24.2000  1.5000   1
  -3  10  -9 32.5000  6.0000   1
   3 -10   8 43.7000  2.2000   1
  -3  10  -8 36.8000  5.1000   1
   3 -10   7 33.0000  1.9000   1
  -3  10  -7 44.6000  4.6000   1
   3 -10   6  2.4000  1.2000   1
  -3  10  -6  3.3000  4.0000   1
   3 -10   5 17.0000  1.3000   1
   3 -10   4 20.8000  1.4000   1
   3 -10   3  8.7000  0.8000   1
  -3  10  -3 12.3000  3.7000   1
   3 -10   2  9.5000  0.9000   1
  -3  10  -2 11.7000  3.0000   1
   3 -10   1 46.5000  2.3000   1
   3 -10   0  7.0000  2.1000   1
   3 -10  -1 52.0000  2.6000   1
   3 -10  -2 16.7000  1.1000   1
   3 -10  -3  5.7000  1.7000   1
  -3  10   3 10.3000  3.4000   1
   3 -10  -4 29.1000  1.9000   1
  -3  10   4 32.2000  2.1000   1
   3 -10  -5  0.0000  1.2000   1
  -3  10   5  0.8000  1.3000   1
   3 -10  -6 25.9000  1.9000   1
  -3  10   6 25.9000  1.8000   1
   3 -10  -7  0.1000  1.4000   1
  -3  10   7  1.9000  1.4000   1
   3 -10  -8  3.1000  1.6000   1
  -3  10   8  2.4000  1.4000   1
   3 -10  -9 57.0000  3.0000   1
  -3  10   9 53.3000  2.6000   1
   3 -10 -10 140.800   4.700   1
  -3  10  10 140.300   4.600   1
   3 -10 -11 261.400   7.900   1
  -3  10  11 268.200   7.800   1
   3 -10 -12 -0.9000  1.4000   1
  -3  10  12 -0.2000  1.8000   1
   3 -10 -13 13.9000  1.7000   1
  -3  10  13 10.4000  1.8000   1
   3 -10 -14 21.7000  2.7000   1
  -3  10  14 19.7000  2.2000   1
   3 -10 -15 20.1000  2.1000   1
  -3  10  15 22.1000  2.2000   1
   3 -10 -16 104.100   5.800   1
  -3  10  16 113.200   4.600   1
   3 -10 -17 -6.7000  3.4000   1
  -3  10  17  3.6000  2.2000   1
   3 -10 -18  8.1000  3.8000   1
  -3  10  18  9.9000  3.0000   1
   3 -10 -19 15.3000  7.1000   1
  -3  10  19 20.7000  7.3000   1
   3 -10 -20  4.1000  5.3000   1
  -3  10  20 11.1000  6.7000   1
   3 -10 -21  0.4000  8.4000   1
  -3  10  21 15.7000  6.1000   1
   3 -10 -22  9.3000  7.1000   1
  -3  10  22 24.0000  9.6000   1
   3 -11  17 12.1000  4.4000   1
  -3  11 -17  4.6000  6.3000   1
   3 -11  16  2.7000  3.5000   1
  -3  11 -16  2.1000  5.2000   1
   3 -11  15  3.8000  3.6000   1
   3 -11  14  3.8000  3.8000   1
  -3  11 -14 10.1000  7.4000   1
   3 -11  13  2.5000  3.0000   1
  -3  11 -13 11.2000  6.8000   1
   3 -11  12 15.2000  3.1000   1
  -3  11 -12  8.4000  6.0000   1
   3 -11  11 66.7000  4.1000   1
  -3  11 -11 66.6000  7.8000   1
   3 -11  10  4.8000  1.2000   1
  -3  11 -10 -4.0000  5.6000   1
   3 -11   9 109.900   4.400   1
  -3  11  -9 104.800   7.900   1
   3 -11   8 12.3000  1.7000   1
  -3  11  -8 21.8000  5.3000   1
   3 -11   7  2.6000  1.3000   1
  -3  11  -7  7.0000  4.6000   1
   3 -11   6 10.3000  1.4000   1
  -3  11  -6 11.7000  2.9000   1
   3 -11   5 462.400  12.600   1
  -3  11  -5 453.100  18.600   1
   3 -11   4 -0.9000  1.1000   1
  -3  11  -4 10.9000  3.8000   1
   3 -11   3 37.2000  1.5000   1
  -3  11  -3 44.5000  4.8000   1
   3 -11   2 189.900   4.600   1
   3 -11   1 812.200  22.700   1
   3 -11   0 55.1000  2.3000   1
   3 -11  -1  3.3000  0.6000   1
   3 -11  -2 37.7000  1.9000   1
   3 -11  -3 825.900  18.300   1
   3 -11  -4  8.7000  1.2000   1
  -3  11   4 11.7000  1.4000   1
   3 -11  -5 -0.1000  2.1000   1
  -3  11   5 -0.6000  1.5000   1
   3 -11  -6 547.800  16.500   1
  -3  11   6 541.300  14.700   1
   3 -11  -7 228.000   7.300   1
  -3  11   7 233.900   6.600   1
   3 -11  -8  6.5000  1.6000   1
  -3  11   8  3.9000  1.7000   1
   3 -11  -9 955.700  26.100   1
  -3  11   9 940.000  23.600   1
   3 -11 -10 147.300   5.200   1
  -3  11  10 141.300   4.600   1
   3 -11 -11 41.8000  2.5000   1
  -3  11  11 33.3000  2.5000   1
   3 -11 -12 19.0000  2.3000   1
  -3  11  12 20.8000  2.2000   1
   3 -11 -13 145.800   5.700   1
  -3  11  13 147.300   5.300   1
   3 -11 -14 -0.5000  1.7000   1
  -3  11  14 -4.5000  1.7000   1
   3 -11 -15  0.0000  1.8000   1
  -3  11  15  4.0000  2.0000   1
   3 -11 -16  8.8000  3.2000   1
  -3  11  16 10.5000  2.3000   1
   3 -11 -17 65.3000  4.9000   1
  -3  11  17 62.3000  5.3000   1
   3 -11 -18 28.7000  4.3000   1
  -3  11  18 39.6000  7.3000   1
   3 -11 -19  4.0000  4.9000   1
  -3  11  19  3.6000  4.5000   1
   3 -11 -20 -6.1000  7.2000   1
  -3  11  20  4.7000  8.1000   1
   3 -11 -21  3.6000  8.4000   1
  -3  11  21  8.8000  7.7000   1
   3 -12  16  9.5000  4.7000   1
  -3  12 -16  8.2000  9.5000   1
   3 -12  15  0.6000  3.4000   1
  -3  12 -15  1.1000  7.5000   1
   3 -12  14 12.8000  3.2000   1
  -3  12 -14 21.2000  7.5000   1
   3 -12  13 13.6000  3.3000   1
  -3  12 -13 12.8000  5.4000   1
   3 -12  12 69.3000  4.6000   1
  -3  12 -12 87.5000 10.5000   1
   3 -12  11  0.1000  2.6000   1
  -3  12 -11 -4.6000  5.7000   1
   3 -12  10 12.1000  1.7000   1
  -3  12 -10  6.9000  4.8000   1
   3 -12   9  0.2000  1.5000   1
  -3  12  -9  1.1000  4.6000   1
   3 -12   8 11.0000  1.7000   1
  -3  12  -8  0.9000  4.4000   1
   3 -12   7 19.5000  1.9000   1
   3 -12   6 67.3000  2.6000   1
  -3  12  -6 59.7000  6.6000   1
   3 -12   5 10.9000  1.4000   1
  -3  12  -5 22.7000  4.9000   1
   3 -12   4 17.6000  1.5000   1
  -3  12  -4 22.3000  4.6000   1
   3 -12   3  8.6000  0.6000   1
  -3  12  -3  7.1000  4.0000   1
   3 -12   2 11.9000  1.0000   1
   3 -12   1 63.0000  1.8000   1
   3 -12   0 141.500   5.000   1
   3 -12  -1 62.4000  2.6000   1
   3 -12  -2 181.900   5.400   1
   3 -12  -3 -0.5000  1.0000   1
   3 -12  -4 19.8000  1.5000   1
   3 -12  -5 76.7000  3.2000   1
  -3  12   5 70.1000  4.3000   1
   3 -12  -6  5.4000  2.3000   1
  -3  12   6  7.5000  1.9000   1
   3 -12  -7 -1.0000  1.5000   1
  -3  12   7  2.0000  2.0000   1
   3 -12  -8  3.1000  1.6000   1
  -3  12   8  0.5000  1.6000   1
   3 -12  -9 31.8000  2.3000   1
  -3  12   9 35.9000  2.6000   1
   3 -12 -10 262.500   8.800   1
  -3  12  10 264.400   7.700   1
   3 -12 -11 222.600   7.100   1
  -3  12  11 230.600   6.600   1
   3 -12 -12  4.1000  1.9000   1
  -3  12  12  7.8000  2.1000   1
   3 -12 -13 13.3000  2.2000   1
  -3  12  13  5.4000  2.5000   1
   3 -12 -14  8.1000  1.8000   1
  -3  12  14  3.9000  2.1000   1
   3 -12 -15 50.2000  2.8000   1
  -3  12  15 51.0000  3.3000   1
   3 -12 -16  0.6000  2.8000   1
  -3  12  16  3.6000  3.3000   1
   3 -12 -17 41.0000  4.8000   1
  -3  12  17 39.1000  4.1000   1
   3 -12 -18  5.5000  3.5000   1
  -3  12  18  9.4000  6.9000   1
   3 -12 -19  5.4000  7.7000   1
  -3  12  19  9.4000  7.4000   1
   3 -12 -20 21.6000  8.4000   1
  -3  12  20 25.4000  6.3000   1
   3 -12 -21 -0.2000  5.7000   1
  -3  12  21 10.1000  8.7000   1
   3 -13  16  1.4000  5.9000   1
  -3  13 -16-13.8000  9.8000   1
   3 -13  15 15.1000  4.2000   1
  -3  13 -15 27.6000  8.9000   1
   3 -13  14  1.8000  3.4000   1
  -3  13 -14  2.1000  5.4000   1
   3 -13  13  0.4000  3.2000   1
  -3  13 -13  7.2000  7.2000   1
   3 -13  12  9.8000  2.9000   1
  -3  13 -12 21.7000  4.8000   1
   3 -13  11 31.1000  3.3000   1
  -3  13 -11 38.0000  7.6000   1
   3 -13  10  0.7000  1.7000   1
  -3  13 -10 -5.4000  5.4000   1
   3 -13   9  1.4000  1.5000   1
  -3  13  -9  9.4000  5.3000   1
   3 -13   8  2.1000  1.7000   1
  -3  13  -8  6.2000  4.9000   1
   3 -13   7 92.8000  3.5000   1
  -3  13  -7 92.9000  8.5000   1
   3 -13   6  2.8000  1.4000   1
   3 -13   5 112.000   4.300   1
  -3  13  -5 103.800   7.700   1
   3 -13   4  4.8000  1.4000   1
  -3  13  -4  6.0000  4.2000   1
   3 -13   3 211.800   4.300   1
   3 -13   2 177.600   4.400   1
   3 -13   1 217.700   4.900   1
   3 -13   0 23.9000  1.4000   1
   3 -13  -1 42.9000  1.9000   1
   3 -13  -2 158.200   4.900   1
   3 -13  -3 268.800   7.100   1
   3 -13  -4 25.0000  2.0000   1
   3 -13  -5 125.700   4.200   1
  -3  13   5 121.900   6.700   1
   3 -13  -6 145.900   5.700   1
  -3  13   6 138.100   7.700   1
   3 -13  -7 116.700   4.600   1
  -3  13   7 119.600   7.400   1
   3 -13  -8 343.500  10.400   1
  -3  13   8 323.600  17.000   1
   3 -13  -9 -0.9000  2.4000   1
  -3  13   9  7.4000  2.5000   1
   3 -13 -10 114.000   5.200   1
  -3  13  10 112.200   6.000   1
   3 -13 -11 89.4000  4.4000   1
  -3  13  11 90.7000  3.8000   1
   3 -13 -12 29.6000  2.7000   1
  -3  13  12 26.9000  2.5000   1
   3 -13 -13 45.7000  3.2000   1
  -3  13  13 48.7000  3.1000   1
   3 -13 -14 51.2000  2.9000   1
  -3  13  14 51.1000  3.1000   1
   3 -13 -15 14.0000  2.1000   1
  -3  13  15  9.6000  3.7000   1
   3 -13 -16 24.6000  3.5000   1
  -3  13  16 16.1000  3.5000   1
   3 -13 -17 -2.0000  2.9000   1
  -3  13  17 -1.9000  6.5000   1
   3 -13 -18 15.7000  7.8000   1
  -3  13  18 27.3000  8.3000   1
   3 -13 -19  6.5000  8.3000   1
  -3  13  19 18.9000  7.3000   1
   3 -13 -20 29.3000  9.1000   1
  -3  13  20 -3.2000  7.6000   1
   3 -14  15 14.8000  5.5000   1
   3 -14  14 -6.5000  4.8000   1
  -3  14 -14-11.4000  8.3000   1
   3 -14  13 23.8000  4.0000   1
  -3  14 -13 32.9000  8.6000   1
   3 -14  12  4.1000  3.4000   1
  -3  14 -12  8.4000  6.2000   1
   3 -14  11  5.9000  3.1000   1
   3 -14  10  6.0000  1.8000   1
  -3  14 -10 -1.0000  5.4000   1
   3 -14   9 24.7000  2.4000   1
  -3  14  -9 17.4000  6.4000   1
   3 -14   8  9.1000  2.1000   1
  -3  14  -8  7.6000  5.7000   1
   3 -14   7  6.8000  1.7000   1
   3 -14   6  0.7000  1.5000   1
   3 -14   5 10.7000  1.6000   1
  -3  14  -5  9.9000  5.0000   1
   3 -14   4  2.6000  0.6000   1
   3 -14   3 265.800   5.000   1
   3 -14   2 45.9000  1.5000   1
   3 -14   1 31.8000  1.5000   1
   3 -14   0  3.3000  0.8000   1
   3 -14  -1 511.500  13.200   1
   3 -14  -2  0.7000  1.2000   1
   3 -14  -3 177.300   5.600   1
   3 -14  -4 166.900   5.900   1
   3 -14  -5 1336.20   34.60   1
   3 -14  -6  1.2000  1.7000   1
  -3  14   6  2.8000  2.6000   1
   3 -14  -7 18.2000  2.3000   1
  -3  14   7 12.7000  3.5000   1
   3 -14  -8 136.000   6.600   1
  -3  14   8 145.000   9.000   1
   3 -14  -9 273.900   9.100   1
  -3  14   9 259.800  13.300   1
   3 -14 -10  7.2000  1.9000   1
  -3  14  10  1.9000  3.3000   1
   3 -14 -11 40.7000  3.0000   1
  -3  14  11 42.8000  5.2000   1
   3 -14 -12 18.6000  2.5000   1
  -3  14  12 20.5000  4.4000   1
   3 -14 -13 75.2000  7.5000   1
  -3  14  13 70.9000  6.6000   1
   3 -14 -14  3.9000  2.0000   1
  -3  14  14  2.7000  4.9000   1
   3 -14 -15 24.6000  2.6000   1
  -3  14  15 39.0000  6.6000   1
   3 -14 -16  3.7000  4.2000   1
  -3  14  16 16.0000  5.6000   1
   3 -14 -17  7.3000  3.8000   1
  -3  14  17 14.1000  6.9000   1
   3 -14 -18  9.9000  7.5000   1
  -3  14  18  6.2000  7.1000   1
   3 -14 -19 32.0000  9.3000   1
  -3  14  19 30.5000  8.6000   1
   3 -15  14  6.3000  6.3000   1
  -3  15 -14  3.3000  9.1000   1
   3 -15  13  1.0000  5.4000   1
  -3  15 -13 -9.0000  7.7000   1
   3 -15  12 -2.1000  5.3000   1
  -3  15 -12  3.0000  7.2000   1
   3 -15  11 10.9000  4.1000   1
  -3  15 -11 23.8000  7.6000   1
   3 -15  10  3.5000  3.0000   1
  -3  15 -10  1.0000  6.0000   1
   3 -15   9  9.1000  2.2000   1
  -3  15  -9  8.0000  6.1000   1
   3 -15   8  4.0000  1.8000   1
  -3  15  -8 -2.1000  5.1000   1
   3 -15   7  1.0000  1.6000   1
  -3  15  -7  5.3000  5.4000   1
   3 -15   6 67.4000  3.1000   1
   3 -15   5 13.3000  1.3000   1
  -3  15  -5 22.7000  5.0000   1
   3 -15   4 25.9000  1.0000   1
   3 -15   3 40.4000  1.3000   1
   3 -15   2  0.5000  0.6000   1
   3 -15   1 123.800   3.800   1
   3 -15   0 15.9000  1.2000   1
   3 -15  -1 72.8000  2.9000   1
   3 -15  -2 20.4000  1.6000   1
   3 -15  -3 83.9000  3.4000   1
   3 -15  -4 47.5000  2.9000   1
   3 -15  -5 54.2000  2.9000   1
   3 -15  -6  5.4000  2.1000   1
   3 -15  -7  0.6000  1.9000   1
  -3  15   7 -1.5000  2.3000   1
   3 -15  -8 79.6000  5.0000   1
  -3  15   8 68.2000  5.7000   1
   3 -15  -9 55.8000  3.4000   1
  -3  15   9 48.0000  4.9000   1
   3 -15 -10  9.6000  2.0000   1
  -3  15  10 21.9000  4.1000   1
   3 -15 -11 21.0000  2.5000   1
  -3  15  11 19.6000  4.1000   1
   3 -15 -12 10.8000  3.4000   1
  -3  15  12 12.4000  4.4000   1
   3 -15 -13 10.7000  2.5000   1
  -3  15  13 10.1000  4.9000   1
   3 -15 -14  7.1000  2.3000   1
  -3  15  14 10.4000  5.5000   1
   3 -15 -15 -0.2000  3.5000   1
  -3  15  15  7.2000  5.7000   1
   3 -15 -16 -2.4000  3.6000   1
  -3  15  16 -6.3000  6.0000   1
   3 -15 -17 16.7000  8.3000   1
  -3  15  17 10.7000  7.0000   1
   3 -15 -18 -8.2000  7.5000   1
  -3  15  18  1.4000  6.6000   1
   3 -16  13  7.5000  7.2000   1
  -3  16 -13 25.3000  9.0000   1
   3 -16  12  1.4000  5.2000   1
  -3  16 -12 -1.6000  7.5000   1
   3 -16  11  7.3000  4.4000   1
  -3  16 -11 -2.1000  4.4000   1
   3 -16  10 26.7000  5.4000   1
  -3  16 -10 33.1000  7.5000   1
   3 -16   9 26.0000  3.4000   1
  -3  16  -9 36.9000  7.8000   1
   3 -16   8 25.7000  2.8000   1
  -3  16  -8 35.0000  5.9000   1
   3 -16   7  4.2000  1.9000   1
  -3  16  -7  0.4000  5.5000   1
   3 -16   6  7.2000  1.8000   1
  -3  16  -6 16.6000  6.3000   1
   3 -16   5 60.4000  2.5000   1
   3 -16   4 45.3000  1.4000   1
   3 -16   3 109.000   2.500   1
   3 -16   2  4.0000  1.4000   1
   3 -16   1 27.6000  2.0000   1
   3 -16   0 76.1000  2.8000   1
   3 -16  -1 76.6000  2.9000   1
   3 -16  -2  0.1000  1.3000   1
   3 -16  -3 25.3000  2.1000   1
   3 -16  -4 102.100   4.500   1
   3 -16  -5 11.0000  2.1000   1
   3 -16  -6 -0.9000  1.7000   1
   3 -16  -7 69.6000  3.5000   1
  -3  16   7 64.0000  5.2000   1
   3 -16  -8  2.9000  2.3000   1
  -3  16   8  5.2000  3.6000   1
   3 -16  -9 12.2000  2.7000   1
  -3  16   9  5.8000  3.4000   1
   3 -16 -10  7.3000  2.3000   1
  -3  16  10  6.7000  3.9000   1
   3 -16 -11 49.4000  3.4000   1
  -3  16  11 53.3000  5.5000   1
   3 -16 -12 55.4000  3.6000   1
  -3  16  12 58.8000  6.5000   1
   3 -16 -13 50.4000  6.9000   1
  -3  16  13 53.5000  6.9000   1
   3 -16 -14 10.4000  4.2000   1
  -3  16  14 -2.9000  4.9000   1
   3 -16 -15 26.2000  6.5000   1
  -3  16  15 34.9000  6.7000   1
   3 -16 -16 -5.5000  4.7000   1
  -3  16  16  8.4000  6.8000   1
   3 -16 -17 62.8000 10.7000   1
  -3  16  17 66.9000  9.4000   1
   3 -17  12  3.5000  8.3000   1
  -3  17 -12 19.9000  9.1000   1
   3 -17  11  4.1000  8.2000   1
  -3  17 -11 -0.7000  7.8000   1
   3 -17  10 36.9000  5.7000   1
  -3  17 -10 29.8000  8.9000   1
   3 -17   9  5.8000  4.3000   1
  -3  17  -9  6.7000  6.4000   1
   3 -17   8  2.0000  3.2000   1
  -3  17  -8 13.7000  7.0000   1
   3 -17   7  4.4000  3.4000   1
  -3  17  -7 -0.2000  6.2000   1
   3 -17   6 16.1000  3.7000   1
   3 -17   5  3.8000  3.0000   1
   3 -17   4  4.9000  1.4000   1
   3 -17   3  7.6000  1.4000   1
   3 -17   2 103.200   3.300   1
   3 -17   1  2.9000  1.8000   1
   3 -17   0 62.3000  2.8000   1
   3 -17  -1 22.9000  1.6000   1
   3 -17  -2  2.1000  1.2000   1
   3 -17  -3 15.5000  2.0000   1
   3 -17  -4  0.3000  1.8000   1
   3 -17  -5  4.9000  2.0000   1
   3 -17  -6  1.2000  2.1000   1
   3 -17  -7 18.5000  2.2000   1
   3 -17  -8 44.6000  3.0000   1
  -3  17   8 56.8000  5.0000   1
   3 -17  -9  3.3000  2.1000   1
  -3  17   9  3.5000  3.2000   1
   3 -17 -10  5.0000  2.2000   1
  -3  17  10  5.6000  4.6000   1
   3 -17 -11  3.0000  2.3000   1
  -3  17  11 21.0000  5.5000   1
   3 -17 -12 70.6000  8.5000   1
  -3  17  12 96.0000  8.2000   1
   3 -17 -13 -0.1000  4.9000   1
  -3  17  13 12.1000  5.8000   1
   3 -17 -14 22.0000  6.2000   1
  -3  17  14 10.6000  5.6000   1
   3 -17 -15 -0.8000  4.7000   1
  -3  17  15  0.4000  6.0000   1
   3 -17 -16  7.4000  7.6000   1
  -3  17  16  2.1000  7.6000   1
   3 -18  11 12.9000  8.7000   1
   3 -18  10 -1.3000  7.9000   1
  -3  18 -10 -9.4000  4.9000   1
   3 -18   9  1.0000  5.5000   1
  -3  18  -9  0.6000  4.7000   1
   3 -18   8  1.7000  5.2000   1
   3 -18   7 10.2000  3.5000   1
   3 -18   6 15.3000  3.8000   1
   3 -18   5  3.3000  3.2000   1
   3 -18   4  6.8000  3.3000   1
   3 -18   3  1.7000  1.8000   1
   3 -18   2  1.6000  2.1000   1
   3 -18   1  5.7000  2.1000   1
   3 -18   0  2.1000  1.8000   1
   3 -18  -1  1.0000  1.9000   1
   3 -18  -2 14.1000  2.4000   1
   3 -18  -3  0.3000  2.0000   1
   3 -18  -4  0.2000  3.0000   1
   3 -18  -5 42.7000  3.7000   1
   3 -18  -6  1.3000  2.5000   1
   3 -18  -7 101.200   5.700   1
   3 -18  -8 -0.1000  2.6000   1
   3 -18  -9  0.1000  2.2000   1
  -3  18   9 -0.9000  4.1000   1
   3 -18 -10 16.6000  3.0000   1
  -3  18  10 27.4000  5.4000   1
   3 -18 -11  7.3000  5.7000   1
  -3  18  11  8.5000  4.3000   1
   3 -18 -12  5.8000  5.7000   1
  -3  18  12 15.5000  6.2000   1
   3 -18 -13  2.9000  4.3000   1
  -3  18  13  4.8000  5.4000   1
   3 -18 -14 13.9000  4.6000   1
  -3  18  14 19.8000  5.9000   1
   3 -18 -15 19.7000  8.6000   1
  -3  18  15  4.6000  6.3000   1
   3 -19   9  7.0000  8.4000   1
   3 -19   8 10.9000  9.1000   1
   3 -19   7  9.5000  5.1000   1
   3 -19   6  2.1000  3.3000   1
   3 -19   5 -2.9000  3.7000   1
   3 -19   4  0.5000  3.5000   1
   3 -19   3  8.1000  3.8000   1
   3 -19   2 17.5000  4.3000   1
   3 -19   1 31.2000  3.2000   1
   3 -19   0 15.6000  2.8000   1
   3 -19  -1 11.1000  2.4000   1
   3 -19  -2 -0.3000  2.3000   1
   3 -19  -3 14.4000  2.6000   1
   3 -19  -4  0.9000  2.7000   1
   3 -19  -5  0.3000  3.0000   1
   3 -19  -6  4.2000  3.7000   1
   3 -19  -7  6.1000  3.3000   1
   3 -19  -8  3.4000  3.3000   1
   3 -19  -9  0.3000  3.2000   1
   3 -19 -10 11.3000  6.9000   1
  -3  19  10 -3.2000  3.9000   1
   3 -19 -11 57.7000  9.7000   1
  -3  19  11 58.1000  7.0000   1
   3 -19 -12  0.9000  6.9000   1
  -3  19  12  9.8000  5.2000   1
   3 -19 -13  4.8000  4.5000   1
  -3  19  13 12.6000  6.9000   1
   3 -19 -14  9.4000  4.8000   1
  -3  19  14  2.9000  6.1000   1
   3 -20   7 16.6000  8.9000   1
   3 -20   6 -5.4000  4.2000   1
   3 -20   5 23.6000  5.4000   1
   3 -20   4  9.9000  4.8000   1
   3 -20   3 36.3000  5.5000   1
   3 -20   2  8.1000  5.3000   1
   3 -20   1  5.6000  4.0000   1
   3 -20   0 33.8000  3.2000   1
   3 -20  -1 28.2000  3.4000   1
   3 -20  -2 -2.0000  2.8000   1
   3 -20  -3  3.4000  2.8000   1
   3 -20  -4 13.9000  4.0000   1
   3 -20  -5 65.1000  5.4000   1
   3 -20  -6  0.7000  3.3000   1
   3 -20  -7  0.7000  2.9000   1
   3 -20  -8 11.8000  7.4000   1
   3 -20  -9 13.2000  8.1000   1
   3 -20 -10  1.6000  5.2000   1
   3 -20 -11 17.1000  7.9000   1
   3 -20 -12 -0.6000  7.1000   1
   3 -21   5 13.9000  5.1000   1
   3 -21   4  3.1000  4.9000   1
   3 -21   3 24.4000  5.4000   1
   3 -21   2  1.4000  4.1000   1
   3 -21   1 19.7000  5.3000   1
   3 -21   0 -8.9000  4.5000   1
   3 -21  -1  1.2000  2.8000   1
   3 -21  -2  2.8000  3.5000   1
   3 -21  -3 119.400   5.700   1
   3 -21  -4 -8.4000  3.6000   1
   3 -21  -5 47.5000  6.0000   1
   3 -21  -6  1.4000  3.4000   1
   3 -21  -7 11.9000  8.2000   1
   3 -21  -8 22.2000  9.2000   1
   3 -21  -9 16.5000  8.4000   1
   3 -22   2 10.3000  5.8000   1
   3 -22   1 14.8000  5.4000   1
   3 -22   0  1.9000  5.1000   1
   3 -22  -1 57.1000  9.4000   1
   3 -22  -2 -4.7000  5.9000   1
   3 -22  -3  4.0000  3.7000   1
   3 -22  -4 10.0000  6.5000   1
   3 -22  -5 -4.6000  6.3000   1
   3 -22  -6 -2.3000  6.6000   1
   4   0  19 16.5000  8.9000   1
   4   0  18  5.3000  3.6000   1
   4   0  17  4.2000  4.1000   1
   4   0  16 14.2000  4.0000   1
   4   0  15  3.1000  3.1000   1
   4   0  14 177.400   8.900   1
   4   0  13  2.0000  3.2000   1
   4   0  12 41.2000  1.5000   1
   4   0  11  0.7000  1.3000   1
   4   0  10 731.900  17.400   1
   4   0   9 -1.4000  1.1000   1
   4   0   8 458.400  11.500   1
   4   0   7  2.1000  1.1000   1
   4   0   6  8.6000  1.2000   1
   4   0   5  1.4000  0.8000   1
   4   0   4 3644.30   76.40   1
   4   0   3  6.1000  0.9000   1
   4   0   2 1234.90   22.90   1
   4   0   1  0.1000  0.8000   1
   4   0   0 593.400  13.300   1
   4   0  -1  2.3000  0.7000   1
   4   0  -2 431.000   8.900   1
   4   0  -3  1.0000  0.7000   1
   4   0  -4 194.700   4.400   1
   4   0  -5 -1.8000  0.8000   1
   4   0  -6 678.000  13.600   1
   4   0  -7 -1.3000  0.9000   1
   4   0  -8 23.3000  1.4000   1
   4   0  -9  1.3000  1.0000   1
   4   0 -10 179.000   4.500   1
   4   0 -11  0.9000  1.3000   1
   4   0 -12 39.7000  2.5000   1
   4   0 -13  1.5000  1.3000   1
   4   0 -14 105.400   4.300   1
   4   0 -15 -3.1000  1.6000   1
   4   0 -16 154.500   5.600   1
   4   0 -17 -2.1000  2.0000   1
   4   0 -18 33.9000  3.5000   1
   4   0 -19 -4.1000  2.3000   1
   4   0 -20 112.700   6.600   1
   4   0 -21  5.1000  2.9000   1
   4   0 -22  0.1000  3.4000   1
   4   0 -23 -1.7000  7.2000   1
   4   0 -24 12.9000  9.0000   1
   4  -1  19 -4.0000  5.4000   1
  -4   1 -19  4.6000  6.7000   1
   4  -1  18  3.2000  4.8000   1
  -4   1 -18  7.7000  4.2000   1
   4  -1  17  3.1000  3.7000   1
  -4   1 -17  0.8000  3.8000   1
   4  -1  16  9.5000  3.8000   1
  -4   1 -16  3.4000  2.9000   1
   4  -1  15  4.6000  3.5000   1
  -4   1 -15  3.0000  3.5000   1
   4  -1  14  3.6000  1.1000   1
  -4   1 -14  3.6000  3.1000   1
   4  -1  13  4.5000  1.6000   1
  -4   1 -13  1.2000  3.7000   1
   4  -1  12 47.7000  2.9000   1
  -4   1 -12 53.3000  4.2000   1
   4  -1  11 80.9000  3.5000   1
  -4   1 -11 83.6000  5.0000   1
   4  -1  10  2.1000  1.4000   1
  -4   1 -10  5.4000  1.9000   1
   4  -1   9 26.6000  1.9000   1
  -4   1  -9 38.3000  3.2000   1
   4  -1   8  3.4000  1.5000   1
  -4   1  -8  0.7000  1.4000   1
   4  -1   7 28.1000  2.1000   1
  -4   1  -7 35.3000  1.5000   1
   4  -1   6 94.4000  3.3000   1
  -4   1  -6 100.200   3.500   1
   4  -1   5 227.700   6.100   1
  -4   1  -5 230.900   7.400   1
   4  -1   4 206.100   5.400   1
  -4   1  -4 207.000   5.000   1
   4  -1   3 480.900  10.400   1
  -4   1  -3 480.600  10.200   1
   4  -1   2 152.200   3.000   1
  -4   1  -2 147.600   3.000   1
   4  -1   1 336.100   6.400   1
  -4   1  -1 336.500   6.900   1
   4  -1   0 23.8000  1.0000   1
  -4   1   0 24.9000  1.1000   1
   4  -1  -1 663.200  13.300   1
  -4   1   1 660.300  13.500   1
   4  -1  -2  2.2000  0.6000   1
  -4   1   2  3.6000  0.8000   1
   4  -1  -3 29.3000  1.3000   1
  -4   1   3 31.3000  1.3000   1
   4  -1  -4 368.100   7.600   1
  -4   1   4 381.100   8.300   1
   4  -1  -5 227.800   5.700   1
  -4   1   5 237.200   5.700   1
   4  -1  -6  4.2000  0.8000   1
  -4   1   6  7.0000  1.1000   1
   4  -1  -7 24.3000  1.3000   1
  -4   1   7 26.1000  1.6000   1
   4  -1  -8 63.5000  2.0000   1
  -4   1   8 62.2000  2.9000   1
   4  -1  -9 351.200   7.600   1
  -4   1   9 355.300   7.600   1
   4  -1 -10 77.9000  2.5000   1
  -4   1  10 83.0000  2.8000   1
   4  -1 -11 69.5000  2.6000   1
  -4   1  11 65.1000  3.5000   1
   4  -1 -12 207.700   5.200   1
  -4   1  12 200.500   7.300   1
   4  -1 -13 12.6000  1.9000   1
  -4   1  13 21.7000  2.0000   1
   4  -1 -14 54.6000  2.9000   1
  -4   1  14 50.8000  2.6000   1
   4  -1 -15  7.4000  2.2000   1
  -4   1  15  6.4000  2.1000   1
   4  -1 -16 162.700   6.000   1
  -4   1  16 162.300   6.400   1
   4  -1 -17 25.3000  3.2000   1
  -4   1  17 19.7000  2.5000   1
   4  -1 -18 88.8000  4.1000   1
  -4   1  18 83.1000  5.1000   1
   4  -1 -19  6.9000  3.0000   1
  -4   1  19  5.3000  2.3000   1
   4  -1 -20  8.9000  3.4000   1
  -4   1  20 12.9000  2.7000   1
   4  -1 -21  6.3000  2.9000   1
  -4   1  21  0.7000  4.1000   1
   4  -1 -22 39.5000  5.1000   1
  -4   1  22 25.2000  4.4000   1
   4  -1 -23 -4.9000  7.7000   1
  -4   1  23 -3.2000  7.5000   1
   4  -1 -24 12.9000  9.0000   1
  -4   1  24 17.0000  8.5000   1
   4  -2  19 44.3000  6.2000   1
  -4   2 -19 36.1000 10.3000   1
   4  -2  18  5.7000  4.6000   1
  -4   2 -18  1.3000  8.1000   1
   4  -2  17  7.8000  4.3000   1
  -4   2 -17 11.9000  3.5000   1
   4  -2  16 16.2000  3.7000   1
  -4   2 -16 20.0000  4.5000   1
   4  -2  15  7.1000  2.2000   1
  -4   2 -15 10.7000  3.4000   1
   4  -2  14  0.7000  2.2000   1
  -4   2 -14 -1.4000  2.7000   1
   4  -2  13  3.8000  2.0000   1
  -4   2 -13  3.6000  2.6000   1
   4  -2  12 48.7000  2.8000   1
  -4   2 -12 46.3000  3.5000   1
   4  -2  11 160.000   5.100   1
  -4   2 -11 161.000   7.300   1
   4  -2  10 44.9000  2.4000   1
  -4   2 -10 50.8000  2.9000   1
   4  -2   9 328.600   8.900   1
  -4   2  -9 336.400  13.100   1
   4  -2   8 151.300   6.200   1
  -4   2  -8 158.500   8.700   1
   4  -2   7  1.4000  1.4000   1
  -4   2  -7  1.0000  1.3000   1
   4  -2   6 15.6000  1.8000   1
  -4   2  -6 13.4000  1.8000   1
   4  -2   5 97.7000  3.4000   1
  -4   2  -5 91.2000  4.9000   1
   4  -2   4  3.7000  0.9000   1
  -4   2  -4  4.1000  1.4000   1
   4  -2   3 1406.00   22.90   1
  -4   2  -3 1404.60   25.70   1
   4  -2   2 268.700   4.700   1
  -4   2  -2 266.600   5.000   1
   4  -2   1 206.800   4.100   1
  -4   2  -1 208.500   4.700   1
   4  -2   0 27.2000  1.1000   1
  -4   2   0 29.2000  1.3000   1
   4  -2  -1 90.1000  2.4000   1
  -4   2   1 88.2000  2.2000   1
   4  -2  -2 632.300  12.800   1
  -4   2   2 637.700  15.700   1
   4  -2  -3 15.5000  1.0000   1
  -4   2   3 17.5000  1.3000   1
   4  -2  -4 24.0000  1.2000   1
  -4   2   4 26.7000  1.5000   1
   4  -2  -5  2.9000  0.8000   1
  -4   2   5  3.6000  1.0000   1
   4  -2  -6 46.2000  1.7000   1
  -4   2   6 40.9000  1.8000   1
   4  -2  -7 746.900  15.700   1
  -4   2   7 744.700  17.300   1
   4  -2  -8 293.500   7.500   1
  -4   2   8 299.000   6.700   1
   4  -2  -9  4.9000  1.4000   1
  -4   2   9  2.5000  0.9000   1
   4  -2 -10 23.0000  1.4000   1
  -4   2  10 27.1000  1.5000   1
   4  -2 -11 223.900   5.100   1
  -4   2  11 219.000   6.200   1
   4  -2 -12 103.300   2.800   1
  -4   2  12 96.4000  3.5000   1
   4  -2 -13  6.3000  1.4000   1
  -4   2  13  5.5000  1.6000   1
   4  -2 -14 31.9000  2.5000   1
  -4   2  14 22.5000  1.9000   1
   4  -2 -15 248.900   9.100   1
  -4   2  15 237.100   7.500   1
   4  -2 -16 95.2000  5.3000   1
  -4   2  16 103.900   4.400   1
   4  -2 -17  6.6000  2.4000   1
  -4   2  17  9.2000  2.1000   1
   4  -2 -18  3.6000  2.2000   1
  -4   2  18  1.1000  2.0000   1
   4  -2 -19 23.0000  4.8000   1
  -4   2  19 20.9000  3.2000   1
   4  -2 -20 38.8000  6.0000   1
  -4   2  20 44.9000  4.1000   1
   4  -2 -21  8.4000  3.8000   1
  -4   2  21 18.4000  4.3000   1
   4  -2 -22  9.8000  4.3000   1
  -4   2  22  5.0000  4.2000   1
   4  -2 -23 16.5000  8.0000   1
  -4   2  23 29.6000  8.2000   1
  -4   2  24 13.5000  8.4000   1
   4  -3  18 10.7000  4.9000   1
  -4   3 -18 12.6000  7.8000   1
   4  -3  17  9.4000  4.3000   1
  -4   3 -17 10.5000  6.0000   1
   4  -3  16 12.7000  4.4000   1
  -4   3 -16  8.7000  3.9000   1
   4  -3  15 31.6000  3.1000   1
  -4   3 -15 33.4000  3.7000   1
   4  -3  14 69.8000  3.9000   1
  -4   3 -14 72.1000  5.1000   1
   4  -3  13 13.6000  2.4000   1
  -4   3 -13  8.5000  2.4000   1
   4  -3  12  3.0000  1.9000   1
  -4   3 -12  5.3000  2.3000   1
   4  -3  11 14.7000  2.1000   1
  -4   3 -11 16.7000  2.4000   1
   4  -3  10 457.300  11.300   1
  -4   3 -10 454.100  15.300   1
   4  -3   9 63.2000  2.8000   1
  -4   3  -9 65.4000  4.8000   1
   4  -3   8  4.6000  1.8000   1
  -4   3  -8  1.0000  1.5000   1
   4  -3   7  2.3000  1.8000   1
  -4   3  -7 -1.0000  1.2000   1
   4  -3   6 1090.70   27.60   1
  -4   3  -6 1117.80   32.40   1
   4  -3   5 390.500  18.800   1
  -4   3  -5 417.500   9.800   1
   4  -3   4 479.500   8.400   1
  -4   3  -4 478.900  11.600   1
   4  -3   3 294.900   6.200   1
  -4   3  -3 317.300   8.700   1
   4  -3   2 675.700  12.400   1
  -4   3  -2 684.500  12.900   1
   4  -3   1 1496.70   28.10   1
  -4   3  -1 1520.10   28.40   1
   4  -3   0 121.500   3.000   1
  -4   3   0 124.200   2.800   1
   4  -3  -1  4.1000  0.8000   1
  -4   3   1  3.4000  0.7000   1
   4  -3  -2 272.700   5.000   1
  -4   3   2 285.200   6.900   1
   4  -3  -3 1075.50   21.90   1
  -4   3   3 1075.20   24.40   1
   4  -3  -4 133.600   3.000   1
  -4   3   4 138.600   4.600   1
   4  -3  -5 198.300   4.900   1
  -4   3   5 199.400   5.100   1
   4  -3  -6 148.100   5.800   1
  -4   3   6 137.500   3.300   1
   4  -3  -7 397.200   9.700   1
  -4   3   7 397.100   8.500   1
   4  -3  -8 299.000   7.100   1
  -4   3   8 308.400   7.600   1
   4  -3  -9 108.000   3.300   1
  -4   3   9 105.600   3.600   1
   4  -3 -10 16.0000  1.5000   1
  -4   3  10 10.8000  1.5000   1
   4  -3 -11 11.4000  1.4000   1
  -4   3  11  6.9000  1.4000   1
   4  -3 -12 250.200   6.000   1
  -4   3  12 251.700   7.100   1
   4  -3 -13  5.9000  1.3000   1
  -4   3  13  7.9000  1.8000   1
   4  -3 -14 71.6000  4.5000   1
  -4   3  14 74.3000  3.4000   1
   4  -3 -15  6.0000  2.4000   1
  -4   3  15 10.0000  2.0000   1
   4  -3 -16 11.7000  2.3000   1
  -4   3  16 14.2000  2.0000   1
   4  -3 -17 24.9000  3.5000   1
  -4   3  17 30.0000  2.8000   1
   4  -3 -18  2.2000  4.6000   1
  -4   3  18 -0.9000  2.5000   1
   4  -3 -19  6.7000  3.7000   1
  -4   3  19 11.3000  3.1000   1
   4  -3 -20 11.0000  4.7000   1
  -4   3  20  9.1000  2.7000   1
   4  -3 -21 -3.4000  3.2000   1
  -4   3  21 -1.4000  3.2000   1
   4  -3 -22  3.5000  3.9000   1
  -4   3  22 -1.6000  4.1000   1
   4  -3 -23  5.8000  4.8000   1
  -4   3  23  1.5000  7.9000   1
   4  -3 -24 14.3000  7.4000   1
  -4   3  24  9.4000  8.2000   1
   4  -4  18 -2.6000  4.9000   1
  -4   4 -18  8.0000  6.1000   1
   4  -4  17 -0.4000  3.5000   1
  -4   4 -17 12.8000  8.0000   1
   4  -4  16  8.1000  4.1000   1
  -4   4 -16 17.2000  3.3000   1
   4  -4  15  5.7000  3.2000   1
  -4   4 -15  7.8000  3.5000   1
   4  -4  14 25.0000  2.8000   1
  -4   4 -14 18.4000  2.3000   1
   4  -4  13  1.0000  2.4000   1
  -4   4 -13  0.9000  2.2000   1
   4  -4  12 73.6000  3.9000   1
  -4   4 -12 80.4000  4.6000   1
   4  -4  11 26.6000  2.6000   1
  -4   4 -11 23.2000  2.0000   1
   4  -4  10 17.9000  2.1000   1
  -4   4 -10 17.5000  2.3000   1
   4  -4   9  2.5000  1.7000   1
  -4   4  -9  0.1000  1.4000   1
   4  -4   8  6.8000  1.5000   1
  -4   4  -8  8.4000  1.7000   1
   4  -4   7 154.900   5.200   1
  -4   4  -7 161.400   7.700   1
   4  -4   6 442.500  10.900   1
  -4   4  -6 439.100  11.800   1
   4  -4   5 29.5000  1.8000   1
  -4   4  -5 27.3000  1.8000   1
   4  -4   4 68.4000  2.0000   1
  -4   4  -4 69.6000  2.7000   1
   4  -4   3 72.8000  1.8000   1
  -4   4  -3 78.9000  3.0000   1
   4  -4   2 134.900   3.200   1
  -4   4  -2 133.200   4.000   1
   4  -4   1 678.200  11.600   1
  -4   4  -1 701.000  13.900   1
   4  -4   0 372.900   6.500   1
  -4   4   0 373.500   8.500   1
   4  -4  -1 49.3000  1.9000   1
  -4   4   1 50.8000  1.6000   1
   4  -4  -2 256.000   5.500   1
  -4   4   2 261.200   6.700   1
   4  -4  -3  3.4000  0.9000   1
  -4   4   3  5.2000  1.2000   1
   4  -4  -4 352.600  10.100   1
  -4   4   4 363.100   9.500   1
   4  -4  -5 23.3000  1.6000   1
  -4   4   5 21.5000  1.2000   1
   4  -4  -6 52.1000  2.2000   1
  -4   4   6 58.2000  2.1000   1
   4  -4  -7 1011.40   22.50   1
  -4   4   7 1027.10   22.50   1
   4  -4  -8 597.600  14.100   1
  -4   4   8 592.700  16.000   1
   4  -4  -9 190.400   5.500   1
  -4   4   9 189.200   5.000   1
   4  -4 -10 24.1000  2.0000   1
  -4   4  10 27.9000  2.3000   1
   4  -4 -11 60.2000  2.7000   1
  -4   4  11 63.6000  3.3000   1
   4  -4 -12 72.4000  3.1000   1
  -4   4  12 77.3000  3.0000   1
   4  -4 -13  9.0000  1.4000   1
  -4   4  13 14.8000  2.0000   1
   4  -4 -14  6.1000  1.5000   1
  -4   4  14  5.0000  1.8000   1
   4  -4 -15 53.5000  4.2000   1
  -4   4  15 59.4000  3.4000   1
   4  -4 -16 22.6000  3.5000   1
  -4   4  16 25.9000  2.5000   1
   4  -4 -17 25.0000  2.8000   1
  -4   4  17 21.2000  2.5000   1
   4  -4 -18 24.9000  4.8000   1
  -4   4  18 32.6000  3.1000   1
   4  -4 -19 39.3000  5.5000   1
  -4   4  19 42.3000  3.8000   1
  -4   4  20  1.6000  2.5000   1
   4  -4 -21 21.6000  4.6000   1
  -4   4  21 22.4000  3.5000   1
   4  -4 -22  8.0000  4.3000   1
  -4   4  22 -1.7000  4.4000   1
   4  -4 -23 -3.5000  6.0000   1
  -4   4  23 -7.7000  5.3000   1
   4  -4 -24 17.9000  9.5000   1
  -4   4  24 30.2000  7.4000   1
   4  -5  18 28.2000  5.8000   1
  -4   5 -18 34.6000  7.3000   1
   4  -5  17  9.2000  4.6000   1
  -4   5 -17 20.1000  7.9000   1
   4  -5  16  0.4000  4.4000   1
  -4   5 -16 -1.7000  6.5000   1
   4  -5  15  5.0000  2.8000   1
  -4   5 -15 -0.7000  2.7000   1
   4  -5  14 27.0000  3.0000   1
  -4   5 -14 27.1000  3.3000   1
   4  -5  13 10.2000  2.5000   1
  -4   5 -13 10.2000  1.9000   1
   4  -5  12 -2.6000  2.6000   1
  -4   5 -12 -0.7000  1.3000   1
   4  -5  11 53.9000  3.4000   1
  -4   5 -11 46.5000  2.5000   1
   4  -5  10 271.800   8.600   1
  -4   5 -10 290.300  10.900   1
   4  -5   9 82.9000  3.6000   1
  -4   5  -9 87.8000  3.7000   1
   4  -5   8 19.4000  2.2000   1
  -4   5  -8 24.1000  1.8000   1
   4  -5   7 310.700   8.300   1
  -4   5  -7 323.400   9.000   1
   4  -5   6 53.5000  2.6000   1
  -4   5  -6 54.1000  2.5000   1
   4  -5   5  3.0000  1.4000   1
  -4   5  -5  0.3000  0.9000   1
   4  -5   4 30.9000  1.4000   1
  -4   5  -4 32.1000  1.7000   1
   4  -5   3 122.400   2.500   1
  -4   5  -3 123.300   4.300   1
   4  -5   2 255.000   5.200   1
  -4   5  -2 265.500   7.300   1
   4  -5   1 59.4000  2.1000   1
  -4   5  -1 64.1000  2.2000   1
   4  -5   0 46.5000  1.7000   1
  -4   5   0 48.7000  1.7000   1
   4  -5  -1 366.600   7.800   1
  -4   5   1 374.100   8.300   1
   4  -5  -2 79.2000  2.6000   1
  -4   5   2 79.7000  2.2000   1
   4  -5  -3 835.900  21.900   1
  -4   5   3 814.700  19.800   1
   4  -5  -4  0.8000  1.2000   1
  -4   5   4  1.7000  0.8000   1
   4  -5  -5 21.8000  1.4000   1
  -4   5   5 24.5000  1.3000   1
   4  -5  -6 308.700   8.600   1
  -4   5   6 299.500  10.700   1
   4  -5  -7 604.600  15.300   1
  -4   5   7 576.000  18.100   1
   4  -5  -8 54.6000  2.4000   1
  -4   5   8 49.2000  3.0000   1
   4  -5  -9 545.600  13.900   1
  -4   5   9 565.000  15.600   1
   4  -5 -10 143.900   4.700   1
  -4   5  10 148.400   4.700   1
   4  -5 -11 41.8000  2.5000   1
  -4   5  11 48.2000  2.4000   1
   4  -5 -12 49.3000  2.6000   1
  -4   5  12 52.7000  2.7000   1
   4  -5 -13  9.1000  1.5000   1
  -4   5  13 10.7000  1.8000   1
   4  -5 -14  1.7000  1.7000   1
  -4   5  14  1.4000  1.7000   1
   4  -5 -15 14.3000  2.1000   1
  -4   5  15 11.8000  2.0000   1
   4  -5 -16 12.6000  3.3000   1
  -4   5  16  7.9000  1.9000   1
   4  -5 -17 126.100   7.100   1
  -4   5  17 119.500   5.100   1
   4  -5 -18 30.8000  5.5000   1
  -4   5  18 23.0000  2.7000   1
   4  -5 -19 40.0000  5.9000   1
  -4   5  19 40.7000  4.1000   1
   4  -5 -20 14.1000  6.0000   1
  -4   5  20 14.5000  3.3000   1
   4  -5 -21 55.2000  5.7000   1
  -4   5  21 56.4000  5.2000   1
   4  -5 -22 34.4000  5.1000   1
  -4   5  22 22.3000  7.9000   1
   4  -5 -23 76.6000 11.1000   1
  -4   5  23 56.1000 11.2000   1
   4  -5 -24 -2.1000  8.6000   1
  -4   5  24-10.6000  5.8000   1
   4  -6  18  0.0000  4.3000   1
  -4   6 -18 10.3000  8.4000   1
   4  -6  17  3.6000  4.7000   1
  -4   6 -17  1.4000  7.7000   1
   4  -6  16  3.6000  3.5000   1
  -4   6 -16 14.8000  6.9000   1
   4  -6  15  6.3000  2.9000   1
   4  -6  14  3.8000  2.7000   1
  -4   6 -14 -1.5000  1.9000   1
   4  -6  13 178.100   7.200   1
  -4   6 -13 164.800   5.400   1
   4  -6  12  6.5000  2.4000   1
  -4   6 -12  7.5000  1.2000   1
   4  -6  11 15.6000  2.8000   1
  -4   6 -11 12.9000  1.2000   1
   4  -6  10 15.4000  2.9000   1
  -4   6 -10 10.0000  1.0000   1
   4  -6   9 236.500   7.000   1
  -4   6  -9 234.700   8.100   1
   4  -6   8 -0.2000  2.1000   1
  -4   6  -8 -0.2000  0.8000   1
   4  -6   7  0.9000  1.7000   1
  -4   6  -7  3.1000  0.8000   1
   4  -6   6  6.4000  2.0000   1
  -4   6  -6 15.7000  1.1000   1
   4  -6   5 -0.2000  0.5000   1
  -4   6  -5  0.6000  0.6000   1
   4  -6   4 41.8000  1.6000   1
  -4   6  -4 41.4000  1.6000   1
   4  -6   3 142.400   3.300   1
  -4   6  -3 143.700   4.000   1
   4  -6   2  0.4000  0.7000   1
  -4   6  -2  0.5000  0.7000   1
   4  -6   1  1.7000  0.8000   1
  -4   6  -1  2.5000  0.9000   1
   4  -6   0 168.500   4.100   1
  -4   6   0 174.900   5.100   1
   4  -6  -1  6.4000  1.2000   1
  -4   6   1  5.7000  2.7000   1
   4  -6  -2 12.0000  1.3000   1
  -4   6   2 14.2000  2.0000   1
   4  -6  -3 363.900  10.300   1
  -4   6   3 372.800  10.200   1
   4  -6  -4 51.2000  2.5000   1
  -4   6   4 56.7000  2.2000   1
   4  -6  -5 18.1000  1.7000   1
  -4   6   5 17.7000  1.5000   1
   4  -6  -6 2107.60   46.00   1
  -4   6   6 2071.70   69.20   1
   4  -6  -7 127.600   3.900   1
  -4   6   7 129.800   4.400   1
   4  -6  -8  4.3000  1.3000   1
  -4   6   8  2.2000  1.8000   1
   4  -6  -9 371.000   9.500   1
  -4   6   9 368.900   9.300   1
   4  -6 -10 1047.70   26.60   1
  -4   6  10 1034.80   23.80   1
   4  -6 -11 63.2000  2.6000   1
  -4   6  11 69.8000  2.9000   1
   4  -6 -12 257.400   7.300   1
  -4   6  12 273.600   7.100   1
   4  -6 -13 27.0000  2.0000   1
  -4   6  13 26.9000  2.3000   1
   4  -6 -14 55.0000  2.3000   1
  -4   6  14 57.1000  3.0000   1
   4  -6 -15 157.700   4.900   1
  -4   6  15 171.700   5.700   1
   4  -6 -16 66.6000  7.8000   1
  -4   6  16 72.3000  3.7000   1
   4  -6 -17  5.2000  5.2000   1
  -4   6  17  2.6000  1.9000   1
   4  -6 -18 14.7000  3.5000   1
  -4   6  18 17.8000  2.9000   1
   4  -6 -19  2.3000  3.9000   1
  -4   6  19  3.5000  2.4000   1
   4  -6 -20 14.7000  4.3000   1
  -4   6  20 10.3000  2.6000   1
   4  -6 -21 -0.8000  4.6000   1
  -4   6  21  4.2000  5.3000   1
   4  -6 -22 16.2000  8.9000   1
  -4   6  22 10.8000  6.8000   1
   4  -6 -23 -2.3000  9.6000   1
  -4   6  23 -7.7000  7.1000   1
   4  -6 -24  8.8000  7.5000   1
  -4   6  24 15.6000  9.5000   1
   4  -7  17  1.2000  6.6000   1
  -4   7 -17 -5.7000  7.5000   1
   4  -7  16  5.9000  3.5000   1
  -4   7 -16  4.8000  8.0000   1
   4  -7  15 -0.4000  3.1000   1
   4  -7  14  5.5000  3.0000   1
  -4   7 -14  6.6000  6.3000   1
   4  -7  13  0.8000  2.6000   1
  -4   7 -13  3.6000  4.7000   1
   4  -7  12 22.5000  3.0000   1
  -4   7 -12 23.3000  5.2000   1
   4  -7  11 26.9000  3.0000   1
   4  -7  10 73.8000  3.8000   1
  -4   7 -10 68.7000  6.2000   1
   4  -7   9  4.9000  2.0000   1
  -4   7  -9  0.1000  2.8000   1
   4  -7   8  0.9000  2.1000   1
  -4   7  -8  6.5000  2.6000   1
   4  -7   7  0.1000  1.5000   1
  -4   7  -7 -1.8000  1.9000   1
   4  -7   6 110.100   2.600   1
  -4   7  -6 116.200   5.200   1
   4  -7   5  1.8000  0.9000   1
  -4   7  -5  3.1000  1.6000   1
   4  -7   4  2.7000  1.4000   1
   4  -7   3 159.400   4.200   1
   4  -7   2 340.500   8.300   1
   4  -7   1  3.2000  1.7000   1
  -4   7  -1  9.5000  3.3000   1
   4  -7   0  1.4000  1.2000   1
  -4   7   0  4.2000  2.0000   1
   4  -7  -1 99.9000  3.6000   1
  -4   7   1 108.000   4.500   1
   4  -7  -2  7.2000  1.4000   1
  -4   7   2 12.4000  2.0000   1
   4  -7  -3 66.6000  3.4000   1
  -4   7   3 69.5000  3.8000   1
   4  -7  -4 264.000   6.700   1
  -4   7   4 262.600   7.000   1
   4  -7  -5 270.000   7.300   1
  -4   7   5 271.500   7.700   1
   4  -7  -6 339.400   9.300   1
  -4   7   6 337.900   8.700   1
   4  -7  -7 94.6000  3.4000   1
  -4   7   7 96.5000  3.5000   1
   4  -7  -8 405.200   9.900   1
  -4   7   8 389.700  10.600   1
   4  -7  -9 161.500   4.200   1
  -4   7   9 165.800   5.600   1
   4  -7 -10 154.600   4.500   1
  -4   7  10 155.000   5.000   1
   4  -7 -11 31.4000  2.0000   1
  -4   7  11 30.6000  2.2000   1
   4  -7 -12 54.5000  2.6000   1
  -4   7  12 59.5000  2.8000   1
   4  -7 -13 69.8000  2.9000   1
  -4   7  13 65.4000  3.1000   1
   4  -7 -14 139.100   4.200   1
  -4   7  14 142.400   4.900   1
   4  -7 -15 10.0000  2.0000   1
  -4   7  15  8.6000  2.2000   1
   4  -7 -16 29.2000  2.6000   1
  -4   7  16 32.1000  3.0000   1
   4  -7 -17 134.200   5.400   1
  -4   7  17 139.100   5.200   1
   4  -7 -18 80.8000 10.0000   1
  -4   7  18 80.8000  4.1000   1
   4  -7 -19  0.5000  3.4000   1
  -4   7  19  0.7000  2.2000   1
   4  -7 -20  7.9000  4.4000   1
  -4   7  20  7.8000  4.5000   1
   4  -7 -21  9.6000  5.4000   1
  -4   7  21 14.7000  7.4000   1
   4  -7 -22 45.1000  9.5000   1
  -4   7  22 18.8000  8.0000   1
   4  -7 -23 -0.8000  5.7000   1
  -4   7  23  3.2000  5.9000   1
   4  -8  17  9.6000  5.5000   1
  -4   8 -17 11.8000  8.6000   1
   4  -8  16 39.3000  4.5000   1
  -4   8 -16 36.7000  9.8000   1
   4  -8  15 10.8000  3.5000   1
  -4   8 -15 18.2000  6.7000   1
   4  -8  14  5.2000  3.1000   1
  -4   8 -14  7.2000  6.6000   1
   4  -8  13  4.6000  2.7000   1
  -4   8 -13 11.7000  4.4000   1
   4  -8  12 99.2000  5.1000   1
  -4   8 -12 87.0000  9.0000   1
   4  -8  11 34.2000  3.3000   1
  -4   8 -11 27.4000  6.6000   1
   4  -8  10  4.2000  2.3000   1
   4  -8   9  2.8000  2.0000   1
  -4   8  -9  6.7000  3.5000   1
   4  -8   8 360.600   9.300   1
  -4   8  -8 389.600  19.200   1
   4  -8   7  6.8000  2.0000   1
  -4   8  -7  5.7000  2.9000   1
   4  -8   6 47.5000  1.9000   1
   4  -8   5 34.7000  1.6000   1
   4  -8   4 79.9000  3.9000   1
   4  -8   3 10.8000  0.8000   1
   4  -8   2 49.9000  1.8000   1
  -4   8  -2 45.1000  4.7000   1
   4  -8   1  4.0000  1.1000   1
   4  -8   0 275.000   8.900   1
  -4   8   0 243.100  15.100   1
   4  -8  -1 36.6000  2.4000   1
  -4   8   1 43.2000  4.4000   1
   4  -8  -2 109.700   3.900   1
  -4   8   2 115.500   5.100   1
   4  -8  -3 470.500  12.300   1
  -4   8   3 455.600  14.300   1
   4  -8  -4  7.5000  1.6000   1
  -4   8   4  6.8000  1.0000   1
   4  -8  -5 24.5000  1.9000   1
  -4   8   5 24.6000  1.6000   1
   4  -8  -6 203.000   6.000   1
  -4   8   6 214.700   6.200   1
   4  -8  -7 75.5000  2.9000   1
  -4   8   7 73.9000  2.7000   1
   4  -8  -8 121.200   3.700   1
  -4   8   8 122.000   3.900   1
   4  -8  -9 12.5000  1.6000   1
  -4   8   9 20.2000  1.8000   1
   4  -8 -10 29.1000  2.1000   1
  -4   8  10 27.7000  2.1000   1
   4  -8 -11 142.000   4.800   1
  -4   8  11 134.100   4.600   1
   4  -8 -12 715.000  21.100   1
  -4   8  12 709.600  17.900   1
   4  -8 -13 34.0000  2.3000   1
  -4   8  13 35.2000  2.5000   1
   4  -8 -14  5.3000  1.5000   1
  -4   8  14  5.2000  1.7000   1
   4  -8 -15 33.7000  2.3000   1
  -4   8  15 34.5000  2.6000   1
   4  -8 -16 109.400   4.400   1
  -4   8  16 114.800   4.700   1
   4  -8 -17 55.0000  4.6000   1
  -4   8  17 55.1000  3.6000   1
   4  -8 -18  8.0000  5.4000   1
  -4   8  18  2.3000  2.2000   1
   4  -8 -19  5.2000  6.2000   1
  -4   8  19  5.9000  3.0000   1
   4  -8 -20  7.8000  5.0000   1
  -4   8  20  8.4000  4.1000   1
   4  -8 -21 40.5000  9.4000   1
  -4   8  21 35.1000  5.9000   1
   4  -8 -22 -2.1000  5.8000   1
  -4   8  22 -7.1000  8.0000   1
   4  -8 -23  8.0000  9.5000   1
  -4   8  23  8.0000  8.5000   1
   4  -9  17 -4.4000  5.1000   1
  -4   9 -17  0.8000  8.3000   1
   4  -9  16 13.3000  3.8000   1
  -4   9 -16 20.6000  9.1000   1
   4  -9  15 16.0000  3.3000   1
  -4   9 -15 23.7000  7.7000   1
   4  -9  14 38.4000  4.3000   1
  -4   9 -14 39.4000  7.4000   1
   4  -9  13  7.0000  3.1000   1
   4  -9  12  2.4000  2.9000   1
  -4   9 -12  7.4000  6.1000   1
   4  -9  11  0.4000  2.6000   1
  -4   9 -11  7.0000  4.8000   1
   4  -9  10 201.300   7.600   1
   4  -9   9 -0.3000  2.1000   1
   4  -9   8  0.8000  1.7000   1
   4  -9   7 13.0000  0.9000   1
  -4   9  -7  9.8000  4.6000   1
   4  -9   6 214.900   5.000   1
   4  -9   5 79.0000  2.5000   1
  -4   9  -5 76.5000  5.3000   1
   4  -9   4  4.3000  1.0000   1
  -4   9  -4  3.9000  2.9000   1
   4  -9   3 21.5000  1.0000   1
  -4   9  -3 26.7000  3.8000   1
   4  -9   2 24.7000  1.7000   1
   4  -9   1 12.3000  1.5000   1
   4  -9   0  1.7000  1.1000   1
   4  -9  -1 -0.4000  1.4000   1
  -4   9   1  3.7000  3.4000   1
   4  -9  -2 84.9000  3.5000   1
  -4   9   2 80.9000  6.4000   1
   4  -9  -3 164.300   5.000   1
  -4   9   3 170.600   7.200   1
   4  -9  -4 405.200  11.500   1
  -4   9   4 433.400  11.300   1
   4  -9  -5 129.000   4.000   1
  -4   9   5 120.000   3.900   1
   4  -9  -6 17.2000  1.4000   1
  -4   9   6 19.1000  1.5000   1
   4  -9  -7 111.600   3.600   1
  -4   9   7 109.000   3.800   1
   4  -9  -8 449.200   9.800   1
  -4   9   8 461.200  11.600   1
   4  -9  -9 29.2000  2.0000   1
  -4   9   9 31.1000  2.1000   1
   4  -9 -10 11.3000  1.7000   1
  -4   9  10  7.8000  1.7000   1
   4  -9 -11 1137.70   28.20   1
  -4   9  11 1098.20   28.10   1
   4  -9 -12 551.500  18.400   1
  -4   9  12 550.400  14.900   1
   4  -9 -13  1.3000  1.5000   1
  -4   9  13  2.2000  1.5000   1
   4  -9 -14 113.300   4.000   1
  -4   9  14 111.500   4.500   1
   4  -9 -15 23.6000  2.3000   1
  -4   9  15 21.5000  2.4000   1
   4  -9 -16 34.0000  2.6000   1
  -4   9  16 45.9000  3.0000   1
   4  -9 -17  3.1000  2.8000   1
  -4   9  17  5.3000  2.5000   1
   4  -9 -18 66.2000  7.1000   1
  -4   9  18 81.7000  4.6000   1
   4  -9 -19  6.9000  6.5000   1
  -4   9  19 -1.2000  3.4000   1
   4  -9 -20 -4.5000  7.8000   1
  -4   9  20 -1.3000  4.6000   1
   4  -9 -21  5.3000  4.9000   1
  -4   9  21 14.5000  7.9000   1
   4  -9 -22  5.7000  8.2000   1
  -4   9  22 -5.3000  7.5000   1
   4  -9 -23 -4.7000  9.6000   1
  -4   9  23  2.2000  7.9000   1
   4 -10  16 18.9000  4.2000   1
  -4  10 -16 24.4000  8.4000   1
   4 -10  15  0.2000  3.4000   1
  -4  10 -15 -4.8000  6.8000   1
   4 -10  14 11.0000  3.5000   1
  -4  10 -14 -1.8000  4.6000   1
   4 -10  13  6.8000  3.0000   1
  -4  10 -13  3.6000  7.0000   1
   4 -10  12 17.6000  3.5000   1
  -4  10 -12  9.7000  6.8000   1
   4 -10  11  5.3000  2.7000   1
  -4  10 -11  3.8000  6.9000   1
   4 -10  10  1.9000  2.4000   1
  -4  10 -10 -0.1000  5.5000   1
   4 -10   9  0.6000  2.2000   1
   4 -10   8 105.800   2.900   1
   4 -10   7 22.3000  1.6000   1
  -4  10  -7 18.3000  5.2000   1
   4 -10   6 -1.9000  1.2000   1
  -4  10  -6  2.0000  2.9000   1
   4 -10   5 171.500   4.100   1
  -4  10  -5 165.000  11.200   1
   4 -10   4 337.200   7.700   1
  -4  10  -4 362.800  15.600   1
   4 -10   3  1.9000  0.6000   1
   4 -10   2 26.6000  1.8000   1
   4 -10   1  5.8000  1.5000   1
   4 -10   0 125.600   4.500   1
   4 -10  -1  4.9000  1.9000   1
   4 -10  -2 392.000  10.900   1
  -4  10   2 398.100  24.200   1
   4 -10  -3 120.500   4.400   1
  -4  10   3 125.600   8.000   1
   4 -10  -4  1.7000  1.2000   1
  -4  10   4  1.1000  0.8000   1
   4 -10  -5 52.5000  2.8000   1
  -4  10   5 65.6000  2.6000   1
   4 -10  -6 467.000  10.700   1
  -4  10   6 465.800  12.900   1
   4 -10  -7  7.6000  1.3000   1
  -4  10   7 10.6000  1.6000   1
   4 -10  -8 133.400   4.200   1
  -4  10   8 136.400   4.800   1
   4 -10  -9  1.2000  1.4000   1
  -4  10   9  2.1000  1.7000   1
   4 -10 -10 508.500  14.000   1
  -4  10  10 494.200  13.600   1
   4 -10 -11  0.3000  1.5000   1
  -4  10  11  0.0000  1.8000   1
   4 -10 -12  7.6000  1.9000   1
  -4  10  12  9.2000  2.1000   1
   4 -10 -13 -1.4000  1.8000   1
  -4  10  13 -1.1000  1.9000   1
   4 -10 -14 65.7000  3.6000   1
  -4  10  14 68.7000  3.6000   1
   4 -10 -15 11.1000  1.9000   1
  -4  10  15 10.5000  2.3000   1
   4 -10 -16  5.5000  2.0000   1
  -4  10  16  4.1000  2.3000   1
   4 -10 -17  1.4000  3.0000   1
  -4  10  17  3.3000  2.5000   1
   4 -10 -18 -3.7000  3.6000   1
  -4  10  18  2.1000  2.2000   1
   4 -10 -19  0.2000  3.8000   1
  -4  10  19  0.7000  3.5000   1
   4 -10 -20 34.5000  6.7000   1
  -4  10  20 44.5000  8.1000   1
   4 -10 -21  3.8000  8.6000   1
  -4  10  21 36.4000  8.3000   1
   4 -10 -22 -2.4000  8.9000   1
  -4  10  22 30.6000  9.3000   1
   4 -11  16 12.4000  4.3000   1
  -4  11 -16  5.1000  9.2000   1
   4 -11  15 13.8000  3.9000   1
  -4  11 -15  5.4000  6.2000   1
   4 -11  14 -1.0000  3.9000   1
  -4  11 -14 -1.8000  6.8000   1
   4 -11  13 -2.3000  2.9000   1
  -4  11 -13 -0.7000  6.9000   1
   4 -11  12  1.6000  3.0000   1
  -4  11 -12  6.5000  4.8000   1
   4 -11  11  5.1000  2.6000   1
  -4  11 -11  9.3000  6.5000   1
   4 -11  10  2.3000  2.3000   1
  -4  11 -10 -3.6000  5.5000   1
   4 -11   9  2.7000  2.4000   1
  -4  11  -9  5.6000  4.0000   1
   4 -11   8  5.7000  1.4000   1
  -4  11  -8  1.1000  5.3000   1
   4 -11   7  1.1000  1.1000   1
  -4  11  -7 10.6000  3.7000   1
   4 -11   6  4.5000  1.4000   1
   4 -11   5  6.3000  1.5000   1
  -4  11  -5  1.6000  2.9000   1
   4 -11   4  2.1000  2.1000   1
  -4  11  -4  8.9000  4.6000   1
   4 -11   3 70.8000  2.2000   1
   4 -11   2 186.900   7.900   1
   4 -11   1 56.7000  2.9000   1
   4 -11   0 -0.8000  1.5000   1
   4 -11  -1 32.7000  2.3000   1
   4 -11  -2 30.1000  2.1000   1
   4 -11  -3 162.600   5.800   1
  -4  11   3 196.900  11.200   1
   4 -11  -4 419.900  11.300   1
  -4  11   4 436.000  27.300   1
   4 -11  -5 140.300   4.600   1
  -4  11   5 139.700   4.200   1
   4 -11  -6 10.7000  1.4000   1
  -4  11   6 13.5000  1.6000   1
   4 -11  -7 1057.10   25.60   1
  -4  11   7 1036.00   26.10   1
   4 -11  -8 110.200   4.300   1
  -4  11   8 117.200   4.400   1
   4 -11  -9 747.700  18.500   1
  -4  11   9 718.600  20.200   1
   4 -11 -10 264.800   7.600   1
  -4  11  10 255.400   8.700   1
   4 -11 -11 425.100  11.700   1
  -4  11  11 442.800  12.300   1
   4 -11 -12 23.4000  2.3000   1
  -4  11  12 25.2000  2.4000   1
   4 -11 -13 190.100   6.800   1
  -4  11  13 211.900   6.600   1
   4 -11 -14 217.300  10.800   1
  -4  11  14 223.900   7.200   1
   4 -11 -15 71.3000  3.6000   1
  -4  11  15 67.7000  3.4000   1
   4 -11 -16 38.7000  3.1000   1
  -4  11  16 35.5000  3.0000   1
   4 -11 -17 40.8000  3.4000   1
  -4  11  17 42.4000  3.3000   1
   4 -11 -18  0.8000  2.9000   1
  -4  11  18 -1.9000  3.1000   1
   4 -11 -19  4.1000  3.4000   1
  -4  11  19  0.4000  6.2000   1
   4 -11 -20  4.8000  7.8000   1
  -4  11  20 -1.9000  6.7000   1
   4 -11 -21 86.1000 10.8000   1
  -4  11  21 73.1000 11.6000   1
   4 -12  15 14.2000  4.4000   1
  -4  12 -15 12.9000  9.2000   1
   4 -12  14 17.0000  3.8000   1
  -4  12 -14 17.4000  8.8000   1
   4 -12  13 14.0000  3.4000   1
  -4  12 -13 21.2000  7.5000   1
   4 -12  12 37.2000  4.1000   1
  -4  12 -12 38.0000  8.3000   1
   4 -12  11  7.0000  2.7000   1
  -4  12 -11 21.3000  7.0000   1
   4 -12  10 27.7000  3.1000   1
  -4  12 -10  4.4000  6.8000   1
   4 -12   9  3.1000  1.4000   1
  -4  12  -9  3.2000  5.9000   1
   4 -12   8  2.7000  1.4000   1
  -4  12  -8 -3.9000  5.0000   1
   4 -12   7  2.7000  1.5000   1
   4 -12   6  3.6000  1.3000   1
   4 -12   5  0.2000  1.2000   1
   4 -12   4  3.2000  1.0000   1
  -4  12  -4  4.4000  3.5000   1
   4 -12   3 62.8000  1.8000   1
  -4  12  -3 62.3000  6.9000   1
   4 -12   2 19.7000  1.9000   1
   4 -12   1 79.2000  3.3000   1
   4 -12   0 30.9000  2.2000   1
   4 -12  -1  1.9000  1.6000   1
   4 -12  -2 57.1000  2.8000   1
   4 -12  -3 30.2000  2.5000   1
   4 -12  -4  0.9000  1.9000   1
  -4  12   4 -1.4000  2.9000   1
   4 -12  -5  2.1000  1.0000   1
  -4  12   5  4.6000  1.5000   1
   4 -12  -6 66.2000  2.9000   1
  -4  12   6 82.3000  3.7000   1
   4 -12  -7 77.5000  3.2000   1
  -4  12   7 82.5000  3.4000   1
   4 -12  -8 13.8000  1.8000   1
  -4  12   8 12.9000  1.9000   1
   4 -12  -9 157.500   5.000   1
  -4  12   9 161.700   5.300   1
   4 -12 -10 247.100   7.200   1
  -4  12  10 247.700   7.500   1
   4 -12 -11 66.8000  3.2000   1
  -4  12  11 73.4000  3.4000   1
   4 -12 -12 76.6000  3.4000   1
  -4  12  12 75.1000  3.6000   1
   4 -12 -13 68.8000  3.5000   1
  -4  12  13 67.3000  3.5000   1
   4 -12 -14 32.5000  2.8000   1
  -4  12  14 42.0000  3.1000   1
   4 -12 -15 32.4000  2.8000   1
  -4  12  15 39.5000  2.9000   1
   4 -12 -16 10.6000  2.8000   1
  -4  12  16 13.0000  2.7000   1
   4 -12 -17 10.9000  3.0000   1
  -4  12  17  8.5000  3.1000   1
   4 -12 -18  5.0000  3.6000   1
  -4  12  18 -4.2000  3.5000   1
   4 -12 -19 35.3000  5.0000   1
  -4  12  19 21.5000  7.9000   1
   4 -12 -20  4.1000  8.1000   1
  -4  12  20 12.1000  7.6000   1
   4 -12 -21 10.1000  6.7000   1
  -4  12  21 10.5000  8.1000   1
   4 -13  14 12.5000  4.7000   1
  -4  13 -14 23.6000  8.5000   1
   4 -13  13 12.0000  3.7000   1
  -4  13 -13 11.6000  5.7000   1
   4 -13  12 10.2000  2.9000   1
  -4  13 -12 20.5000  8.1000   1
   4 -13  11 139.700   6.400   1
   4 -13  10 45.9000  3.6000   1
  -4  13 -10 47.9000  8.1000   1
   4 -13   9 21.5000  1.8000   1
  -4  13  -9 18.5000  5.9000   1
   4 -13   8 -1.6000  2.1000   1
  -4  13  -8 -9.8000  5.2000   1
   4 -13   7 12.3000  1.7000   1
  -4  13  -7 13.2000  5.4000   1
   4 -13   6 37.5000  2.3000   1
  -4  13  -6 34.6000  5.1000   1
   4 -13   5 28.4000  1.7000   1
  -4  13  -5 17.9000  5.3000   1
   4 -13   4 42.7000  1.5000   1
  -4  13  -4 45.6000  6.4000   1
   4 -13   3  2.4000  0.7000   1
   4 -13   2 -0.5000  1.2000   1
   4 -13   1 40.8000  2.7000   1
   4 -13   0 35.6000  2.9000   1
   4 -13  -1 13.0000  2.5000   1
   4 -13  -2  3.5000  1.7000   1
   4 -13  -3 65.9000  3.5000   1
   4 -13  -4 16.2000  2.2000   1
   4 -13  -5 33.2000  2.4000   1
   4 -13  -6 378.700  10.700   1
  -4  13   6 365.200  13.300   1
   4 -13  -7 160.200   5.000   1
  -4  13   7 165.400   6.500   1
   4 -13  -8 31.8000  2.2000   1
  -4  13   8 28.6000  2.8000   1
   4 -13  -9 131.000   4.400   1
  -4  13   9 130.900   4.800   1
   4 -13 -10 333.400  10.100   1
  -4  13  10 347.300   9.600   1
   4 -13 -11 38.6000  2.7000   1
  -4  13  11 39.5000  2.8000   1
   4 -13 -12 48.9000  3.1000   1
  -4  13  12 47.5000  3.0000   1
   4 -13 -13 71.7000  3.6000   1
  -4  13  13 72.4000  3.7000   1
   4 -13 -14 46.7000  3.5000   1
  -4  13  14 48.8000  3.2000   1
   4 -13 -15 13.3000  2.8000   1
  -4  13  15 14.3000  2.6000   1
   4 -13 -16  2.1000  2.3000   1
  -4  13  16 -2.6000  3.6000   1
   4 -13 -17 30.7000  3.5000   1
  -4  13  17 36.8000  5.0000   1
   4 -13 -18 11.2000  4.1000   1
  -4  13  18 13.4000  5.1000   1
   4 -13 -19  0.7000  7.8000   1
  -4  13  19 12.3000  5.7000   1
   4 -13 -20 16.5000  8.8000   1
  -4  13  20 37.0000  8.7000   1
   4 -14  14 17.3000  6.6000   1
  -4  14 -14 12.6000  7.8000   1
   4 -14  13 46.0000  7.5000   1
  -4  14 -13 34.7000  9.2000   1
   4 -14  12 18.7000  5.9000   1
  -4  14 -12 18.4000  8.1000   1
   4 -14  11  0.0000  5.1000   1
  -4  14 -11  0.4000  7.7000   1
   4 -14  10  6.5000  3.0000   1
  -4  14 -10 24.7000  7.8000   1
   4 -14   9  4.1000  2.5000   1
  -4  14  -9  0.6000  4.2000   1
   4 -14   8 10.1000  1.8000   1
  -4  14  -8 24.7000  5.5000   1
   4 -14   7 -2.7000  1.5000   1
  -4  14  -7  4.7000  5.5000   1
   4 -14   6  9.7000  1.6000   1
  -4  14  -6  8.0000  5.8000   1
   4 -14   5  4.1000  1.2000   1
  -4  14  -5  8.1000  4.2000   1
   4 -14   4 13.9000  2.8000   1
   4 -14   3  0.1000  0.8000   1
   4 -14   2 41.4000  1.8000   1
   4 -14   1  3.0000  1.7000   1
   4 -14   0 -2.8000  1.6000   1
   4 -14  -1  6.2000  3.2000   1
   4 -14  -2  1.5000  1.8000   1
   4 -14  -3 -0.2000  1.7000   1
   4 -14  -4 37.7000  2.7000   1
   4 -14  -5 32.7000  2.2000   1
   4 -14  -6  6.0000  1.6000   1
   4 -14  -7 115.900   4.900   1
  -4  14   7 129.400   7.400   1
   4 -14  -8 97.4000  4.1000   1
  -4  14   8 92.4000  5.0000   1
   4 -14  -9 12.5000  1.8000   1
  -4  14   9 15.5000  3.1000   1
   4 -14 -10  8.4000  1.8000   1
  -4  14  10  9.1000  2.7000   1
   4 -14 -11 53.6000  3.1000   1
  -4  14  11 51.9000  3.3000   1
   4 -14 -12 10.5000  2.3000   1
  -4  14  12  9.9000  2.3000   1
   4 -14 -13 10.3000  2.6000   1
  -4  14  13 10.3000  2.5000   1
   4 -14 -14 43.2000  4.4000   1
  -4  14  14 41.9000  3.2000   1
   4 -14 -15  3.5000  2.1000   1
  -4  14  15  0.1000  3.5000   1
   4 -14 -16  6.3000  2.5000   1
  -4  14  16  8.0000  5.9000   1
   4 -14 -17 23.1000  4.6000   1
  -4  14  17 11.9000  6.4000   1
   4 -14 -18 30.3000  5.4000   1
  -4  14  18 33.1000  7.3000   1
   4 -14 -19 14.6000  8.4000   1
  -4  14  19 11.2000  6.0000   1
   4 -15  13 20.8000  5.8000   1
  -4  15 -13 19.2000 10.4000   1
   4 -15  12  3.7000  4.9000   1
  -4  15 -12 12.8000  8.3000   1
   4 -15  11  0.8000  4.0000   1
  -4  15 -11 -0.1000  8.4000   1
   4 -15  10  2.8000  4.5000   1
  -4  15 -10 -2.0000  6.5000   1
   4 -15   9  6.5000  5.4000   1
  -4  15  -9 10.5000  6.0000   1
   4 -15   8  9.6000  2.8000   1
  -4  15  -8  7.9000  6.5000   1
   4 -15   7  5.1000  1.5000   1
  -4  15  -7  3.6000  6.0000   1
   4 -15   6 15.3000  1.6000   1
  -4  15  -6 24.6000  7.1000   1
   4 -15   5  3.8000  2.8000   1
   4 -15   4 -3.2000  2.4000   1
   4 -15   3  1.4000  0.9000   1
   4 -15   2 32.6000  1.7000   1
   4 -15   1 35.7000  2.3000   1
   4 -15   0 122.200   4.500   1
   4 -15  -1 15.5000  2.0000   1
   4 -15  -2  3.5000  2.1000   1
   4 -15  -3 43.5000  3.0000   1
   4 -15  -4 26.2000  3.0000   1
   4 -15  -5 45.9000  2.6000   1
   4 -15  -6 75.9000  3.0000   1
   4 -15  -7 128.600   4.100   1
  -4  15   7 131.200   7.300   1
   4 -15  -8 298.800   9.300   1
  -4  15   8 307.300  15.500   1
   4 -15  -9  6.2000  2.0000   1
  -4  15   9  4.2000  3.4000   1
   4 -15 -10  3.1000  2.1000   1
  -4  15  10 -1.6000  3.6000   1
   4 -15 -11  0.2000  2.0000   1
  -4  15  11  2.9000  4.1000   1
   4 -15 -12 22.8000  3.0000   1
  -4  15  12 31.6000  5.0000   1
   4 -15 -13 -2.0000  3.2000   1
  -4  15  13 -2.3000  2.7000   1
   4 -15 -14  7.4000  2.5000   1
  -4  15  14 12.4000  3.9000   1
   4 -15 -15 34.0000  5.0000   1
  -4  15  15 22.7000  5.6000   1
   4 -15 -16  2.2000  4.2000   1
  -4  15  16  3.6000  5.4000   1
   4 -15 -17  1.7000  4.1000   1
  -4  15  17 13.9000  5.9000   1
   4 -15 -18  9.3000  7.6000   1
  -4  15  18  3.2000  6.4000   1
   4 -15 -19  3.3000  7.5000   1
  -4  15  19  5.8000  5.2000   1
   4 -16  12 25.4000 10.0000   1
  -4  16 -12 -8.1000  8.4000   1
   4 -16  11  1.0000  6.3000   1
  -4  16 -11 -1.0000  7.7000   1
   4 -16  10  2.9000  5.6000   1
  -4  16 -10 -3.9000  4.9000   1
   4 -16   9  6.8000  4.5000   1
  -4  16  -9 -4.5000  6.7000   1
   4 -16   8 50.5000  6.4000   1
  -4  16  -8 37.7000  8.6000   1
   4 -16   7 13.0000  3.7000   1
  -4  16  -7 11.0000  4.5000   1
   4 -16   6  9.8000  3.1000   1
   4 -16   5 21.9000  3.2000   1
   4 -16   4 47.8000  3.9000   1
   4 -16   3  8.0000  1.2000   1
   4 -16   2 36.6000  2.1000   1
   4 -16   1  3.0000  1.4000   1
   4 -16   0 43.4000  3.1000   1
   4 -16  -1  4.2000  2.2000   1
   4 -16  -2 27.4000  2.8000   1
   4 -16  -3 57.5000  3.3000   1
   4 -16  -4  4.7000  2.5000   1
   4 -16  -5  2.4000  2.7000   1
   4 -16  -6 82.1000  3.6000   1
   4 -16  -7 59.8000  2.9000   1
   4 -16  -8 42.6000  2.8000   1
  -4  16   8 37.8000  3.7000   1
   4 -16  -9  1.9000  2.0000   1
  -4  16   9 -2.0000  3.3000   1
   4 -16 -10 32.7000  3.0000   1
  -4  16  10 37.6000  4.6000   1
   4 -16 -11  7.1000  2.2000   1
  -4  16  11  7.5000  4.4000   1
   4 -16 -12  5.2000  2.3000   1
  -4  16  12 11.9000  3.9000   1
   4 -16 -13  1.6000  2.7000   1
  -4  16  13 -0.8000  4.9000   1
   4 -16 -14 81.7000  5.0000   1
  -4  16  14 90.2000  8.5000   1
   4 -16 -15 66.7000  6.5000   1
  -4  16  15 60.4000  8.1000   1
   4 -16 -16 22.8000  4.9000   1
  -4  16  16 19.3000  6.1000   1
   4 -16 -17 51.0000  5.4000   1
  -4  16  17 63.6000  8.6000   1
   4 -16 -18 15.8000  8.6000   1
  -4  16  18  8.8000  7.6000   1
   4 -17  11 -0.9000  6.2000   1
  -4  17 -11  0.6000  8.7000   1
   4 -17  10  5.5000  7.9000   1
  -4  17 -10  6.4000  8.3000   1
   4 -17   9 -1.0000  5.9000   1
  -4  17  -9 -4.5000  7.7000   1
   4 -17   8 30.6000  5.8000   1
  -4  17  -8 24.6000  7.4000   1
   4 -17   7  1.2000  3.3000   1
   4 -17   6 39.4000  4.4000   1
   4 -17   5  8.8000  3.2000   1
   4 -17   4  1.8000  2.8000   1
   4 -17   3  3.7000  3.1000   1
   4 -17   2 132.300   4.800   1
   4 -17   1 12.6000  1.9000   1
   4 -17   0 55.4000  3.2000   1
   4 -17  -1  0.0000  2.1000   1
   4 -17  -2 117.100   5.100   1
   4 -17  -3 12.4000  2.6000   1
   4 -17  -4 15.5000  2.8000   1
   4 -17  -5  6.8000  1.7000   1
   4 -17  -6 -0.7000  1.6000   1
   4 -17  -7 -1.1000  2.0000   1
   4 -17  -8 52.8000  3.9000   1
   4 -17  -9 11.5000  2.8000   1
  -4  17   9  8.6000  3.4000   1
   4 -17 -10 46.5000  4.3000   1
  -4  17  10 38.3000  4.8000   1
   4 -17 -11 14.8000  3.6000   1
  -4  17  11  6.2000  3.9000   1
   4 -17 -12 31.3000  7.4000   1
  -4  17  12 34.1000  5.4000   1
   4 -17 -13 -0.2000  5.8000   1
  -4  17  13 13.2000  5.1000   1
   4 -17 -14 13.0000  6.3000   1
  -4  17  14 21.2000  6.5000   1
   4 -17 -15  7.2000  4.8000   1
  -4  17  15  5.4000  5.7000   1
   4 -17 -16 14.4000  5.2000   1
  -4  17  16  5.6000  6.3000   1
   4 -18   9  7.7000  8.3000   1
  -4  18  -9  7.1000  8.0000   1
   4 -18   8 -2.5000  8.1000   1
   4 -18   7 -1.7000  4.3000   1
   4 -18   6  7.3000  3.6000   1
   4 -18   5 -0.4000  3.0000   1
   4 -18   4  1.5000  3.5000   1
   4 -18   3  6.9000  3.3000   1
   4 -18   2 12.1000  3.6000   1
   4 -18   1 36.1000  2.9000   1
   4 -18   0 73.8000  4.2000   1
   4 -18  -1  3.1000  2.7000   1
   4 -18  -2 34.9000  3.7000   1
   4 -18  -3  9.4000  2.8000   1
   4 -18  -4  6.6000  2.8000   1
   4 -18  -5 17.8000  3.0000   1
   4 -18  -6 66.0000  4.0000   1
   4 -18  -7 14.8000  4.0000   1
   4 -18  -8  7.9000  3.8000   1
   4 -18  -9 -2.5000  2.8000   1
   4 -18 -10 19.4000  3.5000   1
  -4  18  10 14.1000  4.3000   1
   4 -18 -11 12.3000  4.0000   1
  -4  18  11 15.7000  5.3000   1
   4 -18 -12 24.5000  7.1000   1
  -4  18  12 13.1000  5.8000   1
   4 -18 -13-10.8000  6.3000   1
  -4  18  13 -2.9000  4.4000   1
   4 -18 -14 16.6000  6.8000   1
  -4  18  14 23.6000  7.3000   1
   4 -18 -15 14.4000  4.7000   1
  -4  18  15 10.3000  6.1000   1
   4 -19   8-15.3000  8.1000   1
   4 -19   7 12.4000  8.4000   1
   4 -19   6 52.7000 11.1000   1
   4 -19   5 20.3000  4.6000   1
   4 -19   4 11.2000  3.6000   1
   4 -19   3  0.7000  3.8000   1
   4 -19   2 77.6000  6.6000   1
   4 -19   1 21.0000  4.0000   1
   4 -19   0 88.8000  4.7000   1
   4 -19  -1  5.1000  2.5000   1
   4 -19  -2  5.0000  3.2000   1
   4 -19  -3  5.2000  3.3000   1
   4 -19  -4 82.0000  5.0000   1
   4 -19  -5 26.9000  4.8000   1
   4 -19  -6 10.5000  3.9000   1
   4 -19  -7  0.4000  3.5000   1
   4 -19  -8 58.5000  5.5000   1
   4 -19  -9  1.8000  3.5000   1
   4 -19 -10 -2.2000  3.4000   1
   4 -19 -11 -0.3000  6.5000   1
   4 -19 -12 10.3000  7.2000   1
   4 -19 -13 19.7000  8.2000   1
   4 -19 -14 20.1000  7.8000   1
   4 -20   6 -3.3000  5.6000   1
   4 -20   5  0.1000  7.7000   1
   4 -20   4 16.5000  4.9000   1
   4 -20   3  2.8000  3.9000   1
   4 -20   2  3.3000  3.9000   1
   4 -20   1  5.6000  4.7000   1
   4 -20   0 125.600   7.000   1
   4 -20  -1  2.5000  2.5000   1
   4 -20  -2 -1.1000  2.8000   1
   4 -20  -3  0.9000  3.7000   1
   4 -20  -4 15.4000  4.0000   1
   4 -20  -5  1.4000  4.5000   1
   4 -20  -6  4.4000  4.0000   1
   4 -20  -7 -4.3000  3.9000   1
   4 -20  -8 21.0000  9.1000   1
   4 -20  -9 -6.0000  4.4000   1
   4 -20 -10 31.1000  9.0000   1
   4 -20 -11  3.0000  7.4000   1
   4 -20 -12 28.0000  8.5000   1
   4 -21   4  6.7000  6.0000   1
   4 -21   3  2.4000  4.9000   1
   4 -21   2 -4.6000  4.8000   1
   4 -21   1  8.7000  4.1000   1
   4 -21   0 -1.3000  4.9000   1
   4 -21  -1  5.6000  6.1000   1
   4 -21  -2  4.9000  4.8000   1
   4 -21  -3  1.9000  3.2000   1
   4 -21  -4  3.2000  4.5000   1
   4 -21  -5  8.5000  4.3000   1
   4 -21  -6 38.7000  6.9000   1
   4 -21  -7  4.8000  5.0000   1
   4 -22  -1  8.9000  7.0000   1
   4 -22  -2 16.8000  7.3000   1
   4 -22  -3  3.6000  6.7000   1
   4 -22  -4  8.1000  6.3000   1
   4 -22  -5 -2.9000  4.1000   1
   5   0  17  0.4000  5.0000   1
   5   0  16  9.4000  3.8000   1
   5   0  15  0.4000  2.9000   1
   5   0  14 48.0000  4.9000   1
   5   0  13  4.3000  3.1000   1
   5   0  12  0.6000  2.7000   1
   5   0  11  0.3000  2.3000   1
   5   0  10 215.400   9.800   1
   5   0   9  3.8000  1.2000   1
   5   0   8 48.6000  2.3000   1
   5   0   7 -1.1000  1.1000   1
   5   0   6 207.900   6.000   1
   5   0   5 -0.3000  1.1000   1
   5   0   4 22.8000  1.2000   1
   5   0   3  0.0000  0.8000   1
   5   0   2  0.7000  0.7000   1
   5   0   1  2.0000  0.9000   1
   5   0   0 42.4000  1.6000   1
   5   0  -1 -0.5000  0.8000   1
   5   0  -2 323.700   6.100   1
   5   0  -3  3.0000  0.8000   1
   5   0  -4  1.9000  1.0000   1
   5   0  -5  1.3000  1.0000   1
   5   0  -6 822.200  17.900   1
   5   0  -7  1.5000  1.0000   1
   5   0  -8 18.5000  1.4000   1
   5   0  -9 -0.4000  1.2000   1
   5   0 -10  4.2000  1.2000   1
   5   0 -11 -1.0000  1.1000   1
   5   0 -12 388.100   9.500   1
   5   0 -13 -0.3000  1.6000   1
   5   0 -14 60.6000  2.9000   1
   5   0 -15  3.4000  1.9000   1
   5   0 -16 762.000  23.200   1
   5   0 -17  4.8000  2.6000   1
   5   0 -18 56.4000  4.4000   1
   5   0 -19 -1.8000  2.3000   1
   5   0 -20  8.0000  4.1000   1
   5   0 -21  0.4000  4.4000   1
   5   0 -22 149.800   8.900   1
   5   0 -23  4.0000  3.5000   1
   5   0 -24  6.6000  8.5000   1
   5   0 -25 -5.4000  9.3000   1
   5  -1  17  7.9000  5.2000   1
  -5   1 -17 17.8000  5.9000   1
   5  -1  16 36.5000  5.2000   1
  -5   1 -16 39.7000  5.6000   1
   5  -1  15 44.2000  5.1000   1
  -5   1 -15 48.1000  5.0000   1
   5  -1  14  0.5000  3.5000   1
  -5   1 -14 -2.5000  3.2000   1
   5  -1  13  3.3000  3.3000   1
  -5   1 -13  2.5000  2.9000   1
   5  -1  12 154.000   5.700   1
  -5   1 -12 150.900   9.600   1
   5  -1  11 17.0000  1.8000   1
  -5   1 -11 23.3000  2.6000   1
   5  -1  10 23.3000  2.0000   1
  -5   1 -10 21.0000  3.1000   1
   5  -1   9  4.1000  1.5000   1
  -5   1  -9  2.2000  2.3000   1
   5  -1   8 146.300   4.900   1
  -5   1  -8 141.100   4.200   1
   5  -1   7  5.0000  1.4000   1
  -5   1  -7  3.1000  0.9000   1
   5  -1   6 51.0000  2.3000   1
  -5   1  -6 49.1000  2.0000   1
   5  -1   5 34.8000  2.3000   1
  -5   1  -5 33.7000  1.6000   1
   5  -1   4 91.9000  2.7000   1
  -5   1  -4 90.8000  2.7000   1
   5  -1   3 23.2000  1.2000   1
  -5   1  -3 23.2000  1.2000   1
   5  -1   2 818.200  15.900   1
  -5   1  -2 831.500  17.000   1
   5  -1   1  8.9000  1.0000   1
  -5   1  -1  6.8000  0.9000   1
   5  -1   0 265.700   5.400   1
  -5   1   0 265.500   4.900   1
   5  -1  -1 162.800   3.800   1
  -5   1   1 160.500   3.300   1
   5  -1  -2  0.0000  0.9000   1
  -5   1   2  1.7000  0.8000   1
   5  -1  -3 10.0000  1.0000   1
  -5   1   3  9.2000  1.2000   1
   5  -1  -4 366.000   7.700   1
  -5   1   4 372.300  10.000   1
   5  -1  -5 795.100  14.800   1
  -5   1   5 799.000  15.800   1
   5  -1  -6  3.9000  1.0000   1
  -5   1   6  4.3000  1.1000   1
   5  -1  -7 96.2000  3.0000   1
  -5   1   7 100.000   3.000   1
   5  -1  -8 268.900   6.200   1
  -5   1   8 279.400   7.000   1
   5  -1  -9 389.300   8.300   1
  -5   1   9 401.000  12.000   1
   5  -1 -10 18.8000  1.5000   1
  -5   1  10 16.1000  1.3000   1
   5  -1 -11 157.200   4.000   1
  -5   1  11 166.800   4.500   1
   5  -1 -12  0.7000  1.4000   1
  -5   1  12  2.7000  1.4000   1
   5  -1 -13 27.0000  2.0000   1
  -5   1  13 25.4000  2.2000   1
   5  -1 -14 271.000   8.500   1
  -5   1  14 282.900   8.500   1
   5  -1 -15  4.7000  1.8000   1
  -5   1  15  6.5000  2.1000   1
   5  -1 -16 138.400   5.500   1
  -5   1  16 136.000   5.300   1
   5  -1 -17 72.9000  5.0000   1
  -5   1  17 63.2000  3.7000   1
   5  -1 -18 36.8000  3.1000   1
  -5   1  18 43.3000  3.3000   1
   5  -1 -19 10.5000  2.8000   1
  -5   1  19 11.1000  3.2000   1
   5  -1 -20  1.8000  3.0000   1
  -5   1  20 -0.9000  3.1000   1
   5  -1 -21 14.9000  4.8000   1
  -5   1  21 12.8000  4.9000   1
   5  -1 -22 14.9000  5.3000   1
  -5   1  22 15.3000  4.2000   1
   5  -1 -23 37.6000  5.1000   1
  -5   1  23 34.0000  5.8000   1
   5  -1 -24  0.4000  8.6000   1
  -5   1  24  2.5000  7.8000   1
   5  -1 -25 16.6000 10.5000   1
  -5   1  25 -9.7000  8.7000   1
   5  -2  17 -1.8000  4.6000   1
  -5   2 -17  7.7000  8.2000   1
   5  -2  16 52.0000  5.8000   1
  -5   2 -16 55.7000  5.4000   1
   5  -2  15  8.6000  4.1000   1
  -5   2 -15 15.4000  3.9000   1
   5  -2  14  4.3000  2.0000   1
  -5   2 -14  1.1000  3.2000   1
   5  -2  13  8.4000  2.2000   1
  -5   2 -13  8.1000  2.9000   1
   5  -2  12 48.4000  3.0000   1
  -5   2 -12 46.2000  3.6000   1
   5  -2  11 15.1000  2.1000   1
  -5   2 -11 10.3000  2.7000   1
   5  -2  10  0.0000  1.6000   1
  -5   2 -10 -0.1000  2.0000   1
   5  -2   9  7.4000  1.5000   1
  -5   2  -9 11.7000  2.8000   1
   5  -2   8  3.5000  1.4000   1
  -5   2  -8  1.8000  2.1000   1
   5  -2   7  4.2000  1.9000   1
  -5   2  -7  3.0000  1.9000   1
   5  -2   6 -2.9000  1.4000   1
  -5   2  -6 -1.2000  1.6000   1
   5  -2   5  3.3000  1.9000   1
  -5   2  -5  3.5000  1.6000   1
   5  -2   4 337.500   7.400   1
  -5   2  -4 341.500   9.800   1
   5  -2   3 279.100   5.100   1
  -5   2  -3 283.800   6.800   1
   5  -2   2 244.800   5.000   1
  -5   2  -2 257.900   6.400   1
   5  -2   1 114.100   2.700   1
  -5   2  -1 114.900   3.000   1
   5  -2   0 22.4000  1.1000   1
  -5   2   0 21.0000  1.3000   1
   5  -2  -1 -0.8000  0.9000   1
  -5   2   1  3.3000  1.2000   1
   5  -2  -2 384.400   6.800   1
  -5   2   2 376.100   8.200   1
   5  -2  -3 22.3000  1.4000   1
  -5   2   3 19.7000  1.5000   1
   5  -2  -4 39.7000  1.7000   1
  -5   2   4 43.6000  1.9000   1
   5  -2  -5 630.000  13.200   1
  -5   2   5 649.600  15.100   1
   5  -2  -6 460.700   9.800   1
  -5   2   6 473.200  13.400   1
   5  -2  -7  8.5000  1.2000   1
  -5   2   7 11.5000  1.6000   1
   5  -2  -8 135.200   3.800   1
  -5   2   8 139.200   4.000   1
   5  -2  -9 71.9000  2.3000   1
  -5   2   9 78.2000  2.6000   1
   5  -2 -10 47.4000  2.6000   1
  -5   2  10 45.6000  2.0000   1
   5  -2 -11  5.9000  1.3000   1
  -5   2  11  0.6000  1.3000   1
   5  -2 -12 207.700   5.200   1
  -5   2  12 207.200   5.300   1
   5  -2 -13 16.1000  1.6000   1
  -5   2  13 12.8000  1.7000   1
   5  -2 -14 22.8000  2.0000   1
  -5   2  14 23.8000  2.2000   1
   5  -2 -15 18.8000  3.0000   1
  -5   2  15 25.2000  3.0000   1
   5  -2 -16 64.2000  4.2000   1
  -5   2  16 69.2000  4.4000   1
   5  -2 -17  1.1000  2.8000   1
  -5   2  17  2.5000  2.0000   1
   5  -2 -18 -2.7000  1.9000   1
  -5   2  18 -2.0000  2.1000   1
   5  -2 -19  7.1000  4.2000   1
  -5   2  19  0.7000  2.8000   1
   5  -2 -20 32.4000  4.1000   1
  -5   2  20 24.3000  2.9000   1
   5  -2 -21  1.9000  3.7000   1
  -5   2  21 -1.4000  3.1000   1
   5  -2 -22  6.7000  5.0000   1
  -5   2  22 -0.6000  4.4000   1
   5  -2 -23  3.0000  4.4000   1
  -5   2  23 11.8000  4.4000   1
   5  -2 -24 32.2000  9.8000   1
  -5   2  24  2.8000  7.9000   1
   5  -2 -25 -9.1000  9.9000   1
  -5   2  25  1.8000  8.9000   1
   5  -3  17  3.0000  4.8000   1
  -5   3 -17 -7.4000  7.8000   1
   5  -3  16 25.9000  5.5000   1
  -5   3 -16 30.7000  8.4000   1
   5  -3  15 15.8000  4.4000   1
  -5   3 -15 13.4000  3.9000   1
   5  -3  14  1.5000  2.2000   1
  -5   3 -14  2.0000  3.0000   1
   5  -3  13  6.0000  2.3000   1
  -5   3 -13  3.8000  3.2000   1
   5  -3  12 34.8000  2.9000   1
  -5   3 -12 36.6000  3.8000   1
   5  -3  11 18.2000  2.1000   1
  -5   3 -11 23.4000  2.9000   1
   5  -3  10  7.2000  1.9000   1
  -5   3 -10  6.7000  2.1000   1
   5  -3   9 50.2000  2.9000   1
  -5   3  -9 53.3000  3.8000   1
   5  -3   8 14.1000  1.7000   1
  -5   3  -8 12.5000  1.9000   1
   5  -3   7 20.0000  1.9000   1
  -5   3  -7 19.5000  2.2000   1
   5  -3   6 185.100   7.300   1
  -5   3  -6 184.800   6.700   1
   5  -3   5 45.9000  3.5000   1
  -5   3  -5 49.4000  2.6000   1
   5  -3   4  8.0000  0.9000   1
  -5   3  -4  4.6000  1.4000   1
   5  -3   3 21.1000  1.2000   1
  -5   3  -3 23.6000  1.5000   1
   5  -3   2 178.300   3.600   1
  -5   3  -2 178.500   4.500   1
   5  -3   1 157.000   3.600   1
  -5   3  -1 158.800   4.100   1
   5  -3   0 30.0000  1.2000   1
  -5   3   0 30.8000  1.4000   1
   5  -3  -1  7.1000  0.9000   1
  -5   3   1  7.4000  0.9000   1
   5  -3  -2 61.4000  1.7000   1
  -5   3   2 66.7000  2.5000   1
   5  -3  -3 194.200   4.500   1
  -5   3   3 188.700   4.600   1
   5  -3  -4 260.900   6.100   1
  -5   3   4 269.900   7.400   1
   5  -3  -5 1300.00   27.20   1
  -5   3   5 1347.80   30.70   1
   5  -3  -6 77.8000  2.5000   1
  -5   3   6 75.4000  2.9000   1
   5  -3  -7 1381.00   31.50   1
  -5   3   7 1411.10   32.40   1
   5  -3  -8 20.6000  1.5000   1
  -5   3   8 20.5000  1.5000   1
   5  -3  -9 30.4000  1.7000   1
  -5   3   9 27.1000  1.6000   1
   5  -3 -10 470.900  10.100   1
  -5   3  10 480.600  11.300   1
   5  -3 -11 189.100   4.900   1
  -5   3  11 186.300   4.900   1
   5  -3 -12  0.6000  1.2000   1
  -5   3  12  0.3000  1.6000   1
   5  -3 -13 324.000   8.100   1
  -5   3  13 323.800  10.600   1
   5  -3 -14 10.2000  1.6000   1
  -5   3  14 10.6000  2.2000   1
   5  -3 -15  4.2000  3.1000   1
  -5   3  15 -0.6000  1.9000   1
   5  -3 -16 10.1000  1.8000   1
  -5   3  16 15.7000  2.4000   1
   5  -3 -17 29.0000  3.0000   1
  -5   3  17 30.6000  2.9000   1
   5  -3 -18 125.200   6.400   1
  -5   3  18 106.200   5.000   1
   5  -3 -19 39.5000  6.0000   1
  -5   3  19 43.8000  3.5000   1
   5  -3 -20 81.0000  5.7000   1
  -5   3  20 82.7000  5.9000   1
   5  -3 -21  4.5000  4.0000   1
  -5   3  21  1.6000  4.4000   1
   5  -3 -22 19.2000  4.1000   1
  -5   3  22 11.6000  5.0000   1
   5  -3 -23 38.2000  9.1000   1
  -5   3  23 31.7000  7.8000   1
   5  -3 -24 11.2000  9.2000   1
  -5   3  24  9.9000  8.9000   1
   5  -3 -25  5.5000  7.1000   1
  -5   3  25 -6.2000  8.8000   1
   5  -4  17  9.5000  5.2000   1
  -5   4 -17 20.0000  8.5000   1
   5  -4  16 33.8000  5.4000   1
   5  -4  15  3.7000  5.7000   1
  -5   4 -15  2.5000  4.6000   1
   5  -4  14 20.2000  3.1000   1
  -5   4 -14 20.5000  3.2000   1
   5  -4  13 56.3000  3.8000   1
  -5   4 -13 57.9000  4.7000   1
   5  -4  12 12.4000  2.5000   1
  -5   4 -12 13.3000  2.5000   1
   5  -4  11  4.2000  3.1000   1
  -5   4 -11  4.7000  2.4000   1
   5  -4  10 -1.7000  2.3000   1
  -5   4 -10  0.7000  1.7000   1
   5  -4   9 681.200  16.400   1
  -5   4  -9 707.000  23.800   1
   5  -4   8 108.600   3.800   1
  -5   4  -8 106.600   5.000   1
   5  -4   7 632.600  14.400   1
  -5   4  -7 655.900  20.600   1
   5  -4   6 40.9000  2.5000   1
  -5   4  -6 39.5000  2.6000   1
   5  -4   5 204.400   7.900   1
  -5   4  -5 207.200   5.900   1
   5  -4   4  2.4000  0.8000   1
  -5   4  -4  5.3000  1.5000   1
   5  -4   3 172.700   4.300   1
  -5   4  -3 184.000   6.900   1
   5  -4   2 11.1000  0.9000   1
  -5   4  -2 12.7000  1.3000   1
   5  -4   1 14.0000  1.0000   1
  -5   4  -1 15.2000  1.1000   1
   5  -4   0 57.2000  1.8000   1
  -5   4   0 59.9000  1.9000   1
   5  -4  -1 708.800  14.100   1
  -5   4   1 704.200  17.800   1
   5  -4  -2 130.900   3.500   1
  -5   4   2 132.600   3.200   1
   5  -4  -3 648.100  13.000   1
  -5   4   3 646.200  14.500   1
   5  -4  -4 763.300  16.300   1
  -5   4   4 777.000  18.600   1
   5  -4  -5 1113.80   26.80   1
  -5   4   5 1131.00   27.60   1
   5  -4  -6 194.500   4.700   1
  -5   4   6 196.500   5.600   1
   5  -4  -7 1506.00   28.80   1
  -5   4   7 1491.70   30.70   1
   5  -4  -8 981.300  23.100   1
  -5   4   8 1005.60   21.40   1
   5  -4  -9 20.4000  1.5000   1
  -5   4   9 21.4000  1.4000   1
   5  -4 -10 41.2000  2.0000   1
  -5   4  10 40.1000  3.0000   1
   5  -4 -11 242.000   5.800   1
  -5   4  11 252.500   6.900   1
   5  -4 -12 42.1000  2.2000   1
  -5   4  12 43.4000  3.0000   1
   5  -4 -13 22.7000  1.9000   1
  -5   4  13 23.4000  2.7000   1
   5  -4 -14 63.6000  2.7000   1
  -5   4  14 68.6000  3.2000   1
   5  -4 -15 388.000   9.300   1
  -5   4  15 394.700  11.500   1
   5  -4 -16 23.7000  2.4000   1
  -5   4  16 30.0000  2.7000   1
   5  -4 -17 84.1000  4.7000   1
  -5   4  17 88.4000  4.3000   1
   5  -4 -18 129.700   7.200   1
  -5   4  18 128.700   5.700   1
  -5   4  19  2.0000  2.8000   1
   5  -4 -20 -3.0000  4.2000   1
  -5   4  20  4.3000  3.1000   1
   5  -4 -21 67.5000  5.4000   1
  -5   4  21 58.9000  5.4000   1
   5  -4 -22 -0.5000  3.7000   1
  -5   4  22 -0.7000  5.1000   1
   5  -4 -23 -6.4000  7.9000   1
  -5   4  23  6.4000  8.0000   1
   5  -4 -24 -1.3000  6.4000   1
  -5   4  24 -3.3000  8.4000   1
   5  -5  17 -9.6000  5.2000   1
  -5   5 -17 -4.0000  5.9000   1
   5  -5  16  3.3000  4.8000   1
  -5   5 -16  8.8000  5.4000   1
   5  -5  15 -1.3000  4.3000   1
  -5   5 -15 -1.0000  4.2000   1
   5  -5  14 -1.9000  2.9000   1
  -5   5 -14  2.1000  4.9000   1
   5  -5  13 18.4000  2.8000   1
  -5   5 -13 28.3000  3.0000   1
   5  -5  12  5.4000  2.3000   1
  -5   5 -12  1.0000  2.0000   1
   5  -5  11 -0.6000  2.2000   1
  -5   5 -11 -1.4000  2.0000   1
   5  -5  10  9.7000  2.3000   1
  -5   5 -10  5.0000  1.8000   1
   5  -5   9  8.8000  1.9000   1
  -5   5  -9  8.0000  1.8000   1
   5  -5   8  7.0000  1.8000   1
  -5   5  -8  8.9000  1.7000   1
   5  -5   7 35.1000  2.4000   1
  -5   5  -7 38.9000  3.3000   1
   5  -5   6 43.4000  2.4000   1
  -5   5  -6 45.1000  2.6000   1
   5  -5   5 176.700   4.300   1
  -5   5  -5 192.900   5.600   1
   5  -5   4  5.3000  0.8000   1
  -5   5  -4  6.3000  1.2000   1
   5  -5   3  8.2000  0.9000   1
  -5   5  -3 10.3000  1.1000   1
   5  -5   2 68.7000  1.8000   1
  -5   5  -2 68.8000  2.5000   1
   5  -5   1 357.200   6.600   1
  -5   5  -1 364.800   8.600   1
   5  -5   0  1.4000  0.8000   1
  -5   5   0  1.8000  0.8000   1
   5  -5  -1 10.9000  1.1000   1
  -5   5   1 11.0000  1.0000   1
   5  -5  -2  2.1000  0.9000   1
  -5   5   2  2.8000  0.8000   1
   5  -5  -3  1.4000  1.0000   1
  -5   5   3  0.5000  1.3000   1
   5  -5  -4 28.8000  1.9000   1
  -5   5   4 30.3000  2.0000   1
   5  -5  -5 509.400  13.100   1
  -5   5   5 512.900  11.600   1
   5  -5  -6  0.5000  1.4000   1
  -5   5   6  1.7000  1.4000   1
   5  -5  -7 62.5000  2.8000   1
  -5   5   7 68.6000  2.5000   1
   5  -5  -8 12.0000  1.8000   1
  -5   5   8 16.8000  1.8000   1
   5  -5  -9 91.3000  3.7000   1
  -5   5   9 92.8000  4.3000   1
   5  -5 -10  1.9000  1.4000   1
  -5   5  10  4.4000  2.0000   1
   5  -5 -11 69.7000  3.2000   1
  -5   5  11 77.2000  4.0000   1
   5  -5 -12 37.0000  2.5000   1
  -5   5  12 36.1000  2.3000   1
   5  -5 -13 433.300  12.100   1
  -5   5  13 445.700  11.300   1
   5  -5 -14  8.4000  1.8000   1
  -5   5  14  9.8000  1.9000   1
   5  -5 -15 36.6000  2.2000   1
  -5   5  15 45.6000  2.9000   1
   5  -5 -16 65.5000  2.9000   1
  -5   5  16 71.6000  3.5000   1
   5  -5 -17 163.500   5.600   1
  -5   5  17 184.300   6.400   1
   5  -5 -18 88.3000  5.5000   1
  -5   5  18 89.1000  4.2000   1
   5  -5 -19  3.0000  3.6000   1
  -5   5  19 11.7000  2.7000   1
   5  -5 -20  8.7000  3.3000   1
  -5   5  20 10.1000  2.8000   1
   5  -5 -21 27.5000  3.9000   1
  -5   5  21 20.4000  4.0000   1
   5  -5 -22 62.1000 10.7000   1
  -5   5  22 66.6000  6.2000   1
   5  -5 -23 15.3000  9.5000   1
  -5   5  23  5.2000  8.1000   1
   5  -5 -24  2.8000  8.8000   1
  -5   5  24  3.0000  6.0000   1
   5  -6  17  7.2000  4.8000   1
  -5   6 -17  7.7000  6.0000   1
   5  -6  16  5.7000  5.0000   1
  -5   6 -16 12.6000  7.9000   1
   5  -6  15  3.7000  4.2000   1
  -5   6 -15  8.9000  7.0000   1
   5  -6  14  6.8000  3.0000   1
  -5   6 -14 10.3000  4.9000   1
   5  -6  13  3.3000  2.7000   1
  -5   6 -13 -5.8000  4.6000   1
   5  -6  12 -1.8000  2.8000   1
  -5   6 -12  0.9000  1.1000   1
   5  -6  11  2.4000  2.5000   1
  -5   6 -11 -0.3000  1.6000   1
   5  -6  10 59.6000  3.7000   1
  -5   6 -10 60.8000  3.3000   1
   5  -6   9  4.5000  1.9000   1
  -5   6  -9  6.0000  1.4000   1
   5  -6   8 24.4000  2.3000   1
  -5   6  -8 25.7000  1.9000   1
   5  -6   7 101.400   3.600   1
  -5   6  -7 116.100   4.900   1
   5  -6   6  2.3000  2.1000   1
  -5   6  -6  0.2000  1.2000   1
   5  -6   5 26.7000  1.3000   1
  -5   6  -5 28.5000  1.6000   1
   5  -6   4 56.6000  2.1000   1
  -5   6  -4 58.7000  2.4000   1
   5  -6   3 549.500  10.000   1
  -5   6  -3 552.800  17.500   1
   5  -6   2 12.4000  0.9000   1
  -5   6  -2 12.8000  1.1000   1
   5  -6   1 112.400   3.200   1
  -5   6  -1 110.400   3.400   1
   5  -6   0  0.4000  1.0000   1
  -5   6   0  2.4000  0.8000   1
   5  -6  -1 987.500  21.900   1
  -5   6   1 1017.70   24.90   1
   5  -6  -2 193.700   5.500   1
  -5   6   2 202.200   5.500   1
   5  -6  -3 179.300   5.600   1
  -5   6   3 181.600   4.400   1
   5  -6  -4 393.800  10.200   1
  -5   6   4 399.300  12.300   1
   5  -6  -5 297.300   8.200   1
  -5   6   5 308.800   8.500   1
   5  -6  -6 341.300   9.400   1
  -5   6   6 335.300   9.100   1
   5  -6  -7  0.2000  1.5000   1
  -5   6   7  1.1000  1.8000   1
   5  -6  -8 24.9000  2.0000   1
  -5   6   8 26.5000  2.5000   1
   5  -6  -9 199.800   6.800   1
  -5   6   9 183.500   6.700   1
   5  -6 -10 117.500   3.900   1
  -5   6  10 116.000   5.000   1
   5  -6 -11 17.4000  2.0000   1
  -5   6  11 19.6000  1.6000   1
   5  -6 -12 107.400   4.200   1
  -5   6  12 124.500   5.600   1
   5  -6 -13 46.2000  2.8000   1
  -5   6  13 42.4000  2.8000   1
   5  -6 -14  3.4000  1.6000   1
  -5   6  14  3.3000  1.9000   1
   5  -6 -15 69.6000  2.9000   1
  -5   6  15 68.7000  3.5000   1
   5  -6 -16  7.1000  1.7000   1
  -5   6  16  4.2000  2.2000   1
   5  -6 -17 10.9000  2.0000   1
  -5   6  17  8.6000  2.6000   1
   5  -6 -18 13.6000  3.2000   1
  -5   6  18 16.4000  2.8000   1
   5  -6 -19 16.9000  4.4000   1
  -5   6  19 11.9000  2.9000   1
   5  -6 -20  8.9000  4.5000   1
  -5   6  20 -2.1000  2.5000   1
   5  -6 -21 -2.5000  4.5000   1
  -5   6  21  4.7000  3.7000   1
   5  -6 -22 27.3000  8.7000   1
   5  -6 -23 11.0000  7.3000   1
  -5   6  23  0.4000  7.1000   1
   5  -6 -24 14.9000  9.1000   1
  -5   6  24 22.0000  9.4000   1
   5  -7  16 11.2000  5.6000   1
  -5   7 -16 21.7000  8.5000   1
   5  -7  15  7.0000  4.2000   1
  -5   7 -15 16.8000  8.3000   1
   5  -7  14 29.3000  4.0000   1
  -5   7 -14 45.5000  8.0000   1
   5  -7  13 -2.0000  2.7000   1
  -5   7 -13  5.7000  4.9000   1
   5  -7  12  8.2000  2.8000   1
  -5   7 -12  0.8000  4.4000   1
   5  -7  11 97.9000  5.2000   1
  -5   7 -11 89.8000  6.4000   1
   5  -7  10 231.000   7.900   1
  -5   7 -10 245.500   9.700   1
   5  -7   9 28.9000  2.7000   1
  -5   7  -9 30.5000  3.2000   1
   5  -7   8 140.000   4.800   1
  -5   7  -8 137.100   8.200   1
   5  -7   7 213.300   8.400   1
  -5   7  -7 240.500  11.300   1
   5  -7   6 427.900  13.100   1
  -5   7  -6 428.600  10.500   1
   5  -7   5 431.200   9.200   1
  -5   7  -5 458.400  14.600   1
   5  -7   4 23.2000  1.4000   1
  -5   7  -4 24.7000  1.3000   1
   5  -7   3 16.6000  1.0000   1
  -5   7  -3 21.2000  1.4000   1
   5  -7   2  0.6000  0.7000   1
  -5   7  -2  1.0000  2.5000   1
   5  -7   1 107.300   4.000   1
  -5   7  -1 109.000   3.200   1
   5  -7   0 -0.1000  1.3000   1
  -5   7   0  2.3000  1.3000   1
   5  -7  -1  9.5000  1.3000   1
  -5   7   1  8.1000  1.3000   1
   5  -7  -2  2.7000  1.2000   1
  -5   7   2  3.5000  1.7000   1
   5  -7  -3 661.500  14.600   1
  -5   7   3 680.200  19.800   1
   5  -7  -4 529.300  13.400   1
  -5   7   4 538.200  13.400   1
   5  -7  -5 134.600   4.500   1
  -5   7   5 143.100   4.500   1
   5  -7  -6 39.7000  2.4000   1
  -5   7   6 41.4000  2.1000   1
   5  -7  -7 135.900   4.600   1
  -5   7   7 121.100   4.200   1
   5  -7  -8  2.6000  1.7000   1
  -5   7   8  2.5000  1.3000   1
   5  -7  -9  2.6000  1.7000   1
  -5   7   9  1.8000  1.3000   1
   5  -7 -10 41.7000  2.9000   1
  -5   7  10 44.1000  2.3000   1
   5  -7 -11 115.100   4.600   1
  -5   7  11 118.800   4.300   1
   5  -7 -12 75.5000  3.6000   1
  -5   7  12 69.2000  3.2000   1
   5  -7 -13 44.1000  2.8000   1
  -5   7  13 50.6000  2.9000   1
   5  -7 -14 12.1000  2.2000   1
  -5   7  14 12.7000  2.1000   1
   5  -7 -15 26.2000  2.1000   1
  -5   7  15 21.9000  2.3000   1
   5  -7 -16  4.0000  2.7000   1
  -5   7  16  2.6000  2.1000   1
   5  -7 -17 58.4000  4.5000   1
  -5   7  17 60.7000  3.7000   1
   5  -7 -18  9.0000  2.9000   1
  -5   7  18  6.0000  2.4000   1
   5  -7 -19 15.6000  3.9000   1
  -5   7  19 10.2000  3.1000   1
   5  -7 -20 34.4000  7.3000   1
  -5   7  20 12.7000  2.9000   1
   5  -7 -21 -1.6000  6.9000   1
  -5   7  21  8.1000  4.2000   1
   5  -7 -22  9.7000  6.5000   1
  -5   7  22  6.4000  7.3000   1
   5  -7 -23 16.3000  9.9000   1
  -5   7  23 28.1000  6.6000   1
   5  -7 -24 -3.4000  6.2000   1
  -5   7  24 15.8000  9.9000   1
   5  -8  16  5.2000  5.2000   1
  -5   8 -16 -6.3000  8.2000   1
   5  -8  15 12.5000  3.6000   1
  -5   8 -15 16.7000  9.0000   1
   5  -8  14  5.3000  3.4000   1
  -5   8 -14 -5.7000  7.6000   1
   5  -8  13 19.4000  3.5000   1
  -5   8 -13 25.9000  6.0000   1
   5  -8  12 111.400   5.600   1
  -5   8 -12 93.3000  9.8000   1
   5  -8  11  0.9000  2.6000   1
  -5   8 -11 -7.6000  6.2000   1
   5  -8  10 13.2000  2.9000   1
  -5   8 -10 23.1000  5.9000   1
   5  -8   9 24.8000  2.7000   1
  -5   8  -9 21.9000  5.5000   1
   5  -8   8 12.5000  2.1000   1
  -5   8  -8  7.4000  5.3000   1
   5  -8   7  2.4000  2.0000   1
  -5   8  -7  2.7000  3.4000   1
   5  -8   6 294.000   6.400   1
  -5   8  -6 295.400  14.100   1
   5  -8   5 186.400   4.600   1
   5  -8   4 23.0000  1.4000   1
  -5   8  -4 18.6000  3.6000   1
   5  -8   3 41.9000  1.6000   1
  -5   8  -3 47.9000  4.6000   1
   5  -8   2 10.8000  0.9000   1
  -5   8  -2  2.9000  3.2000   1
   5  -8   1  1.9000  1.3000   1
  -5   8  -1 -1.7000  3.2000   1
   5  -8   0 16.2000  1.9000   1
  -5   8   0 19.7000  3.8000   1
   5  -8  -1 10.7000  1.5000   1
  -5   8   1 13.5000  2.7000   1
   5  -8  -2 75.6000  3.1000   1
  -5   8   2 90.7000  4.7000   1
   5  -8  -3 178.100   4.600   1
  -5   8   3 186.500   7.400   1
   5  -8  -4  0.1000  1.1000   1
  -5   8   4  3.1000  0.7000   1
   5  -8  -5  1.0000  2.1000   1
  -5   8   5  2.7000  0.9000   1
   5  -8  -6 21.9000  2.1000   1
  -5   8   6 24.5000  1.6000   1
   5  -8  -7 95.8000  3.7000   1
  -5   8   7 100.900   3.600   1
   5  -8  -8 39.7000  2.4000   1
  -5   8   8 37.3000  2.1000   1
   5  -8  -9 24.5000  2.3000   1
  -5   8   9 20.1000  1.7000   1
   5  -8 -10 25.7000  2.2000   1
  -5   8  10 24.2000  1.9000   1
   5  -8 -11 26.6000  2.4000   1
  -5   8  11 30.5000  2.2000   1
   5  -8 -12 -1.8000  1.8000   1
  -5   8  12 -1.0000  1.7000   1
   5  -8 -13 74.8000  3.6000   1
  -5   8  13 70.4000  3.3000   1
   5  -8 -14 184.300   6.300   1
  -5   8  14 178.200   6.300   1
   5  -8 -15 63.8000  3.8000   1
  -5   8  15 66.5000  3.5000   1
   5  -8 -16  5.5000  2.6000   1
  -5   8  16  4.0000  2.6000   1
   5  -8 -17  3.6000  3.0000   1
  -5   8  17  3.3000  2.4000   1
   5  -8 -18 19.3000  2.9000   1
  -5   8  18 16.6000  2.9000   1
   5  -8 -19 -2.0000  2.6000   1
  -5   8  19 -0.3000  2.5000   1
   5  -8 -20 85.3000  8.3000   1
  -5   8  20 82.1000  4.9000   1
  -5   8  21  5.0000  3.4000   1
   5  -8 -22 17.6000  8.3000   1
  -5   8  22 20.0000  8.1000   1
   5  -8 -23 11.8000  7.9000   1
  -5   8  23  5.7000  7.9000   1
   5  -9  16  8.0000  5.3000   1
  -5   9 -16  1.3000  9.0000   1
   5  -9  15  5.5000  4.0000   1
  -5   9 -15 -7.0000  8.3000   1
   5  -9  14  7.5000  3.6000   1
  -5   9 -14 -2.8000  7.5000   1
   5  -9  13  5.3000  3.8000   1
   5  -9  12  0.0000  2.9000   1
  -5   9 -12 -9.2000  6.4000   1
   5  -9  11  9.6000  2.8000   1
  -5   9 -11  5.6000  4.5000   1
   5  -9  10  9.6000  2.8000   1
  -5   9 -10 10.7000  6.2000   1
   5  -9   9 -3.5000  2.3000   1
  -5   9  -9  7.0000  6.3000   1
   5  -9   8 17.5000  2.4000   1
  -5   9  -8 15.4000  4.4000   1
   5  -9   7 113.800   4.600   1
  -5   9  -7 111.000   7.500   1
   5  -9   6  2.0000  0.9000   1
   5  -9   5 270.900   6.000   1
   5  -9   4 14.4000  1.7000   1
   5  -9   3 20.6000  1.0000   1
  -5   9  -3 21.8000  3.5000   1
   5  -9   2 14.5000  1.4000   1
  -5   9  -2 24.5000  3.8000   1
   5  -9   1 311.600   7.900   1
   5  -9   0  5.9000  1.3000   1
   5  -9  -1  3.0000  1.5000   1
  -5   9   1 10.3000  3.8000   1
   5  -9  -2 13.7000  1.8000   1
  -5   9   2 17.5000  2.6000   1
   5  -9  -3  3.1000  1.6000   1
  -5   9   3  0.5000  2.4000   1
   5  -9  -4  6.5000  1.6000   1
  -5   9   4  2.4000  2.5000   1
   5  -9  -5 43.9000  2.7000   1
  -5   9   5 42.2000  1.9000   1
   5  -9  -6 -0.2000  1.2000   1
  -5   9   6  1.0000  1.1000   1
   5  -9  -7  7.8000  1.8000   1
  -5   9   7  8.0000  1.4000   1
   5  -9  -8 37.0000  2.4000   1
  -5   9   8 40.3000  2.3000   1
   5  -9  -9 50.9000  3.0000   1
  -5   9   9 50.4000  2.5000   1
   5  -9 -10  6.6000  2.3000   1
  -5   9  10  8.7000  1.7000   1
   5  -9 -11  2.1000  1.9000   1
  -5   9  11 -4.1000  1.7000   1
   5  -9 -12  4.6000  2.2000   1
  -5   9  12  0.9000  1.7000   1
   5  -9 -13 47.4000  3.0000   1
  -5   9  13 56.6000  3.1000   1
   5  -9 -14 17.4000  2.5000   1
  -5   9  14 19.2000  2.3000   1
   5  -9 -15 54.6000  4.4000   1
  -5   9  15 54.8000  3.4000   1
   5  -9 -16  2.8000  2.1000   1
  -5   9  16  2.4000  2.3000   1
   5  -9 -17  6.1000  2.3000   1
  -5   9  17 -3.4000  2.3000   1
   5  -9 -18 86.7000  4.4000   1
  -5   9  18 77.9000  4.3000   1
   5  -9 -19  3.4000  4.2000   1
  -5   9  19  2.4000  2.7000   1
   5  -9 -20  1.7000  6.8000   1
  -5   9  20  1.3000  3.9000   1
   5  -9 -21  9.2000  7.9000   1
  -5   9  21 30.4000  7.8000   1
   5  -9 -22 41.0000  8.4000   1
  -5   9  22 66.1000 10.2000   1
   5  -9 -23 24.6000  9.8000   1
  -5   9  23 10.9000  5.6000   1
   5 -10  15 -1.5000  4.0000   1
  -5  10 -15  2.5000  8.2000   1
   5 -10  14 24.1000  4.0000   1
  -5  10 -14 31.8000  7.4000   1
   5 -10  13 -1.5000  3.6000   1
  -5  10 -13 21.1000  7.6000   1
   5 -10  12 54.8000  4.3000   1
  -5  10 -12 78.6000 10.1000   1
   5 -10  11 24.9000  3.1000   1
  -5  10 -11 25.3000  5.2000   1
   5 -10  10  2.9000  3.0000   1
  -5  10 -10 -3.9000  5.8000   1
   5 -10   9  9.7000  2.5000   1
  -5  10  -9 20.5000  7.0000   1
   5 -10   8 253.900   8.800   1
  -5  10  -8 239.400  15.300   1
   5 -10   7  5.6000  0.8000   1
   5 -10   6 94.7000  2.7000   1
   5 -10   5  2.3000  1.3000   1
  -5  10  -5 10.5000  3.8000   1
   5 -10   4 228.600   6.500   1
  -5  10  -4 237.300  12.700   1
   5 -10   3  1.4000  0.7000   1
  -5  10  -3 -0.4000  3.0000   1
   5 -10   2 16.1000  1.4000   1
  -5  10  -2 12.5000  3.4000   1
   5 -10   1 136.700   5.200   1
   5 -10   0 56.9000  3.4000   1
   5 -10  -1 20.4000  2.5000   1
  -5  10   1 19.4000  3.6000   1
   5 -10  -2 310.800  11.100   1
  -5  10   2 325.600  18.600   1
   5 -10  -3 222.100   6.700   1
  -5  10   3 251.900   9.100   1
   5 -10  -4  1.0000  1.7000   1
  -5  10   4  4.7000  2.5000   1
   5 -10  -5 208.700   6.500   1
  -5  10   5 198.500   5.800   1
   5 -10  -6  2.5000  2.2000   1
  -5  10   6  6.2000  1.2000   1
   5 -10  -7 45.0000  3.3000   1
  -5  10   7 47.3000  2.4000   1
   5 -10  -8 13.3000  1.7000   1
  -5  10   8 16.2000  1.7000   1
   5 -10  -9 35.4000  2.7000   1
  -5  10   9 35.6000  2.4000   1
   5 -10 -10 83.1000  3.7000   1
  -5  10  10 86.1000  3.7000   1
   5 -10 -11 202.200   6.900   1
  -5  10  11 211.200   6.900   1
   5 -10 -12 18.0000  2.5000   1
  -5  10  12 14.8000  2.1000   1
   5 -10 -13 13.0000  2.7000   1
  -5  10  13 13.2000  2.3000   1
   5 -10 -14 175.700   8.800   1
  -5  10  14 179.700   6.600   1
   5 -10 -15 105.600   5.600   1
  -5  10  15 100.800   4.400   1
   5 -10 -16 137.600   5.500   1
  -5  10  16 127.900   5.500   1
   5 -10 -17 -1.5000  2.3000   1
  -5  10  17  2.5000  3.1000   1
   5 -10 -18  4.8000  5.8000   1
  -5  10  18  2.8000  2.3000   1
   5 -10 -19 73.6000  5.6000   1
  -5  10  19 64.6000  5.6000   1
   5 -10 -20 13.2000  4.2000   1
  -5  10  20 13.5000  4.2000   1
  -5  10  21 31.2000  7.6000   1
   5 -10 -22 12.9000  9.0000   1
  -5  10  22 -3.5000  5.8000   1
   5 -11  15  1.6000  5.8000   1
  -5  11 -15  2.4000  8.9000   1
   5 -11  14  8.0000  3.5000   1
  -5  11 -14 17.8000  6.6000   1
   5 -11  13 -1.1000  3.4000   1
  -5  11 -13  5.9000  8.6000   1
   5 -11  12 -4.2000  2.8000   1
  -5  11 -12 10.0000  7.4000   1
   5 -11  11 -1.9000  2.9000   1
  -5  11 -11  2.5000  7.2000   1
   5 -11  10  1.0000  2.7000   1
  -5  11 -10  3.1000  6.3000   1
   5 -11   9 50.4000  3.7000   1
  -5  11  -9 40.1000  8.1000   1
   5 -11   8 -2.4000  2.4000   1
  -5  11  -8  1.0000  5.6000   1
   5 -11   7  3.7000  1.0000   1
   5 -11   6 81.9000  3.1000   1
   5 -11   5 208.500   4.800   1
  -5  11  -5 201.200  11.900   1
   5 -11   4 32.5000  1.9000   1
  -5  11  -4 36.3000  6.5000   1
   5 -11   3 33.8000  2.9000   1
  -5  11  -3 46.8000  6.4000   1
   5 -11   2 10.2000  1.3000   1
   5 -11   1 298.700  12.300   1
   5 -11   0 47.3000  2.8000   1
   5 -11  -1 158.100   5.100   1
   5 -11  -2 24.5000  1.9000   1
  -5  11   2 41.3000  5.3000   1
   5 -11  -3 116.200   4.500   1
  -5  11   3 119.000   9.100   1
   5 -11  -4 10.1000  2.5000   1
  -5  11   4  7.3000  2.7000   1
   5 -11  -5 232.900   5.900   1
  -5  11   5 230.800   8.500   1
   5 -11  -6  1.5000  1.4000   1
  -5  11   6 -2.4000  1.1000   1
   5 -11  -7 20.0000  2.5000   1
  -5  11   7 25.7000  2.0000   1
   5 -11  -8 46.1000  3.2000   1
  -5  11   8 50.2000  2.6000   1
   5 -11  -9 80.4000  3.8000   1
  -5  11   9 78.8000  3.4000   1
   5 -11 -10 39.1000  3.0000   1
  -5  11  10 37.6000  2.5000   1
   5 -11 -11 92.6000  4.3000   1
  -5  11  11 85.4000  3.6000   1
   5 -11 -12  2.7000  2.4000   1
  -5  11  12  6.4000  2.3000   1
   5 -11 -13 87.1000  5.4000   1
  -5  11  13 93.5000  4.0000   1
   5 -11 -14  0.3000  2.4000   1
  -5  11  14 -0.8000  2.3000   1
   5 -11 -15 27.6000  3.4000   1
  -5  11  15 37.7000  3.0000   1
   5 -11 -16  0.5000  1.9000   1
  -5  11  16  2.1000  2.4000   1
   5 -11 -17 29.1000  3.1000   1
  -5  11  17 33.8000  3.2000   1
   5 -11 -18  2.5000  2.5000   1
  -5  11  18  4.1000  3.8000   1
   5 -11 -19 29.2000  4.7000   1
  -5  11  19 24.3000  4.4000   1
   5 -11 -20 -1.4000  4.1000   1
  -5  11  20 -2.5000  6.4000   1
   5 -11 -21  2.3000  8.8000   1
  -5  11  21 19.6000  7.4000   1
   5 -11 -22 22.2000 10.1000   1
  -5  11  22 19.4000  9.0000   1
   5 -12  14 -2.1000  5.7000   1
  -5  12 -14  4.6000  8.4000   1
   5 -12  13 13.2000  5.5000   1
  -5  12 -13-15.2000  7.4000   1
   5 -12  12  4.8000  3.1000   1
  -5  12 -12  5.2000  5.3000   1
   5 -12  11 17.2000  3.2000   1
  -5  12 -11 21.5000  7.8000   1
   5 -12  10 77.7000  4.8000   1
  -5  12 -10 76.9000  8.2000   1
   5 -12   9 71.3000  4.6000   1
  -5  12  -9 77.0000  9.6000   1
   5 -12   8  4.9000  1.0000   1
  -5  12  -8  1.7000  6.5000   1
   5 -12   7 49.7000  2.5000   1
   5 -12   6 -1.4000  1.4000   1
  -5  12  -6  3.4000  4.4000   1
   5 -12   5 68.0000  2.7000   1
   5 -12   4 84.2000  3.7000   1
   5 -12   3 551.700  15.300   1
   5 -12   2 34.2000  2.3000   1
   5 -12   1 15.7000  1.9000   1
   5 -12   0  1.2000  2.1000   1
   5 -12  -1 727.800  22.500   1
   5 -12  -2 381.400  11.200   1
   5 -12  -3 121.000   4.900   1
  -5  12   3 135.100  10.800   1
   5 -12  -4 41.3000  3.1000   1
  -5  12   4 42.4000  6.1000   1
   5 -12  -5 512.100  15.800   1
  -5  12   5 490.000  23.100   1
   5 -12  -6  1.4000  2.4000   1
  -5  12   6  2.7000  1.3000   1
   5 -12  -7 68.6000  3.5000   1
  -5  12   7 61.5000  2.8000   1
   5 -12  -8 277.800  10.500   1
  -5  12   8 275.200   8.500   1
   5 -12  -9 172.200   6.600   1
  -5  12   9 170.100   6.100   1
   5 -12 -10 19.2000  2.5000   1
  -5  12  10 28.5000  2.4000   1
   5 -12 -11 197.500   7.300   1
  -5  12  11 193.400   7.200   1
   5 -12 -12 16.1000  2.3000   1
  -5  12  12 10.9000  2.4000   1
   5 -12 -13 12.1000  2.3000   1
  -5  12  13 14.5000  2.4000   1
   5 -12 -14 11.0000  2.2000   1
  -5  12  14 11.0000  2.3000   1
   5 -12 -15 67.5000  4.1000   1
  -5  12  15 74.9000  4.0000   1
   5 -12 -16 13.6000  2.7000   1
  -5  12  16 14.4000  2.6000   1
   5 -12 -17 43.1000  3.9000   1
  -5  12  17 29.7000  4.6000   1
   5 -12 -18  1.9000  3.0000   1
  -5  12  18  4.7000  4.0000   1
   5 -12 -19 23.1000  5.0000   1
  -5  12  19 18.5000  4.7000   1
   5 -12 -20 16.1000  4.6000   1
  -5  12  20 26.7000  7.9000   1
   5 -12 -21 -2.0000  8.9000   1
  -5  12  21  4.1000  5.4000   1
   5 -13  13 -9.6000  5.7000   1
  -5  13 -13 -1.4000  8.4000   1
   5 -13  12 31.7000  8.8000   1
  -5  13 -12 15.1000  6.7000   1
   5 -13  11 36.3000  6.0000   1
  -5  13 -11 58.3000  9.3000   1
   5 -13  10 15.9000  3.3000   1
  -5  13 -10 14.8000  7.9000   1
   5 -13   9  8.7000  2.6000   1
  -5  13  -9  9.9000  5.7000   1
   5 -13   8  3.4000  1.5000   1
  -5  13  -8  4.8000  4.2000   1
   5 -13   7  2.8000  1.5000   1
  -5  13  -7 18.5000  4.7000   1
   5 -13   6 46.4000  2.4000   1
   5 -13   5 37.1000  1.9000   1
  -5  13  -5 45.0000  7.0000   1
   5 -13   4  5.9000  2.8000   1
  -5  13  -4  9.2000  3.8000   1
   5 -13   3 25.1000  2.9000   1
   5 -13   2 71.2000  3.9000   1
   5 -13   1 170.400   6.800   1
   5 -13   0 60.5000  3.4000   1
   5 -13  -1 86.6000  3.6000   1
   5 -13  -2 244.400   8.400   1
   5 -13  -3 412.400  13.100   1
   5 -13  -4  2.7000  2.2000   1
  -5  13   4  2.3000  3.6000   1
   5 -13  -5 16.0000  2.6000   1
  -5  13   5 12.0000  4.5000   1
   5 -13  -6 403.000  12.300   1
  -5  13   6 406.200  23.100   1
   5 -13  -7 421.600  13.200   1
  -5  13   7 408.100  10.900   1
   5 -13  -8 76.3000  4.0000   1
  -5  13   8 81.8000  3.8000   1
   5 -13  -9 73.4000  4.1000   1
  -5  13   9 85.2000  3.8000   1
   5 -13 -10 -4.8000  2.7000   1
  -5  13  10 -1.0000  1.8000   1
   5 -13 -11 -4.2000  1.8000   1
  -5  13  11 -0.3000  2.0000   1
   5 -13 -12  2.7000  2.1000   1
  -5  13  12 -0.3000  2.2000   1
   5 -13 -13 86.2000  4.7000   1
  -5  13  13 89.5000  4.3000   1
   5 -13 -14  0.6000  2.2000   1
  -5  13  14  5.0000  2.5000   1
   5 -13 -15 15.0000  2.7000   1
  -5  13  15 14.0000  2.7000   1
   5 -13 -16  1.3000  2.7000   1
  -5  13  16  4.1000  3.6000   1
   5 -13 -17 70.3000  5.9000   1
  -5  13  17 47.6000  5.2000   1
   5 -13 -18 11.3000  3.1000   1
  -5  13  18  7.5000  4.0000   1
   5 -13 -19  6.5000  4.3000   1
  -5  13  19  5.5000  6.0000   1
   5 -13 -20  8.2000  8.6000   1
  -5  13  20  8.4000  6.5000   1
   5 -14  12  5.5000  4.5000   1
  -5  14 -12  0.0000  8.1000   1
   5 -14  11 10.8000  4.7000   1
  -5  14 -11 10.6000  8.5000   1
   5 -14  10 31.9000  5.6000   1
  -5  14 -10 26.5000  8.6000   1
   5 -14   9 -5.1000  4.9000   1
  -5  14  -9  4.7000  7.4000   1
   5 -14   8 47.3000  6.1000   1
  -5  14  -8 47.3000  7.6000   1
   5 -14   7 18.8000  1.9000   1
  -5  14  -7 19.7000  6.2000   1
   5 -14   6 47.2000  2.3000   1
   5 -14   5 12.6000  2.7000   1
   5 -14   4 25.0000  4.5000   1
   5 -14   3 14.9000  4.3000   1
   5 -14   2 20.4000  1.9000   1
   5 -14   1  0.2000  1.9000   1
   5 -14   0 85.8000  3.8000   1
   5 -14  -1 14.4000  2.2000   1
   5 -14  -2 22.4000  2.9000   1
   5 -14  -3 37.2000  3.0000   1
   5 -14  -4 132.700   5.300   1
   5 -14  -5  2.5000  2.3000   1
   5 -14  -6 27.6000  3.0000   1
  -5  14   6 27.0000  5.8000   1
   5 -14  -7 28.7000  3.5000   1
  -5  14   7 26.1000  2.4000   1
   5 -14  -8 16.8000  2.9000   1
  -5  14   8 14.5000  2.2000   1
   5 -14  -9  0.4000  2.7000   1
  -5  14   9  2.1000  1.9000   1
   5 -14 -10  5.0000  2.2000   1
  -5  14  10  9.0000  2.0000   1
   5 -14 -11 79.0000  4.0000   1
  -5  14  11 84.5000  4.0000   1
   5 -14 -12  7.2000  2.2000   1
  -5  14  12  8.1000  2.4000   1
   5 -14 -13 -1.8000  2.0000   1
  -5  14  13  3.1000  2.4000   1
   5 -14 -14  0.2000  2.5000   1
  -5  14  14  3.8000  2.7000   1
   5 -14 -15 15.6000  2.8000   1
  -5  14  15 20.3000  4.1000   1
   5 -14 -16  3.5000  3.0000   1
  -5  14  16  1.9000  3.8000   1
   5 -14 -17  6.7000  2.8000   1
  -5  14  17  0.3000  4.2000   1
   5 -14 -18  2.8000  4.8000   1
  -5  14  18  2.7000  5.9000   1
   5 -14 -19  7.5000  4.4000   1
  -5  14  19  6.5000  7.2000   1
   5 -14 -20 10.1000  9.3000   1
  -5  14  20 -1.7000  7.9000   1
   5 -15  12  5.4000  9.5000   1
  -5  15 -12  9.3000  9.1000   1
   5 -15  11  8.9000  5.4000   1
   5 -15  10 -9.7000  5.7000   1
  -5  15 -10 11.9000  7.9000   1
   5 -15   9 -4.0000  5.3000   1
  -5  15  -9 -1.0000  6.9000   1
   5 -15   8 -2.0000  4.4000   1
  -5  15  -8 -4.5000  6.9000   1
   5 -15   7  2.6000  2.6000   1
  -5  15  -7  5.8000  6.4000   1
   5 -15   6 17.5000  2.9000   1
  -5  15  -6 27.5000  6.7000   1
   5 -15   5 16.3000  3.1000   1
   5 -15   4 -1.7000  2.7000   1
   5 -15   3 78.7000  4.4000   1
   5 -15   2 38.6000  1.8000   1
   5 -15   1 97.2000  4.8000   1
   5 -15   0 20.0000  2.9000   1
   5 -15  -1  2.3000  2.6000   1
   5 -15  -2 34.4000  2.8000   1
   5 -15  -3 151.900   6.100   1
   5 -15  -4 68.7000  4.9000   1
   5 -15  -5 87.5000  4.6000   1
   5 -15  -6 11.4000  2.4000   1
   5 -15  -7 55.9000  3.4000   1
   5 -15  -8  2.1000  2.0000   1
  -5  15   8  2.1000  2.0000   1
   5 -15  -9 77.8000  4.5000   1
  -5  15   9 75.7000  4.4000   1
   5 -15 -10 32.0000  3.9000   1
  -5  15  10 34.6000  3.0000   1
   5 -15 -11 -0.4000  2.2000   1
  -5  15  11  0.0000  3.2000   1
   5 -15 -12 12.7000  2.6000   1
  -5  15  12 18.8000  2.9000   1
   5 -15 -13  4.2000  2.4000   1
  -5  15  13  6.9000  2.7000   1
   5 -15 -14 95.0000  4.8000   1
  -5  15  14 104.700   6.500   1
   5 -15 -15 42.8000  4.3000   1
  -5  15  15 37.3000  4.6000   1
   5 -15 -16  0.1000  3.0000   1
  -5  15  16 -2.5000  4.3000   1
   5 -15 -17 -1.1000  4.4000   1
  -5  15  17  7.9000  5.8000   1
   5 -15 -18 -0.4000  4.8000   1
  -5  15  18  7.2000  6.2000   1
   5 -15 -19 -2.9000  8.7000   1
  -5  15  19  8.9000  7.1000   1
   5 -16  10  2.4000  4.6000   1
  -5  16 -10  4.7000  6.3000   1
   5 -16   9 12.6000  5.5000   1
  -5  16  -9 12.9000  8.6000   1
   5 -16   8 -0.3000  5.5000   1
  -5  16  -8 -2.7000  7.5000   1
   5 -16   7  1.9000  5.2000   1
  -5  16  -7  6.7000  6.9000   1
   5 -16   6  7.8000  3.3000   1
   5 -16   5  8.9000  2.9000   1
   5 -16   4  0.4000  2.7000   1
   5 -16   3 23.8000  3.5000   1
   5 -16   2 -1.4000  3.0000   1
   5 -16   1 16.1000  2.5000   1
   5 -16   0  7.1000  2.7000   1
   5 -16  -1 73.3000  4.6000   1
   5 -16  -2 -0.8000  2.2000   1
   5 -16  -3 11.8000  2.6000   1
   5 -16  -4 35.0000  3.4000   1
   5 -16  -5 142.000   6.000   1
   5 -16  -6  7.6000  2.8000   1
   5 -16  -7 26.0000  3.3000   1
   5 -16  -8  3.7000  2.8000   1
   5 -16  -9  3.0000  3.2000   1
  -5  16   9  1.5000  2.6000   1
   5 -16 -10  0.3000  2.9000   1
  -5  16  10  4.1000  3.0000   1
   5 -16 -11 12.7000  3.4000   1
  -5  16  11 13.5000  3.5000   1
   5 -16 -12  0.1000  3.7000   1
  -5  16  12  1.5000  4.0000   1
   5 -16 -13 55.0000  4.6000   1
  -5  16  13 53.2000  6.2000   1
   5 -16 -14 29.0000  4.4000   1
  -5  16  14 17.7000  5.1000   1
   5 -16 -15  4.1000  5.8000   1
  -5  16  15  6.6000  4.6000   1
   5 -16 -16 57.4000  8.2000   1
  -5  16  16 68.7000  8.4000   1
   5 -16 -17 19.5000  5.0000   1
  -5  16  17 31.3000  7.1000   1
   5 -16 -18  5.7000  4.9000   1
  -5  16  18  9.6000  7.3000   1
   5 -17   9 21.3000  8.9000   1
  -5  17  -9 19.8000  9.2000   1
   5 -17   8 12.6000  5.3000   1
  -5  17  -8  3.6000  5.5000   1
   5 -17   7 -3.6000  5.5000   1
   5 -17   6 -0.3000  4.1000   1
   5 -17   5  0.8000  2.9000   1
   5 -17   4  4.7000  3.3000   1
   5 -17   3  2.3000  3.0000   1
   5 -17   2 -2.2000  2.9000   1
   5 -17   1  2.9000  1.8000   1
   5 -17   0  5.9000  4.4000   1
   5 -17  -1 35.6000  3.3000   1
   5 -17  -2  3.6000  2.4000   1
   5 -17  -3  9.3000  3.0000   1
   5 -17  -4 -1.4000  2.9000   1
   5 -17  -5  5.4000  3.5000   1
   5 -17  -6 20.1000  3.9000   1
   5 -17  -7  7.0000  3.6000   1
   5 -17  -8 -0.7000  3.7000   1
   5 -17  -9 -3.6000  3.1000   1
   5 -17 -10 60.1000  5.3000   1
  -5  17  10 57.1000  5.5000   1
   5 -17 -11  3.1000  3.6000   1
  -5  17  11  7.2000  3.8000   1
   5 -17 -12  5.3000  3.2000   1
  -5  17  12  7.8000  3.6000   1
   5 -17 -13 51.0000  5.2000   1
  -5  17  13 37.1000  5.2000   1
   5 -17 -14 11.5000  6.5000   1
  -5  17  14 13.8000  5.5000   1
   5 -17 -15 21.7000  7.3000   1
  -5  17  15 17.6000  5.3000   1
   5 -17 -16 13.6000  6.9000   1
  -5  17  16  5.8000  7.4000   1
   5 -17 -17 16.1000  5.7000   1
  -5  17  17  8.4000  6.5000   1
   5 -18   8 28.0000  9.2000   1
   5 -18   7 10.8000  6.7000   1
   5 -18   6  0.2000  7.3000   1
   5 -18   5  0.5000  4.7000   1
   5 -18   4 22.9000  4.0000   1
   5 -18   3  2.4000  3.6000   1
   5 -18   2 11.1000  5.2000   1
   5 -18   1 41.2000  4.3000   1
   5 -18   0  6.6000  2.3000   1
   5 -18  -1  9.6000  3.4000   1
   5 -18  -2  1.4000  4.5000   1
   5 -18  -3  1.4000  3.0000   1
   5 -18  -4 -3.5000  3.9000   1
   5 -18  -5 15.6000  3.8000   1
   5 -18  -6  3.4000  3.3000   1
   5 -18  -7  4.8000  3.6000   1
   5 -18  -8 -3.6000  3.5000   1
   5 -18  -9 38.3000  4.3000   1
   5 -18 -10  8.7000  3.7000   1
   5 -18 -11  1.6000  4.0000   1
   5 -18 -12 -3.4000  3.0000   1
   5 -18 -13 12.1000  6.5000   1
   5 -18 -14 18.5000  7.2000   1
   5 -18 -15  3.4000  7.8000   1
   5 -19   6  5.6000  6.4000   1
   5 -19   5 12.0000  8.6000   1
   5 -19   4  0.5000  4.1000   1
   5 -19   3  0.9000  3.7000   1
   5 -19   2 -0.9000  3.0000   1
   5 -19   1 44.0000  4.5000   1
   5 -19   0 10.1000  4.0000   1
   5 -19  -1 54.0000  3.8000   1
   5 -19  -2  0.0000  2.9000   1
   5 -19  -3  9.9000  4.7000   1
   5 -19  -4  8.7000  5.0000   1
   5 -19  -5 36.1000  5.2000   1
   5 -19  -6  5.8000  3.7000   1
   5 -19  -7 20.1000  4.5000   1
   5 -19  -8  4.0000  3.9000   1
   5 -19  -9 54.7000  6.1000   1
   5 -19 -10 -8.8000  4.6000   1
   5 -19 -11  3.7000  5.3000   1
   5 -19 -12  3.7000  7.5000   1
   5 -19 -13 -2.8000  7.5000   1
   5 -19 -14 22.4000  8.4000   1
   5 -20   4  6.0000  5.4000   1
   5 -20   3 22.4000  5.5000   1
   5 -20   2 -3.8000  4.4000   1
   5 -20   1  3.0000  4.6000   1
   5 -20   0 -8.4000  4.8000   1
   5 -20  -1 19.4000  5.5000   1
   5 -20  -2  7.7000  4.8000   1
   5 -20  -3  2.8000  3.7000   1
   5 -20  -4 10.3000  4.4000   1
   5 -20  -5  5.2000  4.0000   1
   5 -20  -6  8.1000  4.4000   1
   5 -20  -7 28.4000  5.7000   1
   5 -20  -8 -1.6000  4.4000   1
   5 -20  -9 13.4000  4.0000   1
   5 -20 -10  2.2000  8.7000   1
   5 -20 -11 30.6000  7.4000   1
   5 -20 -12  9.1000  8.1000   1
   5 -21   1 27.6000  9.0000   1
   5 -21   0 12.2000  5.2000   1
   5 -21  -1 14.7000  5.4000   1
   5 -21  -2  7.4000  5.3000   1
   5 -21  -3 73.2000  7.2000   1
   5 -21  -4  3.0000  4.9000   1
   5 -21  -5 60.5000  8.3000   1
   5 -21  -6 47.9000  7.9000   1
   5 -21  -7  4.3000  5.1000   1
   5 -21  -8  6.5000  7.3000   1
   6   0  16  0.0000  3.8000   1
   6   0  15  0.7000  3.6000   1
   6   0  14 70.5000  5.6000   1
   6   0  13 -0.1000  4.3000   1
   6   0  12  0.1000  2.7000   1
   6   0  11  0.0000  3.2000   1
   6   0  10 77.7000  3.0000   1
   6   0   9 -0.2000  1.2000   1
   6   0   8 327.800  10.400   1
   6   0   7 -0.7000  1.4000   1
   6   0   6  1.9000  1.2000   1
   6   0   5  2.6000  1.2000   1
   6   0   4 141.600   4.800   1
   6   0   3  0.8000  1.0000   1
   6   0   2 735.200  15.400   1
   6   0   1  1.6000  1.0000   1
   6   0   0 43.6000  1.6000   1
   6   0  -1  1.0000  0.9000   1
   6   0  -2 99.4000  2.8000   1
   6   0  -3  0.2000  0.8000   1
   6   0  -4 552.100  12.500   1
   6   0  -5  2.1000  1.2000   1
   6   0  -6  5.7000  1.2000   1
   6   0  -7  3.5000  1.4000   1
   6   0  -8 250.700   5.900   1
   6   0  -9  0.0000  1.3000   1
   6   0 -10 26.4000  1.5000   1
   6   0 -11 -1.9000  1.6000   1
   6   0 -12 417.700  11.200   1
   6   0 -13  1.9000  1.5000   1
   6   0 -14 87.5000  3.5000   1
   6   0 -15  3.8000  1.8000   1
   6   0 -16 147.600   5.900   1
   6   0 -17  1.8000  2.0000   1
   6   0 -18  6.4000  2.7000   1
   6   0 -19 -5.2000  2.6000   1
   6   0 -20  3.7000  4.3000   1
   6   0 -21  4.8000  3.2000   1
   6   0 -22 19.6000  5.8000   1
   6   0 -23 -8.1000  5.3000   1
   6   0 -24 12.8000  7.0000   1
   6   0 -25 -4.3000  9.1000   1
   6  -1  16 -0.5000  4.7000   1
  -6   1 -16 -6.7000  7.9000   1
   6  -1  15  8.9000  4.9000   1
  -6   1 -15 15.2000  4.5000   1
   6  -1  14  6.4000  4.2000   1
  -6   1 -14 12.4000  3.9000   1
   6  -1  13 58.8000  5.2000   1
  -6   1 -13 71.7000  5.4000   1
   6  -1  12  7.9000  1.4000   1
  -6   1 -12  8.5000  3.8000   1
   6  -1  11  6.8000  1.6000   1
  -6   1 -11  6.4000  3.2000   1
   6  -1  10 185.600   6.000   1
  -6   1 -10 165.800   7.700   1
   6  -1   9  6.8000  1.6000   1
  -6   1  -9  6.5000  2.2000   1
   6  -1   8  4.2000  1.7000   1
  -6   1  -8  9.6000  2.7000   1
   6  -1   7 19.0000  1.9000   1
  -6   1  -7 20.5000  1.5000   1
   6  -1   6 53.9000  2.8000   1
  -6   1  -6 56.1000  2.5000   1
   6  -1   5  2.0000  1.0000   1
  -6   1  -5  0.1000  1.0000   1
   6  -1   4 114.500   3.500   1
  -6   1  -4 109.000   3.600   1
   6  -1   3 20.6000  1.2000   1
  -6   1  -3 22.2000  1.4000   1
   6  -1   2 41.2000  1.6000   1
  -6   1  -2 40.7000  1.5000   1
   6  -1   1  0.8000  1.2000   1
  -6   1  -1  1.5000  0.9000   1
   6  -1   0 42.7000  1.6000   1
  -6   1   0 43.8000  1.6000   1
   6  -1  -1 309.100   6.500   1
  -6   1   1 304.300   6.800   1
   6  -1  -2  0.7000  0.9000   1
  -6   1   2  4.4000  1.3000   1
   6  -1  -3 69.5000  2.0000   1
  -6   1   3 75.9000  2.8000   1
   6  -1  -4 16.0000  1.2000   1
  -6   1   4 15.7000  1.4000   1
   6  -1  -5 20.8000  1.4000   1
  -6   1   5 15.6000  1.4000   1
   6  -1  -6 22.6000  1.7000   1
  -6   1   6 20.7000  1.7000   1
   6  -1  -7 62.7000  2.1000   1
  -6   1   7 53.2000  2.3000   1
   6  -1  -8 96.4000  3.2000   1
  -6   1   8 91.7000  3.6000   1
   6  -1  -9 199.400   4.500   1
  -6   1   9 201.000   5.800   1
   6  -1 -10 28.6000  1.9000   1
  -6   1  10 39.9000  2.5000   1
   6  -1 -11 133.800   3.800   1
  -6   1  11 144.200   4.400   1
   6  -1 -12 241.400   5.800   1
  -6   1  12 235.600   6.000   1
   6  -1 -13 22.8000  2.2000   1
  -6   1  13 30.0000  2.1000   1
   6  -1 -14 149.100   5.500   1
  -6   1  14 152.000   4.500   1
   6  -1 -15  1.7000  1.6000   1
  -6   1  15  2.0000  1.7000   1
   6  -1 -16 203.800   7.700   1
  -6   1  16 198.200   7.200   1
   6  -1 -17 51.6000  4.4000   1
  -6   1  17 53.7000  3.4000   1
   6  -1 -18 171.600   8.200   1
  -6   1  18 162.300   6.100   1
   6  -1 -19  3.2000  2.9000   1
  -6   1  19  0.5000  2.7000   1
   6  -1 -20 29.7000  5.6000   1
  -6   1  20 41.6000  4.4000   1
   6  -1 -21 28.9000  4.5000   1
  -6   1  21 29.8000  5.6000   1
   6  -1 -22  8.2000  5.3000   1
  -6   1  22  9.4000  4.8000   1
   6  -1 -23 -1.1000  4.6000   1
  -6   1  23 -0.5000  3.4000   1
   6  -1 -24 10.6000  7.0000   1
  -6   1  24 -2.1000  7.7000   1
   6  -1 -25 91.7000 12.2000   1
  -6   1  25 59.0000 11.4000   1
   6  -2  16 14.4000  6.9000   1
  -6   2 -16 13.2000  8.2000   1
   6  -2  15  0.7000  4.6000   1
  -6   2 -15  7.5000  7.2000   1
   6  -2  14 41.3000  4.8000   1
  -6   2 -14 40.1000  6.2000   1
   6  -2  13  5.1000  3.8000   1
  -6   2 -13  6.5000  3.8000   1
   6  -2  12 39.0000  2.8000   1
  -6   2 -12 35.3000  5.6000   1
   6  -2  11  1.3000  1.7000   1
  -6   2 -11 -1.9000  2.6000   1
   6  -2  10  0.9000  1.8000   1
  -6   2 -10  5.2000  2.7000   1
   6  -2   9  6.8000  1.8000   1
  -6   2  -9  6.3000  2.6000   1
   6  -2   8 10.9000  1.9000   1
  -6   2  -8  9.8000  2.4000   1
   6  -2   7 11.4000  2.0000   1
  -6   2  -7 11.7000  2.6000   1
   6  -2   6 112.300   4.700   1
  -6   2  -6 108.700   5.000   1
   6  -2   5 50.7000  2.3000   1
  -6   2  -5 46.0000  3.1000   1
   6  -2   4 29.8000  1.8000   1
  -6   2  -4 30.3000  1.9000   1
   6  -2   3 203.400   5.200   1
  -6   2  -3 197.100   5.100   1
   6  -2   2 299.000   6.600   1
  -6   2  -2 316.200   7.000   1
   6  -2   1 15.6000  1.1000   1
  -6   2  -1 15.8000  1.3000   1
   6  -2   0 174.400   3.800   1
  -6   2   0 182.600   4.300   1
   6  -2  -1 1405.20   27.50   1
  -6   2   1 1398.50   26.40   1
   6  -2  -2 460.500   8.100   1
  -6   2   2 463.100  10.400   1
   6  -2  -3  1.1000  1.0000   1
  -6   2   3  1.3000  1.1000   1
   6  -2  -4 95.4000  3.0000   1
  -6   2   4 100.900   3.500   1
   6  -2  -5 608.800  13.400   1
  -6   2   5 611.900  15.600   1
   6  -2  -6 141.300   3.600   1
  -6   2   6 140.700   4.900   1
   6  -2  -7 294.200   6.800   1
  -6   2   7 295.000   7.300   1
   6  -2  -8 51.4000  2.1000   1
  -6   2   8 50.1000  2.7000   1
   6  -2  -9 86.1000  2.9000   1
  -6   2   9 83.6000  3.5000   1
   6  -2 -10 11.4000  1.4000   1
  -6   2  10 15.5000  1.6000   1
   6  -2 -11 102.500   3.300   1
  -6   2  11 101.300   3.300   1
   6  -2 -12 25.0000  1.8000   1
  -6   2  12 25.7000  1.8000   1
   6  -2 -13 132.800   3.900   1
  -6   2  13 127.700   4.000   1
   6  -2 -14 173.200   4.800   1
  -6   2  14 180.200   5.100   1
   6  -2 -15 74.6000  3.1000   1
  -6   2  15 83.3000  3.9000   1
   6  -2 -16 135.700   5.200   1
  -6   2  16 149.800   5.400   1
   6  -2 -17 280.700  12.500   1
  -6   2  17 282.900  12.100   1
   6  -2 -18 53.9000  3.9000   1
  -6   2  18 64.3000  4.5000   1
   6  -2 -19 58.2000  6.7000   1
  -6   2  19 48.8000  3.7000   1
   6  -2 -20 48.7000  6.9000   1
  -6   2  20 39.8000  4.6000   1
   6  -2 -21  9.2000  3.1000   1
  -6   2  21  7.2000  4.5000   1
   6  -2 -22 101.300  10.400   1
  -6   2  22 113.800   7.400   1
  -6   2  23  0.2000  4.9000   1
   6  -2 -24 25.8000  9.8000   1
  -6   2  24 31.0000  9.0000   1
   6  -2 -25 44.7000 10.7000   1
  -6   2  25 55.9000 11.9000   1
   6  -3  16  7.9000  5.0000   1
  -6   3 -16  3.1000  5.5000   1
   6  -3  15 40.2000  5.6000   1
  -6   3 -15 44.7000  8.7000   1
   6  -3  14  3.8000  4.1000   1
  -6   3 -14  3.8000  3.1000   1
   6  -3  13  3.3000  4.1000   1
  -6   3 -13  2.4000  2.7000   1
   6  -3  12  3.0000  2.4000   1
  -6   3 -12  3.0000  3.2000   1
   6  -3  11 64.8000  3.6000   1
  -6   3 -11 60.1000  4.7000   1
   6  -3  10  3.1000  2.0000   1
  -6   3 -10  7.4000  2.4000   1
   6  -3   9 18.7000  2.3000   1
  -6   3  -9 16.6000  2.5000   1
   6  -3   8 13.5000  2.5000   1
  -6   3  -8 11.7000  2.5000   1
   6  -3   7 20.9000  2.2000   1
  -6   3  -7 22.0000  2.5000   1
   6  -3   6 106.500   3.600   1
  -6   3  -6 110.600   5.000   1
   6  -3   5  3.3000  2.1000   1
  -6   3  -5  3.5000  1.7000   1
   6  -3   4 469.800  11.700   1
  -6   3  -4 477.300  13.600   1
   6  -3   3 161.900   3.600   1
  -6   3  -3 161.100   5.100   1
   6  -3   2 54.9000  1.8000   1
  -6   3  -2 53.6000  2.3000   1
   6  -3   1 112.800   2.800   1
  -6   3  -1 110.400   3.100   1
   6  -3   0 191.100   4.800   1
  -6   3   0 195.800   4.400   1
   6  -3  -1 510.700   9.800   1
  -6   3   1 500.600  11.300   1
   6  -3  -2 150.900   3.400   1
  -6   3   2 152.800   3.800   1
   6  -3  -3 390.500   6.900   1
  -6   3   3 388.200  10.500   1
   6  -3  -4 245.400   6.100   1
  -6   3   4 236.200   6.600   1
   6  -3  -5 11.5000  1.4000   1
  -6   3   5 10.1000  1.6000   1
   6  -3  -6 203.000   5.200   1
  -6   3   6 197.500   5.900   1
   6  -3  -7 113.200   3.300   1
  -6   3   7 109.300   4.300   1
   6  -3  -8 25.3000  1.8000   1
  -6   3   8 30.4000  2.1000   1
   6  -3  -9 106.800   3.700   1
  -6   3   9 108.100   4.000   1
   6  -3 -10 -1.2000  1.3000   1
  -6   3  10  0.0000  1.4000   1
   6  -3 -11 -0.2000  1.4000   1
  -6   3  11 -0.5000  1.4000   1
   6  -3 -12 59.4000  2.7000   1
  -6   3  12 62.3000  2.8000   1
   6  -3 -13 170.600   5.100   1
  -6   3  13 171.800   5.000   1
   6  -3 -14 284.800   9.100   1
  -6   3  14 292.600   8.500   1
   6  -3 -15  0.0000  1.4000   1
  -6   3  15  1.0000  1.8000   1
   6  -3 -16 25.8000  2.3000   1
  -6   3  16 41.9000  3.2000   1
   6  -3 -17 77.0000  4.0000   1
  -6   3  17 87.3000  4.5000   1
   6  -3 -18 38.3000  4.2000   1
  -6   3  18 41.6000  3.4000   1
   6  -3 -19  7.5000  4.9000   1
  -6   3  19 13.1000  3.0000   1
   6  -3 -20  4.0000  3.2000   1
  -6   3  20  8.1000  2.8000   1
   6  -3 -21 53.3000  6.7000   1
  -6   3  21 47.6000  5.2000   1
   6  -3 -22 47.5000  5.9000   1
  -6   3  22 50.2000  7.7000   1
   6  -3 -23 10.3000  6.2000   1
  -6   3  23 13.1000  6.6000   1
   6  -3 -24 21.9000  9.3000   1
  -6   3  24 36.3000  9.9000   1
   6  -3 -25 66.2000 13.1000   1
  -6   3  25 58.3000 11.5000   1
   6  -4  16  7.7000  5.4000   1
  -6   4 -16 -3.8000  7.9000   1
   6  -4  15 12.9000  4.9000   1
  -6   4 -15  1.3000  7.4000   1
   6  -4  14  2.7000  3.4000   1
  -6   4 -14 -6.3000  6.8000   1
   6  -4  13 62.2000  4.0000   1
  -6   4 -13 63.7000  5.4000   1
   6  -4  12 33.5000  2.8000   1
  -6   4 -12 34.7000  3.8000   1
   6  -4  11 -0.1000  2.2000   1
  -6   4 -11  6.5000  2.7000   1
   6  -4  10  5.3000  2.1000   1
  -6   4 -10  3.0000  2.1000   1
   6  -4   9 27.8000  2.6000   1
  -6   4  -9 30.5000  2.8000   1
   6  -4   8 140.800   4.700   1
  -6   4  -8 150.000   6.800   1
   6  -4   7 52.8000  2.8000   1
  -6   4  -7 55.6000  3.3000   1
   6  -4   6 13.9000  1.8000   1
  -6   4  -6 16.9000  2.2000   1
   6  -4   5  1.3000  0.8000   1
  -6   4  -5  2.6000  1.7000   1
   6  -4   4 11.2000  1.2000   1
  -6   4  -4  9.7000  1.6000   1
   6  -4   3 57.8000  1.8000   1
  -6   4  -3 60.2000  3.2000   1
   6  -4   2 208.200   4.000   1
  -6   4  -2 215.500   6.000   1
   6  -4   1 10.2000  1.2000   1
  -6   4  -1  9.1000  1.2000   1
   6  -4   0 76.7000  2.5000   1
  -6   4   0 70.9000  2.5000   1
   6  -4  -1  4.3000  1.1000   1
  -6   4   1  4.0000  0.9000   1
   6  -4  -2 -0.8000  1.1000   1
  -6   4   2  0.8000  0.8000   1
   6  -4  -3 500.500  10.000   1
  -6   4   3 485.900  10.600   1
   6  -4  -4 287.300   6.900   1
  -6   4   4 295.600   7.700   1
   6  -4  -5 734.500  18.100   1
  -6   4   5 723.500  17.000   1
   6  -4  -6 85.4000  2.9000   1
  -6   4   6 90.4000  3.4000   1
   6  -4  -7 95.0000  3.2000   1
  -6   4   7 96.9000  3.6000   1
   6  -4  -8 95.0000  3.0000   1
  -6   4   8 95.5000  3.5000   1
   6  -4  -9  1.1000  1.2000   1
  -6   4   9  1.4000  1.3000   1
   6  -4 -10 107.200   3.400   1
  -6   4  10 110.200   3.300   1
   6  -4 -11 236.100   5.700   1
  -6   4  11 236.800   6.000   1
   6  -4 -12 16.1000  1.8000   1
  -6   4  12 15.1000  1.9000   1
   6  -4 -13 15.5000  2.0000   1
  -6   4  13 13.1000  2.1000   1
   6  -4 -14 44.6000  2.6000   1
  -6   4  14 49.4000  3.6000   1
   6  -4 -15 389.500   9.500   1
  -6   4  15 403.700  15.700   1
   6  -4 -16 146.700   4.300   1
  -6   4  16 142.400   6.900   1
   6  -4 -17 33.2000  2.5000   1
  -6   4  17 40.0000  3.7000   1
   6  -4 -18 46.7000  3.6000   1
  -6   4  18 48.9000  3.4000   1
   6  -4 -19 135.200  10.500   1
  -6   4  19 137.300   5.800   1
   6  -4 -20  2.0000  3.8000   1
  -6   4  20  2.7000  3.0000   1
   6  -4 -21 100.600  11.100   1
  -6   4  21 118.500   7.600   1
   6  -4 -22 53.6000  9.3000   1
  -6   4  22 18.9000  7.3000   1
   6  -4 -23 11.1000  6.2000   1
  -6   4  23 20.0000  6.1000   1
   6  -4 -24 -0.9000  8.2000   1
  -6   4  24  0.5000  8.2000   1
   6  -4 -25-11.1000  6.2000   1
  -6   4  25  7.7000  8.9000   1
   6  -5  16  9.0000  5.2000   1
  -6   5 -16 15.5000  8.9000   1
   6  -5  15 10.2000  4.7000   1
  -6   5 -15  6.0000  7.5000   1
   6  -5  14 -0.4000  4.5000   1
  -6   5 -14 -3.8000  7.7000   1
   6  -5  13  6.5000  3.1000   1
  -6   5 -13 -0.2000  7.1000   1
   6  -5  12 62.2000  4.2000   1
  -6   5 -12 57.4000  4.6000   1
   6  -5  11  8.9000  2.5000   1
  -6   5 -11  3.5000  2.1000   1
   6  -5  10  4.8000  2.3000   1
  -6   5 -10  6.6000  2.4000   1
   6  -5   9 103.400   4.600   1
  -6   5  -9 111.300   5.500   1
   6  -5   8 31.8000  2.6000   1
  -6   5  -8 29.8000  2.3000   1
   6  -5   7 60.7000  3.0000   1
  -6   5  -7 55.8000  3.2000   1
   6  -5   6 124.800   4.100   1
  -6   5  -6 119.100   5.700   1
   6  -5   5 258.500   6.300   1
  -6   5  -5 257.300   9.500   1
   6  -5   4 70.2000  2.5000   1
  -6   5  -4 77.1000  3.5000   1
   6  -5   3 122.000   2.900   1
  -6   5  -3 119.900   4.700   1
   6  -5   2  5.2000  0.9000   1
  -6   5  -2  5.1000  1.2000   1
   6  -5   1 777.300  17.700   1
  -6   5  -1 771.500  14.400   1
   6  -5   0 25.6000  1.5000   1
  -6   5   0 24.4000  1.5000   1
   6  -5  -1 50.5000  2.3000   1
  -6   5   1 47.9000  1.8000   1
   6  -5  -2 179.100   4.900   1
  -6   5   2 180.600   4.400   1
   6  -5  -3 712.200  12.300   1
  -6   5   3 738.800  16.300   1
   6  -5  -4 82.8000  2.9000   1
  -6   5   4 83.0000  3.3000   1
   6  -5  -5 118.100   3.600   1
  -6   5   5 119.500   3.600   1
   6  -5  -6  2.1000  1.3000   1
  -6   5   6  2.1000  1.6000   1
   6  -5  -7 -1.0000  1.4000   1
  -6   5   7  1.5000  1.1000   1
   6  -5  -8 127.700   3.900   1
  -6   5   8 132.600   3.900   1
   6  -5  -9  3.3000  1.4000   1
  -6   5   9  4.5000  1.5000   1
   6  -5 -10 64.2000  2.7000   1
  -6   5  10 71.5000  3.2000   1
   6  -5 -11 -0.1000  1.4000   1
  -6   5  11 -1.6000  1.9000   1
   6  -5 -12  3.4000  1.3000   1
  -6   5  12  3.8000  1.9000   1
   6  -5 -13  2.4000  1.6000   1
  -6   5  13 -1.0000  2.1000   1
   6  -5 -14  3.9000  2.1000   1
  -6   5  14  3.5000  1.8000   1
   6  -5 -15 99.0000  3.9000   1
  -6   5  15 90.4000  4.0000   1
   6  -5 -16 83.6000  3.4000   1
  -6   5  16 81.7000  4.1000   1
   6  -5 -17 23.8000  2.4000   1
  -6   5  17 24.0000  3.0000   1
   6  -5 -18 16.8000  2.8000   1
  -6   5  18 15.6000  2.7000   1
   6  -5 -19 -3.1000  4.8000   1
  -6   5  19  6.9000  2.7000   1
   6  -5 -20  3.6000  3.7000   1
  -6   5  20  2.7000  2.2000   1
   6  -5 -21 44.8000  9.4000   1
  -6   5  21 40.3000  4.5000   1
  -6   5  22  3.9000  3.5000   1
   6  -5 -23 -8.6000  7.3000   1
  -6   5  23 10.4000  6.5000   1
  -6   5  24  3.8000  6.3000   1
   6  -6  15  0.6000  4.4000   1
   6  -6  14 12.9000  4.8000   1
  -6   6 -14 11.6000  8.0000   1
   6  -6  13 29.2000  3.9000   1
  -6   6 -13  4.9000  7.3000   1
   6  -6  12 76.9000  4.5000   1
  -6   6 -12 61.1000  9.5000   1
   6  -6  11 30.8000  3.1000   1
  -6   6 -11 23.1000  2.1000   1
   6  -6  10  4.2000  2.4000   1
  -6   6 -10  5.5000  1.7000   1
   6  -6   9 22.2000  2.7000   1
  -6   6  -9 34.1000  2.3000   1
   6  -6   8 158.700   5.700   1
  -6   6  -8 176.100   6.200   1
   6  -6   7 89.9000  3.8000   1
  -6   6  -7 98.6000  4.4000   1
   6  -6   6 15.5000  1.9000   1
  -6   6  -6 13.6000  1.8000   1
   6  -6   5 162.000   4.900   1
  -6   6  -5 161.200   5.100   1
   6  -6   4 78.6000  2.7000   1
  -6   6  -4 83.9000  3.6000   1
   6  -6   3 86.4000  2.5000   1
  -6   6  -3 85.5000  3.3000   1
   6  -6   2 67.1000  2.3000   1
  -6   6  -2 66.1000  2.6000   1
   6  -6   1  2.9000  1.1000   1
  -6   6  -1  0.7000  1.0000   1
   6  -6   0  4.8000  1.1000   1
  -6   6   0  7.5000  1.1000   1
   6  -6  -1 11.7000  1.3000   1
  -6   6   1 10.6000  1.0000   1
   6  -6  -2 175.400   4.900   1
  -6   6   2 184.700   4.300   1
   6  -6  -3 215.100   5.300   1
  -6   6   3 229.900   5.600   1
   6  -6  -4 136.100   3.700   1
  -6   6   4 139.300   6.100   1
   6  -6  -5  1.0000  1.1000   1
  -6   6   5  3.4000  1.4000   1
   6  -6  -6 286.100   8.800   1
  -6   6   6 286.200   8.000   1
   6  -6  -7 337.800  10.300   1
  -6   6   7 334.700  11.100   1
   6  -6  -8 134.500   5.800   1
  -6   6   8 141.900   4.900   1
   6  -6  -9 170.900   5.100   1
  -6   6   9 163.400   6.600   1
   6  -6 -10 50.3000  2.8000   1
  -6   6  10 57.9000  3.8000   1
   6  -6 -11  4.0000  1.7000   1
  -6   6  11  3.6000  2.3000   1
   6  -6 -12 214.200   5.800   1
  -6   6  12 222.300   8.600   1
   6  -6 -13 23.4000  2.5000   1
  -6   6  13 23.6000  2.9000   1
   6  -6 -14  8.3000  1.7000   1
  -6   6  14  4.5000  2.1000   1
   6  -6 -15  7.2000  2.1000   1
  -6   6  15 10.3000  2.2000   1
   6  -6 -16 262.200   7.400   1
  -6   6  16 274.000  11.400   1
   6  -6 -17 -1.5000  1.9000   1
  -6   6  17  2.9000  3.1000   1
   6  -6 -18  1.1000  2.1000   1
  -6   6  18  0.0000  2.5000   1
   6  -6 -19  1.9000  2.7000   1
  -6   6  19  0.9000  2.9000   1
   6  -6 -20  6.8000  4.2000   1
  -6   6  20  0.0000  3.0000   1
   6  -6 -21  7.3000  7.9000   1
  -6   6  21 15.3000  4.8000   1
   6  -6 -22 22.0000  5.0000   1
  -6   6  22 12.4000  4.6000   1
   6  -6 -23  8.1000  8.2000   1
  -6   6  23  7.2000  8.0000   1
   6  -6 -24 -5.9000  9.5000   1
  -6   6  24  6.1000  8.5000   1
   6  -7  15 -1.1000  5.1000   1
  -6   7 -15 -3.2000  5.4000   1
   6  -7  14  3.2000  4.1000   1
  -6   7 -14 -5.7000  5.4000   1
   6  -7  13 20.9000  3.6000   1
  -6   7 -13 36.2000  9.0000   1
   6  -7  12 14.9000  3.5000   1
  -6   7 -12 23.8000  4.5000   1
   6  -7  11 58.4000  4.3000   1
  -6   7 -11 50.8000  4.4000   1
   6  -7  10 19.9000  2.8000   1
  -6   7 -10 25.9000  4.2000   1
   6  -7   9  6.1000  2.4000   1
  -6   7  -9  4.9000  1.1000   1
   6  -7   8  4.1000  2.2000   1
  -6   7  -8  1.7000  1.0000   1
   6  -7   7 13.0000  2.2000   1
  -6   7  -7 15.5000  1.5000   1
   6  -7   6 189.500   5.700   1
  -6   7  -6 195.800   6.200   1
   6  -7   5  2.4000  0.9000   1
  -6   7  -5  0.4000  1.1000   1
   6  -7   4 119.300   3.500   1
  -6   7  -4 122.900   4.700   1
   6  -7   3 108.900   2.900   1
  -6   7  -3 106.900   3.900   1
   6  -7   2 219.100   5.200   1
  -6   7  -2 226.100   6.400   1
   6  -7   1  4.4000  1.1000   1
  -6   7  -1  4.0000  1.0000   1
   6  -7   0 493.200  13.700   1
  -6   7   0 478.500  13.000   1
   6  -7  -1  3.6000  1.3000   1
  -6   7   1  3.0000  0.7000   1
   6  -7  -2  1.4000  1.6000   1
  -6   7   2  5.4000  0.8000   1
   6  -7  -3 47.2000  2.5000   1
  -6   7   3 50.1000  1.8000   1
   6  -7  -4 191.000   4.800   1
  -6   7   4 194.500   5.100   1
   6  -7  -5 42.8000  3.3000   1
  -6   7   5 40.6000  3.2000   1
   6  -7  -6 75.1000  3.3000   1
  -6   7   6 77.6000  4.5000   1
   6  -7  -7 203.300   7.500   1
  -6   7   7 192.800   6.100   1
   6  -7  -8 138.200   5.100   1
  -6   7   8 145.200   4.900   1
   6  -7  -9 -0.6000  1.8000   1
  -6   7   9  1.1000  1.4000   1
   6  -7 -10 22.1000  2.3000   1
  -6   7  10 19.0000  2.1000   1
   6  -7 -11 76.0000  3.5000   1
  -6   7  11 74.2000  3.3000   1
   6  -7 -12  5.7000  1.9000   1
  -6   7  12  9.4000  1.8000   1
   6  -7 -13 10.4000  2.2000   1
  -6   7  13 13.1000  1.9000   1
   6  -7 -14  5.9000  2.0000   1
  -6   7  14  6.7000  2.0000   1
   6  -7 -15  6.8000  2.3000   1
  -6   7  15  5.7000  2.2000   1
   6  -7 -16 88.0000  4.4000   1
  -6   7  16 94.0000  4.6000   1
   6  -7 -17 139.200   5.100   1
  -6   7  17 134.800   5.400   1
   6  -7 -18  3.9000  2.4000   1
  -6   7  18  1.9000  2.5000   1
   6  -7 -19 50.9000  3.3000   1
  -6   7  19 48.9000  4.0000   1
   6  -7 -20  3.7000  4.6000   1
  -6   7  20 -1.7000  3.0000   1
  -6   7  21  1.9000  4.1000   1
   6  -7 -22 22.8000  8.8000   1
  -6   7  22 27.6000  5.1000   1
   6  -7 -23 34.9000  8.0000   1
  -6   7  23 28.4000  7.8000   1
   6  -7 -24 12.8000  9.2000   1
   6  -8  15 -1.7000  4.2000   1
  -6   8 -15 -8.0000  9.1000   1
   6  -8  14 13.1000  4.7000   1
  -6   8 -14  3.4000  5.8000   1
   6  -8  13  6.0000  3.4000   1
  -6   8 -13  7.2000  8.2000   1
   6  -8  12  1.5000  2.9000   1
  -6   8 -12  9.3000  7.0000   1
   6  -8  11 -0.6000  2.7000   1
  -6   8 -11 10.3000  6.5000   1
   6  -8  10  3.3000  2.9000   1
  -6   8 -10 -4.4000  3.0000   1
   6  -8   9  2.1000  2.1000   1
  -6   8  -9  6.7000  2.9000   1
   6  -8   8 -1.3000  2.5000   1
  -6   8  -8  0.1000  2.8000   1
   6  -8   7 30.1000  2.8000   1
  -6   8  -7 37.0000  3.2000   1
   6  -8   6  2.4000  1.7000   1
  -6   8  -6  0.9000  2.1000   1
   6  -8   5 12.7000  1.0000   1
  -6   8  -5 18.6000  2.4000   1
   6  -8   4 142.300   4.100   1
  -6   8  -4 145.600   6.700   1
   6  -8   3  0.5000  0.9000   1
  -6   8  -3 -0.8000  1.4000   1
   6  -8   2 30.6000  1.3000   1
  -6   8  -2 33.2000  1.6000   1
   6  -8   1  6.6000  1.2000   1
  -6   8  -1  8.5000  1.0000   1
   6  -8   0 393.300  14.000   1
  -6   8   0 397.700  13.800   1
   6  -8  -1 11.2000  2.2000   1
  -6   8   1 10.5000  1.6000   1
   6  -8  -2 154.600   8.800   1
  -6   8   2 148.100   6.600   1
   6  -8  -3 38.8000  2.8000   1
  -6   8   3 41.5000  3.4000   1
   6  -8  -4 10.8000  1.7000   1
  -6   8   4 16.1000  0.9000   1
   6  -8  -5 67.2000  3.9000   1
  -6   8   5 69.4000  2.7000   1
   6  -8  -6 346.900   9.700   1
  -6   8   6 356.800   9.400   1
   6  -8  -7 31.0000  2.3000   1
  -6   8   7 27.3000  1.7000   1
   6  -8  -8  2.2000  2.0000   1
  -6   8   8  6.0000  1.4000   1
   6  -8  -9  1.0000  1.7000   1
  -6   8   9  1.7000  1.5000   1
   6  -8 -10 448.300  12.600   1
  -6   8  10 433.000  15.500   1
   6  -8 -11  8.4000  2.1000   1
  -6   8  11  8.4000  1.7000   1
   6  -8 -12 -0.3000  1.7000   1
  -6   8  12  3.0000  1.7000   1
   6  -8 -13 49.7000  3.4000   1
  -6   8  13 49.2000  3.0000   1
   6  -8 -14 626.200  20.800   1
  -6   8  14 583.200  18.100   1
   6  -8 -15 24.8000  3.4000   1
  -6   8  15 29.5000  2.9000   1
   6  -8 -16 136.600   6.400   1
  -6   8  16 138.300   5.500   1
   6  -8 -17 17.6000  2.4000   1
  -6   8  17 16.1000  3.1000   1
   6  -8 -18  2.9000  2.3000   1
  -6   8  18 -2.0000  2.4000   1
   6  -8 -19 19.1000  4.3000   1
  -6   8  19 10.5000  3.0000   1
   6  -8 -20 100.600   7.000   1
  -6   8  20 73.2000  4.7000   1
   6  -8 -21  0.4000  7.4000   1
  -6   8  21 -2.5000  3.2000   1
   6  -8 -22  1.0000  5.9000   1
  -6   8  22 -2.6000  6.5000   1
   6  -8 -23 -2.7000  8.9000   1
  -6   8  23  5.8000  8.4000   1
   6  -9  14 24.9000  5.3000   1
  -6   9 -14 17.1000  6.4000   1
   6  -9  13  2.9000  3.4000   1
   6  -9  12 -0.4000  3.2000   1
  -6   9 -12 -5.7000  7.4000   1
   6  -9  11  6.6000  3.0000   1
  -6   9 -11  1.9000  7.0000   1
   6  -9  10 67.9000  4.2000   1
  -6   9 -10 71.8000  9.0000   1
   6  -9   9 10.9000  2.4000   1
  -6   9  -9  7.4000  4.3000   1
   6  -9   8 12.4000  2.7000   1
  -6   9  -8  4.9000  4.6000   1
   6  -9   7 100.700   4.700   1
  -6   9  -7 116.200  10.100   1
   6  -9   6 105.400   2.700   1
  -6   9  -6 90.0000  6.5000   1
   6  -9   5 21.5000  1.3000   1
  -6   9  -5 14.9000  4.3000   1
   6  -9   4 37.1000  2.0000   1
  -6   9  -4 36.2000  6.2000   1
   6  -9   3  0.4000  1.1000   1
   6  -9   2 31.5000  1.9000   1
  -6   9  -2 37.9000  5.5000   1
   6  -9   1 -0.5000  1.4000   1
  -6   9  -1 -2.3000  2.7000   1
   6  -9   0 -1.2000  1.4000   1
  -6   9   0  0.1000  2.4000   1
   6  -9  -1 11.6000  1.9000   1
  -6   9   1 14.8000  4.6000   1
   6  -9  -2  6.9000  1.9000   1
  -6   9   2  6.5000  2.1000   1
   6  -9  -3 37.5000  2.9000   1
  -6   9   3 32.0000  2.9000   1
   6  -9  -4 899.800  19.900   1
  -6   9   4 933.100  32.200   1
   6  -9  -5 49.1000  2.9000   1
  -6   9   5 57.0000  2.1000   1
   6  -9  -6 149.500   5.300   1
  -6   9   6 151.500   4.800   1
   6  -9  -7 23.2000  2.5000   1
  -6   9   7 25.1000  1.6000   1
   6  -9  -8 191.200  11.000   1
  -6   9   8 182.200   5.800   1
   6  -9  -9 12.5000  2.1000   1
  -6   9   9 14.2000  1.8000   1
   6  -9 -10 230.700   7.500   1
  -6   9  10 235.700   7.500   1
   6  -9 -11  0.9000  1.9000   1
  -6   9  11  6.7000  1.8000   1
   6  -9 -12 104.700   5.000   1
  -6   9  12 94.3000  4.1000   1
   6  -9 -13 170.400   6.800   1
  -6   9  13 186.400   6.200   1
   6  -9 -14 502.800  16.500   1
  -6   9  14 476.400  16.500   1
   6  -9 -15 209.400   8.600   1
  -6   9  15 187.500   6.700   1
   6  -9 -16  6.5000  2.7000   1
  -6   9  16 13.4000  3.4000   1
   6  -9 -17  3.7000  2.6000   1
  -6   9  17 -0.5000  2.6000   1
   6  -9 -18 67.0000  4.2000   1
  -6   9  18 54.6000  3.8000   1
   6  -9 -19  2.6000  2.5000   1
  -6   9  19  3.7000  3.0000   1
   6  -9 -20  1.3000  3.7000   1
  -6   9  20 -4.6000  4.2000   1
   6  -9 -21  5.5000  7.5000   1
  -6   9  21  4.0000  4.5000   1
   6  -9 -22 30.5000  9.6000   1
  -6   9  22  2.0000  7.0000   1
   6  -9 -23  2.1000  6.9000   1
  -6   9  23 15.9000  8.1000   1
   6 -10  14  0.6000  8.8000   1
  -6  10 -14 -8.8000  8.5000   1
   6 -10  13 -0.4000  3.3000   1
   6 -10  12 25.8000  3.9000   1
  -6  10 -12 24.9000  8.7000   1
   6 -10  11  3.7000  2.9000   1
  -6  10 -11  0.5000  5.1000   1
   6 -10  10 -0.6000  3.0000   1
  -6  10 -10 12.2000  7.1000   1
   6 -10   9  1.5000  2.3000   1
   6 -10   8 148.000   6.600   1
  -6  10  -8 159.200  10.900   1
   6 -10   7  4.7000  2.4000   1
   6 -10   6  4.2000  0.9000   1
  -6  10  -6 10.2000  4.5000   1
   6 -10   5 11.7000  1.3000   1
   6 -10   4 232.100   9.000   1
  -6  10  -4 239.200  14.300   1
   6 -10   3 119.100   3.600   1
   6 -10   2 154.700   5.300   1
   6 -10   1  6.8000  1.5000   1
   6 -10   0  0.9000  1.3000   1
   6 -10  -1  1.6000  1.5000   1
  -6  10   1  2.9000  3.0000   1
   6 -10  -2 533.800  14.800   1
  -6  10   2 556.700  24.800   1
   6 -10  -3 84.4000  4.0000   1
  -6  10   3 87.9000  4.9000   1
   6 -10  -4 28.8000  2.6000   1
  -6  10   4 26.5000  3.2000   1
   6 -10  -5 73.4000  5.5000   1
  -6  10   5 70.4000  4.3000   1
   6 -10  -6 595.600  24.100   1
  -6  10   6 618.300  17.400   1
   6 -10  -7  7.3000  1.8000   1
  -6  10   7  2.6000  1.3000   1
   6 -10  -8  2.0000  1.8000   1
  -6  10   8  3.7000  1.5000   1
   6 -10  -9 22.2000  2.4000   1
  -6  10   9 26.0000  2.1000   1
   6 -10 -10  1.1000  2.1000   1
  -6  10  10  3.2000  1.8000   1
   6 -10 -11  1.8000  2.3000   1
  -6  10  11  0.6000  1.7000   1
   6 -10 -12 158.500   6.500   1
  -6  10  12 168.200   5.900   1
   6 -10 -13  9.0000  2.5000   1
  -6  10  13  4.1000  2.4000   1
   6 -10 -14 210.400  10.000   1
  -6  10  14 197.400   7.400   1
   6 -10 -15 -2.3000  2.5000   1
  -6  10  15  2.7000  2.3000   1
   6 -10 -16  2.3000  2.7000   1
  -6  10  16  1.7000  2.3000   1
   6 -10 -17 13.8000  3.4000   1
  -6  10  17 14.9000  2.8000   1
   6 -10 -18 15.8000  3.1000   1
  -6  10  18 16.7000  3.2000   1
   6 -10 -19 13.4000  4.0000   1
  -6  10  19 18.7000  4.3000   1
   6 -10 -20  1.7000  3.0000   1
  -6  10  20  8.6000  4.8000   1
   6 -10 -21 11.8000  4.7000   1
  -6  10  21  3.2000  6.5000   1
   6 -10 -22 -1.1000  6.8000   1
  -6  10  22 -6.9000  7.1000   1
   6 -11  13 44.1000  7.2000   1
   6 -11  12 -2.5000  4.9000   1
  -6  11 -12  1.1000  7.8000   1
   6 -11  11 33.2000  3.7000   1
  -6  11 -11 33.4000  6.4000   1
   6 -11  10  0.6000  2.8000   1
  -6  11 -10  6.2000  7.3000   1
   6 -11   9 28.0000  3.1000   1
  -6  11  -9 33.0000  8.1000   1
   6 -11   8  1.8000  2.5000   1
  -6  11  -8  3.2000  5.5000   1
   6 -11   7  9.4000  2.3000   1
  -6  11  -7 19.0000  5.7000   1
   6 -11   6 17.5000  1.3000   1
  -6  11  -6 19.8000  4.9000   1
   6 -11   5 23.8000  1.6000   1
   6 -11   4  2.5000  1.1000   1
   6 -11   3 20.9000  1.3000   1
   6 -11   2 132.500   5.200   1
   6 -11   1 84.0000  4.0000   1
   6 -11   0 35.3000  2.1000   1
   6 -11  -1  7.7000  1.7000   1
  -6  11   1  3.5000  4.4000   1
   6 -11  -2 118.500   4.200   1
  -6  11   2 112.800   9.000   1
   6 -11  -3  5.7000  2.8000   1
  -6  11   3 -0.6000  4.3000   1
   6 -11  -4 612.200  16.500   1
  -6  11   4 652.800  20.900   1
   6 -11  -5 19.0000  2.2000   1
  -6  11   5 25.2000  3.1000   1
   6 -11  -6 -0.1000  2.2000   1
  -6  11   6  3.1000  0.8000   1
   6 -11  -7 40.9000  2.8000   1
  -6  11   7 39.9000  2.1000   1
   6 -11  -8 552.800  17.500   1
  -6  11   8 561.800  15.400   1
   6 -11  -9  3.6000  2.4000   1
  -6  11   9  3.7000  1.7000   1
   6 -11 -10 -0.3000  2.2000   1
  -6  11  10  2.3000  1.5000   1
   6 -11 -11  0.4000  2.4000   1
  -6  11  11  2.8000  1.8000   1
   6 -11 -12 355.000  13.100   1
  -6  11  12 355.400  10.300   1
   6 -11 -13 11.1000  2.7000   1
  -6  11  13  8.0000  2.2000   1
   6 -11 -14 88.5000  5.3000   1
  -6  11  14 82.7000  4.0000   1
   6 -11 -15  2.1000  2.7000   1
  -6  11  15 -2.0000  2.4000   1
   6 -11 -16 26.2000  3.7000   1
  -6  11  16 33.2000  2.9000   1
   6 -11 -17  7.7000  2.9000   1
  -6  11  17  4.0000  2.6000   1
   6 -11 -18 104.500   5.800   1
  -6  11  18 103.800   5.400   1
   6 -11 -19  4.5000  3.4000   1
  -6  11  19 -2.6000  4.0000   1
   6 -11 -20 37.7000  5.5000   1
  -6  11  20 36.8000  5.5000   1
   6 -11 -21  1.3000  4.1000   1
  -6  11  21  0.1000  7.2000   1
   6 -11 -22 -3.8000  8.5000   1
  -6  11  22 14.0000  6.0000   1
   6 -12  13 44.2000  6.8000   1
  -6  12 -13 37.0000 10.3000   1
   6 -12  12  3.3000  5.6000   1
  -6  12 -12  4.1000  8.0000   1
   6 -12  11 16.6000  5.4000   1
  -6  12 -11 -2.5000  5.6000   1
   6 -12  10 11.1000  4.5000   1
  -6  12 -10  8.3000  7.6000   1
   6 -12   9  2.6000  2.7000   1
  -6  12  -9 13.0000  7.1000   1
   6 -12   8 19.7000  2.6000   1
   6 -12   7 18.2000  1.6000   1
  -6  12  -7 22.6000  4.9000   1
   6 -12   6 58.1000  2.3000   1
   6 -12   5  3.6000  1.0000   1
   6 -12   4 11.4000  2.5000   1
   6 -12   3 15.4000  6.3000   1
   6 -12   2  3.8000  1.3000   1
   6 -12   1 20.9000  2.2000   1
   6 -12   0  0.9000  1.8000   1
   6 -12  -1 11.9000  2.2000   1
   6 -12  -2  7.3000  2.3000   1
  -6  12   2  7.5000  5.4000   1
   6 -12  -3 109.900   4.200   1
  -6  12   3 124.500   9.400   1
   6 -12  -4 243.100   8.400   1
  -6  12   4 258.200  14.900   1
   6 -12  -5  1.5000  2.3000   1
  -6  12   5 -2.6000  2.9000   1
   6 -12  -6 126.300   4.600   1
  -6  12   6 123.100   6.300   1
   6 -12  -7 83.2000  4.5000   1
  -6  12   7 76.9000  3.1000   1
   6 -12  -8 554.200  18.100   1
  -6  12   8 576.000  17.200   1
   6 -12  -9 47.1000  3.6000   1
  -6  12   9 42.9000  2.7000   1
   6 -12 -10  1.6000  2.3000   1
  -6  12  10 -2.2000  1.8000   1
   6 -12 -11 33.6000  3.3000   1
  -6  12  11 35.0000  2.7000   1
   6 -12 -12 46.4000  4.1000   1
  -6  12  12 51.4000  3.1000   1
   6 -12 -13 29.6000  3.6000   1
  -6  12  13 24.6000  2.8000   1
   6 -12 -14  3.6000  2.8000   1
  -6  12  14  4.6000  2.7000   1
   6 -12 -15 82.6000  5.4000   1
  -6  12  15 79.4000  4.1000   1
   6 -12 -16 19.1000  3.7000   1
  -6  12  16 18.3000  3.1000   1
   6 -12 -17 10.6000  3.3000   1
  -6  12  17 15.1000  3.2000   1
   6 -12 -18 -0.5000  2.6000   1
  -6  12  18 -3.2000  4.2000   1
   6 -12 -19  4.9000  3.0000   1
  -6  12  19  4.7000  4.4000   1
   6 -12 -20  5.1000  3.3000   1
  -6  12  20  7.4000  6.3000   1
   6 -12 -21 -4.2000  4.8000   1
  -6  12  21  1.6000  7.0000   1
   6 -13  12 15.2000  5.5000   1
  -6  13 -12 25.9000 10.7000   1
   6 -13  11  8.4000  5.0000   1
   6 -13  10  1.0000  5.8000   1
  -6  13 -10  7.5000  8.3000   1
   6 -13   9  4.6000  5.2000   1
  -6  13  -9  6.0000  7.5000   1
   6 -13   8  2.3000  5.1000   1
  -6  13  -8-10.4000  6.9000   1
   6 -13   7 -1.1000  3.6000   1
  -6  13  -7  2.7000  6.5000   1
   6 -13   6 42.9000  1.9000   1
   6 -13   5  7.5000  2.1000   1
   6 -13   4 103.800   5.800   1
   6 -13   3  6.3000  5.1000   1
   6 -13   2  2.3000  1.4000   1
   6 -13   1  4.2000  1.9000   1
   6 -13   0 156.600   6.000   1
   6 -13  -1 11.6000  2.1000   1
   6 -13  -2 31.1000  3.2000   1
   6 -13  -3  0.7000  2.2000   1
  -6  13   3  0.0000  3.3000   1
   6 -13  -4 102.000   4.200   1
  -6  13   4 92.2000  7.9000   1
   6 -13  -5 140.400   5.400   1
  -6  13   5 155.400  10.200   1
   6 -13  -6 104.300   4.600   1
  -6  13   6 98.9000  5.6000   1
   6 -13  -7  4.6000  2.0000   1
  -6  13   7 -1.0000  1.0000   1
   6 -13  -8 17.3000  2.7000   1
  -6  13   8 18.4000  1.9000   1
   6 -13  -9 40.3000  3.1000   1
  -6  13   9 43.4000  3.0000   1
   6 -13 -10 39.4000  3.6000   1
  -6  13  10 43.0000  3.0000   1
   6 -13 -11  8.2000  2.9000   1
  -6  13  11  8.2000  2.0000   1
   6 -13 -12 59.1000  4.5000   1
  -6  13  12 57.5000  3.7000   1
   6 -13 -13 21.3000  3.5000   1
  -6  13  13 24.7000  2.9000   1
   6 -13 -14  0.1000  3.1000   1
  -6  13  14  6.7000  2.5000   1
  -6  13  15 -0.9000  2.6000   1
   6 -13 -16 38.8000  4.3000   1
  -6  13  16 31.4000  3.4000   1
   6 -13 -17 115.700   6.800   1
  -6  13  17 108.700   6.900   1
   6 -13 -18  8.9000  2.9000   1
  -6  13  18  6.5000  4.3000   1
   6 -13 -19 18.1000  6.9000   1
  -6  13  19 25.1000  7.4000   1
   6 -13 -20 13.6000  5.3000   1
  -6  13  20 17.1000  7.6000   1
   6 -13 -21  1.9000  8.8000   1
  -6  13  21  0.1000  7.2000   1
   6 -14  11 14.6000  6.3000   1
  -6  14 -11 11.3000  9.2000   1
   6 -14  10 20.3000  6.3000   1
  -6  14 -10 -0.4000  8.2000   1
   6 -14   9  8.7000  6.2000   1
  -6  14  -9 40.9000  8.7000   1
   6 -14   8  3.9000  4.2000   1
  -6  14  -8  3.4000  7.6000   1
   6 -14   7 -7.1000  5.1000   1
  -6  14  -7 -2.7000  6.5000   1
   6 -14   6 10.7000  2.5000   1
  -6  14  -6 12.7000  7.2000   1
   6 -14   5 15.1000  2.6000   1
   6 -14   4 22.6000  2.9000   1
   6 -14   3  0.0000  3.5000   1
   6 -14   2 15.1000  1.7000   1
   6 -14   1 71.8000  4.1000   1
   6 -14   0  0.8000  2.0000   1
   6 -14  -1 53.4000  3.9000   1
   6 -14  -2 14.9000  3.1000   1
   6 -14  -3 54.7000  3.5000   1
   6 -14  -4 10.3000  2.7000   1
   6 -14  -5 63.7000  3.6000   1
  -6  14   5 68.8000  7.6000   1
   6 -14  -6 78.7000  3.8000   1
  -6  14   6 91.1000  9.0000   1
   6 -14  -7 81.3000  4.5000   1
  -6  14   7 94.9000  8.3000   1
   6 -14  -8 62.1000  3.9000   1
  -6  14   8 56.7000  2.8000   1
   6 -14  -9 40.1000  3.3000   1
  -6  14   9 45.2000  2.9000   1
   6 -14 -10 45.1000  3.8000   1
  -6  14  10 47.8000  3.1000   1
   6 -14 -11  1.5000  3.1000   1
  -6  14  11  5.2000  2.1000   1
   6 -14 -12  6.7000  3.2000   1
  -6  14  12  7.5000  2.5000   1
   6 -14 -13 -5.7000  2.9000   1
  -6  14  13  4.3000  2.5000   1
   6 -14 -14 57.2000  5.3000   1
  -6  14  14 48.6000  3.6000   1
   6 -14 -15  4.0000  3.2000   1
  -6  14  15  2.4000  2.7000   1
   6 -14 -16  4.2000  3.4000   1
  -6  14  16 -4.4000  6.4000   1
   6 -14 -17  5.5000  3.6000   1
  -6  14  17  8.1000  5.0000   1
   6 -14 -18  2.7000  3.7000   1
  -6  14  18  6.2000  5.4000   1
   6 -14 -19  3.3000  4.9000   1
  -6  14  19  6.0000  6.7000   1
   6 -14 -20 -7.8000  4.9000   1
  -6  14  20  3.4000  6.8000   1
   6 -15  10 19.4000  6.3000   1
  -6  15 -10 14.6000  7.9000   1
   6 -15   9  1.8000  4.9000   1
  -6  15  -9 18.0000  9.0000   1
   6 -15   8  1.3000  5.4000   1
  -6  15  -8 10.0000  8.2000   1
   6 -15   7 60.5000  7.4000   1
  -6  15  -7 70.3000 10.5000   1
   6 -15   6  8.3000  3.9000   1
   6 -15   5 17.9000  2.8000   1
   6 -15   4 28.9000  3.6000   1
   6 -15   3  2.2000  2.4000   1
   6 -15   2  7.5000  1.4000   1
   6 -15   1  7.6000  1.8000   1
   6 -15   0 25.0000  2.8000   1
   6 -15  -1 41.8000  4.0000   1
   6 -15  -2  7.2000  2.3000   1
   6 -15  -3  0.0000  2.5000   1
   6 -15  -4 17.3000  2.8000   1
   6 -15  -5 15.4000  3.2000   1
   6 -15  -6  7.9000  3.0000   1
   6 -15  -7 28.8000  3.4000   1
  -6  15   7 13.9000  6.2000   1
   6 -15  -8  9.4000  3.5000   1
  -6  15   8  8.9000  6.4000   1
   6 -15  -9 23.8000  4.0000   1
  -6  15   9 24.9000  2.4000   1
   6 -15 -10  8.9000  3.6000   1
  -6  15  10  8.0000  2.4000   1
   6 -15 -11 15.2000  3.4000   1
  -6  15  11 14.7000  2.4000   1
   6 -15 -12 11.4000  3.5000   1
  -6  15  12  5.1000  2.3000   1
   6 -15 -13  5.0000  3.7000   1
  -6  15  13  7.3000  3.2000   1
   6 -15 -14 15.9000  4.0000   1
  -6  15  14 21.0000  3.4000   1
   6 -15 -15  2.9000  4.0000   1
  -6  15  15 -2.0000  4.6000   1
   6 -15 -16 -1.9000  3.2000   1
  -6  15  16  0.4000  4.6000   1
   6 -15 -17 -1.3000  3.4000   1
  -6  15  17 -0.5000  5.3000   1
   6 -15 -18 23.9000  7.2000   1
  -6  15  18 10.0000  5.9000   1
   6 -15 -19 13.9000  5.8000   1
  -6  15  19  1.5000  7.0000   1
   6 -16   9 11.1000  9.3000   1
  -6  16  -9  0.7000  6.5000   1
   6 -16   8 32.5000  6.3000   1
  -6  16  -8 35.2000  9.5000   1
   6 -16   7  9.0000  4.2000   1
   6 -16   6 29.6000  6.6000   1
   6 -16   5 23.1000  5.0000   1
   6 -16   4  6.8000  3.4000   1
   6 -16   3 33.2000  5.1000   1
   6 -16   2 17.5000  3.7000   1
   6 -16   1 -0.2000  4.0000   1
   6 -16   0  5.6000  6.2000   1
   6 -16  -1 62.6000  4.5000   1
   6 -16  -2 128.100   6.300   1
   6 -16  -3  5.5000  2.9000   1
   6 -16  -4  2.1000  2.8000   1
   6 -16  -5 28.6000  3.5000   1
   6 -16  -6 113.300   5.300   1
   6 -16  -7 -0.2000  3.3000   1
   6 -16  -8 57.9000  4.1000   1
   6 -16  -9 19.0000  3.9000   1
   6 -16 -10 58.6000  4.9000   1
  -6  16  10 66.9000  4.8000   1
   6 -16 -11  8.0000  3.7000   1
  -6  16  11  4.9000  3.1000   1
   6 -16 -12 92.9000  6.1000   1
  -6  16  12 94.6000  7.1000   1
   6 -16 -13 12.6000  3.4000   1
  -6  16  13  4.5000  3.4000   1
   6 -16 -14  6.9000  3.1000   1
  -6  16  14  1.5000  3.7000   1
   6 -16 -15 21.9000  4.0000   1
  -6  16  15 16.9000  4.5000   1
   6 -16 -16 24.3000  7.1000   1
  -6  16  16 27.2000  5.4000   1
   6 -16 -17 -2.8000  6.2000   1
  -6  16  17  1.4000  6.2000   1
   6 -16 -18 23.5000  5.2000   1
  -6  16  18 27.7000  7.0000   1
   6 -17   7 48.2000 10.2000   1
   6 -17   6  1.3000  5.1000   1
   6 -17   5 -6.0000  5.6000   1
   6 -17   4  1.9000  3.1000   1
   6 -17   3  6.0000  3.1000   1
   6 -17   2 46.2000  4.5000   1
   6 -17   1  2.7000  3.4000   1
   6 -17   0 178.300  10.200   1
   6 -17  -1  2.6000  3.7000   1
   6 -17  -2 -4.4000  4.3000   1
   6 -17  -3 -0.8000  3.4000   1
   6 -17  -4 79.0000  5.1000   1
   6 -17  -5  1.8000  3.6000   1
   6 -17  -6 18.4000  3.8000   1
   6 -17  -7  9.1000  3.5000   1
   6 -17  -8 75.4000  6.6000   1
   6 -17  -9 11.5000  4.4000   1
   6 -17 -10 43.1000  5.2000   1
   6 -17 -11  7.6000  4.2000   1
   6 -17 -12 48.2000  5.2000   1
   6 -17 -13  2.3000  3.9000   1
   6 -17 -14  5.9000  4.4000   1
   6 -17 -15  9.2000  7.2000   1
   6 -17 -16 16.9000  8.0000   1
   6 -18   6 22.1000  9.7000   1
   6 -18   5 12.9000  6.8000   1
   6 -18   4 18.5000  8.7000   1
   6 -18   3 32.6000  5.2000   1
   6 -18   2 48.0000  5.6000   1
   6 -18   1 28.7000  4.4000   1
   6 -18   0 42.3000  4.7000   1
   6 -18  -1 -0.8000  4.9000   1
   6 -18  -2 128.700   8.300   1
   6 -18  -3  2.3000  4.7000   1
   6 -18  -4  0.5000  4.6000   1
   6 -18  -5 18.0000  4.9000   1
   6 -18  -6 33.9000  5.5000   1
   6 -18  -7 -2.3000  4.0000   1
   6 -18  -8 53.1000  5.7000   1
   6 -18  -9  2.3000  3.6000   1
   6 -18 -10 54.6000  5.7000   1
   6 -18 -11 22.3000  4.6000   1
   6 -18 -12 55.2000  5.8000   1
   6 -18 -13  5.4000  3.9000   1
   6 -18 -14  7.7000  6.0000   1
   6 -18 -15 12.0000  8.0000   1
   6 -19   5 11.7000  9.2000   1
   6 -19   4 19.6000  8.9000   1
   6 -19   3  3.0000  5.7000   1
   6 -19   2  4.3000  4.4000   1
   6 -19   1  4.8000  4.5000   1
   6 -19   0  9.8000  6.8000   1
   6 -19  -1 10.6000  5.9000   1
   6 -19  -2 20.4000  5.6000   1
   6 -19  -3 -0.4000  4.9000   1
   6 -19  -4 29.9000  5.4000   1
   6 -19  -5 -0.4000  3.5000   1
   6 -19  -6 -0.8000  4.9000   1
   6 -19  -7 18.8000  5.3000   1
   6 -19  -8 41.3000  6.2000   1
   6 -19  -9  3.1000  4.1000   1
   6 -19 -10 26.4000  5.5000   1
   6 -19 -11  4.7000  4.3000   1
   6 -19 -12 16.4000  4.9000   1
   6 -19 -13 25.6000  7.6000   1
   6 -20   2 13.7000  8.8000   1
   6 -20   1  2.8000  5.0000   1
   6 -20   0  9.9000  5.1000   1
   6 -20  -1 -4.8000  4.6000   1
   6 -20  -2  6.9000  5.0000   1
   6 -20  -3 12.6000  7.9000   1
   6 -20  -4 19.5000  7.5000   1
   6 -20  -5 -4.6000  6.1000   1
   6 -20  -6 32.0000  7.6000   1
   6 -20  -7 14.8000  7.1000   1
   6 -20  -8 -8.8000  5.4000   1
   6 -20  -9 -0.1000  5.2000   1
   6 -20 -10  6.6000  5.8000   1
   6 -21  -2 -6.1000  7.6000   1
   6 -21  -3 22.7000  5.7000   1
   6 -21  -4 53.8000  8.5000   1
   6 -21  -5 -0.4000  6.6000   1
   6 -21  -6 14.3000  7.4000   1
   6 -21  -7 16.2000  6.7000   1
   7   0  15 -5.9000  7.2000   1
   7   0  14 35.8000  5.7000   1
   7   0  13  2.2000  4.4000   1
   7   0  12 -0.4000  3.4000   1
   7   0  11  2.2000  3.4000   1
   7   0  10 27.8000  3.9000   1
   7   0   9  1.6000  1.2000   1
   7   0   8 16.2000  1.6000   1
   7   0   7  1.2000  1.5000   1
   7   0   6 108.500   4.300   1
   7   0   5  0.7000  1.3000   1
   7   0   4  1.5000  1.1000   1
   7   0   3  0.2000  1.1000   1
   7   0   2  0.4000  1.1000   1
   7   0   1 -0.2000  1.0000   1
   7   0   0  2.3000  1.0000   1
   7   0  -1  1.3000  1.0000   1
   7   0  -2 258.100   5.700   1
   7   0  -3  0.6000  1.1000   1
   7   0  -4  9.4000  1.3000   1
   7   0  -5  0.1000  1.3000   1
   7   0  -6 26.7000  1.9000   1
   7   0  -7  0.9000  1.1000   1
   7   0  -8 536.300  14.600   1
   7   0  -9  1.1000  1.5000   1
   7   0 -10 734.100  15.500   1
   7   0 -11  0.9000  1.8000   1
   7   0 -12 757.800  17.700   1
   7   0 -13  3.0000  1.7000   1
   7   0 -14 55.4000  2.7000   1
   7   0 -15  0.1000  1.5000   1
   7   0 -16 277.200   8.100   1
   7   0 -17  1.9000  2.2000   1
   7   0 -18 49.4000  3.9000   1
   7   0 -19  2.6000  4.3000   1
   7   0 -20  3.6000  4.6000   1
   7   0 -21  4.8000  5.4000   1
   7   0 -22 25.8000  7.0000   1
   7   0 -24  5.8000  5.2000   1
   7   0 -25-11.1000  9.1000   1
   7  -1  15 12.7000  5.7000   1
  -7   1 -15 27.6000  9.4000   1
   7  -1  14  6.1000  4.6000   1
  -7   1 -14  1.5000  4.4000   1
   7  -1  13 28.2000  4.8000   1
  -7   1 -13 17.6000  4.7000   1
   7  -1  12 18.9000  4.0000   1
  -7   1 -12 15.2000  4.0000   1
   7  -1  11 25.0000  4.2000   1
  -7   1 -11 25.6000  4.3000   1
   7  -1  10  3.2000  1.8000   1
  -7   1 -10  5.1000  2.9000   1
   7  -1   9  7.9000  1.9000   1
  -7   1  -9  8.1000  2.6000   1
   7  -1   8  2.3000  2.6000   1
  -7   1  -8  1.1000  2.4000   1
   7  -1   7 17.5000  2.2000   1
  -7   1  -7 17.3000  1.5000   1
   7  -1   6 38.0000  2.3000   1
  -7   1  -6 34.0000  2.2000   1
   7  -1   5 17.7000  1.5000   1
  -7   1  -5 14.5000  1.6000   1
   7  -1   4 26.5000  1.6000   1
  -7   1  -4 27.5000  1.7000   1
   7  -1   3 24.4000  1.7000   1
  -7   1  -3 24.6000  1.6000   1
   7  -1   2 135.700   3.800   1
  -7   1  -2 143.000   3.300   1
   7  -1   1 78.4000  2.3000   1
  -7   1  -1 82.9000  2.6000   1
   7  -1   0 120.200   2.900   1
  -7   1   0 122.200   3.000   1
   7  -1  -1  8.2000  1.2000   1
  -7   1   1  9.9000  1.1000   1
   7  -1  -2 26.2000  1.4000   1
  -7   1   2 29.0000  1.7000   1
   7  -1  -3 31.9000  1.5000   1
  -7   1   3 37.2000  1.9000   1
   7  -1  -4 740.400  14.000   1
  -7   1   4 747.500  15.900   1
   7  -1  -5  3.8000  1.1000   1
  -7   1   5  2.2000  1.6000   1
   7  -1  -6 70.4000  2.8000   1
  -7   1   6 78.0000  3.2000   1
   7  -1  -7 12.7000  1.8000   1
  -7   1   7 15.7000  1.8000   1
   7  -1  -8  8.1000  1.3000   1
  -7   1   8  8.2000  1.4000   1
   7  -1  -9  9.2000  1.5000   1
  -7   1   9  8.7000  1.2000   1
   7  -1 -10  3.5000  1.2000   1
  -7   1  10  6.9000  1.9000   1
   7  -1 -11 399.500  10.800   1
  -7   1  11 400.700  10.700   1
   7  -1 -12 180.200   5.100   1
  -7   1  12 168.700   5.500   1
   7  -1 -13 357.600  10.600   1
  -7   1  13 336.000   8.600   1
   7  -1 -14 72.8000  3.7000   1
  -7   1  14 66.7000  3.0000   1
   7  -1 -15 30.0000  2.3000   1
  -7   1  15 35.6000  2.5000   1
   7  -1 -16 13.3000  2.4000   1
  -7   1  16 10.8000  2.2000   1
   7  -1 -17 125.900   4.500   1
  -7   1  17 122.900   4.800   1
   7  -1 -18 215.300   8.100   1
  -7   1  18 223.600   7.900   1
   7  -1 -19 144.300  10.400   1
  -7   1  19 141.100   7.800   1
   7  -1 -20 44.2000  4.8000   1
  -7   1  20 40.5000  5.8000   1
   7  -1 -21  2.3000  3.8000   1
  -7   1  21  2.4000  3.6000   1
   7  -1 -22  3.6000  3.7000   1
  -7   1  22  2.7000  5.3000   1
  -7   1  23  7.8000  6.8000   1
   7  -1 -24  5.3000  6.1000   1
  -7   1  24 18.1000  6.9000   1
   7  -1 -25 18.9000 10.5000   1
  -7   1  25 23.7000 10.2000   1
   7  -2  15 10.7000  4.4000   1
  -7   2 -15  0.5000  8.6000   1
   7  -2  14 -2.4000  4.5000   1
  -7   2 -14 -1.5000  7.2000   1
   7  -2  13 18.4000  4.5000   1
  -7   2 -13 13.4000  4.3000   1
   7  -2  12 31.9000  6.2000   1
  -7   2 -12 27.3000  4.1000   1
   7  -2  11 15.1000  2.5000   1
  -7   2 -11 17.4000  3.4000   1
   7  -2  10  6.5000  2.3000   1
  -7   2 -10  7.0000  3.0000   1
   7  -2   9 49.6000  3.2000   1
  -7   2  -9 47.0000  3.4000   1
   7  -2   8  0.2000  1.8000   1
  -7   2  -8  4.3000  2.3000   1
   7  -2   7 72.4000  3.1000   1
  -7   2  -7 74.2000  4.5000   1
   7  -2   6 12.3000  1.9000   1
  -7   2  -6 10.7000  2.5000   1
   7  -2   5  2.3000  1.0000   1
  -7   2  -5 -2.5000  2.1000   1
   7  -2   4 13.7000  1.3000   1
  -7   2  -4 14.1000  1.6000   1
   7  -2   3 96.6000  2.6000   1
  -7   2  -3 105.100   3.200   1
   7  -2   2 93.3000  2.7000   1
  -7   2  -2 94.4000  2.5000   1
   7  -2   1 30.4000  1.7000   1
  -7   2  -1 27.3000  1.5000   1
   7  -2   0  9.0000  1.3000   1
  -7   2   0  9.4000  1.1000   1
   7  -2  -1 87.6000  2.4000   1
  -7   2   1 87.4000  2.3000   1
   7  -2  -2 -0.3000  1.1000   1
  -7   2   2  0.0000  1.2000   1
   7  -2  -3 228.200   5.300   1
  -7   2   3 242.200   4.700   1
   7  -2  -4 306.900   7.400   1
  -7   2   4 300.100   7.200   1
   7  -2  -5 32.8000  2.2000   1
  -7   2   5 39.2000  2.3000   1
   7  -2  -6 19.3000  1.6000   1
  -7   2   6 17.5000  1.8000   1
   7  -2  -7 56.2000  2.3000   1
  -7   2   7 50.1000  2.6000   1
   7  -2  -8 111.000   3.400   1
  -7   2   8 109.700   4.000   1
   7  -2  -9 219.600   5.800   1
  -7   2   9 225.200   6.600   1
   7  -2 -10 62.8000  2.6000   1
  -7   2  10 66.1000  2.9000   1
   7  -2 -11 17.7000  1.8000   1
  -7   2  11 15.8000  2.4000   1
   7  -2 -12 73.6000  3.7000   1
  -7   2  12 88.6000  4.3000   1
   7  -2 -13 145.900   4.500   1
  -7   2  13 147.900   4.400   1
   7  -2 -14 11.9000  1.9000   1
  -7   2  14 11.6000  1.9000   1
   7  -2 -15 254.400   7.500   1
  -7   2  15 270.500   7.500   1
   7  -2 -16 496.800  18.100   1
  -7   2  16 447.600  13.800   1
   7  -2 -17 72.9000  5.2000   1
  -7   2  17 79.8000  4.2000   1
   7  -2 -18 11.9000  3.9000   1
  -7   2  18  7.7000  2.9000   1
   7  -2 -19 12.6000  5.3000   1
  -7   2  19 18.9000  4.9000   1
   7  -2 -20 24.9000  3.9000   1
  -7   2  20 26.6000  4.1000   1
   7  -2 -21  3.4000  5.2000   1
  -7   2  21  3.8000  3.1000   1
   7  -2 -22 22.4000  6.2000   1
  -7   2  22 19.7000  6.6000   1
   7  -2 -23  9.3000  7.2000   1
  -7   2  23 -0.1000  5.1000   1
   7  -2 -24 -3.4000  5.7000   1
  -7   2  24 -5.5000  8.2000   1
   7  -2 -25 18.9000 10.3000   1
  -7   2  25 -2.7000  9.6000   1
   7  -3  15 12.2000  5.4000   1
  -7   3 -15  9.2000  9.7000   1
   7  -3  14  9.1000  5.0000   1
  -7   3 -14  7.1000  8.6000   1
   7  -3  13 -0.9000  4.0000   1
  -7   3 -13  2.1000  6.8000   1
   7  -3  12 24.5000  4.7000   1
  -7   3 -12 21.3000  4.0000   1
   7  -3  11 -1.8000  2.1000   1
  -7   3 -11  5.5000  2.9000   1
   7  -3  10 10.4000  2.5000   1
  -7   3 -10  6.7000  2.6000   1
   7  -3   9  5.7000  2.3000   1
  -7   3  -9  2.5000  2.2000   1
   7  -3   8  7.0000  2.2000   1
  -7   3  -8  6.9000  2.5000   1
   7  -3   7 33.5000  2.4000   1
  -7   3  -7 34.8000  2.8000   1
   7  -3   6 -0.4000  1.8000   1
  -7   3  -6  0.7000  1.7000   1
   7  -3   5 79.9000  2.9000   1
  -7   3  -5 76.6000  6.3000   1
   7  -3   4 87.5000  2.9000   1
  -7   3  -4 83.2000  3.6000   1
   7  -3   3  4.9000  1.1000   1
  -7   3  -3  5.2000  1.5000   1
   7  -3   2 85.4000  2.6000   1
  -7   3  -2 87.4000  2.8000   1
   7  -3   1 60.5000  2.3000   1
  -7   3  -1 59.9000  2.4000   1
   7  -3   0 107.700   2.900   1
  -7   3   0 111.800   3.800   1
   7  -3  -1 137.900   3.200   1
  -7   3   1 145.400   3.900   1
   7  -3  -2  7.3000  1.3000   1
  -7   3   2  6.8000  1.4000   1
   7  -3  -3 127.600   3.200   1
  -7   3   3 131.100   3.700   1
   7  -3  -4 38.6000  1.9000   1
  -7   3   4 39.3000  1.9000   1
   7  -3  -5 386.700   9.600   1
  -7   3   5 391.300  10.300   1
   7  -3  -6  1.8000  1.0000   1
  -7   3   6 -1.0000  1.3000   1
   7  -3  -7 53.3000  2.4000   1
  -7   3   7 63.4000  3.1000   1
   7  -3  -8 163.400   5.100   1
  -7   3   8 174.200   5.700   1
   7  -3  -9 19.3000  2.1000   1
  -7   3   9 26.8000  2.4000   1
   7  -3 -10 12.3000  1.7000   1
  -7   3  10 10.4000  2.0000   1
   7  -3 -11 -0.6000  1.3000   1
  -7   3  11  0.6000  1.3000   1
   7  -3 -12 76.9000  3.2000   1
  -7   3  12 80.9000  3.3000   1
   7  -3 -13 396.800   9.800   1
  -7   3  13 403.600   9.800   1
   7  -3 -14 53.5000  2.7000   1
  -7   3  14 58.0000  2.7000   1
   7  -3 -15 237.300   7.100   1
  -7   3  15 233.900   8.100   1
   7  -3 -16 93.4000  4.5000   1
  -7   3  16 113.100   6.300   1
   7  -3 -17 114.000   5.200   1
  -7   3  17 127.700   5.800   1
   7  -3 -18 26.7000  3.7000   1
  -7   3  18 22.9000  3.9000   1
   7  -3 -19 272.100   9.500   1
  -7   3  19 264.900  10.400   1
   7  -3 -20 68.9000  5.9000   1
  -7   3  20 57.0000  5.3000   1
  -7   3  21  7.4000  5.8000   1
  -7   3  22  3.5000  3.7000   1
   7  -3 -23 90.2000 11.7000   1
  -7   3  23 94.4000  7.9000   1
   7  -3 -24 -6.2000  6.0000   1
  -7   3  24-13.8000  7.7000   1
   7  -3 -25 40.0000 10.8000   1
  -7   3  25 36.0000  9.8000   1
   7  -4  15 33.1000  6.3000   1
  -7   4 -15 44.0000  9.3000   1
   7  -4  14 18.2000  5.6000   1
  -7   4 -14 18.0000  6.8000   1
   7  -4  13  8.5000  4.5000   1
   7  -4  12 -0.9000  4.1000   1
  -7   4 -12  7.0000  2.7000   1
   7  -4  11  5.6000  2.8000   1
  -7   4 -11  0.9000  2.9000   1
   7  -4  10  8.9000  3.2000   1
  -7   4 -10  5.6000  2.7000   1
   7  -4   9  3.4000  2.2000   1
  -7   4  -9 -0.5000  2.2000   1
   7  -4   8 17.8000  2.3000   1
  -7   4  -8 17.0000  2.5000   1
   7  -4   7 124.500   4.500   1
  -7   4  -7 126.700   5.300   1
   7  -4   6 150.700   5.200   1
  -7   4  -6 156.300   7.100   1
   7  -4   5 37.7000  1.8000   1
  -7   4  -5 38.1000  3.1000   1
   7  -4   4 30.4000  1.8000   1
  -7   4  -4 32.7000  2.5000   1
   7  -4   3 409.900   8.400   1
  -7   4  -3 419.700  13.200   1
   7  -4   2 72.1000  2.4000   1
  -7   4  -2 68.7000  3.0000   1
   7  -4   1  8.3000  1.3000   1
  -7   4  -1 13.5000  1.8000   1
   7  -4   0  2.4000  1.1000   1
  -7   4   0  0.2000  1.2000   1
   7  -4  -1 58.8000  2.4000   1
  -7   4   1 59.1000  2.4000   1
   7  -4  -2 268.900   6.700   1
  -7   4   2 257.600   5.900   1
   7  -4  -3 137.200   3.700   1
  -7   4   3 138.700   3.500   1
   7  -4  -4 45.0000  2.3000   1
  -7   4   4 48.2000  2.1000   1
   7  -4  -5 111.700   4.000   1
  -7   4   5 110.100   3.900   1
   7  -4  -6  7.5000  1.4000   1
  -7   4   6  8.6000  1.9000   1
   7  -4  -7 25.5000  2.2000   1
  -7   4   7 24.9000  1.9000   1
   7  -4  -8  2.0000  1.5000   1
  -7   4   8  3.3000  1.6000   1
   7  -4  -9 30.0000  1.9000   1
  -7   4   9 24.6000  2.3000   1
   7  -4 -10 31.8000  2.0000   1
  -7   4  10 34.0000  2.0000   1
   7  -4 -11  9.3000  2.0000   1
  -7   4  11  6.3000  2.1000   1
   7  -4 -12 30.1000  3.2000   1
  -7   4  12 33.5000  2.1000   1
   7  -4 -13  4.0000  1.4000   1
  -7   4  13  8.4000  1.6000   1
   7  -4 -14 25.0000  2.3000   1
  -7   4  14 23.8000  2.6000   1
   7  -4 -15 419.800  11.400   1
  -7   4  15 428.000  13.100   1
   7  -4 -16 27.2000  3.0000   1
  -7   4  16 28.2000  3.2000   1
   7  -4 -17 162.700   5.700   1
  -7   4  17 152.200   6.300   1
   7  -4 -18 -0.5000  2.3000   1
  -7   4  18  6.0000  2.7000   1
   7  -4 -19 96.1000  5.2000   1
  -7   4  19 106.000   5.400   1
   7  -4 -20 61.2000  5.1000   1
  -7   4  20 62.7000  5.7000   1
   7  -4 -21 47.7000  7.5000   1
  -7   4  21 42.0000  5.0000   1
   7  -4 -22 20.9000  7.7000   1
  -7   4  22 15.1000  5.1000   1
  -7   4  23 14.4000  5.4000   1
   7  -4 -24 20.3000  9.0000   1
  -7   4  24 21.1000  8.4000   1
   7  -5  14 22.1000  4.8000   1
  -7   5 -14 43.0000  8.5000   1
   7  -5  13 13.0000  4.8000   1
  -7   5 -13  9.6000  8.4000   1
   7  -5  12  3.1000  4.1000   1
   7  -5  11 48.9000  4.1000   1
  -7   5 -11 42.4000  3.8000   1
   7  -5  10  5.3000  2.4000   1
  -7   5 -10  6.6000  2.2000   1
   7  -5   9  5.6000  2.5000   1
  -7   5  -9  5.2000  2.1000   1
   7  -5   8 17.9000  2.7000   1
  -7   5  -8 15.3000  2.3000   1
   7  -5   7 29.1000  2.7000   1
  -7   5  -7 29.7000  2.8000   1
   7  -5   6 35.8000  2.8000   1
  -7   5  -6 32.9000  2.4000   1
   7  -5   5 238.900   5.700   1
  -7   5  -5 230.800  10.100   1
   7  -5   4  0.7000  1.2000   1
  -7   5  -4  0.3000  1.5000   1
   7  -5   3 80.3000  2.9000   1
  -7   5  -3 84.4000  3.3000   1
   7  -5   2 26.3000  1.5000   1
  -7   5  -2 30.6000  2.0000   1
   7  -5   1 711.600  13.400   1
  -7   5  -1 738.800  17.900   1
   7  -5   0 43.5000  2.0000   1
  -7   5   0 43.7000  2.0000   1
   7  -5  -1 18.3000  1.6000   1
  -7   5   1 18.2000  1.4000   1
   7  -5  -2 175.700   4.800   1
  -7   5   2 176.800   4.800   1
   7  -5  -3 1163.50   24.20   1
  -7   5   3 1123.60   25.00   1
   7  -5  -4 147.000   4.900   1
  -7   5   4 141.500   4.800   1
   7  -5  -5 130.200   3.700   1
  -7   5   5 131.100   4.300   1
   7  -5  -6 -0.9000  1.4000   1
  -7   5   6  2.2000  1.4000   1
   7  -5  -7 123.100   3.900   1
  -7   5   7 130.500   4.500   1
   7  -5  -8 32.6000  2.0000   1
  -7   5   8 37.2000  2.6000   1
   7  -5  -9 227.600   6.100   1
  -7   5   9 221.000   5.700   1
   7  -5 -10 34.6000  2.4000   1
  -7   5  10 39.3000  2.7000   1
   7  -5 -11  2.0000  1.4000   1
  -7   5  11  3.4000  1.3000   1
   7  -5 -12 37.1000  2.2000   1
  -7   5  12 27.1000  2.5000   1
   7  -5 -13 77.8000  3.9000   1
  -7   5  13 79.7000  3.8000   1
   7  -5 -14 48.0000  2.7000   1
  -7   5  14 48.8000  4.3000   1
   7  -5 -15  1.5000  1.9000   1
  -7   5  15  3.6000  2.8000   1
   7  -5 -16 105.400   4.600   1
  -7   5  16 115.600   5.400   1
   7  -5 -17 11.6000  2.4000   1
  -7   5  17  8.6000  2.6000   1
   7  -5 -18  5.4000  2.2000   1
  -7   5  18 -0.8000  2.6000   1
   7  -5 -19 30.7000  3.8000   1
  -7   5  19 36.9000  3.5000   1
   7  -5 -20  5.8000  2.9000   1
  -7   5  20  0.1000  5.6000   1
  -7   5  21  3.6000  3.2000   1
   7  -5 -22 22.7000  8.1000   1
  -7   5  22  4.4000  3.7000   1
   7  -5 -23  1.5000  6.1000   1
  -7   5  23  6.1000  4.6000   1
   7  -5 -24  0.8000  8.6000   1
  -7   5  24 -1.9000  8.3000   1
   7  -6  14 -1.2000  4.8000   1
  -7   6 -14  3.9000  8.8000   1
   7  -6  13 10.5000  4.7000   1
  -7   6 -13 -7.5000  8.0000   1
   7  -6  12 48.9000  4.2000   1
  -7   6 -12 61.2000  9.2000   1
   7  -6  11 28.2000  3.6000   1
  -7   6 -11 10.2000  7.5000   1
   7  -6  10 65.3000  4.4000   1
  -7   6 -10 67.7000  3.9000   1
   7  -6   9 12.9000  3.1000   1
  -7   6  -9 13.7000  1.9000   1
   7  -6   8  2.4000  2.2000   1
  -7   6  -8  4.9000  1.7000   1
   7  -6   7 96.7000  4.9000   1
  -7   6  -7 95.1000  4.2000   1
   7  -6   6 21.2000  2.4000   1
  -7   6  -6 24.6000  2.1000   1
   7  -6   5  1.1000  0.9000   1
  -7   6  -5  0.7000  1.7000   1
   7  -6   4 18.7000  2.1000   1
  -7   6  -4 23.5000  2.1000   1
   7  -6   3 458.500  10.200   1
  -7   6  -3 458.900  11.500   1
   7  -6   2  0.9000  1.1000   1
  -7   6  -2  0.1000  1.3000   1
   7  -6   1 226.300   5.400   1
  -7   6  -1 232.800   7.400   1
   7  -6   0  6.7000  1.5000   1
  -7   6   0  3.6000  1.1000   1
   7  -6  -1 236.200   5.700   1
  -7   6   1 238.000   8.100   1
   7  -6  -2 93.1000  2.8000   1
  -7   6   2 101.200   3.000   1
   7  -6  -3 382.500   8.300   1
  -7   6   3 395.600   9.300   1
   7  -6  -4  6.3000  1.4000   1
  -7   6   4  5.7000  1.4000   1
   7  -6  -5 122.500   3.900   1
  -7   6   5 130.700   5.800   1
   7  -6  -6 90.2000  3.2000   1
  -7   6   6 86.3000  4.4000   1
   7  -6  -7 113.900   3.900   1
  -7   6   7 116.800   4.300   1
   7  -6  -8  7.0000  1.7000   1
  -7   6   8  9.4000  1.4000   1
   7  -6  -9  5.5000  2.0000   1
  -7   6   9  1.2000  1.3000   1
   7  -6 -10  9.5000  1.7000   1
  -7   6  10  9.2000  1.5000   1
   7  -6 -11 201.800   6.500   1
  -7   6  11 223.000   7.000   1
   7  -6 -12  4.1000  1.7000   1
  -7   6  12  1.5000  1.4000   1
   7  -6 -13 21.2000  2.1000   1
  -7   6  13 22.7000  3.0000   1
   7  -6 -14  2.3000  1.8000   1
  -7   6  14  9.2000  2.5000   1
   7  -6 -15 83.3000  3.9000   1
  -7   6  15 90.2000  4.8000   1
   7  -6 -16 13.7000  2.8000   1
  -7   6  16 12.0000  2.4000   1
   7  -6 -17 140.300   6.100   1
  -7   6  17 139.800   5.800   1
   7  -6 -18 165.500   6.200   1
  -7   6  18 175.000   7.300   1
   7  -6 -19 42.1000  3.4000   1
  -7   6  19 43.8000  3.9000   1
   7  -6 -20  1.4000  4.0000   1
  -7   6  20  1.5000  3.9000   1
   7  -6 -21 35.6000  6.7000   1
  -7   6  21 32.7000  5.1000   1
   7  -6 -22 48.5000  9.1000   1
  -7   6  22 34.2000  5.7000   1
   7  -6 -23  1.3000  8.6000   1
  -7   6  23  1.3000  7.0000   1
   7  -6 -24 -1.4000  6.0000   1
  -7   6  24  9.5000  8.4000   1
   7  -7  14  7.8000  5.6000   1
  -7   7 -14  9.8000  9.9000   1
   7  -7  13  6.2000  4.2000   1
  -7   7 -13 25.7000  9.5000   1
   7  -7  12 19.6000  3.5000   1
  -7   7 -12 21.5000  7.3000   1
   7  -7  11  6.7000  2.9000   1
  -7   7 -11 10.2000  5.7000   1
   7  -7  10  3.6000  2.7000   1
  -7   7 -10  1.7000  3.6000   1
   7  -7   9 -0.6000  3.3000   1
  -7   7  -9 -0.8000  1.4000   1
   7  -7   8 10.1000  2.6000   1
  -7   7  -8 12.1000  1.6000   1
   7  -7   7 16.1000  2.5000   1
  -7   7  -7 20.4000  1.9000   1
   7  -7   6 131.700   5.700   1
  -7   7  -6 124.700   5.300   1
   7  -7   5  6.0000  1.1000   1
  -7   7  -5  4.2000  1.3000   1
   7  -7   4  9.2000  1.2000   1
  -7   7  -4 12.2000  2.6000   1
   7  -7   3 22.6000  1.5000   1
  -7   7  -3 23.3000  1.9000   1
   7  -7   2 159.000   4.000   1
  -7   7  -2 169.700   5.500   1
   7  -7   1 431.800  12.100   1
  -7   7  -1 442.500  11.600   1
   7  -7   0 17.1000  1.8000   1
  -7   7   0 18.0000  1.3000   1
   7  -7  -1  4.9000  1.4000   1
  -7   7   1  7.5000  1.2000   1
   7  -7  -2 -0.2000  1.6000   1
  -7   7   2  2.7000  1.0000   1
   7  -7  -3 -0.6000  1.5000   1
  -7   7   3  2.0000  0.9000   1
   7  -7  -4  9.5000  1.4000   1
  -7   7   4 12.7000  1.3000   1
   7  -7  -5 48.9000  2.6000   1
  -7   7   5 49.3000  4.0000   1
   7  -7  -6 38.1000  3.2000   1
  -7   7   6 41.9000  2.1000   1
   7  -7  -7 42.9000  2.5000   1
  -7   7   7 44.5000  2.7000   1
   7  -7  -8  0.0000  1.5000   1
  -7   7   8 -0.9000  1.7000   1
   7  -7  -9 33.8000  2.9000   1
  -7   7   9 31.3000  3.2000   1
   7  -7 -10 31.2000  2.2000   1
  -7   7  10 25.6000  2.9000   1
   7  -7 -11  4.1000  1.8000   1
  -7   7  11  5.2000  1.9000   1
   7  -7 -12  2.6000  1.7000   1
  -7   7  12 -0.4000  1.8000   1
   7  -7 -13 75.9000  3.5000   1
  -7   7  13 69.8000  3.4000   1
   7  -7 -14  7.4000  2.0000   1
  -7   7  14 10.0000  2.2000   1
   7  -7 -15  5.0000  1.9000   1
  -7   7  15  6.3000  2.4000   1
   7  -7 -16 83.2000  4.4000   1
  -7   7  16 89.9000  4.5000   1
   7  -7 -17 25.0000  3.1000   1
  -7   7  17 24.3000  3.1000   1
   7  -7 -18 52.4000  4.7000   1
  -7   7  18 56.3000  4.0000   1
   7  -7 -19 19.3000  3.5000   1
  -7   7  19 13.7000  3.2000   1
   7  -7 -20 35.8000  3.9000   1
  -7   7  20 43.7000  5.3000   1
   7  -7 -21  0.2000  7.3000   1
  -7   7  21  2.2000  4.4000   1
   7  -7 -22 21.7000  6.2000   1
  -7   7  22 34.1000  5.6000   1
   7  -7 -23  6.6000  8.1000   1
  -7   7  23  0.4000  7.9000   1
   7  -7 -24 82.8000 13.1000   1
  -7   7  24 62.3000  8.4000   1
   7  -8  13 26.3000  5.3000   1
  -7   8 -13 47.1000 10.2000   1
   7  -8  12 27.6000  4.0000   1
  -7   8 -12 46.8000  9.8000   1
   7  -8  11 -0.7000  3.1000   1
  -7   8 -11  9.0000  5.9000   1
   7  -8  10  3.6000  3.2000   1
  -7   8 -10 -7.3000  7.1000   1
   7  -8   9  4.2000  2.5000   1
  -7   8  -9  5.8000  4.2000   1
   7  -8   8 70.3000  4.2000   1
  -7   8  -8 65.8000  4.7000   1
   7  -8   7 19.7000  3.0000   1
  -7   8  -7 19.0000  3.1000   1
   7  -8   6 42.1000  3.1000   1
  -7   8  -6 40.6000  2.2000   1
   7  -8   5  1.4000  1.0000   1
  -7   8  -5  1.4000  1.2000   1
   7  -8   4 15.7000  1.8000   1
  -7   8  -4 13.2000  1.4000   1
   7  -8   3 34.0000  2.0000   1
  -7   8  -3 41.5000  2.1000   1
   7  -8   2 30.9000  1.8000   1
  -7   8  -2 29.8000  2.5000   1
   7  -8   1 58.7000  2.4000   1
  -7   8  -1 68.9000  2.5000   1
   7  -8   0 33.5000  1.9000   1
  -7   8   0 36.3000  1.8000   1
   7  -8  -1 195.200   5.300   1
  -7   8   1 201.000   5.100   1
   7  -8  -2 32.1000  2.0000   1
  -7   8   2 34.9000  2.3000   1
   7  -8  -3  1.6000  1.3000   1
  -7   8   3  1.2000  1.4000   1
   7  -8  -4 55.2000  2.7000   1
  -7   8   4 60.9000  1.9000   1
   7  -8  -5 26.6000  2.2000   1
  -7   8   5 26.1000  1.2000   1
   7  -8  -6 15.2000  2.4000   1
  -7   8   6 14.5000  1.4000   1
   7  -8  -7 93.0000  4.4000   1
  -7   8   7 93.7000  3.7000   1
   7  -8  -8 15.6000  2.1000   1
  -7   8   8 16.1000  1.8000   1
   7  -8  -9 30.4000  2.9000   1
  -7   8   9 32.9000  2.2000   1
   7  -8 -10 -1.2000  2.0000   1
  -7   8  10  0.2000  1.3000   1
   7  -8 -11  4.6000  2.2000   1
  -7   8  11  1.2000  1.6000   1
   7  -8 -12 69.1000  4.0000   1
  -7   8  12 66.9000  3.5000   1
   7  -8 -13  3.1000  2.0000   1
  -7   8  13 -0.8000  1.8000   1
   7  -8 -14  9.4000  1.7000   1
  -7   8  14  6.5000  1.9000   1
   7  -8 -15 12.5000  2.8000   1
  -7   8  15 12.6000  2.1000   1
   7  -8 -16  3.5000  2.5000   1
  -7   8  16  6.4000  2.1000   1
   7  -8 -17  6.7000  2.7000   1
  -7   8  17  8.1000  3.4000   1
   7  -8 -18 -1.1000  2.8000   1
  -7   8  18  1.3000  2.6000   1
   7  -8 -19  6.8000  3.1000   1
  -7   8  19  4.1000  3.0000   1
   7  -8 -20 66.2000  5.7000   1
  -7   8  20 69.7000  5.9000   1
   7  -8 -21 -4.5000  5.0000   1
  -7   8  21  2.3000  4.6000   1
   7  -8 -22 -7.7000  8.4000   1
  -7   8  22  0.4000  4.2000   1
   7  -8 -23 -0.2000  9.0000   1
  -7   8  23 -1.1000  7.2000   1
   7  -9  13  0.9000  8.2000   1
   7  -9  12 -0.4000  3.4000   1
  -7   9 -12 -2.1000  7.7000   1
   7  -9  11 39.7000  4.6000   1
  -7   9 -11 45.2000  9.0000   1
   7  -9  10 26.4000  3.6000   1
  -7   9 -10 37.4000  8.5000   1
   7  -9   9  1.8000  3.0000   1
  -7   9  -9  1.2000  5.2000   1
   7  -9   8  6.8000  2.6000   1
  -7   9  -8  9.4000  7.3000   1
   7  -9   7 -0.3000  1.9000   1
  -7   9  -7  8.7000  6.5000   1
   7  -9   6 40.7000  3.0000   1
   7  -9   5 178.600   4.600   1
   7  -9   4 26.0000  1.9000   1
  -7   9  -4 25.7000  5.5000   1
   7  -9   3  1.8000  1.3000   1
  -7   9  -3 16.5000  6.1000   1
   7  -9   2 16.9000  1.4000   1
   7  -9   1 38.9000  2.0000   1
  -7   9  -1 42.0000  2.6000   1
   7  -9   0 17.5000  1.7000   1
  -7   9   0 15.3000  2.0000   1
   7  -9  -1  9.0000  1.5000   1
  -7   9   1  9.4000  4.5000   1
   7  -9  -2  5.9000  1.6000   1
  -7   9   2  9.3000  2.8000   1
   7  -9  -3 34.2000  2.7000   1
  -7   9   3 34.0000  3.8000   1
   7  -9  -4  3.0000  1.7000   1
  -7   9   4  6.3000  2.8000   1
   7  -9  -5  6.7000  2.2000   1
  -7   9   5  9.9000  2.2000   1
   7  -9  -6  3.6000  2.5000   1
  -7   9   6  6.6000  1.1000   1
   7  -9  -7 -0.1000  2.4000   1
  -7   9   7 -1.6000  1.1000   1
   7  -9  -8 -4.1000  2.7000   1
  -7   9   8  5.0000  1.6000   1
   7  -9  -9 27.3000  2.5000   1
  -7   9   9 34.3000  2.4000   1
   7  -9 -10 18.3000  2.5000   1
  -7   9  10 17.2000  2.2000   1
   7  -9 -11 48.2000  3.3000   1
  -7   9  11 49.8000  2.9000   1
   7  -9 -12 21.6000  2.6000   1
  -7   9  12 29.1000  2.4000   1
   7  -9 -13 129.400   5.500   1
  -7   9  13 134.600   5.300   1
   7  -9 -14 -2.7000  2.7000   1
  -7   9  14 -2.1000  2.1000   1
   7  -9 -15  8.8000  3.0000   1
  -7   9  15  2.3000  2.5000   1
   7  -9 -16 23.9000  3.0000   1
  -7   9  16 21.7000  3.0000   1
   7  -9 -17  2.9000  4.1000   1
  -7   9  17 -3.0000  2.1000   1
   7  -9 -18 10.5000  2.9000   1
  -7   9  18  1.4000  2.5000   1
   7  -9 -19  2.3000  3.2000   1
  -7   9  19  5.7000  3.3000   1
   7  -9 -20  1.4000  3.3000   1
  -7   9  20  4.7000  4.5000   1
   7  -9 -21  5.7000  3.6000   1
  -7   9  21  7.1000  3.8000   1
   7  -9 -22 23.1000  7.2000   1
  -7   9  22 35.6000  8.5000   1
   7  -9 -23 11.3000  9.3000   1
  -7   9  23  0.0000  7.6000   1
   7 -10  12 36.8000  6.0000   1
  -7  10 -12 61.6000 11.3000   1
   7 -10  11  8.7000  3.6000   1
  -7  10 -11 19.8000  8.2000   1
   7 -10  10 -1.9000  3.2000   1
  -7  10 -10 -0.2000  7.8000   1
   7 -10   9 12.4000  3.3000   1
  -7  10  -9  1.1000  7.0000   1
   7 -10   8 59.7000  3.6000   1
  -7  10  -8 56.3000  8.5000   1
   7 -10   7 16.7000  2.7000   1
  -7  10  -7 20.3000  7.1000   1
   7 -10   6  3.0000  2.3000   1
   7 -10   5  1.5000  1.0000   1
   7 -10   4 94.3000  4.3000   1
  -7  10  -4 96.8000  7.2000   1
   7 -10   3 389.800  11.200   1
   7 -10   2 72.0000  2.9000   1
   7 -10   1 121.200   4.000   1
   7 -10   0  1.1000  1.5000   1
  -7  10   0 -1.7000  3.2000   1
   7 -10  -1 125.300   4.900   1
  -7  10   1 158.300  10.300   1
   7 -10  -2 79.6000  3.3000   1
  -7  10   2 79.5000  6.9000   1
   7 -10  -3 -0.4000  1.8000   1
  -7  10   3  1.1000  2.6000   1
   7 -10  -4  8.6000  1.9000   1
  -7  10   4  5.6000  3.2000   1
   7 -10  -5 61.5000  3.8000   1
  -7  10   5 57.0000  4.2000   1
   7 -10  -6 19.1000  2.7000   1
  -7  10   6 13.0000  2.7000   1
   7 -10  -7 14.2000  2.1000   1
  -7  10   7 11.0000  1.4000   1
   7 -10  -8  2.5000  2.4000   1
  -7  10   8  3.0000  1.3000   1
   7 -10  -9 77.9000  4.0000   1
  -7  10   9 83.2000  3.5000   1
   7 -10 -10 -3.6000  2.3000   1
  -7  10  10 -1.3000  1.6000   1
   7 -10 -11 28.6000  3.0000   1
  -7  10  11 25.9000  2.5000   1
   7 -10 -12  7.1000  2.4000   1
  -7  10  12  8.7000  2.1000   1
   7 -10 -13  2.6000  2.2000   1
  -7  10  13  1.1000  2.1000   1
   7 -10 -14 25.7000  3.6000   1
  -7  10  14 16.9000  2.8000   1
   7 -10 -15 45.7000  4.4000   1
  -7  10  15 49.6000  3.7000   1
   7 -10 -16  4.5000  3.4000   1
  -7  10  16 -1.3000  2.4000   1
   7 -10 -17 34.9000  4.5000   1
  -7  10  17 27.7000  3.0000   1
   7 -10 -18  2.3000  3.3000   1
  -7  10  18  5.8000  3.0000   1
   7 -10 -19 14.5000  3.5000   1
  -7  10  19  9.2000  3.6000   1
   7 -10 -20  3.3000  3.1000   1
  -7  10  20  2.2000  4.3000   1
   7 -10 -21 19.6000  3.7000   1
  -7  10  21 33.5000  6.6000   1
   7 -10 -22 25.6000  6.0000   1
  -7  10  22 33.3000  7.9000   1
   7 -11  12 31.0000  6.1000   1
  -7  11 -12 38.6000 10.3000   1
   7 -11  11  6.7000  5.7000   1
  -7  11 -11-10.2000  8.7000   1
   7 -11  10 85.2000  8.5000   1
  -7  11 -10 102.600  11.200   1
   7 -11   9 83.4000  7.9000   1
  -7  11  -9 99.2000 12.1000   1
   7 -11   8  3.7000  2.5000   1
  -7  11  -8  6.0000  7.6000   1
   7 -11   7  2.1000  2.3000   1
  -7  11  -7  0.7000  7.1000   1
   7 -11   6 36.1000  1.5000   1
  -7  11  -6 26.1000  7.5000   1
   7 -11   5 412.800   9.700   1
   7 -11   4 63.7000  3.5000   1
   7 -11   3  3.5000  1.1000   1
   7 -11   2 26.1000  2.0000   1
   7 -11   1 2005.30   63.20   1
   7 -11   0 15.9000  2.0000   1
   7 -11  -1 18.3000  2.2000   1
  -7  11   1 27.9000  5.2000   1
   7 -11  -2 18.6000  2.8000   1
  -7  11   2 12.3000  4.8000   1
   7 -11  -3 635.300  15.600   1
  -7  11   3 665.400  32.000   1
   7 -11  -4 28.2000  2.4000   1
  -7  11   4 26.5000  4.2000   1
   7 -11  -5 146.900   7.200   1
  -7  11   5 159.300   7.000   1
   7 -11  -6  1.2000  2.2000   1
  -7  11   6  1.9000  2.9000   1
   7 -11  -7 36.7000  2.6000   1
  -7  11   7 35.4000  1.8000   1
   7 -11  -8  1.8000  2.4000   1
  -7  11   8  1.8000  1.4000   1
   7 -11  -9  5.7000  2.3000   1
  -7  11   9  2.9000  1.6000   1
   7 -11 -10  6.0000  2.6000   1
  -7  11  10  3.2000  1.5000   1
   7 -11 -11  3.7000  2.3000   1
  -7  11  11  6.9000  1.8000   1
   7 -11 -12  1.4000  2.2000   1
  -7  11  12  1.2000  1.9000   1
   7 -11 -13 73.8000  5.2000   1
  -7  11  13 79.9000  4.3000   1
   7 -11 -14  4.2000  3.2000   1
  -7  11  14 -0.1000  2.3000   1
   7 -11 -15 35.0000  4.5000   1
  -7  11  15 32.8000  3.3000   1
   7 -11 -16 -1.5000  3.4000   1
  -7  11  16  1.1000  2.6000   1
   7 -11 -17 21.9000  4.1000   1
  -7  11  17 21.7000  3.4000   1
   7 -11 -18 52.0000  5.1000   1
  -7  11  18 49.1000  4.4000   1
   7 -11 -19 29.4000  3.6000   1
  -7  11  19 25.2000  5.3000   1
   7 -11 -20  1.2000  3.6000   1
  -7  11  20  8.7000  5.8000   1
   7 -11 -21  2.1000  4.0000   1
  -7  11  21 -3.9000  4.3000   1
   7 -11 -22 -0.1000  5.5000   1
  -7  11  22  9.2000  7.1000   1
   7 -12  11  4.5000  6.2000   1
  -7  12 -11  8.0000  8.3000   1
   7 -12  10 11.8000  6.0000   1
  -7  12 -10  2.7000  7.7000   1
   7 -12   9  9.9000  5.4000   1
  -7  12  -9 13.6000  7.6000   1
   7 -12   8 16.2000  4.7000   1
  -7  12  -8  1.7000  7.5000   1
   7 -12   7 14.9000  5.1000   1
  -7  12  -7  9.0000  6.9000   1
   7 -12   6 41.6000  5.5000   1
  -7  12  -6 38.0000  8.4000   1
   7 -12   5 23.2000  2.0000   1
   7 -12   4  5.1000  1.7000   1
   7 -12   3 -2.4000  2.7000   1
   7 -12   2 69.1000  3.4000   1
   7 -12   1 14.0000  2.4000   1
   7 -12   0  7.0000  2.8000   1
   7 -12  -1 119.900   5.300   1
   7 -12  -2 12.0000  2.2000   1
  -7  12   2  7.9000  3.7000   1
   7 -12  -3  4.0000  1.9000   1
  -7  12   3  9.4000  5.3000   1
   7 -12  -4  2.2000  2.1000   1
  -7  12   4  3.9000  5.4000   1
   7 -12  -5 164.000   7.600   1
  -7  12   5 175.300   8.200   1
   7 -12  -6 135.100   4.900   1
  -7  12   6 141.700   7.100   1
   7 -12  -7 283.700   8.600   1
  -7  12   7 294.400  13.500   1
   7 -12  -8 152.200   7.800   1
  -7  12   8 152.100   5.300   1
   7 -12  -9 -2.5000  2.1000   1
  -7  12   9  1.8000  1.6000   1
   7 -12 -10  5.1000  2.5000   1
  -7  12  10  2.2000  1.8000   1
   7 -12 -11 117.400   5.500   1
  -7  12  11 126.000   5.100   1
   7 -12 -12  2.3000  2.5000   1
  -7  12  12  1.3000  2.0000   1
   7 -12 -13 49.6000  4.7000   1
  -7  12  13 51.5000  3.7000   1
   7 -12 -14 18.8000  3.5000   1
  -7  12  14 15.8000  2.9000   1
   7 -12 -15 38.2000  4.7000   1
  -7  12  15 34.3000  2.8000   1
   7 -12 -16  5.2000  3.3000   1
  -7  12  16  5.9000  4.0000   1
   7 -12 -17  2.8000  3.4000   1
  -7  12  17 -0.2000  3.0000   1
   7 -12 -18 27.4000  4.6000   1
  -7  12  18 36.8000  6.6000   1
   7 -12 -19 27.1000  4.1000   1
  -7  12  19 32.6000  7.3000   1
   7 -12 -20 139.300   7.500   1
  -7  12  20 132.500  12.000   1
   7 -12 -21  4.7000  5.4000   1
  -7  12  21  2.7000  5.1000   1
   7 -13  10  0.0000  5.9000   1
  -7  13 -10  4.8000  9.1000   1
   7 -13   9 20.9000  5.6000   1
  -7  13  -9 31.9000  9.5000   1
   7 -13   8 27.4000  4.6000   1
  -7  13  -8 23.1000  8.0000   1
   7 -13   7 35.6000  5.5000   1
  -7  13  -7 29.3000  8.1000   1
   7 -13   6 44.3000  5.0000   1
  -7  13  -6 38.1000  8.1000   1
   7 -13   5 20.4000  2.5000   1
   7 -13   4  0.3000  1.9000   1
   7 -13   3 84.7000  5.0000   1
   7 -13   2  4.3000  1.5000   1
   7 -13   1  0.1000  2.1000   1
   7 -13   0 23.4000  2.9000   1
   7 -13  -1 202.200   8.200   1
   7 -13  -2  8.7000  2.3000   1
   7 -13  -3 21.6000  2.4000   1
  -7  13   3 14.8000  6.6000   1
   7 -13  -4 35.2000  2.7000   1
  -7  13   4 49.6000  6.4000   1
   7 -13  -5 146.300   5.400   1
  -7  13   5 180.700  12.500   1
   7 -13  -6 -2.9000  2.6000   1
  -7  13   6 -3.8000  3.1000   1
   7 -13  -7  4.9000  2.8000   1
  -7  13   7  2.6000  3.0000   1
   7 -13  -8 13.5000  3.4000   1
  -7  13   8 14.5000  1.2000   1
   7 -13  -9 68.0000  4.8000   1
  -7  13   9 79.6000  3.4000   1
   7 -13 -10  6.1000  3.6000   1
  -7  13  10  5.6000  1.9000   1
   7 -13 -11 21.5000  3.6000   1
  -7  13  11 27.0000  2.7000   1
   7 -13 -12  2.1000  2.7000   1
  -7  13  12  2.8000  2.2000   1
   7 -13 -13 53.0000  4.6000   1
  -7  13  13 38.4000  3.3000   1
   7 -13 -14 19.3000  4.0000   1
  -7  13  14 20.8000  3.1000   1
   7 -13 -15 34.5000  4.5000   1
  -7  13  15 28.6000  3.4000   1
   7 -13 -16  8.8000  3.5000   1
  -7  13  16 12.3000  3.3000   1
   7 -13 -17  4.3000  3.6000   1
  -7  13  17 -0.5000  4.3000   1
   7 -13 -18  2.9000  3.9000   1
  -7  13  18 12.3000  5.1000   1
   7 -13 -19 17.8000  4.0000   1
  -7  13  19 12.2000  5.6000   1
   7 -13 -20 -9.3000  5.0000   1
  -7  13  20-12.9000  6.8000   1
   7 -14   9  8.0000  5.3000   1
  -7  14  -9 13.0000  9.8000   1
   7 -14   8 -2.7000  6.0000   1
  -7  14  -8 -6.8000  8.2000   1
   7 -14   7 65.3000  8.1000   1
  -7  14  -7 95.2000 11.1000   1
   7 -14   6  0.7000  4.9000   1
   7 -14   5 14.8000  4.4000   1
   7 -14   4 35.1000  5.8000   1
   7 -14   3 48.4000  3.9000   1
   7 -14   2 10.2000  3.9000   1
   7 -14   1 35.8000  2.9000   1
   7 -14   0 29.7000  3.1000   1
   7 -14  -1 328.000  10.800   1
   7 -14  -2 20.0000  3.7000   1
   7 -14  -3 92.0000  6.1000   1
   7 -14  -4  3.1000  2.9000   1
  -7  14   4  3.2000  6.0000   1
   7 -14  -5 -2.4000  2.7000   1
  -7  14   5  4.4000  6.2000   1
   7 -14  -6  3.0000  2.5000   1
  -7  14   6  3.4000  6.0000   1
   7 -14  -7 85.7000  4.7000   1
  -7  14   7 72.6000  5.1000   1
   7 -14  -8 48.4000  3.8000   1
  -7  14   8 40.2000  4.2000   1
   7 -14  -9 20.5000  3.4000   1
  -7  14   9 15.9000  1.8000   1
   7 -14 -10  2.1000  2.7000   1
  -7  14  10  0.5000  2.0000   1
   7 -14 -11 84.3000  6.0000   1
  -7  14  11 101.100   4.800   1
   7 -14 -12  1.4000  3.5000   1
  -7  14  12  4.7000  2.7000   1
   7 -14 -13 68.5000  5.9000   1
  -7  14  13 63.3000  4.3000   1
   7 -14 -14  1.3000  3.7000   1
  -7  14  14  1.8000  2.9000   1
   7 -14 -15 53.0000  4.9000   1
  -7  14  15 52.9000  5.1000   1
   7 -14 -16 -0.1000  3.6000   1
  -7  14  16 -3.1000  5.0000   1
   7 -14 -17 62.5000  5.9000   1
  -7  14  17 69.0000  8.4000   1
   7 -14 -18 13.2000  4.6000   1
  -7  14  18 12.4000  6.3000   1
   7 -14 -19  9.2000  6.0000   1
  -7  14  19  9.6000  5.8000   1
   7 -14 -20 30.2000  6.6000   1
  -7  14  20 37.0000  8.1000   1
   7 -15   8  7.8000  6.2000   1
  -7  15  -8 17.3000  8.7000   1
   7 -15   7 -0.4000  8.5000   1
   7 -15   6 18.9000  5.9000   1
   7 -15   5  1.2000  4.9000   1
   7 -15   4  3.3000  3.1000   1
   7 -15   3  8.5000  5.3000   1
   7 -15   2  2.0000  3.2000   1
   7 -15   1 14.3000  4.1000   1
   7 -15   0 15.3000  3.5000   1
   7 -15  -1 25.7000  3.1000   1
   7 -15  -2 25.0000  4.1000   1
   7 -15  -3 -0.1000  3.8000   1
   7 -15  -4  1.7000  2.8000   1
   7 -15  -5  5.7000  2.9000   1
   7 -15  -6  5.6000  2.9000   1
   7 -15  -7 -2.0000  2.8000   1
   7 -15  -8  1.7000  3.0000   1
   7 -15  -9 73.7000  4.8000   1
   7 -15 -10 21.2000  4.3000   1
  -7  15  10 17.2000  2.5000   1
   7 -15 -11 52.5000  4.9000   1
  -7  15  11 49.8000  4.5000   1
   7 -15 -12  9.0000  3.7000   1
  -7  15  12 10.8000  2.9000   1
   7 -15 -13 94.4000  6.8000   1
  -7  15  13 81.4000  6.6000   1
   7 -15 -14 93.2000  6.6000   1
  -7  15  14 94.0000  9.8000   1
   7 -15 -15 25.9000  4.5000   1
  -7  15  15 21.3000  4.9000   1
   7 -15 -16 13.9000  4.2000   1
   7 -15 -17  5.0000  4.5000   1
  -7  15  17  9.0000  5.1000   1
   7 -15 -18 -2.4000  7.4000   1
  -7  15  18 -4.5000  5.9000   1
   7 -15 -19 -2.4000  5.6000   1
  -7  15  19  6.5000  5.4000   1
   7 -16   7 -7.4000  8.9000   1
   7 -16   6 18.4000  6.7000   1
   7 -16   5 -4.6000  5.0000   1
   7 -16   4 12.7000  5.9000   1
   7 -16   3  4.0000  3.5000   1
   7 -16   2  6.2000  3.6000   1
   7 -16   1 11.3000  5.8000   1
   7 -16   0 14.4000  4.3000   1
   7 -16  -2  7.4000  4.7000   1
   7 -16  -3 72.8000  4.5000   1
   7 -16  -4  1.4000  3.0000   1
   7 -16  -5  2.3000  2.9000   1
   7 -16  -6  1.2000  2.7000   1
   7 -16  -7 56.1000  4.6000   1
   7 -16  -8  6.7000  3.3000   1
   7 -16  -9 10.1000  4.1000   1
   7 -16 -10 -4.1000  3.6000   1
   7 -16 -11 11.2000  4.1000   1
   7 -16 -12 48.5000  5.0000   1
   7 -16 -13 29.5000  4.6000   1
   7 -16 -14 -1.5000  3.8000   1
  -7  16  14  5.7000  3.6000   1
   7 -16 -15 17.0000  4.7000   1
   7 -16 -16 13.4000  4.8000   1
   7 -16 -17  3.3000  8.1000   1
   7 -17   6 29.7000  8.0000   1
   7 -17   5  6.8000  8.2000   1
   7 -17   4 45.8000  7.5000   1
   7 -17   3 11.5000  5.9000   1
   7 -17   2 12.0000  3.6000   1
   7 -17   1 -0.9000  3.6000   1
   7 -17   0 10.9000  4.9000   1
   7 -17  -1 29.9000  6.2000   1
   7 -17  -2 -4.3000  4.6000   1
   7 -17  -3 37.1000  5.1000   1
   7 -17  -4  7.3000  3.8000   1
   7 -17  -5  9.4000  3.4000   1
   7 -17  -6  7.2000  3.1000   1
   7 -17  -7  8.5000  4.2000   1
   7 -17  -8  5.4000  3.3000   1
   7 -17  -9 -2.4000  4.3000   1
   7 -17 -10 14.6000  4.6000   1
   7 -17 -11 33.0000  5.4000   1
   7 -17 -12  5.0000  4.5000   1
   7 -17 -13 11.4000  4.2000   1
   7 -17 -14 28.7000  5.1000   1
   7 -17 -15 15.1000  8.2000   1
   7 -17 -16 -5.0000  7.3000   1
   7 -18   4  9.9000  8.8000   1
   7 -18   3 -6.8000  8.6000   1
   7 -18   2 -5.6000  3.9000   1
   7 -18   1 12.5000  4.7000   1
   7 -18   0  1.2000  4.6000   1
   7 -18  -1  2.6000  8.0000   1
   7 -18  -2  5.6000  4.1000   1
   7 -18  -3 56.4000  6.6000   1
   7 -18  -4 14.0000  6.9000   1
   7 -18  -5  1.3000  4.9000   1
   7 -18  -6  0.9000  4.8000   1
   7 -18  -7 29.2000  4.9000   1
   7 -18  -8 -0.4000  4.0000   1
   7 -18  -9 -1.7000  4.5000   1
   7 -18 -10  7.9000  4.8000   1
   7 -18 -11  2.5000  3.9000   1
   7 -18 -12  4.5000  4.5000   1
   7 -18 -13 -0.2000  4.6000   1
   7 -18 -14  3.2000  7.6000   1
   7 -19   2 18.7000  9.8000   1
   7 -19   1  5.7000  4.6000   1
   7 -19   0 -6.9000  4.8000   1
   7 -19  -1  6.1000  7.7000   1
   7 -19  -2  3.8000  7.1000   1
   7 -19  -3  0.6000  7.2000   1
   7 -19  -4 -4.8000  6.4000   1
   7 -19  -5 -9.5000  6.2000   1
   7 -19  -6 12.7000  7.1000   1
   7 -19  -7  8.4000  6.2000   1
   7 -19  -8 -0.5000  6.1000   1
   7 -19  -9 28.9000  7.0000   1
   7 -19 -10 14.5000  6.5000   1
   7 -19 -11 29.1000  7.5000   1
   7 -19 -12  7.4000  6.2000   1
   7 -20  -1 -2.7000  5.1000   1
   7 -20  -3  2.4000  7.7000   1
   7 -20  -4 11.7000  8.0000   1
   7 -20  -5  4.1000  6.2000   1
   7 -20  -6 10.6000  6.3000   1
   7 -20  -7 16.9000  7.1000   1
   7 -20  -8  6.7000  6.4000   1
   7 -20  -9 18.1000  7.1000   1
   8   0  13  4.0000  4.5000   1
   8   0  12 -1.4000  4.2000   1
   8   0  11  1.4000  4.9000   1
   8   0  10 13.1000  4.0000   1
   8   0   9  1.7000  2.7000   1
   8   0   8  3.2000  1.5000   1
   8   0   7  0.2000  1.5000   1
   8   0   6  8.4000  1.8000   1
   8   0   5  2.8000  1.2000   1
   8   0   4 20.3000  1.5000   1
   8   0   3  0.0000  1.2000   1
   8   0   2  8.1000  1.3000   1
   8   0   1  0.6000  1.2000   1
   8   0   0  3.6000  1.3000   1
   8   0  -1 -0.9000  1.1000   1
   8   0  -2 229.500   5.800   1
   8   0  -3 -0.1000  1.2000   1
   8   0  -4  1.6000  1.8000   1
   8   0  -5  1.9000  1.3000   1
   8   0  -6 85.7000  3.8000   1
   8   0  -7  1.1000  1.5000   1
   8   0  -8 524.500  12.900   1
   8   0  -9  1.3000  1.6000   1
   8   0 -10 133.800   4.800   1
   8   0 -11 -0.7000  1.9000   1
   8   0 -12 134.400   4.100   1
   8   0 -13 -0.1000  1.9000   1
   8   0 -14  5.7000  2.0000   1
   8   0 -15  1.0000  1.7000   1
   8   0 -16 12.3000  2.5000   1
   8   0 -17 -0.7000  3.3000   1
   8   0 -18  6.8000  3.6000   1
   8   0 -19 -3.0000  3.6000   1
   8   0 -20 19.4000  4.1000   1
   8   0 -21  6.9000  3.6000   1
   8   0 -22 177.400  13.600   1
   8   0 -24 45.8000  7.9000   1
   8   0 -25  6.9000  9.6000   1
   8  -1  13  2.2000  5.1000   1
  -8   1 -13 -3.6000  4.9000   1
   8  -1  12  3.7000  4.8000   1
  -8   1 -12  1.7000  4.0000   1
   8  -1  11  6.2000  3.9000   1
  -8   1 -11  9.6000  3.7000   1
   8  -1  10 28.0000  5.4000   1
  -8   1 -10 18.3000  4.1000   1
   8  -1   9  7.6000  1.8000   1
  -8   1  -9 10.5000  3.4000   1
   8  -1   8 16.6000  2.4000   1
  -8   1  -8 21.8000  3.7000   1
   8  -1   7  3.8000  1.7000   1
  -8   1  -7  2.6000  2.8000   1
   8  -1   6 56.9000  3.0000   1
  -8   1  -6 49.9000  2.6000   1
   8  -1   5 123.000   4.500   1
  -8   1  -5 118.500   4.600   1
   8  -1   4 125.800   4.000   1
  -8   1  -4 127.300   3.900   1
   8  -1   3  1.0000  1.3000   1
  -8   1  -3  3.4000  1.3000   1
   8  -1   2  1.2000  1.3000   1
  -8   1  -2  2.2000  1.2000   1
   8  -1   1 -0.8000  1.3000   1
  -8   1  -1 -0.4000  1.1000   1
   8  -1   0 265.000   7.000   1
  -8   1   0 267.200   6.000   1
   8  -1  -1  6.2000  1.3000   1
  -8   1   1  3.5000  1.2000   1
   8  -1  -2  9.7000  1.2000   1
  -8   1   2  9.7000  1.5000   1
   8  -1  -3 23.5000  2.0000   1
  -8   1   3 29.3000  1.7000   1
   8  -1  -4 348.100   6.900   1
  -8   1   4 352.200   7.500   1
   8  -1  -5  1.1000  1.0000   1
  -8   1   5  0.3000  1.6000   1
   8  -1  -6 34.3000  2.1000   1
  -8   1   6 41.4000  2.5000   1
   8  -1  -7 -0.4000  1.4000   1
  -8   1   7  2.4000  1.4000   1
   8  -1  -8 160.200   4.900   1
  -8   1   8 161.800   5.400   1
   8  -1  -9 15.3000  1.8000   1
  -8   1   9 17.2000  2.1000   1
   8  -1 -10 184.000   6.100   1
  -8   1  10 189.200   5.800   1
   8  -1 -11 55.8000  3.3000   1
  -8   1  11 57.0000  3.2000   1
   8  -1 -12 179.300   6.300   1
  -8   1  12 179.600   6.000   1
   8  -1 -13  3.7000  1.8000   1
  -8   1  13  0.2000  1.8000   1
   8  -1 -14 710.900  16.900   1
  -8   1  14 723.600  19.800   1
   8  -1 -15 15.9000  2.8000   1
  -8   1  15 17.7000  2.2000   1
   8  -1 -16  0.4000  2.3000   1
  -8   1  16  2.7000  2.2000   1
   8  -1 -17 227.700   9.200   1
  -8   1  17 220.100   6.700   1
   8  -1 -18 183.200  12.500   1
  -8   1  18 184.300   7.400   1
   8  -1 -19 60.3000  3.8000   1
  -8   1  19 55.3000  7.1000   1
   8  -1 -20  3.8000  5.0000   1
  -8   1  20 13.3000  4.0000   1
   8  -1 -21 42.6000  7.4000   1
  -8   1  21 54.7000  5.4000   1
   8  -1 -22 83.3000  8.2000   1
   8  -1 -24 33.1000  8.4000   1
  -8   1  24 11.6000  6.1000   1
   8  -1 -25 14.3000  8.8000   1
  -8   1  25  1.8000  8.8000   1
   8  -2  13 33.6000  5.7000   1
  -8   2 -13 33.8000  9.8000   1
   8  -2  12 53.4000  6.2000   1
  -8   2 -12 62.2000  6.3000   1
   8  -2  11  0.2000  4.0000   1
  -8   2 -11  5.9000  3.7000   1
   8  -2  10 11.4000  3.9000   1
  -8   2 -10  9.3000  3.5000   1
   8  -2   9  3.9000  2.1000   1
  -8   2  -9  4.4000  3.0000   1
   8  -2   8 25.3000  2.7000   1
  -8   2  -8 23.8000  2.9000   1
   8  -2   7 42.1000  3.0000   1
  -8   2  -7 33.7000  3.2000   1
   8  -2   6 111.900   4.300   1
  -8   2  -6 111.100   4.900   1
   8  -2   5 16.5000  1.5000   1
  -8   2  -5  8.1000  2.3000   1
   8  -2   4  1.8000  1.6000   1
  -8   2  -4  2.1000  1.6000   1
   8  -2   3 118.600   2.900   1
  -8   2  -3 122.300   4.300   1
   8  -2   2 310.600   6.700   1
  -8   2  -2 319.500   7.600   1
   8  -2   1 11.2000  1.5000   1
  -8   2  -1 13.9000  1.4000   1
   8  -2   0 43.9000  1.9000   1
  -8   2   0 46.2000  1.8000   1
   8  -2  -1 139.000   3.600   1
  -8   2   1 135.300   3.300   1
   8  -2  -2 232.700   5.000   1
  -8   2   2 223.800   4.900   1
   8  -2  -3  8.7000  1.3000   1
  -8   2   3  7.0000  1.3000   1
   8  -2  -4  8.5000  1.6000   1
  -8   2   4  8.6000  1.7000   1
   8  -2  -5  2.4000  1.5000   1
  -8   2   5  6.4000  1.5000   1
   8  -2  -6 83.1000  3.0000   1
  -8   2   6 86.5000  3.6000   1
   8  -2  -7 33.7000  2.1000   1
  -8   2   7 38.9000  2.4000   1
   8  -2  -8 17.9000  2.3000   1
  -8   2   8 16.3000  2.0000   1
   8  -2  -9  0.0000  2.3000   1
  -8   2   9 -0.6000  1.7000   1
   8  -2 -10 106.700   3.700   1
  -8   2  10 111.400   4.300   1
   8  -2 -11 29.7000  2.7000   1
  -8   2  11 28.3000  2.3000   1
   8  -2 -12 75.4000  3.5000   1
  -8   2  12 75.0000  4.0000   1
   8  -2 -13 164.700   6.000   1
  -8   2  13 152.700   5.600   1
   8  -2 -14 32.7000  2.6000   1
  -8   2  14 35.6000  2.5000   1
   8  -2 -15  6.8000  2.0000   1
  -8   2  15 14.0000  2.1000   1
   8  -2 -16 612.100  37.900   1
  -8   2  16 626.900  14.800   1
   8  -2 -17 171.500   8.100   1
  -8   2  17 173.800   5.800   1
   8  -2 -18  0.9000  2.1000   1
  -8   2  18  6.9000  5.1000   1
   8  -2 -19 -0.6000  2.3000   1
  -8   2  19  2.4000  3.6000   1
   8  -2 -20 103.800   6.900   1
  -8   2  20 123.200  11.100   1
  -8   2  21 219.100  15.600   1
   8  -2 -22  4.5000  5.0000   1
  -8   2  23 23.7000  6.2000   1
   8  -2 -24  9.1000  6.2000   1
   8  -2 -25 44.7000 10.5000   1
  -8   2  25 40.4000  9.9000   1
   8  -3  13 30.4000  5.5000   1
  -8   3 -13 36.6000  7.8000   1
   8  -3  12  7.1000  4.5000   1
  -8   3 -12 -0.5000  6.8000   1
   8  -3  11 24.4000  5.2000   1
  -8   3 -11 33.4000  4.3000   1
   8  -3  10 29.5000  4.6000   1
  -8   3 -10 15.6000  3.6000   1
   8  -3   9 42.3000  3.2000   1
  -8   3  -9 39.7000  4.1000   1
   8  -3   8  9.6000  2.2000   1
  -8   3  -8  4.0000  2.5000   1
   8  -3   7 45.0000  3.0000   1
  -8   3  -7 45.8000  3.3000   1
   8  -3   6  6.0000  2.5000   1
  -8   3  -6  7.0000  2.9000   1
   8  -3   5  3.5000  1.3000   1
  -8   3  -5  2.6000  2.3000   1
   8  -3   4  4.0000  1.4000   1
  -8   3  -4  4.8000  1.7000   1
   8  -3   3 10.9000  1.3000   1
  -8   3  -3 18.1000  1.9000   1
   8  -3   2 65.8000  2.3000   1
  -8   3  -2 64.6000  2.8000   1
   8  -3   1 33.6000  2.0000   1
  -8   3  -1 35.4000  2.0000   1
   8  -3   0  4.7000  1.3000   1
  -8   3   0  6.4000  1.5000   1
   8  -3  -1 40.2000  1.8000   1
  -8   3   1 42.1000  2.2000   1
   8  -3  -2 357.200   8.500   1
  -8   3   2 341.200   8.500   1
   8  -3  -3  4.4000  1.3000   1
  -8   3   3  5.8000  1.5000   1
   8  -3  -4  1.0000  1.4000   1
  -8   3   4  1.9000  1.3000   1
   8  -3  -5 49.1000  2.1000   1
  -8   3   5 46.9000  2.3000   1
   8  -3  -6 95.1000  3.4000   1
  -8   3   6 101.900   4.000   1
   8  -3  -7 23.2000  2.4000   1
  -8   3   7 26.3000  2.3000   1
   8  -3  -8 157.500   5.600   1
  -8   3   8 177.700   5.600   1
   8  -3  -9 51.8000  2.5000   1
  -8   3   9 53.8000  3.1000   1
   8  -3 -10 36.5000  2.3000   1
  -8   3  10 35.7000  2.8000   1
   8  -3 -11 13.1000  1.9000   1
  -8   3  11 14.8000  2.1000   1
   8  -3 -12 21.3000  2.6000   1
  -8   3  12 16.5000  2.3000   1
   8  -3 -13  0.8000  1.7000   1
  -8   3  13  1.2000  1.8000   1
   8  -3 -14 22.2000  3.4000   1
  -8   3  14 22.7000  2.4000   1
   8  -3 -15 -2.3000  1.5000   1
  -8   3  15 -1.1000  1.7000   1
   8  -3 -16 20.8000  3.0000   1
  -8   3  16 25.1000  2.6000   1
   8  -3 -17  7.8000  2.2000   1
  -8   3  17  8.6000  3.6000   1
   8  -3 -18 16.1000  3.5000   1
  -8   3  18 17.5000  2.7000   1
   8  -3 -19 31.1000  6.7000   1
  -8   3  19 22.1000  3.7000   1
   8  -3 -20 74.3000  6.0000   1
  -8   3  20 68.1000  5.9000   1
   8  -3 -21 126.100  12.000   1
  -8   3  21 140.100  12.200   1
   8  -3 -22 45.2000  8.1000   1
  -8   3  22 47.3000  8.8000   1
   8  -3 -23 41.4000  8.7000   1
   8  -3 -24 20.6000  6.7000   1
   8  -3 -25 12.9000  9.7000   1
  -8   3  25  7.4000  8.5000   1
   8  -4  13 18.9000  5.5000   1
  -8   4 -13  4.5000  8.2000   1
   8  -4  12  3.9000  6.3000   1
  -8   4 -12 -3.4000  7.3000   1
   8  -4  11 13.1000  6.6000   1
   8  -4  10 15.7000  3.1000   1
  -8   4 -10 17.6000  3.6000   1
   8  -4   9  2.3000  2.6000   1
  -8   4  -9 10.3000  3.1000   1
   8  -4   8 16.1000  2.8000   1
  -8   4  -8 10.1000  2.7000   1
   8  -4   7 78.5000  4.3000   1
  -8   4  -7 79.4000  4.3000   1
   8  -4   6 35.9000  3.0000   1
  -8   4  -6 27.5000  2.9000   1
   8  -4   5  8.7000  1.2000   1
  -8   4  -5  9.8000  2.4000   1
   8  -4   4  1.4000  1.2000   1
  -8   4  -4  2.0000  2.0000   1
   8  -4   3 51.6000  1.9000   1
  -8   4  -3 53.3000  2.6000   1
   8  -4   2 99.5000  3.1000   1
  -8   4  -2 98.6000  3.8000   1
   8  -4   1  3.3000  1.5000   1
  -8   4  -1  3.9000  1.6000   1
   8  -4   0 15.9000  1.5000   1
  -8   4   0 19.7000  1.7000   1
   8  -4  -1 241.300   6.000   1
  -8   4   1 249.200   6.400   1
   8  -4  -2 23.4000  1.7000   1
  -8   4   2 25.5000  1.7000   1
   8  -4  -3 34.8000  2.0000   1
  -8   4   3 34.8000  1.9000   1
   8  -4  -4 215.000   5.600   1
  -8   4   4 210.200   6.000   1
   8  -4  -5  0.7000  1.5000   1
  -8   4   5 -0.6000  1.2000   1
   8  -4  -6 25.5000  2.4000   1
  -8   4   6 21.7000  2.2000   1
   8  -4  -7 -1.2000  1.5000   1
  -8   4   7  3.9000  1.7000   1
   8  -4  -8 13.4000  2.4000   1
  -8   4   8  3.9000  1.8000   1
   8  -4  -9 11.7000  1.9000   1
  -8   4   9 10.1000  1.8000   1
   8  -4 -10  8.9000  1.8000   1
  -8   4  10 13.1000  2.4000   1
   8  -4 -11 34.3000  2.3000   1
  -8   4  11 36.5000  2.8000   1
   8  -4 -12  1.3000  1.7000   1
  -8   4  12  1.4000  1.3000   1
   8  -4 -13  5.0000  1.8000   1
  -8   4  13  4.0000  2.2000   1
   8  -4 -14 11.6000  2.8000   1
  -8   4  14 15.8000  2.4000   1
   8  -4 -15 27.3000  2.7000   1
  -8   4  15 28.2000  2.6000   1
   8  -4 -16  2.0000  2.0000   1
  -8   4  16  2.5000  2.5000   1
   8  -4 -17 40.2000  5.7000   1
  -8   4  17 44.5000  5.0000   1
   8  -4 -18  5.4000  2.8000   1
  -8   4  18  0.4000  2.8000   1
   8  -4 -19 64.0000  4.1000   1
  -8   4  19 57.8000  5.1000   1
   8  -4 -20 10.9000  4.2000   1
  -8   4  20  3.0000  3.5000   1
   8  -4 -21  4.7000  4.6000   1
  -8   4  21 15.5000  4.6000   1
   8  -4 -22 -8.1000  4.4000   1
  -8   4  22  6.4000  6.5000   1
   8  -4 -23 -9.9000  7.9000   1
   8  -4 -24 71.8000 10.9000   1
   8  -4 -25 20.0000 10.1000   1
  -8   4  25 -0.6000  5.6000   1
   8  -5  13 -4.6000  4.1000   1
  -8   5 -13  5.9000  8.5000   1
   8  -5  12  3.6000  5.2000   1
  -8   5 -12  1.5000  8.6000   1
   8  -5  11 58.9000  6.6000   1
  -8   5 -11 65.2000 10.1000   1
   8  -5  10  4.3000  2.5000   1
  -8   5 -10  0.6000  7.0000   1
   8  -5   9  6.2000  3.1000   1
  -8   5  -9  6.3000  2.3000   1
   8  -5   8 18.1000  2.8000   1
  -8   5  -8 13.0000  2.6000   1
   8  -5   7  4.0000  2.2000   1
  -8   5  -7  5.2000  2.2000   1
   8  -5   6 22.2000  2.8000   1
  -8   5  -6 18.9000  2.9000   1
   8  -5   5 126.400   3.900   1
  -8   5  -5 121.000   5.900   1
   8  -5   4 22.1000  1.7000   1
  -8   5  -4 25.4000  2.3000   1
   8  -5   3 17.8000  1.4000   1
  -8   5  -3 18.9000  2.0000   1
   8  -5   2 47.8000  2.1000   1
  -8   5  -2 52.2000  2.5000   1
   8  -5   1  6.3000  1.4000   1
  -8   5  -1  7.5000  1.6000   1
   8  -5   0  2.2000  1.5000   1
  -8   5   0  2.8000  1.4000   1
   8  -5  -1  9.5000  1.4000   1
  -8   5   1 11.8000  1.5000   1
   8  -5  -2 18.7000  1.9000   1
  -8   5   2 19.4000  1.6000   1
   8  -5  -3 45.8000  2.4000   1
  -8   5   3 44.7000  2.1000   1
   8  -5  -4  8.2000  1.7000   1
  -8   5   4 10.1000  1.6000   1
   8  -5  -5  8.9000  1.7000   1
  -8   5   5 10.7000  1.4000   1
   8  -5  -6 466.900  15.600   1
  -8   5   6 478.200  11.200   1
   8  -5  -7  2.1000  1.5000   1
  -8   5   7  2.0000  2.0000   1
   8  -5  -8 29.6000  2.1000   1
  -8   5   8 33.5000  2.6000   1
   8  -5  -9 -1.1000  1.7000   1
  -8   5   9  0.9000  2.2000   1
   8  -5 -10 188.300   5.500   1
  -8   5  10 201.400   5.900   1
   8  -5 -11 10.2000  2.0000   1
  -8   5  11  7.9000  1.7000   1
   8  -5 -12  4.1000  1.7000   1
  -8   5  12  8.0000  2.0000   1
   8  -5 -13 78.3000  3.5000   1
  -8   5  13 79.7000  3.3000   1
   8  -5 -14  0.9000  3.0000   1
  -8   5  14  3.0000  1.7000   1
   8  -5 -15 120.400   5.200   1
  -8   5  15 131.300   5.300   1
   8  -5 -16 15.5000  2.6000   1
  -8   5  16  9.8000  2.3000   1
   8  -5 -17 121.300   5.600   1
  -8   5  17 124.500   6.600   1
   8  -5 -18  2.9000  2.2000   1
  -8   5  18 -2.1000  3.4000   1
   8  -5 -19 198.100   7.300   1
  -8   5  19 182.700   8.800   1
   8  -5 -20 32.4000  7.1000   1
  -8   5  20 36.1000  5.1000   1
   8  -5 -21  1.5000  4.2000   1
  -8   5  21  5.4000  3.6000   1
   8  -5 -22 -6.7000  7.2000   1
  -8   5  22  1.3000  4.8000   1
   8  -5 -23 23.6000  7.6000   1
  -8   5  23 22.8000  8.3000   1
   8  -5 -24  7.7000  8.9000   1
  -8   5  24 10.1000  8.5000   1
   8  -6  13 66.3000  7.1000   1
  -8   6 -13 45.1000 10.6000   1
   8  -6  12  0.1000  4.7000   1
   8  -6  11 37.2000  5.6000   1
  -8   6 -11 41.8000 10.6000   1
   8  -6  10 -7.9000  3.3000   1
  -8   6 -10 12.7000  7.6000   1
   8  -6   9  7.3000  2.8000   1
  -8   6  -9  2.9000  2.1000   1
   8  -6   8 40.8000  3.4000   1
  -8   6  -8 38.5000  3.3000   1
   8  -6   7 141.200   6.500   1
  -8   6  -7 151.200   5.800   1
   8  -6   6 53.6000  3.4000   1
  -8   6  -6 48.3000  3.2000   1
   8  -6   5  4.4000  1.1000   1
  -8   6  -5  3.6000  2.0000   1
   8  -6   4 14.2000  1.5000   1
  -8   6  -4 18.4000  2.2000   1
   8  -6   3 34.8000  1.8000   1
  -8   6  -3 42.5000  2.5000   1
   8  -6   2 12.2000  1.5000   1
  -8   6  -2 15.7000  1.7000   1
   8  -6   1  2.5000  1.5000   1
  -8   6  -1  1.6000  1.4000   1
   8  -6   0 51.2000  2.5000   1
  -8   6   0 49.5000  4.0000   1
   8  -6  -1 20.0000  1.8000   1
  -8   6   1 17.9000  1.6000   1
   8  -6  -2 363.400   9.000   1
  -8   6   2 360.000   8.100   1
   8  -6  -3 28.0000  2.1000   1
  -8   6   3 29.2000  2.1000   1
   8  -6  -4 66.7000  3.1000   1
  -8   6   4 67.9000  3.0000   1
   8  -6  -5 130.100   4.200   1
  -8   6   5 129.000   4.100   1
   8  -6  -6 342.500  10.500   1
  -8   6   6 348.700  13.700   1
   8  -6  -7 182.400   6.300   1
  -8   6   7 193.500   7.900   1
   8  -6  -8 196.000   7.000   1
  -8   6   8 187.000   8.200   1
   8  -6  -9  3.0000  2.3000   1
  -8   6   9  1.0000  1.7000   1
   8  -6 -10 -0.1000  1.9000   1
  -8   6  10 -2.2000  2.0000   1
   8  -6 -11  2.0000  1.6000   1
  -8   6  11  1.2000  1.7000   1
   8  -6 -12 32.3000  2.5000   1
  -8   6  12 41.2000  3.8000   1
   8  -6 -13 -0.1000  1.6000   1
  -8   6  13  4.6000  2.1000   1
   8  -6 -14 46.6000  3.7000   1
  -8   6  14 38.8000  3.0000   1
   8  -6 -15 16.0000  2.0000   1
  -8   6  15 21.0000  3.7000   1
   8  -6 -16  2.9000  2.6000   1
  -8   6  16  8.8000  3.5000   1
   8  -6 -17 62.2000  4.2000   1
  -8   6  17 60.8000  4.3000   1
   8  -6 -18  3.4000  3.6000   1
  -8   6  18  4.7000  3.0000   1
   8  -6 -19 218.600   8.700   1
  -8   6  19 222.700  10.300   1
   8  -6 -20 74.0000  4.9000   1
  -8   6  20 84.4000  6.8000   1
   8  -6 -21 15.1000  5.1000   1
  -8   6  21 10.2000  4.7000   1
   8  -6 -22-14.9000  8.0000   1
  -8   6  22 10.9000  6.8000   1
   8  -6 -23 20.8000  9.3000   1
  -8   6  23 29.9000  9.5000   1
  -8   6  24 25.1000  8.6000   1
   8  -7  12  4.0000  9.1000   1
  -8   7 -12  9.0000  8.7000   1
   8  -7  11  1.5000  4.2000   1
   8  -7  10 -3.3000  2.8000   1
  -8   7 -10 -7.9000  7.1000   1
   8  -7   9  4.3000  2.8000   1
   8  -7   8  5.0000  2.7000   1
  -8   7  -8  1.6000  3.3000   1
   8  -7   7 20.7000  2.9000   1
  -8   7  -7 17.3000  2.3000   1
   8  -7   6 37.2000  3.6000   1
  -8   7  -6 39.7000  2.7000   1
   8  -7   5 27.2000  2.7000   1
  -8   7  -5 32.7000  2.4000   1
   8  -7   4 23.4000  1.8000   1
  -8   7  -4 23.9000  2.2000   1
   8  -7   3 351.900   8.400   1
  -8   7  -3 358.600  13.300   1
   8  -7   2 171.400   5.200   1
  -8   7  -2 180.300   5.900   1
   8  -7   1 52.4000  2.5000   1
  -8   7  -1 52.8000  2.7000   1
   8  -7   0 321.600   8.400   1
  -8   7   0 317.500   8.700   1
   8  -7  -1  1.3000  1.5000   1
  -8   7   1  2.1000  1.2000   1
   8  -7  -2 38.8000  2.6000   1
  -8   7   2 43.6000  2.0000   1
   8  -7  -3 42.2000  2.4000   1
  -8   7   3 42.2000  2.3000   1
   8  -7  -4 580.300  14.100   1
  -8   7   4 589.400  18.500   1
   8  -7  -5  0.0000  1.5000   1
  -8   7   5 -1.1000  1.3000   1
   8  -7  -6  5.2000  1.4000   1
  -8   7   6  4.6000  1.3000   1
   8  -7  -7  5.0000  2.0000   1
  -8   7   7  4.9000  2.8000   1
   8  -7  -8 84.1000  3.9000   1
  -8   7   8 82.0000  3.5000   1
   8  -7  -9 12.5000  2.5000   1
  -8   7   9  8.9000  1.6000   1
   8  -7 -10  6.7000  2.1000   1
  -8   7  10  3.0000  2.1000   1
   8  -7 -11  1.1000  2.3000   1
  -8   7  11  1.8000  3.0000   1
   8  -7 -12 23.6000  3.5000   1
  -8   7  12 41.2000  3.0000   1
   8  -7 -13 34.1000  2.5000   1
  -8   7  13 39.8000  2.9000   1
   8  -7 -14  2.1000  2.5000   1
  -8   7  14  7.0000  3.1000   1
   8  -7 -15 77.7000  4.4000   1
  -8   7  15 85.7000  4.6000   1
   8  -7 -16  5.5000  2.3000   1
  -8   7  16  8.2000  2.6000   1
   8  -7 -17  8.5000  2.7000   1
  -8   7  17 12.8000  2.5000   1
   8  -7 -18 -0.2000  3.5000   1
  -8   7  18  2.4000  3.2000   1
   8  -7 -19 26.7000  3.6000   1
  -8   7  19 24.9000  4.2000   1
   8  -7 -20  9.0000  3.6000   1
  -8   7  20  7.7000  4.5000   1
   8  -7 -21  4.6000  4.4000   1
  -8   7  21  6.1000  6.6000   1
   8  -7 -22 14.2000  4.2000   1
  -8   7  22  2.9000  6.9000   1
   8  -7 -23 34.4000  9.8000   1
  -8   7  23 33.5000  9.0000   1
   8  -7 -24  5.7000  9.9000   1
  -8   7  24  8.2000  8.4000   1
   8  -8  12 14.4000  9.0000   1
  -8   8 -12  4.4000  9.4000   1
   8  -8  11 19.3000  4.8000   1
  -8   8 -11 28.3000  7.5000   1
   8  -8  10 -1.0000  3.6000   1
  -8   8 -10  5.5000  7.7000   1
   8  -8   9  9.1000  3.2000   1
  -8   8  -9 13.5000  5.1000   1
   8  -8   8 10.8000  3.1000   1
  -8   8  -8 -3.1000  6.9000   1
   8  -8   7 42.1000  3.8000   1
  -8   8  -7 42.7000  4.1000   1
   8  -8   6 10.1000  2.8000   1
  -8   8  -6  7.2000  1.6000   1
   8  -8   5 23.9000  2.7000   1
  -8   8  -5 23.4000  2.1000   1
   8  -8   4 11.4000  1.6000   1
  -8   8  -4 11.3000  1.6000   1
   8  -8   3 -0.4000  1.4000   1
  -8   8  -3  0.1000  1.2000   1
   8  -8   2 117.500   3.700   1
  -8   8  -2 127.300   4.400   1
   8  -8   1 13.8000  1.6000   1
  -8   8  -1 17.9000  1.5000   1
   8  -8   0 29.8000  1.9000   1
  -8   8   0 33.3000  2.0000   1
   8  -8  -1 20.5000  1.9000   1
  -8   8   1 18.6000  1.4000   1
   8  -8  -2 220.700   6.200   1
  -8   8   2 225.500   6.200   1
   8  -8  -3 36.7000  2.5000   1
  -8   8   3 40.1000  1.9000   1
   8  -8  -4 160.400   4.800   1
  -8   8   4 162.800   4.200   1
   8  -8  -5 16.5000  1.9000   1
  -8   8   5 19.0000  1.1000   1
   8  -8  -6 544.800  14.200   1
  -8   8   6 550.300  15.700   1
   8  -8  -7 84.8000  4.1000   1
  -8   8   7 81.6000  3.7000   1
   8  -8  -8 225.900  11.400   1
  -8   8   8 221.500   8.600   1
   8  -8  -9  0.9000  1.7000   1
  -8   8   9  0.5000  1.4000   1
   8  -8 -10 38.9000  2.6000   1
  -8   8  10 43.4000  2.7000   1
   8  -8 -11 21.2000  2.6000   1
  -8   8  11 16.1000  2.4000   1
   8  -8 -12 66.4000  3.7000   1
  -8   8  12 66.2000  5.1000   1
   8  -8 -13 83.8000  4.2000   1
  -8   8  13 89.1000  5.7000   1
   8  -8 -14 33.9000  3.3000   1
  -8   8  14 37.6000  4.6000   1
   8  -8 -15 75.6000  5.5000   1
  -8   8  15 68.7000  4.2000   1
   8  -8 -16 41.4000  3.8000   1
  -8   8  16 41.1000  3.7000   1
   8  -8 -17 -0.6000  3.5000   1
  -8   8  17  0.6000  2.8000   1
   8  -8 -18  8.8000  2.9000   1
  -8   8  18  2.2000  3.8000   1
   8  -8 -19  0.4000  3.1000   1
  -8   8  19  4.0000  3.8000   1
   8  -8 -20 27.5000  6.8000   1
  -8   8  20 18.7000  4.7000   1
   8  -8 -21 -3.9000  3.6000   1
  -8   8  21  3.7000  5.7000   1
   8  -8 -22  8.1000  5.2000   1
  -8   8  22 -6.2000  6.3000   1
   8  -8 -23 -1.1000  6.7000   1
  -8   8  23 -3.5000  5.5000   1
   8  -9  11 13.4000  8.6000   1
  -8   9 -11 15.4000  9.1000   1
   8  -9  10  8.8000  3.3000   1
  -8   9 -10 17.6000  8.5000   1
   8  -9   9  5.7000  3.1000   1
  -8   9  -9  7.4000  8.2000   1
   8  -9   8 23.5000  4.9000   1
  -8   9  -8 48.5000  8.3000   1
   8  -9   7  2.0000  2.5000   1
  -8   9  -7 -0.4000  6.6000   1
   8  -9   6  3.4000  2.5000   1
  -8   9  -6 -0.2000  2.6000   1
   8  -9   5 15.9000  1.6000   1
  -8   9  -5 14.1000  3.1000   1
   8  -9   4 78.1000  3.8000   1
  -8   9  -4 88.9000  3.6000   1
   8  -9   3 17.8000  1.8000   1
  -8   9  -3 18.1000  1.8000   1
   8  -9   2 36.5000  2.6000   1
  -8   9  -2 45.9000  2.5000   1
   8  -9   1 23.1000  2.1000   1
  -8   9  -1 27.1000  1.6000   1
   8  -9   0 106.700   4.000   1
  -8   9   0 120.400   5.100   1
   8  -9  -1 127.700   4.400   1
  -8   9   1 141.900   6.200   1
   8  -9  -2 12.1000  1.9000   1
  -8   9   2 13.7000  2.3000   1
   8  -9  -3  9.0000  1.8000   1
  -8   9   3 12.4000  2.2000   1
   8  -9  -4 377.300  10.300   1
  -8   9   4 398.300  12.300   1
   8  -9  -5 44.6000  2.6000   1
  -8   9   5 45.2000  1.7000   1
   8  -9  -6 59.0000  3.1000   1
  -8   9   6 61.4000  2.0000   1
   8  -9  -7 226.800   6.300   1
  -8   9   7 223.000   7.200   1
   8  -9  -8 313.300   9.100   1
  -8   9   8 314.700   9.900   1
   8  -9  -9 44.4000  4.0000   1
  -8   9   9 52.1000  4.7000   1
   8  -9 -10 101.500   4.400   1
  -8   9  10 108.700   4.700   1
   8  -9 -11  8.3000  2.3000   1
  -8   9  11  8.7000  2.0000   1
   8  -9 -12 44.8000  3.1000   1
  -8   9  12 50.4000  3.3000   1
   8  -9 -13  6.5000  2.3000   1
  -8   9  13 10.8000  2.0000   1
   8  -9 -14 169.700   7.200   1
  -8   9  14 152.900   6.400   1
   8  -9 -15 19.6000  3.2000   1
  -8   9  15 11.0000  2.8000   1
   8  -9 -16 10.5000  3.2000   1
  -8   9  16  6.2000  2.4000   1
   8  -9 -17  8.9000  5.2000   1
  -8   9  17  0.8000  2.7000   1
   8  -9 -18 135.800   7.500   1
  -8   9  18 135.400   8.500   1
   8  -9 -19  5.3000  4.0000   1
  -8   9  19  3.4000  4.0000   1
   8  -9 -20 29.5000  4.1000   1
  -8   9  20 32.7000  6.6000   1
   8  -9 -21  0.8000  3.4000   1
  -8   9  21  1.5000  6.0000   1
   8  -9 -22  3.5000  3.6000   1
  -8   9  22  5.4000  5.2000   1
   8  -9 -23  5.4000  9.9000   1
  -8   9  23 11.2000  7.5000   1
   8 -10  11  0.9000  5.3000   1
  -8  10 -11  0.7000  9.5000   1
   8 -10  10  8.3000  5.6000   1
  -8  10 -10  0.9000  6.3000   1
   8 -10   9  1.3000  5.0000   1
  -8  10  -9 -2.3000  8.0000   1
   8 -10   8 25.3000  5.4000   1
  -8  10  -8 37.2000  9.7000   1
   8 -10   7  4.9000  4.3000   1
  -8  10  -7 -2.1000  4.5000   1
   8 -10   6  5.3000  2.4000   1
  -8  10  -6  0.9000  4.3000   1
   8 -10   5 18.7000  1.7000   1
  -8  10  -5 18.3000  5.6000   1
   8 -10   4 193.500   7.400   1
  -8  10  -4 223.500  13.800   1
   8 -10   3  8.4000  1.5000   1
   8 -10   2 66.8000  3.0000   1
   8 -10   1  5.7000  1.7000   1
   8 -10   0 154.400   5.100   1
  -8  10   0 151.100  11.900   1
   8 -10  -1 230.200   8.800   1
  -8  10   1 259.400  16.100   1
   8 -10  -2 261.700   7.600   1
  -8  10   2 252.500  10.500   1
   8 -10  -3 49.8000  2.7000   1
  -8  10   3 50.7000  4.6000   1
   8 -10  -4 10.2000  2.1000   1
  -8  10   4  4.7000  3.4000   1
   8 -10  -5 45.1000  2.9000   1
  -8  10   5 50.2000  4.3000   1
   8 -10  -6 276.900   8.400   1
  -8  10   6 309.700  11.900   1
   8 -10  -7 87.2000  4.2000   1
  -8  10   7 84.9000  2.5000   1
   8 -10  -8 20.5000  2.6000   1
  -8  10   8 23.9000  2.0000   1
   8 -10  -9  4.1000  3.1000   1
  -8  10   9  0.6000  1.5000   1
   8 -10 -10 34.2000  4.2000   1
  -8  10  10 38.1000  4.4000   1
   8 -10 -11  7.8000  2.6000   1
  -8  10  11  3.1000  1.9000   1
   8 -10 -12 42.3000  3.2000   1
  -8  10  12 49.3000  3.2000   1
   8 -10 -13 10.0000  3.5000   1
  -8  10  13 11.1000  2.2000   1
   8 -10 -14  1.3000  2.1000   1
  -8  10  14  1.3000  2.2000   1
   8 -10 -15 129.400   7.400   1
  -8  10  15 99.3000  5.6000   1
   8 -10 -16 10.3000  3.6000   1
  -8  10  16  9.5000  3.1000   1
   8 -10 -17  5.4000  5.8000   1
  -8  10  17  2.7000  3.4000   1
   8 -10 -18  3.7000  3.7000   1
  -8  10  18  1.0000  4.4000   1
   8 -10 -19 29.7000  6.5000   1
  -8  10  19 36.6000  6.7000   1
   8 -10 -20 15.1000  4.1000   1
  -8  10  20 14.0000  5.7000   1
   8 -10 -21  2.0000  4.9000   1
  -8  10  21 -3.9000  5.8000   1
   8 -10 -22 -1.4000  4.9000   1
  -8  10  22  4.3000  4.8000   1
   8 -11  10 11.0000  5.1000   1
  -8  11 -10 10.4000  8.6000   1
   8 -11   9-10.1000  7.8000   1
  -8  11  -9  2.8000  8.0000   1
   8 -11   8  2.9000  5.2000   1
   8 -11   7  8.3000  5.3000   1
  -8  11  -7 14.1000  7.7000   1
   8 -11   6 36.1000  5.9000   1
  -8  11  -6 49.6000  8.6000   1
   8 -11   5  4.4000  4.4000   1
  -8  11  -5 -1.0000  6.3000   1
   8 -11   4  2.3000  1.9000   1
   8 -11   3 47.8000  3.4000   1
   8 -11   2  0.2000  1.4000   1
   8 -11   1 24.9000  2.3000   1
   8 -11   0 30.3000  2.3000   1
   8 -11  -1 16.9000  2.0000   1
  -8  11   1 28.4000  6.1000   1
   8 -11  -2  3.5000  2.3000   1
  -8  11   2 11.7000  4.0000   1
   8 -11  -3 42.9000  3.2000   1
  -8  11   3 48.1000  6.9000   1
   8 -11  -4 61.1000  3.3000   1
  -8  11   4 59.3000  4.8000   1
   8 -11  -5 137.500   4.900   1
  -8  11   5 138.200   6.600   1
   8 -11  -6 56.8000  3.5000   1
  -8  11   6 77.0000  5.5000   1
   8 -11  -7 -2.2000  1.9000   1
  -8  11   7  1.0000  3.8000   1
   8 -11  -8 30.2000  2.7000   1
  -8  11   8 33.7000  2.1000   1
   8 -11  -9  4.6000  2.4000   1
  -8  11   9  1.5000  1.6000   1
   8 -11 -10 67.6000  4.3000   1
  -8  11  10 70.3000  3.4000   1
   8 -11 -11 39.0000  3.4000   1
  -8  11  11 48.8000  3.0000   1
   8 -11 -12  9.7000  4.5000   1
  -8  11  12  5.7000  2.1000   1
   8 -11 -13  0.1000  3.2000   1
  -8  11  13  2.4000  2.0000   1
   8 -11 -14 27.1000  3.6000   1
  -8  11  14 29.3000  3.3000   1
   8 -11 -15 -1.9000  3.2000   1
  -8  11  15  1.5000  2.5000   1
   8 -11 -16  6.3000  4.1000   1
  -8  11  16  3.0000  3.2000   1
   8 -11 -17 12.5000  4.0000   1
  -8  11  17  8.9000  4.4000   1
   8 -11 -18 -0.5000  3.1000   1
  -8  11  18  5.8000  4.5000   1
   8 -11 -19  8.9000  3.9000   1
  -8  11  19 13.1000  5.8000   1
   8 -11 -20  8.2000  4.0000   1
  -8  11  20 16.1000  6.3000   1
   8 -11 -21  7.3000  4.3000   1
  -8  11  21  5.5000  6.1000   1
   8 -11 -22  8.2000  4.4000   1
  -8  11  22 14.5000  5.7000   1
   8 -12   9  6.7000  6.2000   1
  -8  12  -9 26.9000  9.6000   1
   8 -12   8 -5.7000  5.8000   1
  -8  12  -8-12.9000  6.1000   1
   8 -12   7 49.7000  6.4000   1
  -8  12  -7 68.9000 10.0000   1
   8 -12   6  2.2000  5.0000   1
  -8  12  -6 -9.2000  7.0000   1
   8 -12   5  2.3000  5.1000   1
   8 -12   4  1.8000  2.2000   1
   8 -12   3 14.9000  2.8000   1
   8 -12   2  2.8000  1.4000   1
   8 -12   1 29.1000  2.5000   1
   8 -12   0  7.3000  2.3000   1
   8 -12  -1 43.9000  3.2000   1
  -8  12   1 47.5000  5.8000   1
   8 -12  -2  6.3000  2.1000   1
  -8  12   2 13.6000  6.0000   1
   8 -12  -3  4.7000  2.4000   1
  -8  12   3  1.5000  5.6000   1
   8 -12  -4 46.7000  3.6000   1
  -8  12   4 48.8000  6.1000   1
   8 -12  -5 41.1000  3.4000   1
  -8  12   5 43.6000  7.1000   1
   8 -12  -6  1.0000  3.0000   1
  -8  12   6 -2.0000  5.5000   1
   8 -12  -7 38.9000  4.3000   1
  -8  12   7 37.1000  4.5000   1
   8 -12  -8  4.8000  2.6000   1
  -8  12   8  7.6000  4.0000   1
   8 -12  -9 14.1000  3.3000   1
  -8  12   9 13.4000  1.8000   1
   8 -12 -10 -1.6000  2.8000   1
  -8  12  10 -1.6000  1.6000   1
   8 -12 -11  8.5000  3.0000   1
  -8  12  11  1.5000  1.9000   1
   8 -12 -12 50.1000  4.9000   1
  -8  12  12 53.2000  3.5000   1
   8 -12 -13  6.3000  2.7000   1
  -8  12  13  5.3000  2.2000   1
   8 -12 -14  4.3000  3.7000   1
  -8  12  14  0.6000  2.7000   1
   8 -12 -15 -6.2000  3.6000   1
  -8  12  15  1.4000  3.4000   1
   8 -12 -16 31.3000  4.5000   1
  -8  12  16 26.4000  4.6000   1
   8 -12 -17 49.6000  5.2000   1
  -8  12  17 43.4000  6.5000   1
   8 -12 -18 105.400   7.300   1
  -8  12  18 109.000   9.700   1
   8 -12 -19 -0.6000  4.1000   1
  -8  12  19  0.4000  5.1000   1
   8 -12 -20  7.6000  4.0000   1
  -8  12  20 11.9000  6.0000   1
   8 -12 -21 14.0000  4.5000   1
  -8  12  21 20.5000  6.7000   1
   8 -13   9 13.2000  6.5000   1
  -8  13  -9 43.3000 10.5000   1
   8 -13   8 17.0000  6.3000   1
  -8  13  -8 20.1000  7.0000   1
   8 -13   7  5.9000  5.7000   1
  -8  13  -7 19.3000  9.7000   1
   8 -13   6  2.3000  5.3000   1
   8 -13   5 27.1000  5.9000   1
   8 -13   4 19.0000  5.8000   1
   8 -13   3 27.4000  5.2000   1
   8 -13   2  2.6000  2.5000   1
   8 -13   1 33.8000  4.6000   1
   8 -13   0  1.2000  2.0000   1
   8 -13  -1 10.9000  2.4000   1
   8 -13  -2 37.9000  3.6000   1
   8 -13  -3 23.6000  3.8000   1
  -8  13   3 31.6000  5.7000   1
   8 -13  -4 44.7000  4.3000   1
  -8  13   4 60.8000  8.0000   1
   8 -13  -5 190.700   7.800   1
  -8  13   5 198.400  11.800   1
   8 -13  -6 15.0000  2.8000   1
  -8  13   6 12.3000  7.2000   1
   8 -13  -7  0.0000  2.1000   1
  -8  13   7  2.4000  6.0000   1
   8 -13  -8 18.1000  3.1000   1
  -8  13   8 26.1000  7.1000   1
   8 -13  -9  7.5000  3.2000   1
  -8  13   9  9.1000  1.3000   1
   8 -13 -10  1.6000  2.8000   1
  -8  13  10  4.8000  1.9000   1
   8 -13 -11 22.1000  4.4000   1
  -8  13  11 17.8000  2.4000   1
   8 -13 -12  4.3000  2.7000   1
  -8  13  12  4.0000  2.8000   1
   8 -13 -13 34.8000  4.6000   1
  -8  13  13 28.5000  4.1000   1
   8 -13 -14 23.1000  3.6000   1
  -8  13  14 28.4000  4.0000   1
   8 -13 -15  9.0000  3.9000   1
  -8  13  15  2.7000  4.3000   1
   8 -13 -16  7.8000  3.9000   1
  -8  13  16 15.2000  4.9000   1
   8 -13 -17 15.4000  3.2000   1
  -8  13  17 18.3000  4.9000   1
   8 -13 -18  9.7000  4.0000   1
  -8  13  18 11.7000  5.5000   1
   8 -13 -19 -6.9000  4.3000   1
  -8  13  19  9.7000  5.3000   1
   8 -13 -20  6.2000  4.4000   1
  -8  13  20  4.1000  6.2000   1
   8 -14   8  5.4000  6.1000   1
  -8  14  -8  1.7000  7.3000   1
   8 -14   7 19.1000  5.2000   1
   8 -14   6 13.0000  6.2000   1
   8 -14   5  3.3000  5.0000   1
   8 -14   4 30.5000  6.2000   1
   8 -14   3  7.5000  4.6000   1
   8 -14   2 32.9000  4.0000   1
   8 -14   1 18.0000  3.2000   1
   8 -14   0 10.0000  3.3000   1
   8 -14  -1 64.6000  6.3000   1
   8 -14  -2 156.600   6.500   1
   8 -14  -3 65.8000  5.2000   1
   8 -14  -4 -2.3000  3.3000   1
   8 -14  -5  1.1000  3.4000   1
   8 -14  -6 47.4000  4.1000   1
   8 -14  -7 107.900   5.900   1
   8 -14  -8 11.2000  3.3000   1
   8 -14  -9 15.0000  3.2000   1
   8 -14 -10 45.7000  5.2000   1
  -8  14  10 49.6000  3.4000   1
   8 -14 -11  4.1000  4.0000   1
  -8  14  11  2.1000  1.9000   1
   8 -14 -12 26.3000  4.4000   1
  -8  14  12 25.1000  3.5000   1
   8 -14 -13  4.5000  3.3000   1
  -8  14  13 -3.8000  3.2000   1
   8 -14 -14 65.1000  6.2000   1
  -8  14  14 60.9000  5.1000   1
   8 -14 -15 26.4000  4.8000   1
  -8  14  15 30.5000  5.1000   1
   8 -14 -16 49.4000  5.6000   1
  -8  14  16 52.1000  6.4000   1
   8 -14 -17  4.1000  4.3000   1
  -8  14  17 15.2000  4.7000   1
   8 -14 -18  0.4000  4.0000   1
  -8  14  18 -5.8000  4.8000   1
   8 -14 -19  2.7000  4.1000   1
  -8  14  19  2.7000  7.1000   1
   8 -15   7 11.3000  5.7000   1
   8 -15   6 -2.4000  6.0000   1
   8 -15   5  1.5000  4.3000   1
   8 -15   4 69.0000  7.2000   1
   8 -15   3 -0.7000  5.3000   1
   8 -15   2 30.5000  5.8000   1
   8 -15   1 25.9000  3.7000   1
   8 -15   0 34.1000  5.9000   1
   8 -15  -1 16.3000  4.4000   1
   8 -15  -2 17.1000  4.3000   1
   8 -15  -3 53.5000  4.0000   1
   8 -15  -4 28.2000  4.6000   1
   8 -15  -5  7.5000  2.7000   1
   8 -15  -6 10.3000  3.4000   1
   8 -15  -7 -6.7000  2.9000   1
   8 -15  -8 16.9000  3.6000   1
   8 -15  -9  3.1000  4.1000   1
   8 -15 -10 76.2000  6.2000   1
   8 -15 -11  0.6000  3.2000   1
   8 -15 -12  4.4000  4.3000   1
   8 -15 -13 -1.6000  3.4000   1
   8 -15 -14 31.5000  5.4000   1
  -8  15  14 25.9000  4.2000   1
   8 -15 -15  1.6000  4.5000   1
  -8  15  15 17.4000  5.0000   1
   8 -15 -16 -1.6000  4.3000   1
   8 -15 -17 21.8000  5.3000   1
   8 -15 -18 -8.2000  7.5000   1
   8 -16   5 -6.1000  9.0000   1
   8 -16   4  3.3000  6.0000   1
   8 -16   3 42.2000  6.5000   1
   8 -16   2  8.1000  4.7000   1
   8 -16   1  6.8000  4.5000   1
   8 -16   0 18.4000  9.6000   1
   8 -16  -1  8.4000  4.0000   1
   8 -16  -2 21.4000  5.0000   1
   8 -16  -3 16.5000  8.4000   1
   8 -16  -4 63.1000  8.5000   1
   8 -16  -5  6.7000  3.6000   1
   8 -16  -6 -2.8000  4.4000   1
   8 -16  -7  2.2000  3.4000   1
   8 -16  -8 67.4000  6.5000   1
   8 -16  -9  5.6000  3.6000   1
   8 -16 -10  9.0000  4.7000   1
   8 -16 -11 22.8000  4.9000   1
   8 -16 -12 86.8000  7.1000   1
   8 -16 -13 21.7000  5.0000   1
   8 -16 -14  0.2000  3.9000   1
   8 -16 -15 -1.3000  4.8000   1
   8 -16 -16  6.3000  4.9000   1
   8 -16 -17 -0.5000  5.0000   1
   8 -17   4 30.1000  8.0000   1
   8 -17   3 16.1000  8.5000   1
   8 -17   2 26.7000  9.2000   1
   8 -17   1  4.3000  7.5000   1
   8 -17   0 55.9000  9.5000   1
   8 -17  -1 19.9000  5.2000   1
   8 -17  -2  0.8000  5.5000   1
   8 -17  -3  2.6000  5.4000   1
   8 -17  -4 75.3000 11.7000   1
   8 -17  -5 11.0000  9.0000   1
   8 -17  -6 84.3000 12.8000   1
   8 -17  -7 -7.7000  4.2000   1
   8 -17  -8  8.8000  5.1000   1
   8 -17  -9 -4.9000  4.5000   1
   8 -17 -10 69.0000  6.4000   1
   8 -17 -11  1.4000  4.6000   1
   8 -17 -12  9.0000  5.0000   1
   8 -17 -13  5.8000  3.8000   1
   8 -17 -14 26.6000  5.7000   1
   8 -17 -15 44.5000  7.3000   1
   8 -18   2 45.0000 10.1000   1
   8 -18   1 11.3000  8.2000   1
   8 -18   0  4.7000  8.2000   1
   8 -18  -1 34.2000  9.0000   1
   8 -18  -2 60.4000  9.4000   1
   8 -18  -3 12.9000  8.4000   1
   8 -18  -4 -3.8000  5.0000   1
   8 -18  -5 29.4000  8.4000   1
   8 -18  -6 42.1000  6.5000   1
   8 -18  -7  4.2000  6.0000   1
   8 -18  -8 12.9000  6.6000   1
   8 -18  -9  7.5000  6.6000   1
   8 -18 -10 86.3000  9.6000   1
   8 -18 -11 16.1000  6.3000   1
   8 -18 -12 121.900  11.900   1
   8 -18 -13 12.4000  6.5000   1
   8 -18 -14 12.3000  6.5000   1
   8 -19  -1  2.1000  8.6000   1
   8 -19  -2 -6.0000  7.5000   1
   8 -19  -3 10.4000  5.9000   1
   8 -19  -4 84.6000 12.4000   1
   8 -19  -5  3.0000  7.3000   1
   8 -19  -6 -2.7000  6.8000   1
   8 -19  -7 -1.6000  6.5000   1
   8 -19  -8  1.0000  6.5000   1
   8 -19  -9  4.4000  7.0000   1
   8 -19 -10 19.9000  7.3000   1
   8 -19 -11  4.9000  6.6000   1
   9   0  12 44.2000  9.0000   1
   9   0  11  1.8000  5.1000   1
   9   0  10 -2.9000  3.7000   1
   9   0   9  1.1000  4.1000   1
   9   0   8 21.3000  3.9000   1
   9   0   7 -0.7000  1.5000   1
   9   0   6 26.9000  2.5000   1
   9   0   5  3.1000  1.8000   1
   9   0   4  4.1000  1.6000   1
   9   0   3 -0.4000  1.3000   1
   9   0   2  1.5000  1.5000   1
   9   0   1 -1.7000  1.8000   1
   9   0   0  3.9000  2.0000   1
   9   0  -1  1.5000  1.6000   1
   9   0  -2 23.9000  2.0000   1
   9   0  -3  1.6000  1.3000   1
   9   0  -4 109.900   3.300   1
   9   0  -5  4.7000  1.4000   1
   9   0  -6 190.300   4.400   1
   9   0  -7 -0.5000  1.4000   1
   9   0  -8 381.300   8.500   1
   9   0  -9 -0.2000  1.4000   1
   9   0 -10 208.000   6.000   1
   9   0 -11  2.8000  2.1000   1
   9   0 -12 859.000  22.700   1
   9   0 -13 -1.0000  1.9000   1
   9   0 -14 390.900  12.000   1
   9   0 -15 -2.8000  2.2000   1
   9   0 -16 91.3000  4.8000   1
   9   0 -17 -0.3000  3.4000   1
   9   0 -18 59.7000  5.1000   1
   9   0 -19  2.1000  2.9000   1
   9   0 -20 47.5000  6.6000   1
   9   0 -22 112.400  11.000   1
   9   0 -23 12.3000  7.4000   1
   9   0 -24  1.3000  5.3000   1
   9   0 -25  8.9000  8.4000   1
   9  -1  12 19.9000  5.5000   1
  -9   1 -12 17.4000  8.6000   1
   9  -1  11 14.7000  5.1000   1
  -9   1 -11  9.4000  5.0000   1
   9  -1  10 21.4000  4.9000   1
  -9   1 -10 20.5000  4.3000   1
   9  -1   9  0.7000  3.8000   1
  -9   1  -9  1.2000  4.2000   1
   9  -1   8 21.2000  4.1000   1
  -9   1  -8 21.6000  4.2000   1
   9  -1   7  7.4000  2.6000   1
  -9   1  -7  7.1000  3.5000   1
   9  -1   6  6.1000  2.5000   1
  -9   1  -6  7.7000  3.8000   1
   9  -1   5 36.6000  2.1000   1
  -9   1  -5 34.0000  2.4000   1
   9  -1   4 37.5000  2.1000   1
  -9   1  -4 36.7000  2.0000   1
   9  -1   3 18.1000  1.7000   1
  -9   1  -3 20.4000  1.7000   1
   9  -1   2  3.1000  1.7000   1
  -9   1  -2  0.8000  1.4000   1
   9  -1   1  4.5000  1.7000   1
  -9   1  -1  1.1000  1.4000   1
   9  -1   0 78.3000  3.0000   1
  -9   1   0 68.7000  2.9000   1
   9  -1  -1 217.100   5.200   1
  -9   1   1 208.800   5.200   1
   9  -1  -2 84.6000  3.1000   1
  -9   1   2 84.1000  2.8000   1
   9  -1  -3  3.0000  1.5000   1
  -9   1   3  3.7000  1.3000   1
   9  -1  -4 -1.5000  1.4000   1
  -9   1   4  1.6000  1.2000   1
   9  -1  -5 462.300   9.200   1
  -9   1   5 474.900  10.100   1
   9  -1  -6 198.600   5.300   1
  -9   1   6 203.700   5.700   1
   9  -1  -7 16.4000  1.8000   1
  -9   1   7 14.7000  1.9000   1
   9  -1  -8 31.4000  2.4000   1
  -9   1   8 33.7000  2.9000   1
   9  -1  -9 144.100   4.900   1
  -9   1   9 150.900   5.300   1
   9  -1 -10 12.7000  2.3000   1
  -9   1  10  9.7000  1.7000   1
   9  -1 -11 90.3000  4.2000   1
  -9   1  11 82.7000  3.8000   1
   9  -1 -12 25.0000  2.4000   1
  -9   1  12 23.6000  2.6000   1
   9  -1 -13 351.400   9.200   1
  -9   1  13 375.800  10.600   1
   9  -1 -14 29.0000  3.2000   1
  -9   1  14 36.7000  3.6000   1
   9  -1 -15 34.6000  3.7000   1
  -9   1  15 39.9000  3.5000   1
   9  -1 -16 78.0000  5.4000   1
  -9   1  16 74.2000  4.2000   1
   9  -1 -17 62.2000  4.4000   1
  -9   1  17 65.4000  4.1000   1
   9  -1 -18 90.3000  4.8000   1
  -9   1  18 82.5000  5.7000   1
   9  -1 -19 28.8000  3.6000   1
  -9   1  19 19.5000  6.4000   1
   9  -1 -22 35.2000  6.7000   1
   9  -1 -23  4.4000  7.1000   1
   9  -1 -24 16.9000  6.4000   1
  -9   1  24  2.0000  8.1000   1
   9  -1 -25 19.7000 10.2000   1
  -9   1  25 -3.4000  8.8000   1
   9  -2  12 -8.5000  7.6000   1
  -9   2 -12  7.1000  8.4000   1
   9  -2  11  1.5000  4.8000   1
  -9   2 -11 22.7000  8.3000   1
   9  -2  10 20.7000  4.8000   1
  -9   2 -10 23.3000  4.3000   1
   9  -2   9 11.7000  4.1000   1
  -9   2  -9  7.4000  4.1000   1
   9  -2   8  8.6000  2.8000   1
  -9   2  -8 11.6000  4.6000   1
   9  -2   7 12.8000  2.4000   1
  -9   2  -7 13.4000  3.5000   1
   9  -2   6 37.4000  3.3000   1
  -9   2  -6 25.7000  3.5000   1
   9  -2   5 32.2000  2.2000   1
  -9   2  -5 28.6000  2.9000   1
   9  -2   4  6.0000  1.5000   1
  -9   2  -4  3.8000  2.1000   1
   9  -2   3 60.7000  2.5000   1
  -9   2  -3 59.1000  3.0000   1
   9  -2   2 51.2000  2.7000   1
  -9   2  -2 55.7000  2.7000   1
   9  -2   1 68.8000  3.1000   1
  -9   2  -1 69.2000  2.6000   1
   9  -2   0 13.7000  1.7000   1
  -9   2   0 15.2000  1.5000   1
   9  -2  -1  7.6000  1.6000   1
  -9   2   1  6.1000  1.7000   1
   9  -2  -2  7.9000  2.0000   1
  -9   2   2  6.1000  1.8000   1
   9  -2  -3 159.300   4.200   1
  -9   2   3 154.800   3.900   1
   9  -2  -4  8.4000  1.6000   1
  -9   2   4  6.2000  1.5000   1
   9  -2  -5  2.5000  1.5000   1
  -9   2   5  5.3000  1.5000   1
   9  -2  -6 128.300   3.600   1
  -9   2   6 132.700   4.100   1
   9  -2  -7 147.500   4.300   1
  -9   2   7 151.800   5.400   1
   9  -2  -8 23.5000  1.9000   1
  -9   2   8 27.2000  2.7000   1
   9  -2  -9 108.800   3.600   1
  -9   2   9 116.500   4.500   1
   9  -2 -10  4.4000  2.3000   1
  -9   2  10 -2.3000  2.1000   1
   9  -2 -11 351.000   9.400   1
  -9   2  11 345.600  11.200   1
   9  -2 -12 162.300   6.000   1
  -9   2  12 144.400   5.500   1
   9  -2 -13 460.900  13.300   1
  -9   2  13 481.100  13.100   1
   9  -2 -14  6.3000  2.7000   1
  -9   2  14  7.1000  2.7000   1
   9  -2 -15 88.1000  4.8000   1
  -9   2  15 73.5000  3.3000   1
   9  -2 -16 12.9000  3.6000   1
  -9   2  16  9.0000  2.3000   1
   9  -2 -17 173.600  13.300   1
  -9   2  17 203.000   7.600   1
   9  -2 -18  6.2000  2.8000   1
  -9   2  18  9.4000  2.7000   1
   9  -2 -19 13.0000  5.6000   1
  -9   2  19 16.9000  3.6000   1
  -9   2  20  5.5000  6.1000   1
   9  -2 -21  8.1000  4.7000   1
   9  -2 -22 11.6000  5.6000   1
   9  -2 -23  3.4000  7.3000   1
  -9   2  23 -6.1000  4.4000   1
   9  -2 -24 14.3000  6.7000   1
  -9   2  24 13.3000  8.8000   1
   9  -2 -25 16.3000 10.0000   1
  -9   2  25 11.0000  9.5000   1
   9  -3  12 11.2000  5.4000   1
  -9   3 -12 13.5000  8.7000   1
   9  -3  11 -6.5000  4.8000   1
  -9   3 -11 -0.3000  5.0000   1
   9  -3  10 15.1000  4.9000   1
  -9   3 -10  7.2000  3.8000   1
   9  -3   9 54.9000  5.6000   1
  -9   3  -9 48.1000  5.0000   1
   9  -3   8 13.0000  3.2000   1
  -9   3  -8 18.1000  3.9000   1
   9  -3   7 11.8000  2.5000   1
  -9   3  -7 18.5000  3.1000   1
   9  -3   6 57.5000  4.6000   1
  -9   3  -6 52.4000  3.7000   1
   9  -3   5 23.1000  1.8000   1
  -9   3  -5 25.1000  3.0000   1
   9  -3   4 62.5000  3.1000   1
  -9   3  -4 64.8000  3.0000   1
   9  -3   3  3.5000  1.4000   1
  -9   3  -3 11.8000  2.4000   1
   9  -3   2  5.9000  1.7000   1
  -9   3  -2 10.0000  1.8000   1
   9  -3   1 224.800   6.000   1
  -9   3  -1 229.200   6.800   1
   9  -3   0 99.7000  3.5000   1
  -9   3   0 107.400   3.700   1
   9  -3  -1 29.7000  2.1000   1
  -9   3   1 30.5000  2.5000   1
   9  -3  -2 234.800   5.500   1
  -9   3   2 234.400   8.000   1
   9  -3  -3 743.600  16.900   1
  -9   3   3 724.700  16.200   1
   9  -3  -4 245.400   6.200   1
  -9   3   4 248.100   6.500   1
   9  -3  -5 474.100  10.400   1
  -9   3   5 496.700  14.200   1
   9  -3  -6 56.0000  2.6000   1
  -9   3   6 61.0000  2.7000   1
   9  -3  -7 10.3000  2.2000   1
  -9   3   7  4.1000  2.2000   1
   9  -3  -8 27.2000  2.7000   1
  -9   3   8 31.6000  2.4000   1
   9  -3  -9 686.300  22.900   1
  -9   3   9 695.000  17.400   1
   9  -3 -10 30.4000  2.4000   1
  -9   3  10 30.4000  2.7000   1
   9  -3 -11 -3.7000  1.7000   1
  -9   3  11 -0.1000  1.9000   1
   9  -3 -12 103.900   5.700   1
  -9   3  12 107.900   4.600   1
   9  -3 -13 797.300  22.200   1
  -9   3  13 833.300  22.400   1
   9  -3 -14  2.7000  1.9000   1
  -9   3  14  3.3000  2.0000   1
   9  -3 -15 10.0000  2.7000   1
  -9   3  15  6.8000  1.9000   1
   9  -3 -16 39.2000  4.5000   1
  -9   3  16 37.6000  3.7000   1
   9  -3 -17 211.400   9.900   1
  -9   3  17 223.700   8.400   1
   9  -3 -18 -3.2000  3.6000   1
  -9   3  18  4.1000  3.7000   1
   9  -3 -19 77.7000  9.8000   1
  -9   3  19 59.7000  7.7000   1
   9  -3 -20 -0.1000  6.1000   1
  -9   3  20 -6.0000  4.3000   1
   9  -3 -21 22.3000  5.1000   1
   9  -3 -22  4.4000  4.9000   1
  -9   3  22 -1.5000  4.5000   1
   9  -3 -23 191.100  15.300   1
  -9   3  23 183.800  16.800   1
   9  -3 -24 -4.8000  7.7000   1
  -9   3  24  1.2000  7.6000   1
   9  -3 -25 80.5000 12.3000   1
  -9   3  25 41.8000  9.8000   1
   9  -4  11 96.5000  7.4000   1
  -9   4 -11 106.900  13.000   1
   9  -4  10  8.9000  4.5000   1
  -9   4 -10  9.3000  7.9000   1
   9  -4   9  2.9000  3.9000   1
  -9   4  -9  2.2000  3.5000   1
   9  -4   8  5.0000  2.8000   1
  -9   4  -8  2.4000  2.7000   1
   9  -4   7 37.8000  3.5000   1
  -9   4  -7 35.4000  3.4000   1
   9  -4   6 28.6000  3.1000   1
  -9   4  -6 29.4000  3.1000   1
   9  -4   5 32.3000  1.9000   1
  -9   4  -5 30.5000  3.7000   1
   9  -4   4 -1.3000  1.4000   1
  -9   4  -4 -1.4000  2.0000   1
   9  -4   3 184.400   4.700   1
  -9   4  -3 192.600   6.700   1
   9  -4   2 70.1000  2.9000   1
  -9   4  -2 79.8000  3.8000   1
   9  -4   1 207.700   6.600   1
  -9   4  -1 210.700   6.100   1
   9  -4   0  1.5000  1.6000   1
  -9   4   0  0.7000  1.6000   1
   9  -4  -1 197.700   5.100   1
  -9   4   1 197.000   5.300   1
   9  -4  -2 172.900   5.300   1
  -9   4   2 176.700   5.000   1
   9  -4  -3 1012.20   24.50   1
  -9   4   3 998.800  24.000   1
   9  -4  -4 160.500   4.400   1
  -9   4   4 161.300   4.700   1
   9  -4  -5  5.9000  1.7000   1
  -9   4   5  7.7000  2.3000   1
   9  -4  -6  1.3000  1.5000   1
  -9   4   6  1.6000  1.5000   1
   9  -4  -7 579.800  20.700   1
  -9   4   7 577.500  15.000   1
   9  -4  -8 94.1000  5.9000   1
  -9   4   8 94.8000  4.5000   1
   9  -4  -9 48.4000  3.8000   1
  -9   4   9 53.0000  3.0000   1
   9  -4 -10  7.9000  2.1000   1
  -9   4  10 10.8000  2.3000   1
   9  -4 -11 20.3000  2.1000   1
  -9   4  11 26.5000  3.1000   1
   9  -4 -12 174.700   8.000   1
  -9   4  12 154.200   5.600   1
   9  -4 -13  1.1000  2.6000   1
  -9   4  13  4.5000  1.9000   1
   9  -4 -14 17.9000  2.7000   1
  -9   4  14 14.4000  2.2000   1
   9  -4 -15  1.9000  3.2000   1
  -9   4  15  3.3000  2.2000   1
   9  -4 -16  6.2000  2.2000   1
  -9   4  16  7.6000  2.7000   1
   9  -4 -17 44.1000  3.6000   1
  -9   4  17 45.3000  4.5000   1
   9  -4 -18 -0.3000  2.9000   1
  -9   4  18 -0.5000  2.6000   1
   9  -4 -19  8.1000  4.1000   1
  -9   4  19 12.9000  3.6000   1
   9  -4 -20  6.6000  4.2000   1
  -9   4  20  0.9000  3.9000   1
   9  -4 -21 31.0000  5.0000   1
  -9   4  21 21.8000  6.9000   1
   9  -4 -22 27.0000  4.8000   1
  -9   4  22 30.4000  8.0000   1
   9  -4 -23 -1.7000  8.3000   1
   9  -4 -24 -3.8000  8.1000   1
  -9   4  24 -0.1000  5.3000   1
   9  -5  11 -1.2000  3.9000   1
  -9   5 -11  2.7000  5.9000   1
   9  -5  10  3.1000  3.3000   1
  -9   5 -10  4.0000  7.4000   1
   9  -5   9  9.1000  4.1000   1
  -9   5  -9 12.1000  7.3000   1
   9  -5   8  0.6000  3.0000   1
  -9   5  -8  2.3000  2.2000   1
   9  -5   7  3.3000  2.6000   1
  -9   5  -7  3.1000  2.5000   1
   9  -5   6  4.5000  2.7000   1
  -9   5  -6  2.5000  2.4000   1
   9  -5   5 17.1000  1.5000   1
  -9   5  -5 13.7000  2.5000   1
   9  -5   4 10.1000  2.0000   1
  -9   5  -4  6.7000  2.2000   1
   9  -5   3 25.4000  2.1000   1
  -9   5  -3 25.0000  2.5000   1
   9  -5   2  4.1000  1.7000   1
  -9   5  -2  4.0000  1.8000   1
   9  -5   1 11.1000  1.7000   1
  -9   5  -1 10.5000  1.8000   1
   9  -5   0 14.4000  1.9000   1
  -9   5   0 11.5000  1.9000   1
   9  -5  -1 82.2000  3.0000   1
  -9   5   1 86.4000  3.3000   1
   9  -5  -2 13.3000  2.0000   1
  -9   5   2 14.5000  1.8000   1
   9  -5  -3 22.7000  1.8000   1
  -9   5   3 24.0000  2.0000   1
   9  -5  -4 159.600   5.000   1
  -9   5   4 151.900   5.100   1
   9  -5  -5 196.000   5.100   1
  -9   5   5 207.500   6.600   1
   9  -5  -6  8.2000  1.9000   1
  -9   5   6  8.9000  1.9000   1
   9  -5  -7 143.000   5.600   1
  -9   5   7 148.200   6.700   1
   9  -5  -8 13.0000  2.1000   1
  -9   5   8 12.9000  2.4000   1
   9  -5  -9 321.600  10.300   1
  -9   5   9 295.700  13.300   1
   9  -5 -10 44.6000  3.1000   1
  -9   5  10 53.1000  4.1000   1
   9  -5 -11 183.700   6.600   1
  -9   5  11 205.800   9.300   1
   9  -5 -12  8.2000  2.6000   1
  -9   5  12 10.2000  2.0000   1
   9  -5 -13 76.7000  4.4000   1
  -9   5  13 84.3000  3.6000   1
   9  -5 -14 10.8000  3.1000   1
  -9   5  14  6.8000  1.8000   1
   9  -5 -15 324.000  13.200   1
  -9   5  15 298.800  10.200   1
   9  -5 -16  5.0000  2.9000   1
  -9   5  16  1.7000  2.3000   1
   9  -5 -17 14.7000  2.8000   1
  -9   5  17 12.3000  6.0000   1
   9  -5 -18  5.2000  3.2000   1
  -9   5  18  4.3000  2.9000   1
   9  -5 -19 218.300   9.100   1
  -9   5  19 238.800  11.100   1
   9  -5 -20  2.9000  4.2000   1
  -9   5  20  7.8000  6.3000   1
   9  -5 -21 10.4000  5.1000   1
  -9   5  21 10.9000  5.1000   1
   9  -5 -22 71.3000  6.8000   1
  -9   5  22 80.6000 11.2000   1
   9  -5 -23 -3.3000  5.5000   1
  -9   5  23 -0.3000  7.3000   1
   9  -5 -24  6.4000  8.6000   1
  -9   5  24  3.1000  7.4000   1
   9  -6  11 -3.0000  4.5000   1
  -9   6 -11  5.8000  8.3000   1
   9  -6  10 16.2000  5.3000   1
  -9   6 -10  9.8000  7.6000   1
   9  -6   9  2.0000  3.5000   1
  -9   6  -9 11.6000  7.6000   1
   9  -6   8  9.1000  3.0000   1
   9  -6   7  0.7000  2.6000   1
  -9   6  -7 -1.6000  2.0000   1
   9  -6   6 14.3000  3.8000   1
  -9   6  -6 14.2000  2.5000   1
   9  -6   5 10.3000  1.2000   1
  -9   6  -5  6.3000  2.4000   1
   9  -6   4  2.2000  1.5000   1
  -9   6  -4  2.2000  1.9000   1
   9  -6   3 36.6000  2.4000   1
  -9   6  -3 35.2000  2.6000   1
   9  -6   2 20.0000  2.0000   1
  -9   6  -2 25.1000  2.2000   1
   9  -6   1 41.4000  2.4000   1
  -9   6  -1 46.1000  2.9000   1
   9  -6   0 39.4000  2.4000   1
  -9   6   0 42.5000  2.9000   1
   9  -6  -1 155.600   4.400   1
  -9   6   1 156.000   4.900   1
   9  -6  -2  4.4000  1.8000   1
  -9   6   2 11.0000  1.7000   1
   9  -6  -3 257.100   7.500   1
  -9   6   3 269.800   8.100   1
   9  -6  -4 25.9000  2.2000   1
  -9   6   4 17.2000  2.0000   1
   9  -6  -5 102.600   3.800   1
  -9   6   5 110.200   4.400   1
   9  -6  -6  9.6000  1.7000   1
  -9   6   6  4.3000  2.0000   1
   9  -6  -7 116.900   3.800   1
  -9   6   7 123.700   6.700   1
   9  -6  -8  7.0000  2.1000   1
  -9   6   8 11.1000  2.1000   1
   9  -6  -9 16.5000  2.4000   1
  -9   6   9  8.6000  3.4000   1
   9  -6 -10  2.9000  1.9000   1
  -9   6  10  5.0000  1.9000   1
   9  -6 -11 46.6000  3.2000   1
  -9   6  11 52.9000  2.6000   1
   9  -6 -12  4.9000  2.5000   1
  -9   6  12  3.2000  3.2000   1
   9  -6 -13  2.3000  2.0000   1
  -9   6  13  0.0000  2.0000   1
   9  -6 -14 14.0000  2.2000   1
  -9   6  14 13.7000  2.1000   1
   9  -6 -15 119.300   5.600   1
  -9   6  15 118.400   5.600   1
   9  -6 -16  3.5000  3.0000   1
  -9   6  16  2.3000  2.3000   1
   9  -6 -17  0.4000  2.5000   1
  -9   6  17  1.2000  3.4000   1
   9  -6 -18 17.7000  3.3000   1
  -9   6  18 23.2000  4.2000   1
   9  -6 -19  7.5000  6.0000   1
  -9   6  19  8.3000  4.0000   1
   9  -6 -20  6.5000  3.4000   1
  -9   6  20  4.4000  5.4000   1
   9  -6 -21 48.0000  7.5000   1
  -9   6  21 36.9000  8.3000   1
   9  -6 -22 20.6000  5.6000   1
   9  -6 -23 -5.4000  5.3000   1
  -9   6  23  1.8000  5.5000   1
   9  -6 -24 -2.9000  6.1000   1
  -9   6  24 -7.1000  5.2000   1
   9  -7  11 12.6000  9.9000   1
  -9   7 -11 18.5000  8.5000   1
   9  -7  10 85.5000  7.1000   1
  -9   7 -10 105.800  12.600   1
   9  -7   9 45.7000  4.1000   1
   9  -7   8 17.1000  3.7000   1
  -9   7  -8  7.1000  7.3000   1
   9  -7   7 16.6000  3.0000   1
  -9   7  -7  2.5000  8.2000   1
   9  -7   6 27.6000  4.3000   1
  -9   7  -6 17.3000  2.3000   1
   9  -7   5 19.4000  2.8000   1
  -9   7  -5 14.7000  2.3000   1
   9  -7   4  7.5000  2.0000   1
  -9   7  -4  2.6000  2.1000   1
   9  -7   3 61.7000  2.8000   1
  -9   7  -3 58.2000  3.8000   1
   9  -7   2 41.9000  2.6000   1
  -9   7  -2 47.8000  2.9000   1
   9  -7   1 52.2000  2.8000   1
  -9   7  -1 59.0000  2.8000   1
   9  -7   0 11.0000  2.1000   1
  -9   7   0  9.1000  1.4000   1
   9  -7  -1 132.800   4.200   1
  -9   7   1 138.600   4.200   1
   9  -7  -2 44.5000  2.7000   1
  -9   7   2 46.4000  2.2000   1
   9  -7  -3 16.0000  2.1000   1
  -9   7   3 15.8000  1.6000   1
   9  -7  -4  2.4000  2.0000   1
  -9   7   4  9.1000  1.5000   1
   9  -7  -5 164.200   5.300   1
  -9   7   5 170.400   4.800   1
   9  -7  -6  5.0000  1.7000   1
  -9   7   6  5.5000  1.8000   1
   9  -7  -7 27.0000  2.4000   1
  -9   7   7 22.7000  2.3000   1
   9  -7  -8 16.9000  2.5000   1
  -9   7   8 26.9000  3.2000   1
   9  -7  -9 83.3000  3.8000   1
  -9   7   9 92.1000  3.9000   1
   9  -7 -10  0.7000  1.6000   1
  -9   7  10  4.5000  1.6000   1
   9  -7 -11  4.8000  1.9000   1
  -9   7  11  5.7000  1.9000   1
   9  -7 -12 33.2000  2.8000   1
  -9   7  12 37.9000  2.8000   1
   9  -7 -13 88.4000  6.2000   1
  -9   7  13 97.4000  6.0000   1
   9  -7 -14 10.1000  3.5000   1
  -9   7  14  9.0000  3.3000   1
   9  -7 -15  2.1000  3.0000   1
  -9   7  15  0.0000  2.4000   1
   9  -7 -16 21.6000  3.4000   1
  -9   7  16 23.4000  6.7000   1
   9  -7 -17  1.4000  3.5000   1
  -9   7  17 -2.2000  3.0000   1
   9  -7 -18  5.1000  2.8000   1
  -9   7  18  3.8000  3.4000   1
   9  -7 -19 31.4000  4.9000   1
  -9   7  19 30.3000  6.1000   1
   9  -7 -20 39.0000  4.2000   1
  -9   7  20 31.6000  7.1000   1
   9  -7 -21 48.9000  6.3000   1
  -9   7  21 46.8000  7.3000   1
   9  -7 -22 16.4000  4.6000   1
  -9   7  22 11.2000  6.5000   1
   9  -7 -23  1.2000  4.3000   1
  -9   7  23 -1.9000  7.3000   1
  -9   7  24 33.9000  9.4000   1
   9  -8  10 11.7000  8.2000   1
  -9   8 -10-21.9000  8.2000   1
   9  -8   9 26.3000  4.9000   1
  -9   8  -9 31.5000  9.1000   1
   9  -8   8  2.5000  3.5000   1
  -9   8  -8-11.9000  7.9000   1
   9  -8   7 -4.5000  2.8000   1
   9  -8   6 16.8000  3.1000   1
  -9   8  -6 23.9000  6.1000   1
   9  -8   5  0.1000  2.3000   1
  -9   8  -5  2.1000  1.5000   1
   9  -8   4  8.1000  1.9000   1
  -9   8  -4  3.3000  1.6000   1
   9  -8   3  1.0000  1.7000   1
  -9   8  -3 -1.9000  1.6000   1
   9  -8   2 12.0000  1.8000   1
  -9   8  -2 13.8000  1.9000   1
   9  -8   1  3.6000  1.5000   1
  -9   8  -1  4.4000  1.7000   1
   9  -8   0 30.5000  2.4000   1
  -9   8   0 33.7000  2.2000   1
   9  -8  -1 263.800   9.100   1
  -9   8   1 273.600   8.500   1
   9  -8  -2 117.100   4.200   1
  -9   8   2 118.900   3.900   1
   9  -8  -3 60.9000  2.7000   1
  -9   8   3 65.4000  2.8000   1
   9  -8  -4 15.1000  2.2000   1
  -9   8   4 18.1000  1.6000   1
   9  -8  -5  3.2000  2.0000   1
  -9   8   5  0.9000  1.2000   1
   9  -8  -6 12.7000  1.9000   1
  -9   8   6 14.5000  2.7000   1
   9  -8  -7 19.0000  2.5000   1
  -9   8   7 22.1000  2.0000   1
   9  -8  -8  2.0000  1.7000   1
  -9   8   8  2.8000  1.6000   1
   9  -8  -9  1.4000  2.1000   1
  -9   8   9 -0.2000  1.6000   1
   9  -8 -10  0.1000  1.8000   1
  -9   8  10 -1.0000  1.6000   1
   9  -8 -11 101.500   5.300   1
  -9   8  11 104.300   4.500   1
   9  -8 -12  6.7000  2.9000   1
  -9   8  12 11.1000  3.0000   1
   9  -8 -13 10.3000  2.9000   1
  -9   8  13  6.1000  2.4000   1
   9  -8 -14 73.3000  5.8000   1
  -9   8  14 79.8000  4.4000   1
   9  -8 -15  4.1000  3.0000   1
  -9   8  15  4.0000  2.9000   1
   9  -8 -16 18.1000  3.9000   1
  -9   8  16 18.3000  3.7000   1
   9  -8 -17 23.5000  3.6000   1
  -9   8  17 34.3000  4.5000   1
   9  -8 -18  4.4000  3.1000   1
  -9   8  18  6.0000  4.5000   1
   9  -8 -19 -4.2000  3.8000   1
  -9   8  19  7.7000  5.0000   1
   9  -8 -20 10.3000  3.7000   1
  -9   8  20 11.5000  5.7000   1
   9  -8 -21  7.4000  3.5000   1
  -9   8  21 21.8000  7.2000   1
   9  -8 -22 32.9000  4.8000   1
  -9   8  22 44.6000  8.3000   1
   9  -8 -23  3.4000  4.6000   1
  -9   8  23 11.7000  7.3000   1
   9  -9  10  6.4000  6.3000   1
  -9   9 -10  7.5000  6.5000   1
   9  -9   9 15.0000  5.6000   1
  -9   9  -9 15.4000  9.5000   1
   9  -9   8 20.6000  5.2000   1
   9  -9   7  8.5000  3.3000   1
  -9   9  -7 11.8000  7.4000   1
   9  -9   6  5.5000  2.6000   1
  -9   9  -6  6.8000  6.6000   1
   9  -9   5 18.4000  4.6000   1
  -9   9  -5 28.5000  8.5000   1
   9  -9   4 45.5000  5.6000   1
  -9   9  -4 38.9000  3.4000   1
   9  -9   3 176.800   6.100   1
  -9   9  -3 181.000  10.500   1
   9  -9   2  2.7000  1.7000   1
  -9   9  -2  3.1000  1.6000   1
   9  -9   1 -0.1000  1.8000   1
  -9   9  -1 -1.2000  1.5000   1
   9  -9   0 152.600   5.700   1
  -9   9   0 146.900   4.500   1
   9  -9  -1 117.100   5.000   1
  -9   9   1 132.700   4.200   1
   9  -9  -2  3.7000  1.9000   1
  -9   9   2  4.0000  0.9000   1
   9  -9  -3 18.2000  2.5000   1
  -9   9   3 21.4000  2.7000   1
   9  -9  -4 141.300   5.800   1
  -9   9   4 161.000   4.900   1
   9  -9  -5 -0.4000  2.2000   1
  -9   9   5 -0.9000  0.9000   1
   9  -9  -6 17.3000  2.1000   1
  -9   9   6 18.5000  1.1000   1
   9  -9  -7 30.8000  2.7000   1
  -9   9   7 36.4000  2.2000   1
   9  -9  -8 10.6000  2.1000   1
  -9   9   8  7.7000  1.5000   1
   9  -9  -9 12.3000  2.4000   1
  -9   9   9 12.9000  2.0000   1
   9  -9 -10  3.1000  1.9000   1
  -9   9  10  2.5000  1.5000   1
   9  -9 -11  2.4000  2.4000   1
  -9   9  11  2.3000  1.9000   1
   9  -9 -12 11.9000  2.4000   1
  -9   9  12 21.0000  2.5000   1
   9  -9 -13 51.7000  4.2000   1
  -9   9  13 42.3000  4.9000   1
   9  -9 -14  3.2000  3.0000   1
  -9   9  14  5.6000  3.3000   1
   9  -9 -15  9.2000  3.7000   1
  -9   9  15  8.2000  3.1000   1
   9  -9 -16 -2.3000  2.9000   1
  -9   9  16 -1.0000  3.1000   1
   9  -9 -17 12.5000  4.3000   1
  -9   9  17 14.4000  4.3000   1
   9  -9 -18 16.6000  4.2000   1
  -9   9  18 14.1000  4.3000   1
   9  -9 -19  8.2000  3.5000   1
   9  -9 -20 46.0000  5.4000   1
  -9   9  20 67.6000  9.0000   1
   9  -9 -21  7.9000  4.3000   1
  -9   9  21 -6.0000  5.3000   1
   9  -9 -22  6.4000  3.9000   1
  -9   9  22  7.3000  6.6000   1
   9  -9 -23 -0.8000  5.5000   1
  -9   9  23  8.4000  7.2000   1
   9 -10   9 -3.5000  4.7000   1
  -9  10  -9 -4.4000  9.2000   1
   9 -10   8 100.900   8.200   1
  -9  10  -8 101.700  11.500   1
   9 -10   7  6.6000  5.2000   1
  -9  10  -7  3.6000  8.2000   1
   9 -10   6 -4.4000  4.9000   1
  -9  10  -6 -2.1000  7.4000   1
   9 -10   5 11.9000  4.7000   1
   9 -10   4 103.200   7.400   1
   9 -10   3  7.9000  2.5000   1
   9 -10   2 -1.3000  1.6000   1
   9 -10   1  2.8000  1.9000   1
  -9  10  -1  1.3000  1.7000   1
   9 -10   0 35.3000  2.5000   1
  -9  10   0 37.8000  3.3000   1
   9 -10  -1 191.400   6.600   1
  -9  10   1 198.100   8.400   1
   9 -10  -2 67.4000  3.7000   1
  -9  10   2 72.2000  4.3000   1
   9 -10  -3 36.8000  3.1000   1
  -9  10   3 47.7000  3.8000   1
   9 -10  -4  2.0000  2.0000   1
  -9  10   4 -0.8000  5.3000   1
   9 -10  -5 19.2000  2.8000   1
  -9  10   5 14.9000  4.4000   1
   9 -10  -6  8.5000  2.4000   1
  -9  10   6 -5.5000  5.2000   1
   9 -10  -7 93.0000  4.4000   1
  -9  10   7 102.200   3.200   1
   9 -10  -8  4.0000  2.1000   1
  -9  10   8  1.4000  1.3000   1
   9 -10  -9  9.0000  2.3000   1
  -9  10   9  7.4000  1.8000   1
   9 -10 -10  5.1000  2.1000   1
  -9  10  10  3.2000  3.2000   1
   9 -10 -11 13.8000  2.8000   1
  -9  10  11 18.4000  2.7000   1
   9 -10 -12  4.5000  2.8000   1
  -9  10  12 -0.6000  2.0000   1
   9 -10 -13 -1.3000  2.5000   1
  -9  10  13  5.9000  3.2000   1
   9 -10 -14  0.0000  2.7000   1
  -9  10  14  2.7000  2.6000   1
   9 -10 -15 -0.9000  2.9000   1
  -9  10  15 -1.4000  3.5000   1
   9 -10 -16  6.8000  4.1000   1
  -9  10  16  5.8000  3.7000   1
   9 -10 -17 10.8000  3.4000   1
  -9  10  17 14.7000  4.3000   1
   9 -10 -18  8.7000  4.0000   1
  -9  10  18  1.8000  4.7000   1
   9 -10 -19 27.1000  5.3000   1
  -9  10  19 33.0000  6.7000   1
   9 -10 -20 12.9000  4.6000   1
  -9  10  20 14.9000  6.0000   1
   9 -10 -21  8.5000  4.8000   1
  -9  10  21 11.8000  5.9000   1
   9 -10 -22 -3.4000  3.9000   1
  -9  10  22  9.6000  6.4000   1
   9 -11   8  8.9000  5.2000   1
  -9  11  -8  4.6000  7.8000   1
   9 -11   7 28.5000  6.0000   1
  -9  11  -7  4.3000  8.7000   1
   9 -11   6 34.5000  6.5000   1
   9 -11   5  8.1000  4.5000   1
   9 -11   4  8.6000  5.0000   1
   9 -11   3  4.5000  4.7000   1
   9 -11   2 10.1000  2.4000   1
   9 -11   1 62.6000  3.2000   1
   9 -11   0 24.5000  2.4000   1
  -9  11   0 24.4000  5.8000   1
   9 -11  -1 94.2000  3.9000   1
  -9  11   1 119.000   9.700   1
   9 -11  -2  6.8000  2.1000   1
  -9  11   2  1.4000  3.8000   1
   9 -11  -3  0.2000  2.2000   1
  -9  11   3  1.5000  6.0000   1
   9 -11  -4  7.6000  2.3000   1
  -9  11   4  4.1000  3.9000   1
   9 -11  -5 67.0000  4.0000   1
  -9  11   5 88.9000  9.3000   1
   9 -11  -6  7.7000  2.4000   1
  -9  11   6  4.1000  6.1000   1
   9 -11  -7 61.0000  3.7000   1
  -9  11   7 65.9000  7.8000   1
   9 -11  -8 -3.2000  2.5000   1
  -9  11   8  3.7000  0.7000   1
   9 -11  -9 11.3000  2.6000   1
  -9  11   9 19.9000  2.0000   1
   9 -11 -10  1.3000  2.0000   1
  -9  11  10 -3.3000  1.7000   1
   9 -11 -11  0.0000  2.4000   1
  -9  11  11  2.8000  1.9000   1
   9 -11 -12  0.6000  2.6000   1
  -9  11  12  3.2000  2.0000   1
   9 -11 -13  5.0000  2.8000   1
  -9  11  13 -3.4000  2.3000   1
   9 -11 -14 -0.9000  3.5000   1
  -9  11  14 -1.3000  2.7000   1
   9 -11 -15 27.6000  4.3000   1
  -9  11  15 16.0000  4.1000   1
   9 -11 -16 -1.7000  3.2000   1
  -9  11  16  5.1000  4.1000   1
   9 -11 -17 -1.1000  4.2000   1
  -9  11  17 -3.7000  4.6000   1
   9 -11 -18  9.3000  4.9000   1
  -9  11  18 15.6000  5.1000   1
   9 -11 -19 11.3000  4.7000   1
  -9  11  19 17.0000  5.1000   1
   9 -11 -20  7.1000  5.0000   1
  -9  11  20 14.9000  5.9000   1
   9 -11 -21  1.7000  4.3000   1
   9 -12   8  4.1000  4.7000   1
  -9  12  -8 22.2000 10.2000   1
   9 -12   7 34.9000  7.4000   1
   9 -12   6 -0.4000  5.5000   1
   9 -12   5 -2.4000  4.1000   1
   9 -12   4 16.6000  5.7000   1
   9 -12   3 46.8000  4.9000   1
   9 -12   2 12.9000  4.8000   1
   9 -12   1 36.5000  4.1000   1
   9 -12   0  1.7000  3.1000   1
   9 -12  -1 35.4000  3.0000   1
  -9  12   1 30.2000  6.5000   1
   9 -12  -2  4.7000  2.6000   1
  -9  12   2  6.3000  6.9000   1
   9 -12  -3 39.7000  2.8000   1
  -9  12   3 49.0000  5.6000   1
   9 -12  -4  4.8000  2.7000   1
  -9  12   4  8.9000  5.9000   1
   9 -12  -5  9.4000  3.1000   1
  -9  12   5 16.1000  6.8000   1
   9 -12  -6  7.7000  2.6000   1
  -9  12   6  5.7000  6.6000   1
   9 -12  -7 90.4000  4.2000   1
  -9  12   7 88.0000 11.2000   1
   9 -12  -8  0.7000  2.3000   1
   9 -12  -9 17.9000  3.1000   1
  -9  12   9 15.8000  1.1000   1
   9 -12 -10 -0.6000  2.3000   1
  -9  12  10  1.1000  1.8000   1
   9 -12 -11 86.1000  6.3000   1
  -9  12  11 97.4000  6.0000   1
   9 -12 -12 21.2000  3.9000   1
  -9  12  12 17.2000  3.2000   1
   9 -12 -13 109.300   7.000   1
  -9  12  13 85.5000  8.4000   1
   9 -12 -14  3.3000  4.1000   1
  -9  12  14  3.8000  2.8000   1
   9 -12 -15 13.2000  3.4000   1
  -9  12  15 11.2000  4.6000   1
   9 -12 -16  8.1000  4.3000   1
  -9  12  16  3.3000  4.8000   1
   9 -12 -17 34.2000  6.0000   1
  -9  12  17 29.5000  6.6000   1
   9 -12 -18 12.1000  4.6000   1
  -9  12  18 -2.6000  4.7000   1
   9 -12 -19 -5.0000  5.0000   1
  -9  12  19 -3.3000  4.9000   1
   9 -12 -20  6.5000  5.1000   1
  -9  12  20  6.7000  5.9000   1
   9 -12 -21 19.5000  6.2000   1
  -9  12  21 17.0000  7.1000   1
   9 -13   7 -0.4000  4.9000   1
   9 -13   6  9.7000  6.2000   1
   9 -13   5 97.4000  8.6000   1
   9 -13   4 43.6000  7.5000   1
   9 -13   3  6.4000  4.3000   1
   9 -13   2  4.3000  5.1000   1
   9 -13   1 118.500   7.600   1
   9 -13   0  1.0000  3.4000   1
   9 -13  -1 68.4000  5.3000   1
   9 -13  -2  2.4000  2.7000   1
   9 -13  -3 108.900   6.000   1
   9 -13  -4  1.0000  2.3000   1
   9 -13  -5 216.500   7.500   1
   9 -13  -6  9.1000  2.6000   1
   9 -13  -7 37.0000  3.7000   1
   9 -13  -8 -3.0000  2.8000   1
   9 -13  -9 40.1000  3.4000   1
   9 -13 -10  3.6000  4.0000   1
  -9  13  10 -1.4000  1.1000   1
   9 -13 -11 96.0000  6.3000   1
  -9  13  11 87.8000  5.6000   1
   9 -13 -12  7.4000  4.1000   1
  -9  13  12  0.1000  2.8000   1
   9 -13 -13 26.7000  4.8000   1
  -9  13  13 26.1000  3.7000   1
   9 -13 -14 -0.5000  3.3000   1
  -9  13  14 -1.4000  2.6000   1
   9 -13 -15 13.1000  6.1000   1
  -9  13  15 14.7000  4.9000   1
   9 -13 -16  9.9000  4.7000   1
  -9  13  16  6.8000  4.0000   1
   9 -13 -17 69.6000  7.1000   1
  -9  13  17 74.6000  7.5000   1
   9 -13 -18  1.5000  4.2000   1
  -9  13  18 15.8000  5.3000   1
   9 -13 -19  5.7000  5.1000   1
  -9  13  19 16.1000  6.9000   1
   9 -13 -20 -2.1000  5.0000   1
  -9  13  20  3.4000  5.8000   1
   9 -14   6 24.4000  7.2000   1
   9 -14   5 50.4000  7.2000   1
   9 -14   4  0.8000  5.2000   1
   9 -14   3 12.0000  4.6000   1
   9 -14   2  7.1000  5.6000   1
   9 -14   1 16.5000  5.6000   1
   9 -14   0  0.4000  3.0000   1
   9 -14  -1  9.4000  3.5000   1
   9 -14  -2 -0.5000  4.2000   1
   9 -14  -3  8.7000  4.3000   1
   9 -14  -4  6.1000  2.6000   1
   9 -14  -5 11.5000  4.0000   1
   9 -14  -6  4.4000  3.9000   1
   9 -14  -7 12.0000  3.7000   1
   9 -14  -8  0.9000  2.9000   1
   9 -14  -9  7.0000  3.3000   1
   9 -14 -10  3.6000  3.4000   1
   9 -14 -11 72.0000  6.7000   1
   9 -14 -12 -1.4000  3.6000   1
   9 -14 -13 107.900   6.900   1
   9 -14 -14 29.0000  5.4000   1
   9 -14 -15 84.8000 11.0000   1
   9 -14 -16 10.1000  5.1000   1
   9 -14 -17 175.700  10.200   1
   9 -14 -18  0.7000  3.9000   1
   9 -14 -19  1.2000  5.1000   1
   9 -15   5 57.7000 10.3000   1
   9 -15   4  9.2000  6.6000   1
   9 -15   3 -1.0000  4.9000   1
   9 -15   2  1.3000  5.1000   1
   9 -15   1 15.8000  5.7000   1
   9 -15   0  5.6000  5.6000   1
   9 -15  -1 11.7000  4.7000   1
   9 -15  -2 35.9000  5.3000   1
   9 -15  -3 19.0000  5.1000   1
   9 -15  -4  5.3000  7.6000   1
   9 -15  -5  7.4000  5.4000   1
   9 -15  -6  7.3000  4.4000   1
   9 -15  -7 61.8000  5.0000   1
   9 -15  -8  1.9000  3.4000   1
   9 -15  -9  7.4000  4.8000   1
   9 -15 -10 -2.0000  3.8000   1
   9 -15 -11 44.1000  6.0000   1
   9 -15 -12 -6.9000  4.3000   1
   9 -15 -13 20.0000  4.4000   1
   9 -15 -14 69.6000  6.6000   1
   9 -15 -15 255.100  13.600   1
   9 -15 -16 -3.2000  5.1000   1
   9 -15 -17  9.8000  5.4000   1
   9 -15 -18 17.3000  5.3000   1
   9 -16   3  2.5000  8.9000   1
   9 -16   2  7.1000  6.9000   1
   9 -16   1  4.1000  7.8000   1
   9 -16   0  4.2000  6.1000   1
   9 -16  -1  3.2000  4.8000   1
   9 -16  -2  3.3000  4.2000   1
   9 -16  -3  5.6000  5.5000   1
   9 -16  -4 -4.7000  3.7000   1
   9 -16  -5-12.7000  8.2000   1
   9 -16  -6 -4.3000  8.0000   1
   9 -16  -7 10.8000  8.2000   1
   9 -16  -8 21.7000  8.4000   1
   9 -16  -9 93.4000  7.9000   1
   9 -16 -10  7.6000  5.2000   1
   9 -16 -11 10.9000  5.0000   1
   9 -16 -12  7.1000  4.4000   1
   9 -16 -13 -2.6000  4.7000   1
   9 -16 -14  7.9000  4.4000   1
   9 -16 -16 24.7000  8.3000   1
   9 -17   1 18.3000  6.5000   1
   9 -17   0 20.7000  9.2000   1
   9 -17  -1 -8.7000  7.6000   1
   9 -17  -2 -4.8000  7.7000   1
   9 -17  -3 35.2000  9.5000   1
   9 -17  -4  6.2000  5.1000   1
   9 -17  -5 -4.1000  7.1000   1
   9 -17  -6 38.9000  8.5000   1
   9 -17  -9  5.2000  7.1000   1
   9 -17 -10 -0.6000  6.9000   1
   9 -17 -11 17.7000  7.4000   1
   9 -17 -12 -4.0000  6.9000   1
   9 -17 -13 88.7000 10.7000   1
   9 -17 -14 29.0000  7.6000   1
   9 -18  -3  1.8000  5.8000   1
   9 -18  -4  5.0000  8.2000   1
   9 -18  -5  9.1000  8.0000   1
   9 -18  -6 14.8000  8.3000   1
   9 -18  -7 29.5000  7.3000   1
   9 -18  -8 28.9000  6.7000   1
   9 -18  -9  3.4000  7.1000   1
   9 -18 -10 -5.4000  7.3000   1
   9 -18 -11 29.4000  8.1000   1
   9 -18 -12 -2.1000  7.3000   1
  10   0  10 42.5000  6.2000   1
  10   0   9  9.3000  4.7000   1
  10   0   8 59.4000  7.4000   1
  10   0   7 -5.9000  3.7000   1
  10   0   6 424.800  15.300   1
  10   0   5  3.1000  2.3000   1
  10   0   4 43.5000  2.9000   1
  10   0   3  0.3000  2.0000   1
  10   0   2 438.700  10.400   1
  10   0   1  0.7000  1.5000   1
  10   0   0 31.8000  2.0000   1
  10   0  -1  0.2000  1.7000   1
  10   0  -2 54.6000  2.8000   1
  10   0  -3  1.9000  1.7000   1
  10   0  -4 71.6000  2.9000   1
  10   0  -5 -3.3000  1.5000   1
  10   0  -6 187.800   4.800   1
  10   0  -7 -1.0000  1.4000   1
  10   0  -8 465.700  13.400   1
  10   0  -9  1.4000  2.2000   1
  10   0 -10 122.900   4.300   1
  10   0 -11  0.3000  2.0000   1
  10   0 -12 450.200  12.800   1
  10   0 -13 -0.5000  2.8000   1
  10   0 -14 50.5000  3.8000   1
  10   0 -15  0.4000  2.6000   1
  10   0 -16 170.100   7.500   1
  10   0 -17  4.2000  5.4000   1
  10   0 -18  7.3000  6.5000   1
  10   0 -19  5.4000  4.7000   1
  10   0 -20 50.4000  4.8000   1
  10   0 -21  5.7000  6.4000   1
  10   0 -22 176.900  14.000   1
  10   0 -24  9.6000  8.2000   1
  10   0 -25 -2.5000  8.7000   1
  10  -1  10  4.6000  5.0000   1
  10  -1   9  5.7000  4.7000   1
 -10   1  -9  2.9000  4.2000   1
  10  -1   8 11.4000  4.9000   1
 -10   1  -8 10.7000  4.5000   1
  10  -1   7  1.1000  3.6000   1
 -10   1  -7  5.2000  3.9000   1
  10  -1   6  4.7000  2.5000   1
 -10   1  -6 -1.5000  3.6000   1
  10  -1   5  2.0000  2.0000   1
 -10   1  -5  7.4000  3.2000   1
  10  -1   4 25.4000  2.3000   1
 -10   1  -4 22.7000  2.8000   1
  10  -1   3 10.3000  1.9000   1
 -10   1  -3 12.8000  1.9000   1
  10  -1   2 28.3000  2.0000   1
 -10   1  -2 28.1000  2.2000   1
  10  -1   1 11.3000  1.9000   1
 -10   1  -1 14.5000  1.9000   1
  10  -1   0 127.300   4.500   1
 -10   1   0 121.200   3.800   1
  10  -1  -1  9.9000  2.1000   1
 -10   1   1 11.5000  1.8000   1
  10  -1  -2  3.8000  1.5000   1
 -10   1   2  5.3000  1.5000   1
  10  -1  -3 174.800   4.700   1
 -10   1   3 174.600   4.800   1
  10  -1  -4 371.300   8.400   1
 -10   1   4 377.900   8.700   1
  10  -1  -5  3.6000  1.7000   1
 -10   1   5  1.8000  1.7000   1
  10  -1  -6 272.200   7.100   1
 -10   1   6 264.300   6.400   1
  10  -1  -7 32.6000  2.2000   1
 -10   1   7 31.0000  2.1000   1
  10  -1  -8  1.6000  1.8000   1
 -10   1   8  1.9000  2.4000   1
  10  -1  -9  1.4000  1.7000   1
 -10   1   9  3.7000  2.5000   1
  10  -1 -10 567.700  14.300   1
 -10   1  10 570.400  13.600   1
  10  -1 -11  6.9000  2.1000   1
 -10   1  11 13.0000  2.8000   1
  10  -1 -12  0.7000  2.0000   1
 -10   1  12 -2.9000  2.0000   1
  10  -1 -13 87.3000  3.9000   1
 -10   1  13 79.4000  4.7000   1
  10  -1 -14 566.900  16.400   1
 -10   1  14 586.600  16.700   1
  10  -1 -15  1.2000  3.6000   1
 -10   1  15  1.9000  3.6000   1
  10  -1 -16 162.100   7.900   1
 -10   1  16 141.800   8.000   1
  10  -1 -17 16.3000  5.6000   1
 -10   1  17 15.5000  2.8000   1
  10  -1 -18 84.0000  5.7000   1
 -10   1  18 89.8000  5.9000   1
  10  -1 -19  8.0000  3.3000   1
 -10   1  20 31.7000  4.9000   1
  10  -1 -21 85.1000  7.1000   1
 -10   1  21 72.2000  9.0000   1
  10  -1 -22  5.8000  3.8000   1
 -10   1  22  4.7000  6.9000   1
 -10   1  23  5.6000  5.4000   1
  10  -1 -24 12.0000  8.3000   1
  10  -1 -25 62.0000 12.1000   1
  10  -2  10  6.3000  5.1000   1
 -10   2 -10 13.6000  8.5000   1
  10  -2   9 24.5000  5.4000   1
 -10   2  -9 15.6000  4.5000   1
  10  -2   8  0.5000  4.0000   1
 -10   2  -8 10.6000  4.7000   1
  10  -2   7 14.3000  4.4000   1
 -10   2  -7 13.8000  4.0000   1
  10  -2   6  0.8000  2.3000   1
 -10   2  -6 -4.8000  5.3000   1
  10  -2   5  1.7000  2.2000   1
 -10   2  -5  3.6000  3.5000   1
  10  -2   4  1.2000  1.8000   1
 -10   2  -4 -1.6000  1.9000   1
  10  -2   3 25.7000  2.4000   1
 -10   2  -3 25.8000  2.9000   1
  10  -2   2 23.1000  2.4000   1
 -10   2  -2 19.7000  2.2000   1
  10  -2   1 30.0000  2.1000   1
 -10   2  -1 30.8000  2.5000   1
  10  -2   0 27.1000  2.3000   1
 -10   2   0 29.1000  2.5000   1
  10  -2  -1 24.7000  2.2000   1
 -10   2   1 28.5000  2.3000   1
  10  -2  -2 30.4000  2.0000   1
 -10   2   2 30.1000  2.2000   1
  10  -2  -3 79.1000  3.4000   1
 -10   2   3 83.0000  3.3000   1
  10  -2  -4  5.9000  1.8000   1
 -10   2   4  3.2000  1.7000   1
  10  -2  -5  1.1000  1.5000   1
 -10   2   5  1.4000  1.4000   1
  10  -2  -6 47.2000  2.7000   1
 -10   2   6 46.9000  3.1000   1
  10  -2  -7  2.1000  1.5000   1
 -10   2   7  1.6000  1.9000   1
  10  -2  -8 94.2000  3.6000   1
 -10   2   8 97.8000  4.8000   1
  10  -2  -9 12.2000  2.3000   1
 -10   2   9 18.0000  2.8000   1
  10  -2 -10 64.5000  3.4000   1
 -10   2  10 69.3000  3.9000   1
  10  -2 -11  4.5000  2.5000   1
 -10   2  11 10.8000  2.0000   1
  10  -2 -12 208.100   7.800   1
 -10   2  12 201.300   7.500   1
  10  -2 -13 15.7000  2.6000   1
 -10   2  13 11.7000  2.7000   1
  10  -2 -14  0.5000  2.8000   1
 -10   2  14  1.1000  2.4000   1
  10  -2 -15 10.8000  3.3000   1
 -10   2  15 10.3000  3.7000   1
  10  -2 -16 61.1000  4.3000   1
 -10   2  16 60.8000  5.2000   1
  10  -2 -17  5.2000  3.2000   1
 -10   2  17 11.5000  3.3000   1
 -10   2  18 54.1000  5.4000   1
  10  -2 -19 -4.6000  4.5000   1
 -10   2  19 -0.2000  5.6000   1
  10  -2 -20 12.4000  6.5000   1
  10  -2 -21 75.8000  6.8000   1
 -10   2  21 78.5000  8.7000   1
  10  -2 -22 29.5000  4.8000   1
  10  -2 -23  4.4000  7.9000   1
  10  -2 -24 15.2000  9.1000   1
  10  -3  10  6.9000  5.1000   1
 -10   3 -10 13.4000  8.6000   1
  10  -3   9 42.6000  5.3000   1
 -10   3  -9 30.5000  8.9000   1
  10  -3   8 15.5000  6.9000   1
 -10   3  -8  3.3000  3.9000   1
  10  -3   7 -5.4000  3.6000   1
 -10   3  -7 -1.2000  3.4000   1
  10  -3   6 14.7000  3.6000   1
 -10   3  -6 15.0000  4.0000   1
  10  -3   5 35.1000  3.6000   1
 -10   3  -5 43.2000  3.4000   1
  10  -3   4 36.2000  2.4000   1
 -10   3  -4 30.5000  3.3000   1
  10  -3   3  8.7000  2.9000   1
 -10   3  -3  7.2000  2.3000   1
  10  -3   2 41.9000  2.5000   1
 -10   3  -2 45.1000  3.4000   1
  10  -3   1  8.4000  1.7000   1
 -10   3  -1 14.6000  2.5000   1
  10  -3   0  2.4000  1.7000   1
 -10   3   0  2.3000  1.9000   1
  10  -3  -1 108.700   4.100   1
 -10   3   1 117.500   4.900   1
  10  -3  -2 54.5000  2.9000   1
 -10   3   2 50.7000  2.7000   1
  10  -3  -3 161.800   4.400   1
 -10   3   3 168.100   6.100   1
  10  -3  -4 53.3000  2.5000   1
 -10   3   4 60.7000  2.9000   1
  10  -3  -5 11.2000  1.7000   1
 -10   3   5 12.2000  1.9000   1
  10  -3  -6 156.300   5.000   1
 -10   3   6 154.000   4.600   1
  10  -3  -7 116.400   4.300   1
 -10   3   7 118.700   4.200   1
  10  -3  -8 73.1000  3.8000   1
 -10   3   8 71.0000  3.9000   1
  10  -3  -9  0.0000  2.1000   1
 -10   3   9 -3.6000  2.2000   1
  10  -3 -10 114.800   4.300   1
 -10   3  10 106.100   4.800   1
  10  -3 -11 204.600   6.400   1
 -10   3  11 214.000   7.400   1
  10  -3 -12  6.0000  2.1000   1
 -10   3  12  7.2000  2.9000   1
  10  -3 -13 21.5000  2.7000   1
 -10   3  13 19.9000  2.5000   1
  10  -3 -14 -2.4000  2.7000   1
 -10   3  14  0.5000  2.5000   1
  10  -3 -15 33.0000  4.4000   1
 -10   3  15 24.5000  2.9000   1
  10  -3 -16  9.0000  4.1000   1
 -10   3  16  0.1000  2.7000   1
  10  -3 -17 70.8000  5.5000   1
 -10   3  17 70.9000  4.4000   1
 -10   3  18 17.0000  3.4000   1
 -10   3  19 78.7000  8.9000   1
  10  -3 -20 80.9000  7.1000   1
 -10   3  20 103.700   9.200   1
  10  -3 -21 58.3000  5.9000   1
  10  -3 -22  4.4000  3.8000   1
 -10   3  22 -3.9000  6.3000   1
  10  -3 -23 95.0000  8.3000   1
  10  -3 -24 78.7000 10.6000   1
 -10   3  24 48.6000  9.6000   1
  10  -4  10 35.3000  5.8000   1
  10  -4   9 -1.9000  4.5000   1
 -10   4  -9 -7.1000  8.5000   1
  10  -4   8  7.3000  4.2000   1
 -10   4  -8  3.9000  6.7000   1
  10  -4   7 48.1000  4.3000   1
 -10   4  -7 58.3000  5.3000   1
  10  -4   6  7.1000  2.8000   1
 -10   4  -6  3.1000  2.8000   1
  10  -4   5  3.8000  2.8000   1
 -10   4  -5  1.1000  2.6000   1
  10  -4   4  3.3000  1.9000   1
 -10   4  -4 10.7000  3.1000   1
  10  -4   3  3.9000  2.4000   1
 -10   4  -3  6.8000  2.2000   1
  10  -4   2 16.5000  2.0000   1
 -10   4  -2 13.5000  2.3000   1
  10  -4   1  5.2000  2.1000   1
 -10   4  -1  5.1000  1.9000   1
  10  -4   0 36.9000  2.4000   1
 -10   4   0 36.2000  2.5000   1
  10  -4  -1 52.6000  2.5000   1
 -10   4   1 48.3000  3.0000   1
  10  -4  -2 169.400   4.800   1
 -10   4   2 172.300   5.500   1
  10  -4  -3  6.5000  2.2000   1
 -10   4   3  9.3000  2.0000   1
  10  -4  -4  1.0000  1.4000   1
 -10   4   4 -0.1000  1.9000   1
  10  -4  -5  2.5000  2.0000   1
 -10   4   5  2.1000  1.6000   1
  10  -4  -6 13.6000  2.4000   1
 -10   4   6 13.9000  2.0000   1
  10  -4  -7  0.8000  1.5000   1
 -10   4   7  6.2000  1.6000   1
  10  -4  -8  2.5000  3.0000   1
 -10   4   8 10.4000  2.7000   1
  10  -4  -9  4.0000  2.6000   1
 -10   4   9  3.2000  2.0000   1
  10  -4 -10 14.9000  3.4000   1
 -10   4  10 15.2000  3.0000   1
  10  -4 -11 23.9000  2.5000   1
 -10   4  11 22.1000  2.9000   1
  10  -4 -12  1.1000  2.3000   1
 -10   4  12  2.1000  2.7000   1
  10  -4 -13 11.2000  2.2000   1
 -10   4  13 11.7000  2.3000   1
  10  -4 -14  1.9000  2.6000   1
 -10   4  14  1.1000  3.4000   1
  10  -4 -15  8.8000  3.5000   1
 -10   4  15 10.0000  3.1000   1
  10  -4 -16  1.3000  3.6000   1
 -10   4  16  5.2000  2.8000   1
  10  -4 -17  2.4000  3.5000   1
 -10   4  17  9.4000  3.9000   1
  10  -4 -18  2.9000  5.3000   1
 -10   4  18  4.3000  2.7000   1
  10  -4 -19  3.4000  3.4000   1
 -10   4  19  6.9000  5.3000   1
  10  -4 -20 13.7000  5.1000   1
 -10   4  20 19.3000  5.2000   1
  10  -4 -21  2.0000  4.7000   1
 -10   4  21 -1.6000  6.0000   1
  10  -4 -22  8.5000  7.6000   1
  10  -4 -23 37.5000  5.3000   1
 -10   4  23 14.6000  6.4000   1
 -10   4  24 -0.3000  8.0000   1
  10  -5   9 76.9000  6.1000   1
  10  -5   8  1.3000  4.4000   1
 -10   5  -8 -4.7000  7.7000   1
  10  -5   7 14.8000  3.2000   1
 -10   5  -7 16.1000  8.4000   1
  10  -5   6 17.3000  3.1000   1
 -10   5  -6  9.1000  3.9000   1
  10  -5   5 62.7000  4.4000   1
 -10   5  -5 60.5000  4.8000   1
  10  -5   4 25.0000  3.4000   1
 -10   5  -4 22.1000  3.1000   1
  10  -5   3  4.1000  1.8000   1
 -10   5  -3  1.2000  2.1000   1
  10  -5   2  2.0000  1.8000   1
 -10   5  -2 -1.9000  1.9000   1
  10  -5   1  1.7000  1.8000   1
 -10   5  -1  1.9000  2.0000   1
  10  -5   0 72.6000  3.7000   1
 -10   5   0 67.3000  4.2000   1
  10  -5  -1  9.3000  1.9000   1
 -10   5   1 10.5000  2.0000   1
  10  -5  -2  4.5000  1.8000   1
 -10   5   2  3.2000  1.9000   1
  10  -5  -3 33.5000  2.6000   1
 -10   5   3 33.1000  2.4000   1
  10  -5  -4 61.8000  3.0000   1
 -10   5   4 59.5000  2.9000   1
  10  -5  -5 40.6000  2.8000   1
 -10   5   5 48.0000  2.7000   1
  10  -5  -6 109.900   4.900   1
 -10   5   6 121.800   5.000   1
  10  -5  -7  5.5000  2.2000   1
 -10   5   7  8.0000  2.1000   1
  10  -5  -8  3.9000  2.6000   1
 -10   5   8  6.6000  2.1000   1
  10  -5  -9 44.5000  3.2000   1
 -10   5   9 38.2000  4.3000   1
  10  -5 -10 24.7000  2.8000   1
 -10   5  10 14.8000  3.7000   1
  10  -5 -11 33.6000  3.2000   1
 -10   5  11 40.7000  3.1000   1
  10  -5 -12 10.8000  2.4000   1
 -10   5  12 13.4000  3.1000   1
  10  -5 -13 11.6000  2.2000   1
 -10   5  13 22.6000  2.4000   1
  10  -5 -14  0.2000  2.2000   1
 -10   5  14  1.1000  2.7000   1
  10  -5 -15  2.5000  3.2000   1
 -10   5  15  6.4000  3.3000   1
  10  -5 -16 22.0000  3.6000   1
 -10   5  16 23.7000  4.0000   1
  10  -5 -17  1.4000  4.0000   1
 -10   5  17  4.1000  3.2000   1
  10  -5 -18  0.2000  3.1000   1
 -10   5  18  0.7000  3.1000   1
  10  -5 -19  7.6000  6.3000   1
 -10   5  19 14.9000  5.9000   1
  10  -5 -20 28.4000  3.8000   1
  10  -5 -21 63.6000  6.3000   1
 -10   5  21 53.5000  8.6000   1
  10  -5 -22 16.7000  5.2000   1
 -10   5  22  8.0000  6.7000   1
  10  -5 -23 46.2000  6.5000   1
  10  -6   9  2.9000  5.1000   1
 -10   6  -9 -1.3000  8.3000   1
  10  -6   8 -3.2000  4.7000   1
  10  -6   7  2.4000  3.3000   1
 -10   6  -7  3.1000  7.7000   1
  10  -6   6 12.5000  3.1000   1
 -10   6  -6 13.4000  3.4000   1
  10  -6   5  2.3000  3.9000   1
 -10   6  -5  8.0000  3.1000   1
  10  -6   4  9.1000  3.8000   1
 -10   6  -4  2.3000  2.2000   1
  10  -6   3 32.8000  2.4000   1
 -10   6  -3 35.9000  3.3000   1
  10  -6   2  8.7000  1.9000   1
 -10   6  -2  4.9000  2.0000   1
  10  -6   1 49.0000  2.8000   1
 -10   6  -1 50.8000  3.3000   1
  10  -6   0  3.6000  2.2000   1
 -10   6   0  3.2000  1.9000   1
  10  -6  -1  6.7000  2.2000   1
 -10   6   1 10.0000  2.0000   1
  10  -6  -2 105.000   4.000   1
 -10   6   2 106.900   4.400   1
  10  -6  -3  7.6000  2.2000   1
 -10   6   3  3.9000  1.8000   1
  10  -6  -4 97.4000  4.1000   1
 -10   6   4 110.000   3.800   1
  10  -6  -5 16.8000  2.5000   1
 -10   6   5 23.5000  2.2000   1
  10  -6  -6 103.200   4.200   1
 -10   6   6 108.700   3.900   1
  10  -6  -7 155.200   6.200   1
 -10   6   7 145.200   5.700   1
  10  -6  -8 103.400   4.500   1
 -10   6   8 109.000   6.400   1
  10  -6  -9  5.9000  1.9000   1
 -10   6   9  9.3000  3.0000   1
  10  -6 -10  6.6000  2.0000   1
 -10   6  10  7.1000  2.0000   1
  10  -6 -11  1.8000  1.9000   1
 -10   6  11  0.2000  2.0000   1
  10  -6 -12 75.2000  3.7000   1
 -10   6  12 84.9000  5.3000   1
  10  -6 -13  2.1000  2.6000   1
 -10   6  13  1.2000  2.2000   1
  10  -6 -14  2.6000  2.5000   1
 -10   6  14  6.4000  3.0000   1
  10  -6 -15 42.5000  3.6000   1
 -10   6  15 40.0000  7.1000   1
  10  -6 -16 27.6000  3.7000   1
 -10   6  16 37.4000  7.6000   1
  10  -6 -17  4.3000  4.1000   1
  10  -6 -18-12.1000  5.5000   1
 -10   6  18  5.5000  4.8000   1
  10  -6 -19  5.3000  4.1000   1
 -10   6  19  1.3000  4.9000   1
  10  -6 -20 15.9000  4.7000   1
 -10   6  20  1.3000  5.8000   1
  10  -6 -21 30.2000  4.2000   1
 -10   6  21 24.4000  5.6000   1
  10  -6 -22 -1.3000  8.2000   1
 -10   6  22  7.3000  6.8000   1
  10  -6 -23 -4.7000  5.4000   1
 -10   6  23 19.8000  8.5000   1
  10  -6 -24 50.4000  7.0000   1
 -10   6  24 49.0000 10.0000   1
  10  -7   9  4.1000  8.5000   1
  10  -7   8 41.6000  5.8000   1
 -10   7  -8 53.3000 11.2000   1
  10  -7   7  3.1000  4.4000   1
 -10   7  -7  2.0000  8.3000   1
  10  -7   6  5.1000  3.3000   1
  10  -7   5  7.6000  3.5000   1
 -10   7  -5  7.7000  2.8000   1
  10  -7   4 38.4000  5.2000   1
 -10   7  -4 34.2000  4.4000   1
  10  -7   3  8.4000  1.9000   1
 -10   7  -3 16.2000  2.4000   1
  10  -7   2  8.7000  1.9000   1
 -10   7  -2 11.3000  1.9000   1
  10  -7   1 18.5000  2.4000   1
 -10   7  -1 17.8000  2.4000   1
  10  -7   0  3.7000  2.0000   1
 -10   7   0  1.4000  1.7000   1
  10  -7  -1 13.7000  2.2000   1
 -10   7   1 12.0000  2.1000   1
  10  -7  -2 133.900   4.600   1
 -10   7   2 132.100   5.800   1
  10  -7  -3 61.6000  3.7000   1
 -10   7   3 61.7000  3.1000   1
  10  -7  -4 69.6000  4.0000   1
 -10   7   4 64.1000  3.3000   1
  10  -7  -5  6.5000  1.8000   1
 -10   7   5  7.7000  2.2000   1
  10  -7  -6 436.100  12.500   1
 -10   7   6 438.000  14.200   1
  10  -7  -7  0.9000  2.1000   1
 -10   7   7  3.0000  1.6000   1
  10  -7  -8  3.8000  1.9000   1
 -10   7   8  3.9000  2.1000   1
  10  -7  -9 39.1000  2.9000   1
 -10   7   9 44.8000  4.6000   1
  10  -7 -10 119.800   4.900   1
 -10   7  10 116.100   4.700   1
  10  -7 -11  2.6000  2.5000   1
 -10   7  11  2.6000  2.2000   1
  10  -7 -12 105.100   4.800   1
 -10   7  12 105.300   9.300   1
  10  -7 -13  0.2000  2.9000   1
 -10   7  13  1.8000  2.0000   1
  10  -7 -14 45.6000  3.7000   1
 -10   7  14 43.9000  4.4000   1
  10  -7 -15  2.8000  2.8000   1
 -10   7  15  2.8000  4.3000   1
  10  -7 -16 27.6000  3.8000   1
 -10   7  16 38.4000  8.3000   1
  10  -7 -17  8.8000  4.0000   1
 -10   7  17  5.9000  4.6000   1
  10  -7 -18 15.0000  4.6000   1
 -10   7  18 19.8000  5.3000   1
  10  -7 -19 -4.1000  3.9000   1
 -10   7  19 10.6000  5.4000   1
  10  -7 -20 -2.0000  4.7000   1
 -10   7  20 -1.8000  5.3000   1
  10  -7 -21  5.2000  4.1000   1
  10  -7 -22  8.3000  5.7000   1
 -10   7  22  2.0000  5.4000   1
  10  -7 -23 -4.1000  4.5000   1
 -10   7  23  8.5000  7.3000   1
  10  -8   8 -8.1000  8.3000   1
 -10   8  -8 17.6000  9.4000   1
  10  -8   7 18.2000  5.4000   1
 -10   8  -7 28.2000  7.2000   1
  10  -8   6 53.0000  5.5000   1
 -10   8  -6 55.5000 10.3000   1
  10  -8   5 12.1000  4.8000   1
  10  -8   4 26.1000  3.9000   1
 -10   8  -4 20.2000  3.0000   1
  10  -8   3  2.5000  4.2000   1
 -10   8  -3  1.4000  2.2000   1
  10  -8   2 74.9000  3.4000   1
 -10   8  -2 73.8000  4.5000   1
  10  -8   1  7.4000  1.8000   1
 -10   8  -1  3.7000  1.7000   1
  10  -8   0 11.0000  2.1000   1
 -10   8   0  6.5000  1.8000   1
  10  -8  -1  2.6000  2.0000   1
 -10   8   1  8.7000  1.7000   1
  10  -8  -2 56.7000  3.5000   1
 -10   8   2 63.4000  3.3000   1
  10  -8  -3 28.6000  2.9000   1
 -10   8   3 30.0000  2.2000   1
  10  -8  -4 205.200   7.900   1
 -10   8   4 222.900   7.100   1
  10  -8  -5 16.3000  2.6000   1
 -10   8   5 17.4000  1.9000   1
  10  -8  -6 130.900   5.800   1
 -10   8   6 139.100   5.000   1
  10  -8  -7 24.6000  3.8000   1
 -10   8   7 31.3000  2.5000   1
  10  -8  -8 153.900   6.000   1
 -10   8   8 174.000   5.800   1
  10  -8  -9 -0.2000  2.0000   1
 -10   8   9 -0.2000  5.6000   1
  10  -8 -10 71.7000  3.6000   1
 -10   8  10 81.5000  8.6000   1
  10  -8 -11 46.4000  3.4000   1
 -10   8  11 61.5000  8.6000   1
  10  -8 -12 152.400   7.000   1
 -10   8  12 133.800  12.900   1
  10  -8 -13 39.2000  3.9000   1
 -10   8  13 41.6000  7.5000   1
  10  -8 -14 -1.5000  2.6000   1
 -10   8  14  2.5000  2.5000   1
  10  -8 -15 75.4000  5.7000   1
 -10   8  15 55.6000  5.0000   1
  10  -8 -16 27.6000  4.8000   1
 -10   8  16 19.4000  4.0000   1
  10  -8 -17  1.1000  3.1000   1
 -10   8  17  0.4000  4.3000   1
  10  -8 -18 17.1000  4.7000   1
 -10   8  18  7.0000  4.9000   1
  10  -8 -19  0.4000  3.4000   1
 -10   8  19 -0.6000  5.0000   1
  10  -8 -20 13.8000  4.9000   1
  10  -8 -21  5.2000  4.6000   1
  10  -8 -22  6.2000  3.8000   1
  10  -8 -23  5.5000  5.7000   1
  10  -9   8  0.3000  6.0000   1
 -10   9  -8 18.7000  7.5000   1
  10  -9   7 41.2000  6.6000   1
 -10   9  -7 37.7000 10.8000   1
  10  -9   6  0.4000  4.9000   1
  10  -9   5  9.6000  4.3000   1
  10  -9   4  0.7000  5.1000   1
  10  -9   3 59.3000  5.8000   1
 -10   9  -3 54.2000  4.7000   1
  10  -9   2  2.5000  4.1000   1
 -10   9  -2 -1.5000  2.6000   1
  10  -9   1 13.2000  2.2000   1
 -10   9  -1 13.6000  2.9000   1
  10  -9   0 30.0000  3.0000   1
 -10   9   0 37.0000  2.3000   1
  10  -9  -1  3.5000  3.0000   1
 -10   9   1  1.6000  1.2000   1
  10  -9  -2 15.3000  2.6000   1
 -10   9   2 14.2000  1.6000   1
  10  -9  -3  2.4000  2.3000   1
 -10   9   3  3.3000  1.2000   1
  10  -9  -4 128.000   5.100   1
 -10   9   4 143.600   4.600   1
  10  -9  -5 16.5000  2.9000   1
 -10   9   5 15.0000  1.5000   1
  10  -9  -6 29.7000  2.8000   1
 -10   9   6 29.7000  2.0000   1
  10  -9  -7  1.1000  2.2000   1
 -10   9   7  4.3000  1.2000   1
  10  -9  -8 127.600   4.800   1
 -10   9   8 143.900   4.100   1
  10  -9  -9 10.2000  2.4000   1
 -10   9   9  6.9000  1.9000   1
  10  -9 -10 51.8000  3.4000   1
 -10   9  10 48.8000  2.9000   1
  10  -9 -11 35.5000  3.1000   1
 -10   9  11 36.3000  3.6000   1
  10  -9 -12 86.4000  5.0000   1
 -10   9  12 97.5000  6.0000   1
  10  -9 -13  3.3000  2.3000   1
 -10   9  13  1.2000  2.6000   1
  10  -9 -14 11.7000  3.4000   1
 -10   9  14 10.0000  3.2000   1
  10  -9 -15 -6.2000  4.0000   1
 -10   9  15  5.8000  3.5000   1
  10  -9 -16 -1.8000  4.1000   1
 -10   9  16  3.2000  3.8000   1
  10  -9 -17 -3.9000  4.2000   1
 -10   9  17 -1.7000  3.8000   1
  10  -9 -18 14.3000  4.6000   1
 -10   9  18 11.9000  4.7000   1
  10  -9 -19  7.6000  4.8000   1
 -10   9  19  9.6000  5.3000   1
  10  -9 -20 52.0000  5.7000   1
 -10   9  20 54.6000  7.7000   1
  10  -9 -21 -5.5000  5.0000   1
 -10   9  21  9.3000  6.3000   1
  10  -9 -22  5.8000  4.6000   1
  10 -10   7 15.1000  7.5000   1
  10 -10   6  3.4000  5.2000   1
  10 -10   5  0.6000  5.2000   1
  10 -10   4  6.1000  4.1000   1
  10 -10   3  7.0000  4.8000   1
  10 -10   2 -0.3000  4.7000   1
 -10  10  -2  3.2000  2.0000   1
  10 -10   1  2.6000  2.2000   1
 -10  10  -1  4.9000  2.8000   1
  10 -10   0  2.0000  2.0000   1
 -10  10   0  1.5000  3.9000   1
  10 -10  -1  2.4000  2.1000   1
 -10  10   1 -0.5000  2.3000   1
  10 -10  -2 94.0000  4.2000   1
 -10  10   2 109.300   6.300   1
  10 -10  -3  5.7000  2.5000   1
 -10  10   3  6.1000  2.7000   1
  10 -10  -4 68.1000  4.6000   1
 -10  10   4 70.3000  4.8000   1
  10 -10  -5  0.6000  2.2000   1
 -10  10   5  3.1000  2.7000   1
  10 -10  -6 13.9000  2.7000   1
 -10  10   6 12.6000  3.5000   1
  10 -10  -7 78.8000  3.8000   1
 -10  10   7 85.8000  2.7000   1
  10 -10  -8 91.4000  4.1000   1
 -10  10   8 94.6000  3.1000   1
  10 -10  -9  4.9000  2.4000   1
 -10  10   9  6.6000  1.5000   1
  10 -10 -10 79.5000  4.3000   1
 -10  10  10 94.5000  5.4000   1
  10 -10 -11 32.5000  3.5000   1
 -10  10  11 38.9000  3.3000   1
  10 -10 -12 12.5000  3.5000   1
 -10  10  12 10.7000  2.6000   1
  10 -10 -13 14.6000  3.7000   1
 -10  10  13 22.2000  3.7000   1
  10 -10 -14 28.4000  5.1000   1
 -10  10  14 29.3000  4.3000   1
  10 -10 -15  6.2000  4.3000   1
  10 -10 -16  5.9000  3.6000   1
 -10  10  16  3.9000  3.8000   1
  10 -10 -17 10.5000  5.0000   1
 -10  10  17 12.8000  4.4000   1
  10 -10 -18 64.8000  6.1000   1
 -10  10  18 56.1000  7.0000   1
  10 -10 -19 13.5000  4.0000   1
 -10  10  19 28.3000  6.1000   1
  10 -10 -20 21.9000  7.4000   1
 -10  10  20 31.4000  7.4000   1
  10 -10 -21 23.3000  5.6000   1
 -10  10  21 16.6000  8.3000   1
  10 -10 -22 55.8000  9.0000   1
 -10  10  22 50.7000  9.1000   1
  10 -11   6 46.0000  6.5000   1
  10 -11   5 11.3000  6.0000   1
  10 -11   4 30.1000  6.4000   1
  10 -11   3 12.3000  5.5000   1
  10 -11   2 46.8000  5.8000   1
  10 -11   1 18.0000  4.3000   1
  10 -11   0 26.1000  3.4000   1
  10 -11  -1 -2.2000  3.8000   1
  10 -11  -2 10.2000  2.8000   1
  10 -11  -3  5.4000  2.2000   1
  10 -11  -4 24.5000  3.0000   1
  10 -11  -5  1.4000  2.7000   1
  10 -11  -6 25.0000  2.9000   1
  10 -11  -7 12.6000  2.7000   1
  10 -11  -8  7.1000  2.4000   1
  10 -11  -9 -2.5000  2.5000   1
 -10  11   9  0.7000  1.0000   1
  10 -11 -10 43.3000  3.6000   1
 -10  11  10 48.8000  3.4000   1
  10 -11 -11 17.8000  4.5000   1
 -10  11  11 13.7000  2.4000   1
  10 -11 -12 18.1000  4.8000   1
 -10  11  12  0.2000  2.4000   1
  10 -11 -13 -2.4000  3.7000   1
 -10  11  13  2.1000  2.7000   1
  10 -11 -14 154.700   9.000   1
 -10  11  14 141.200  10.900   1
  10 -11 -15  1.1000  4.3000   1
 -10  11  15  3.9000  3.3000   1
  10 -11 -16  8.0000  4.2000   1
  10 -11 -17 -0.5000  3.9000   1
 -10  11  17 -4.7000  4.2000   1
  10 -11 -18 39.5000  4.9000   1
 -10  11  18 42.4000  7.0000   1
  10 -11 -19 69.9000  7.3000   1
 -10  11  19 60.4000  8.0000   1
  10 -11 -20  8.8000  4.6000   1
 -10  11  20  4.1000  5.5000   1
  10 -11 -21 33.3000  6.9000   1
 -10  11  21 34.9000  7.7000   1
  10 -12   6 42.5000  6.9000   1
  10 -12   5 15.0000  5.9000   1
  10 -12   4 16.9000  6.2000   1
  10 -12   3 -3.4000  5.1000   1
  10 -12   2 18.6000  4.5000   1
  10 -12   1 24.4000  5.7000   1
  10 -12   0 10.3000  4.9000   1
  10 -12  -1  5.0000  3.5000   1
  10 -12  -2  3.3000  3.8000   1
  10 -12  -3  6.1000  2.5000   1
  10 -12  -4 12.0000  3.0000   1
  10 -12  -5  9.0000  2.4000   1
  10 -12  -6  2.6000  2.8000   1
  10 -12  -7  3.4000  2.6000   1
  10 -12  -8  0.2000  3.0000   1
  10 -12  -9  4.7000  3.0000   1
  10 -12 -10  0.2000  2.6000   1
 -10  12  10 -0.3000  1.4000   1
  10 -12 -11 30.2000  4.3000   1
 -10  12  11 23.5000  2.9000   1
  10 -12 -12 19.9000  4.7000   1
 -10  12  12 12.7000  2.9000   1
  10 -12 -13 20.8000  4.3000   1
 -10  12  13 25.1000  3.4000   1
  10 -12 -14 19.9000  4.2000   1
 -10  12  14 12.7000  3.4000   1
  10 -12 -15 13.3000  4.2000   1
 -10  12  15  7.0000  3.3000   1
  10 -12 -16  4.6000  4.1000   1
 -10  12  16 11.6000  4.2000   1
  10 -12 -17 38.4000  6.2000   1
 -10  12  17 40.6000  5.9000   1
  10 -12 -18 11.9000  4.8000   1
 -10  12  18  7.6000  5.6000   1
  10 -12 -19 -2.1000  4.4000   1
 -10  12  19  1.1000  4.6000   1
  10 -12 -20  5.6000  7.4000   1
 -10  12  20  4.0000  5.7000   1
  10 -13   5 -2.8000  5.0000   1
  10 -13   4 -1.9000  6.5000   1
  10 -13   3  1.2000  4.9000   1
  10 -13   2 -5.4000  5.5000   1
  10 -13   1  7.9000  5.8000   1
  10 -13   0 41.4000  6.2000   1
  10 -13  -1  2.8000  3.5000   1
  10 -13  -2 29.8000  3.3000   1
  10 -13  -3  1.2000  4.1000   1
  10 -13  -4  0.5000  4.2000   1
  10 -13  -5  8.5000  3.0000   1
  10 -13  -6 24.1000  3.2000   1
  10 -13  -7 10.7000  3.3000   1
  10 -13  -8  8.0000  2.9000   1
  10 -13  -9 -3.3000  6.6000   1
  10 -13 -10  5.9000  4.8000   1
  10 -13 -11  3.4000  4.5000   1
  10 -13 -12 21.0000  5.1000   1
  10 -13 -13  5.5000  3.9000   1
  10 -13 -14  3.9000  4.7000   1
  10 -13 -15  2.7000  4.9000   1
  10 -13 -16 57.0000  5.7000   1
  10 -13 -17  5.2000  4.0000   1
  10 -13 -18  2.9000  4.3000   1
  10 -13 -19  7.6000  6.9000   1
  10 -14   3 10.9000  5.5000   1
  10 -14   2 -3.7000  4.8000   1
  10 -14   1  4.5000  6.3000   1
  10 -14   0 -2.7000  5.8000   1
  10 -14  -1  8.8000  4.3000   1
  10 -14  -2  8.9000  3.3000   1
  10 -14  -3 16.7000  3.5000   1
  10 -14  -4  6.6000  4.7000   1
  10 -14  -5  7.7000  5.0000   1
  10 -14  -6 32.5000  3.7000   1
  10 -14  -7  3.0000  3.4000   1
  10 -14  -8 13.9000  4.5000   1
  10 -14  -9  3.7000  4.8000   1
  10 -14 -10 14.2000  5.1000   1
  10 -14 -11  6.3000  3.3000   1
  10 -14 -12 22.3000  4.6000   1
  10 -14 -13 -1.5000  3.5000   1
  10 -14 -14 15.7000  4.4000   1
  10 -14 -15 19.0000  5.1000   1
  10 -14 -16  3.8000  7.2000   1
  10 -14 -17 26.2000  8.4000   1
  10 -14 -18 14.8000  8.1000   1
  10 -15   2 -5.1000  9.2000   1
  10 -15   1 -0.3000  8.7000   1
  10 -15   0 28.5000  9.5000   1
  10 -15  -1 20.7000  5.6000   1
  10 -15  -2  4.9000  4.2000   1
  10 -15  -3  2.0000  3.5000   1
  10 -15  -4  3.8000  3.8000   1
  10 -15  -5  7.8000  4.9000   1
  10 -15  -6 11.6000  8.4000   1
  10 -15  -7  4.3000  4.2000   1
  10 -15  -8 13.1000  8.5000   1
  10 -15  -9 -2.4000  5.2000   1
  10 -15 -10  6.4000  4.3000   1
  10 -15 -11  6.3000  5.0000   1
  10 -15 -12 12.5000  5.1000   1
  10 -15 -13 35.5000  7.5000   1
  10 -15 -14 51.2000  9.0000   1
  10 -15 -15 36.9000  9.3000   1
  10 -15 -16 -0.8000  5.3000   1
  10 -15 -17  2.7000  7.7000   1
  10 -16   0  9.2000  9.0000   1
  10 -16  -1 35.3000  7.9000   1
  10 -16  -2 141.800  14.400   1
  10 -16  -3 10.7000  6.1000   1
  10 -16  -4 45.9000  9.1000   1
  10 -16  -5  5.3000  7.2000   1
  10 -16  -6 10.2000  7.3000   1
  10 -16  -7 14.0000  6.3000   1
  10 -16  -8 120.800  13.500   1
  10 -16  -9 -6.8000  5.1000   1
  10 -16 -11  4.8000  7.2000   1
  10 -16 -12 93.4000 11.8000   1
  10 -16 -13 10.9000  7.7000   1
  10 -16 -14 -1.7000  7.0000   1
  10 -16 -15  4.5000  6.7000   1
  10 -17  -2 15.7000  7.0000   1
  10 -17  -3 12.1000  6.5000   1
  10 -17  -4 25.8000  9.4000   1
  10 -17  -5 22.2000  8.9000   1
  10 -17  -6 29.4000 10.0000   1
  10 -17  -7  4.9000  5.3000   1
  10 -17  -8 56.0000  9.6000   1
  10 -17 -11 -0.3000  7.7000   1
  10 -17 -12  1.6000  8.2000   1
  11   0   8  2.1000  5.2000   1
  11   0   7 -5.9000  4.5000   1
  11   0   6 61.1000  9.0000   1
  11   0   5 -7.1000  5.2000   1
  11   0   4 33.8000  3.9000   1
  11   0   3  0.9000  2.0000   1
  11   0   2 10.4000  2.4000   1
  11   0   1  1.7000  1.9000   1
  11   0   0 57.9000  2.8000   1
  11   0  -1  2.0000  1.6000   1
  11   0  -2 54.6000  2.8000   1
  11   0  -3  4.6000  1.8000   1
  11   0  -4 51.2000  2.9000   1
  11   0  -5  2.5000  1.8000   1
  11   0  -6 1745.60   35.50   1
  11   0  -7  9.1000  2.2000   1
  11   0  -8 265.500   6.700   1
  11   0  -9  4.8000  2.1000   1
  11   0 -10 486.300  12.200   1
  11   0 -11  1.6000  2.3000   1
  11   0 -12 155.400   6.300   1
  11   0 -13  1.9000  3.2000   1
  11   0 -14  2.0000  3.5000   1
  11   0 -15  3.4000  2.6000   1
  11   0 -16 14.9000  4.4000   1
  11   0 -18 37.6000  5.8000   1
  11   0 -20 21.8000  3.9000   1
  11   0 -21 -1.1000  3.7000   1
  11   0 -22 23.4000  5.8000   1
  11   0 -23 -7.5000  6.9000   1
  11   0 -24  5.3000  8.7000   1
  11  -1   8 22.6000  7.9000   1
 -11   1  -8 27.5000  5.9000   1
  11  -1   7 23.3000  5.3000   1
 -11   1  -7 14.2000  5.3000   1
  11  -1   6 17.5000  4.7000   1
 -11   1  -6 12.0000  4.7000   1
  11  -1   5 34.3000  7.4000   1
 -11   1  -5 50.6000  7.3000   1
  11  -1   4 32.1000  6.3000   1
 -11   1  -4 51.8000  6.3000   1
  11  -1   3 65.6000  4.5000   1
 -11   1  -3 58.5000  5.0000   1
  11  -1   2 -0.1000  1.8000   1
 -11   1  -2  0.6000  1.9000   1
  11  -1   1 92.8000  4.1000   1
 -11   1  -1 97.6000  3.5000   1
  11  -1   0 55.4000  2.7000   1
 -11   1   0 58.7000  3.3000   1
  11  -1  -1 136.200   4.300   1
 -11   1   1 135.300   4.400   1
  11  -1  -2  1.7000  1.8000   1
 -11   1   2  1.5000  1.9000   1
  11  -1  -3 29.0000  2.7000   1
 -11   1   3 29.2000  2.7000   1
  11  -1  -4  7.7000  2.1000   1
 -11   1   4  4.1000  2.0000   1
  11  -1  -5 376.100   9.500   1
 -11   1   5 388.400   9.200   1
  11  -1  -6 23.9000  2.5000   1
 -11   1   6 21.6000  3.1000   1
  11  -1  -7 76.4000  3.3000   1
 -11   1   7 76.6000  3.7000   1
  11  -1  -8 77.0000  3.4000   1
 -11   1   8 82.3000  3.4000   1
  11  -1  -9 1008.80   23.20   1
 -11   1   9 1003.50   23.50   1
  11  -1 -10 87.0000  4.1000   1
 -11   1  10 89.2000  4.2000   1
  11  -1 -11 84.9000  4.1000   1
 -11   1  11 87.3000  4.6000   1
  11  -1 -12  1.6000  3.4000   1
 -11   1  12  6.2000  3.6000   1
  11  -1 -13 124.400   5.400   1
 -11   1  13 142.200   7.600   1
  11  -1 -14 11.7000  3.5000   1
 -11   1  14  4.6000  3.1000   1
  11  -1 -15 187.900   8.100   1
 -11   1  15 190.500   9.400   1
  11  -1 -16 27.8000  3.9000   1
 -11   1  16 22.8000  3.9000   1
  11  -1 -17  4.4000  4.2000   1
 -11   1  18 21.9000  6.8000   1
 -11   1  19  3.9000  3.1000   1
  11  -1 -20 -3.1000  4.3000   1
 -11   1  20  7.4000  5.9000   1
  11  -1 -21 -4.4000  6.8000   1
 -11   1  21 -2.2000  4.0000   1
  11  -1 -22 13.4000  5.4000   1
  11  -1 -23  4.9000  3.7000   1
 -11   1  23 -9.2000  7.3000   1
  11  -1 -24 11.1000  8.7000   1
  11  -2   8  2.4000  5.3000   1
 -11   2  -8  9.9000  7.9000   1
  11  -2   7 12.9000  4.9000   1
 -11   2  -7 11.5000  4.4000   1
  11  -2   6 43.0000  5.2000   1
 -11   2  -6 43.3000  5.1000   1
  11  -2   5 14.1000  3.5000   1
 -11   2  -5 24.3000  5.6000   1
  11  -2   4 48.4000  4.9000   1
 -11   2  -4 50.5000  6.7000   1
  11  -2   3  2.2000  2.2000   1
 -11   2  -3  5.8000  2.7000   1
  11  -2   2 12.9000  2.3000   1
 -11   2  -2 12.8000  2.9000   1
  11  -2   1 13.6000  2.6000   1
 -11   2  -1  8.6000  2.5000   1
  11  -2   0  4.0000  2.2000   1
 -11   2   0  5.4000  3.5000   1
  11  -2  -1  8.2000  2.0000   1
 -11   2   1  5.2000  1.9000   1
  11  -2  -2 52.6000  3.0000   1
 -11   2   2 55.0000  3.2000   1
  11  -2  -3  8.0000  2.6000   1
 -11   2   3  4.8000  2.2000   1
  11  -2  -4 -0.9000  1.9000   1
 -11   2   4  2.0000  2.2000   1
  11  -2  -5 108.400   3.900   1
 -11   2   5 106.300   4.100   1
  11  -2  -6 239.300   6.600   1
 -11   2   6 257.600   7.800   1
  11  -2  -7 35.1000  2.4000   1
 -11   2   7 32.2000  2.6000   1
  11  -2  -8  3.8000  2.0000   1
 -11   2   8  8.7000  2.2000   1
  11  -2  -9 353.800  10.800   1
 -11   2   9 336.300  11.300   1
  11  -2 -10 592.600  16.000   1
 -11   2  10 597.100  17.800   1
  11  -2 -11 51.2000  3.4000   1
 -11   2  11 49.1000  4.6000   1
  11  -2 -12  6.0000  2.8000   1
 -11   2  12  7.1000  3.6000   1
  11  -2 -13  1.1000  2.2000   1
 -11   2  13  6.3000  2.8000   1
  11  -2 -14 27.4000  4.2000   1
 -11   2  14 33.4000  4.6000   1
  11  -2 -15  8.8000  2.5000   1
 -11   2  15 15.6000  3.2000   1
  11  -2 -16 19.0000  3.6000   1
 -11   2  16  6.8000  4.1000   1
 -11   2  17 49.9000  5.0000   1
 -11   2  18 -0.5000  4.7000   1
  11  -2 -19  0.6000  4.3000   1
 -11   2  19  7.8000  3.5000   1
  11  -2 -20 11.7000  4.0000   1
 -11   2  20  5.6000  4.4000   1
  11  -2 -21 26.2000  5.7000   1
 -11   2  21 22.6000  4.7000   1
  11  -2 -22 -4.1000  5.1000   1
  11  -2 -23  7.8000  4.2000   1
 -11   2  23  6.4000  7.1000   1
  11  -2 -24 25.1000  9.2000   1
 -11   2  24 22.1000  8.8000   1
  11  -3   8  1.0000  4.9000   1
  11  -3   7 19.0000  4.9000   1
 -11   3  -7 10.3000  4.4000   1
  11  -3   6 13.4000  4.4000   1
 -11   3  -6 10.8000  4.3000   1
  11  -3   5  5.9000  3.1000   1
 -11   3  -5  9.0000  4.8000   1
  11  -3   4 22.3000  7.2000   1
 -11   3  -4 30.4000  6.2000   1
  11  -3   3 -4.0000  3.1000   1
 -11   3  -3  7.6000  2.5000   1
  11  -3   2  0.8000  1.8000   1
 -11   3  -2  0.5000  2.5000   1
  11  -3   1  1.6000  2.7000   1
 -11   3  -1  1.9000  2.3000   1
  11  -3   0  3.2000  3.1000   1
 -11   3   0  1.7000  2.9000   1
  11  -3  -1 24.1000  3.7000   1
 -11   3   1 29.9000  3.1000   1
  11  -3  -2  7.3000  2.0000   1
 -11   3   2  7.0000  2.6000   1
  11  -3  -3  6.4000  2.2000   1
 -11   3   3  1.6000  2.0000   1
  11  -3  -4  5.4000  2.5000   1
 -11   3   4  0.4000  1.6000   1
  11  -3  -5 60.3000  3.1000   1
 -11   3   5 59.4000  3.8000   1
  11  -3  -6  4.7000  1.8000   1
 -11   3   6  3.2000  2.5000   1
  11  -3  -7 11.7000  2.0000   1
 -11   3   7 16.6000  2.1000   1
  11  -3  -8 123.500   4.700   1
 -11   3   8 122.600   4.400   1
  11  -3  -9 140.400   4.900   1
 -11   3   9 150.000   7.400   1
  11  -3 -10 144.200   5.100   1
 -11   3  10 151.200   8.200   1
  11  -3 -11 292.700  13.300   1
 -11   3  11 324.000  12.800   1
  11  -3 -12 -4.2000  4.8000   1
 -11   3  12  0.0000  4.9000   1
  11  -3 -13 104.500   5.700   1
 -11   3  13 105.700   9.100   1
  11  -3 -14  9.6000  2.9000   1
 -11   3  14  2.5000  5.6000   1
  11  -3 -15 332.900  15.000   1
 -11   3  15 335.800  19.200   1
  11  -3 -16 -3.3000  5.7000   1
 -11   3  16 -0.3000  3.1000   1
  11  -3 -17 23.8000  6.6000   1
 -11   3  17 20.3000  4.2000   1
  11  -3 -18 11.9000  3.3000   1
 -11   3  18  9.5000  3.5000   1
  11  -3 -19 127.000  11.900   1
 -11   3  19 150.700   7.800   1
  11  -3 -20  5.6000  4.0000   1
 -11   3  20 11.2000  4.2000   1
  11  -3 -21 20.5000  7.4000   1
 -11   3  21 15.9000  5.5000   1
  11  -3 -22 12.1000  6.0000   1
  11  -3 -23 15.6000  4.7000   1
 -11   3  23 17.5000  6.0000   1
  11  -3 -24  6.2000  6.1000   1
 -11   3  24-11.5000  7.3000   1
  11  -4   8  0.2000  4.7000   1
 -11   4  -8  3.2000  9.1000   1
  11  -4   7  6.5000  7.3000   1
 -11   4  -7 19.5000  6.3000   1
  11  -4   6 -2.5000  6.9000   1
 -11   4  -6  5.3000  4.4000   1
  11  -4   5  7.2000  3.9000   1
 -11   4  -5  7.6000  4.8000   1
  11  -4   4 13.3000  4.4000   1
 -11   4  -4  9.6000  3.5000   1
  11  -4   3 -3.4000  2.8000   1
 -11   4  -3 -1.1000  2.5000   1
  11  -4   2  1.8000  1.9000   1
 -11   4  -2  6.6000  2.6000   1
  11  -4   1 51.8000  3.4000   1
 -11   4  -1 56.4000  3.6000   1
  11  -4   0 27.2000  2.9000   1
 -11   4   0 29.9000  3.0000   1
  11  -4  -1 12.7000  2.6000   1
 -11   4   1 10.8000  2.7000   1
  11  -4  -2  0.6000  3.1000   1
 -11   4   2  0.6000  2.2000   1
  11  -4  -3 264.200   7.400   1
 -11   4   3 279.400   9.600   1
  11  -4  -4 84.8000  3.5000   1
 -11   4   4 82.4000  5.1000   1
  11  -4  -5 121.300   4.400   1
 -11   4   5 104.500   5.900   1
  11  -4  -6 -1.5000  1.7000   1
 -11   4   6  5.5000  2.1000   1
  11  -4  -7 494.100  13.800   1
 -11   4   7 504.400  17.500   1
  11  -4  -8 11.0000  2.1000   1
 -11   4   8  6.4000  2.7000   1
  11  -4  -9  6.7000  2.9000   1
 -11   4   9  5.0000  2.9000   1
  11  -4 -10  3.5000  2.9000   1
 -11   4  10  6.3000  3.5000   1
  11  -4 -11 213.400   8.100   1
 -11   4  11 207.000  10.100   1
  11  -4 -12 18.0000  3.0000   1
 -11   4  12 17.1000  5.3000   1
  11  -4 -13 103.800   6.300   1
 -11   4  13 111.000   8.900   1
  11  -4 -14 -4.7000  3.0000   1
 -11   4  14  0.1000  3.0000   1
  11  -4 -15 15.8000  4.3000   1
 -11   4  15 15.8000  3.3000   1
  11  -4 -16 -5.0000  6.0000   1
 -11   4  16 10.9000  4.5000   1
  11  -4 -17 51.2000  5.3000   1
 -11   4  17 59.5000  5.2000   1
  11  -4 -18 -2.1000  3.9000   1
 -11   4  18 -1.6000  3.7000   1
  11  -4 -19  7.6000  3.8000   1
 -11   4  19 13.9000  5.4000   1
  11  -4 -20  6.3000  6.7000   1
 -11   4  20 13.7000  6.9000   1
  11  -4 -21 16.7000  4.7000   1
  11  -4 -22  0.0000  5.5000   1
 -11   4  22 -8.3000  6.8000   1
  11  -4 -23 14.0000  5.9000   1
 -11   4  23  9.2000  7.7000   1
  11  -4 -24 -0.4000  4.4000   1
  11  -5   7  7.1000  4.6000   1
 -11   5  -7 -6.8000  8.0000   1
  11  -5   6 24.8000  8.3000   1
  11  -5   5 12.0000  4.8000   1
 -11   5  -5  7.7000  3.9000   1
  11  -5   4 10.9000  4.1000   1
 -11   5  -4  4.8000  4.6000   1
  11  -5   3 30.0000  4.2000   1
 -11   5  -3 26.1000  2.9000   1
  11  -5   2  1.3000  2.1000   1
 -11   5  -2 -1.1000  2.2000   1
  11  -5   1  0.3000  2.1000   1
 -11   5  -1 -4.0000  2.8000   1
  11  -5   0  6.9000  2.1000   1
 -11   5   0 15.1000  2.8000   1
  11  -5  -1 63.1000  3.5000   1
 -11   5   1 75.4000  4.3000   1
  11  -5  -2  1.5000  2.2000   1
 -11   5   2  3.4000  2.4000   1
  11  -5  -3  8.1000  2.6000   1
 -11   5   3  6.3000  2.2000   1
  11  -5  -4  3.4000  2.1000   1
 -11   5   4  3.0000  1.9000   1
  11  -5  -5 270.900  10.300   1
 -11   5   5 277.700  10.800   1
  11  -5  -6  5.8000  3.4000   1
 -11   5   6  3.5000  3.1000   1
  11  -5  -7 19.8000  2.6000   1
 -11   5   7 20.2000  2.8000   1
  11  -5  -8  9.1000  2.4000   1
 -11   5   8  1.7000  2.0000   1
  11  -5  -9 159.700   6.700   1
 -11   5   9 154.600  10.000   1
  11  -5 -10  8.2000  2.8000   1
 -11   5  10  8.9000  5.6000   1
  11  -5 -11 89.9000  4.3000   1
 -11   5  11 93.3000  5.4000   1
  11  -5 -12 165.500  13.400   1
 -11   5  12 170.200  13.500   1
  11  -5 -13  9.9000  4.2000   1
 -11   5  13 12.2000  6.6000   1
  11  -5 -14 12.1000  5.9000   1
 -11   5  14  2.5000  2.5000   1
  11  -5 -15 27.6000  6.4000   1
 -11   5  15 32.9000  3.8000   1
  11  -5 -16  5.4000  4.4000   1
 -11   5  16 -0.1000  2.8000   1
  11  -5 -17  2.8000  3.4000   1
 -11   5  17 -4.6000  4.1000   1
  11  -5 -18 -2.9000  3.4000   1
 -11   5  18  1.7000  4.7000   1
  11  -5 -19 28.8000  4.4000   1
  11  -5 -20  6.5000  7.0000   1
 -11   5  20 -4.1000  6.0000   1
  11  -5 -21 20.1000  4.8000   1
 -11   5  21 18.3000  6.5000   1
  11  -5 -22 26.0000  6.0000   1
  11  -5 -23 -0.5000  5.7000   1
 -11   5  23 21.9000  6.3000   1
  11  -6   7 54.9000  9.6000   1
 -11   6  -7 42.7000  9.7000   1
  11  -6   6 14.2000  8.2000   1
  11  -6   5 37.0000  4.7000   1
  11  -6   4 12.6000  4.3000   1
 -11   6  -4  1.0000  3.6000   1
  11  -6   3  1.6000  4.1000   1
 -11   6  -3  7.2000  3.8000   1
  11  -6   2 21.7000  4.5000   1
 -11   6  -2 28.6000  3.8000   1
  11  -6   1  6.8000  2.2000   1
 -11   6  -1  4.6000  2.5000   1
  11  -6   0 19.8000  2.6000   1
 -11   6   0 14.7000  2.5000   1
  11  -6  -1  4.0000  2.4000   1
 -11   6   1  4.3000  2.2000   1
  11  -6  -2  7.5000  2.5000   1
 -11   6   2 14.6000  5.9000   1
  11  -6  -3 50.4000  3.3000   1
 -11   6   3 58.4000  3.1000   1
  11  -6  -4  0.4000  2.1000   1
 -11   6   4  6.8000  2.1000   1
  11  -6  -5 142.300   6.100   1
 -11   6   5 128.700   6.600   1
  11  -6  -6 13.0000  3.0000   1
 -11   6   6 14.5000  2.5000   1
  11  -6  -7 136.600   5.200   1
 -11   6   7 142.800   6.400   1
  11  -6  -8 39.4000  2.8000   1
 -11   6   8 33.3000  3.5000   1
  11  -6  -9 119.100   4.900   1
 -11   6   9 123.000   6.500   1
  11  -6 -10  2.5000  2.4000   1
 -11   6  10  2.3000  3.7000   1
  11  -6 -11 133.700   7.700   1
 -11   6  11 131.400   6.700   1
  11  -6 -12  6.3000  3.4000   1
 -11   6  12  3.1000  2.5000   1
  11  -6 -13 181.000   8.300   1
 -11   6  13 165.600   8.100   1
  11  -6 -14  7.5000  5.7000   1
 -11   6  14  7.9000  2.4000   1
  11  -6 -15 -2.0000  3.9000   1
 -11   6  15 -4.4000  3.8000   1
  11  -6 -16  6.7000  4.9000   1
 -11   6  16  5.7000  3.0000   1
  11  -6 -17 30.7000  3.8000   1
  11  -6 -18  5.7000  4.0000   1
 -11   6  18  2.5000  4.8000   1
  11  -6 -19  8.9000  3.8000   1
 -11   6  19 12.4000  5.9000   1
  11  -6 -20 25.0000  5.0000   1
 -11   6  20 36.2000  7.2000   1
  11  -6 -21 -4.9000  4.8000   1
 -11   6  21 11.4000  6.7000   1
  11  -6 -22 19.0000  5.8000   1
 -11   6  22 28.8000  7.9000   1
  11  -6 -23  1.8000  4.9000   1
  11  -7   7 -5.1000  9.7000   1
  11  -7   6  4.2000  5.8000   1
  11  -7   5 -4.3000  7.3000   1
  11  -7   4  8.7000  4.7000   1
  11  -7   3 12.0000  4.4000   1
 -11   7  -3 15.2000  4.3000   1
  11  -7   2 11.5000  3.5000   1
 -11   7  -2  3.9000  2.6000   1
  11  -7   1  7.1000  2.1000   1
 -11   7  -1  8.3000  2.9000   1
  11  -7   0 19.6000  2.5000   1
 -11   7   0 26.4000  3.4000   1
  11  -7  -1 -1.5000  2.4000   1
 -11   7   1  0.6000  1.9000   1
  11  -7  -2 17.5000  2.8000   1
 -11   7   2 17.6000  2.7000   1
  11  -7  -3 12.2000  2.7000   1
 -11   7   3  9.6000  2.2000   1
  11  -7  -4  4.6000  2.3000   1
 -11   7   4  4.4000  1.8000   1
  11  -7  -5 65.8000  4.0000   1
 -11   7   5 70.5000  4.1000   1
  11  -7  -6 26.0000  3.4000   1
 -11   7   6 25.6000  2.5000   1
  11  -7  -7  9.4000  2.5000   1
 -11   7   7  4.2000  1.7000   1
  11  -7  -8  0.0000  2.5000   1
 -11   7   8  5.8000  1.9000   1
  11  -7  -9 37.7000  3.0000   1
 -11   7   9 40.9000  2.8000   1
  11  -7 -10 77.3000  3.8000   1
 -11   7  10 85.8000  5.6000   1
  11  -7 -11  5.3000  3.0000   1
 -11   7  11  7.2000  2.5000   1
  11  -7 -12  5.5000  4.3000   1
 -11   7  12 10.2000  2.9000   1
  11  -7 -13 37.0000  4.2000   1
 -11   7  13 33.5000  4.4000   1
  11  -7 -14 32.8000  4.8000   1
  11  -7 -15 13.8000  3.8000   1
  11  -7 -16 -0.1000  4.2000   1
  11  -7 -17 -6.4000  4.3000   1
 -11   7  17 -2.2000  3.9000   1
  11  -7 -18  6.2000  3.8000   1
 -11   7  18  6.9000  4.9000   1
  11  -7 -19 36.7000  5.6000   1
  11  -7 -20 -0.1000  3.9000   1
 -11   7  20 -2.7000  5.4000   1
  11  -7 -21 19.2000  4.6000   1
 -11   7  21 26.7000  7.4000   1
  11  -7 -22  3.3000  4.4000   1
 -11   7  22  2.3000  6.7000   1
  11  -7 -23 -0.9000  6.6000   1
 -11   7  23-12.3000  7.2000   1
  11  -8   6 59.3000  7.4000   1
  11  -8   5 13.9000  5.0000   1
  11  -8   4 -3.1000  4.6000   1
  11  -8   3 -1.2000  4.7000   1
  11  -8   2 39.9000  5.9000   1
  11  -8   1 22.3000  5.3000   1
 -11   8  -1 34.0000  4.1000   1
  11  -8   0 -0.9000  2.0000   1
 -11   8   0  2.7000  2.7000   1
  11  -8  -1  2.7000  2.2000   1
 -11   8   1  7.4000  3.3000   1
  11  -8  -2 31.8000  2.8000   1
 -11   8   2 35.3000  3.0000   1
  11  -8  -3 11.0000  2.6000   1
 -11   8   3 16.3000  2.1000   1
  11  -8  -4 21.0000  2.5000   1
 -11   8   4 21.0000  2.6000   1
  11  -8  -5 33.6000  3.5000   1
 -11   8   5 35.3000  2.6000   1
  11  -8  -6 41.8000  3.9000   1
 -11   8   6 36.2000  2.8000   1
  11  -8  -7  1.4000  2.8000   1
 -11   8   7  1.1000  1.9000   1
  11  -8  -8  0.5000  2.7000   1
 -11   8   8  0.8000  2.1000   1
  11  -8  -9 12.8000  2.5000   1
 -11   8   9 12.8000  2.0000   1
  11  -8 -10  2.0000  2.3000   1
 -11   8  10  7.3000  2.5000   1
  11  -8 -11  4.5000  2.8000   1
 -11   8  11  1.2000  2.1000   1
  11  -8 -12 26.4000  3.6000   1
 -11   8  12 22.5000  3.5000   1
  11  -8 -13  3.0000  5.3000   1
 -11   8  13  0.6000  2.7000   1
  11  -8 -14 13.9000  4.6000   1
 -11   8  14  5.4000  3.4000   1
  11  -8 -15 -2.4000  4.3000   1
 -11   8  15 -1.2000  3.3000   1
  11  -8 -16 12.0000  4.0000   1
 -11   8  16 15.2000  5.0000   1
  11  -8 -17  6.9000  4.6000   1
  11  -8 -18  5.2000  4.6000   1
 -11   8  18 15.5000  5.2000   1
  11  -8 -19  6.5000  5.1000   1
 -11   8  19  2.3000  5.5000   1
  11  -8 -20 -2.6000  4.8000   1
 -11   8  20  4.5000  6.0000   1
  11  -8 -21 31.3000  5.8000   1
 -11   8  21 49.6000  8.7000   1
  11  -8 -22 113.000   9.900   1
 -11   8  22 99.1000 12.0000   1
  11  -9   6 39.3000  8.1000   1
  11  -9   5  0.1000  5.8000   1
  11  -9   4 -8.6000  5.2000   1
  11  -9   3-13.0000  5.1000   1
  11  -9   2  5.1000  4.4000   1
  11  -9   1 26.6000  5.3000   1
 -11   9  -1 24.0000  3.5000   1
  11  -9   0  5.7000  5.6000   1
 -11   9   0 23.1000  3.1000   1
  11  -9  -1 -0.2000  3.2000   1
 -11   9   1  2.3000  2.8000   1
  11  -9  -2  9.3000  2.6000   1
 -11   9   2  5.8000  3.0000   1
  11  -9  -3 47.1000  3.6000   1
 -11   9   3 46.5000  5.7000   1
  11  -9  -4 38.0000  3.8000   1
 -11   9   4 44.7000  2.7000   1
  11  -9  -5  6.7000  2.6000   1
 -11   9   5  1.5000  1.5000   1
  11  -9  -6 -0.2000  2.4000   1
 -11   9   6  4.7000  1.7000   1
  11  -9  -7 20.3000  2.9000   1
 -11   9   7 23.2000  1.8000   1
  11  -9  -8  3.7000  2.6000   1
 -11   9   8 -0.2000  1.7000   1
  11  -9  -9  2.7000  2.4000   1
 -11   9   9 -2.2000  1.4000   1
  11  -9 -10  3.2000  3.4000   1
 -11   9  10  5.3000  2.0000   1
  11  -9 -11  1.4000  2.8000   1
  11  -9 -12  2.9000  4.1000   1
 -11   9  12  3.3000  2.6000   1
  11  -9 -13  4.8000  3.8000   1
 -11   9  13 -0.6000  2.7000   1
  11  -9 -14  2.5000  3.4000   1
 -11   9  14  6.7000  3.4000   1
  11  -9 -15 -4.2000  4.2000   1
 -11   9  15  5.0000  4.1000   1
  11  -9 -16  2.4000  4.2000   1
 -11   9  16  5.4000  3.6000   1
  11  -9 -17  0.9000  4.1000   1
 -11   9  17  5.7000  4.2000   1
  11  -9 -18 38.4000  5.6000   1
 -11   9  18 37.5000  6.5000   1
  11  -9 -19 15.1000  5.7000   1
 -11   9  19 18.4000  5.2000   1
  11  -9 -20 58.8000  9.9000   1
 -11   9  20 56.8000  8.0000   1
  11  -9 -21  3.3000  7.5000   1
 -11   9  21 -6.0000  5.9000   1
  11  -9 -22  3.6000  8.2000   1
 -11   9  22 10.9000  7.3000   1
  11 -10   5 46.5000  7.1000   1
  11 -10   4 23.1000  6.2000   1
  11 -10   3  4.0000  5.6000   1
  11 -10   2  7.1000  4.9000   1
  11 -10   1 22.2000  4.8000   1
  11 -10   0  9.3000  3.9000   1
  11 -10  -1 -0.4000  3.1000   1
 -11  10   1  6.0000  3.0000   1
  11 -10  -2 32.3000  4.5000   1
 -11  10   2 36.6000  4.4000   1
  11 -10  -3 57.9000  4.2000   1
 -11  10   3 70.8000  6.9000   1
  11 -10  -4  0.2000  2.4000   1
 -11  10   4  3.1000  3.1000   1
  11 -10  -5  3.6000  2.6000   1
 -11  10   5  1.3000  3.4000   1
  11 -10  -6 -2.2000  2.8000   1
 -11  10   6  2.9000  3.8000   1
  11 -10  -7 23.8000  3.0000   1
 -11  10   7 36.2000  5.0000   1
  11 -10  -8  3.6000  2.6000   1
 -11  10   8  3.4000  1.5000   1
  11 -10  -9  9.8000  3.2000   1
  11 -10 -10  6.8000  3.7000   1
 -11  10  10  5.2000  1.6000   1
  11 -10 -11 28.4000  4.8000   1
 -11  10  11 22.6000  3.6000   1
  11 -10 -12  1.0000  3.6000   1
  11 -10 -13 91.7000  6.3000   1
 -11  10  13 95.9000  7.4000   1
  11 -10 -14 11.5000  4.1000   1
 -11  10  14  6.1000  3.2000   1
  11 -10 -15 29.9000  5.2000   1
 -11  10  15 14.3000  4.1000   1
  11 -10 -16 -3.1000  4.6000   1
  11 -10 -17 12.1000  5.1000   1
 -11  10  17 17.0000  5.6000   1
  11 -10 -18 -0.3000  4.8000   1
 -11  10  18  4.6000  4.4000   1
  11 -10 -19  7.5000  6.0000   1
 -11  10  19 -8.9000  5.1000   1
  11 -10 -20  7.5000  7.9000   1
 -11  10  20 16.4000  5.8000   1
  11 -10 -21 21.4000  5.6000   1
  11 -11   4 -0.2000  5.3000   1
  11 -11   3 13.4000  6.5000   1
  11 -11   2  4.2000  4.6000   1
  11 -11   1 -4.8000  5.1000   1
  11 -11   0 13.5000  4.5000   1
  11 -11  -1 31.2000  6.0000   1
  11 -11  -2  4.2000  3.1000   1
  11 -11  -3  5.1000  3.9000   1
  11 -11  -4 -3.8000  3.0000   1
  11 -11  -5 16.6000  3.3000   1
  11 -11  -6 12.8000  2.6000   1
  11 -11  -7 20.2000  3.7000   1
  11 -11  -8  2.4000  3.5000   1
  11 -11  -9  7.4000  3.6000   1
  11 -11 -10  7.6000  3.8000   1
 -11  11  10  6.0000  2.0000   1
  11 -11 -11 13.1000  4.8000   1
 -11  11  11 10.3000  2.6000   1
  11 -11 -12  4.6000  4.6000   1
 -11  11  12  3.1000  2.5000   1
  11 -11 -13 41.6000  5.3000   1
 -11  11  13 32.1000  4.0000   1
  11 -11 -14  3.2000  3.3000   1
 -11  11  14 12.0000  3.3000   1
  11 -11 -15  8.8000  4.2000   1
 -11  11  15 18.1000  3.7000   1
  11 -11 -16  6.5000  4.3000   1
 -11  11  16  3.7000  3.2000   1
  11 -11 -17 -3.7000  3.5000   1
  11 -11 -18  0.5000  4.3000   1
 -11  11  18 -3.2000  4.1000   1
  11 -11 -19  4.6000  7.6000   1
 -11  11  19 16.1000  5.4000   1
  11 -11 -20 75.6000 11.5000   1
 -11  11  20 60.9000  8.2000   1
  11 -12   3  5.4000  6.2000   1
  11 -12   2 -5.7000  5.8000   1
  11 -12   1 10.5000  4.9000   1
  11 -12   0 -1.4000  5.6000   1
  11 -12  -1 -1.2000  4.4000   1
  11 -12  -2  5.8000  3.9000   1
  11 -12  -3 51.6000  4.6000   1
  11 -12  -4  3.0000  2.9000   1
  11 -12  -5 12.4000  4.8000   1
  11 -12  -6  5.2000  3.8000   1
  11 -12  -7 35.5000  3.4000   1
  11 -12  -8 54.0000  5.1000   1
  11 -12  -9 102.700  10.400   1
  11 -12 -10  5.0000  4.7000   1
  11 -12 -11 35.9000  5.3000   1
  11 -12 -12 10.0000  7.9000   1
  11 -12 -13 84.8000  6.6000   1
  11 -12 -14  5.7000  4.4000   1
  11 -12 -15 27.1000  6.0000   1
  11 -12 -16 -6.6000  5.2000   1
  11 -12 -17 117.800  12.100   1
  11 -12 -18 -3.5000  8.0000   1
  11 -12 -19 22.9000  7.7000   1
  11 -13   2 35.0000  7.6000   1
  11 -13   1 10.9000  6.2000   1
  11 -13   0 14.5000  5.1000   1
  11 -13  -1 54.5000  9.9000   1
  11 -13  -2 -4.6000  5.3000   1
  11 -13  -3 12.8000  5.5000   1
  11 -13  -4  5.9000  4.9000   1
  11 -13  -5 50.7000  4.9000   1
  11 -13  -6 31.8000  4.2000   1
  11 -13  -7 16.2000  5.2000   1
  11 -13  -8 13.9000  3.9000   1
  11 -13  -9 24.7000  5.1000   1
  11 -13 -10 18.6000  4.3000   1
  11 -13 -11 95.8000  7.7000   1
  11 -13 -12  8.7000  4.5000   1
  11 -13 -13  6.0000  4.2000   1
  11 -13 -14  2.3000  4.5000   1
  11 -13 -15 89.0000 11.0000   1
  11 -13 -16  7.8000  5.2000   1
  11 -13 -17 -3.9000  5.6000   1
  11 -13 -18  9.2000  8.2000   1
  11 -14   0 -5.2000  5.7000   1
  11 -14  -1 17.7000  9.8000   1
  11 -14  -2  3.6000  9.3000   1
  11 -14  -4 -2.1000  8.9000   1
  11 -14  -5-13.1000  8.1000   1
  11 -14  -6 -0.5000  3.8000   1
  11 -14  -7  8.8000  8.1000   1
  11 -14  -8 -0.1000  8.5000   1
  11 -14  -9  9.9000  4.7000   1
  11 -14 -10  2.9000  7.2000   1
  11 -14 -11  4.3000  7.4000   1
  11 -14 -12  9.9000  5.1000   1
  11 -14 -13 18.3000  8.5000   1
  11 -14 -14 -5.6000  7.2000   1
  11 -14 -15  9.6000  7.7000   1
  11 -14 -16  6.6000  7.9000   1
  11 -14 -17 60.5000 10.4000   1
  11 -15  -1 44.7000 11.0000   1
  11 -15  -2 -0.3000  8.6000   1
  11 -15  -3  6.2000  8.4000   1
  11 -15  -4  1.3000  8.0000   1
  11 -15  -7  4.2000  4.7000   1
  11 -15  -8  0.7000  7.8000   1
  11 -15  -9 27.1000  6.9000   1
  11 -15 -10 10.4000  8.3000   1
  11 -15 -11 46.3000  9.2000   1
  11 -15 -12 20.3000  8.1000   1
  11 -15 -13 20.1000  8.6000   1
  11 -15 -14  1.0000  8.0000   1
  11 -15 -15 55.2000  9.8000   1
  11 -16  -6  3.6000  8.7000   1
  11 -16  -7  0.9000  5.4000   1
  11 -16 -10  7.7000  8.7000   1
  11 -16 -11 -0.6000  5.9000   1
  11 -16 -12 20.1000  9.1000   1
  12   0   6  6.0000  6.9000   1
  12   0   5 -4.5000  6.4000   1
  12   0   4 29.4000  7.7000   1
  12   0   3 18.6000  6.6000   1
  12   0   2 115.600   7.000   1
  12   0   1  0.3000  2.5000   1
  12   0   0 126.100   5.700   1
  12   0  -1 -4.3000  2.4000   1
  12   0  -2 21.4000  3.2000   1
  12   0  -3  2.0000  2.4000   1
  12   0  -4 162.100   6.600   1
  12   0  -5  3.5000  2.8000   1
  12   0  -6 -1.3000  2.7000   1
  12   0  -7  2.8000  2.7000   1
  12   0  -8 259.800   9.200   1
  12   0  -9  0.5000  2.1000   1
  12   0 -10  7.2000  3.2000   1
  12   0 -11 -2.3000  2.2000   1
  12   0 -12 69.2000  4.7000   1
  12   0 -13  2.4000  3.0000   1
  12   0 -14  6.4000  3.4000   1
  12   0 -15  6.4000  4.1000   1
  12   0 -16  5.9000  6.4000   1
  12   0 -17 -5.3000  4.2000   1
  12   0 -19  2.1000  4.3000   1
  12   0 -21 11.0000  7.2000   1
  12   0 -22 38.9000  5.1000   1
  12   0 -23 -3.8000  8.2000   1
  12  -1   6  4.5000  7.1000   1
 -12   1  -6  1.9000  6.3000   1
  12  -1   5 14.5000  7.6000   1
 -12   1  -5 13.6000  5.9000   1
  12  -1   4 71.1000 10.2000   1
 -12   1  -4 58.6000  8.7000   1
  12  -1   3 -3.8000  3.0000   1
 -12   1  -3 -4.6000  5.7000   1
  12  -1   2  7.7000  5.8000   1
 -12   1  -2  7.8000  5.0000   1
  12  -1   1 14.8000  2.9000   1
 -12   1  -1 14.4000  5.8000   1
  12  -1   0 84.0000  4.8000   1
 -12   1   0 79.3000  5.7000   1
  12  -1  -1 32.0000  3.5000   1
 -12   1   1 19.5000  2.4000   1
  12  -1  -2 10.1000  3.0000   1
 -12   1   2 11.9000  2.2000   1
  12  -1  -3 30.4000  2.6000   1
 -12   1   3 31.1000  2.8000   1
  12  -1  -4 145.300   5.700   1
 -12   1   4 150.900   5.200   1
  12  -1  -5  5.3000  2.4000   1
 -12   1   5 10.7000  2.8000   1
  12  -1  -6 56.4000  3.6000   1
 -12   1   6 50.0000  3.6000   1
  12  -1  -7 163.600   6.300   1
 -12   1   7 168.800   7.100   1
  12  -1  -8  9.6000  2.2000   1
 -12   1   8  4.9000  2.9000   1
  12  -1  -9  4.1000  2.8000   1
 -12   1   9  3.3000  2.3000   1
  12  -1 -10 605.200  30.400   1
 -12   1  10 598.300  19.400   1
  12  -1 -11 80.1000  5.3000   1
 -12   1  11 76.2000  5.6000   1
  12  -1 -12 134.400   6.100   1
 -12   1  12 115.900   7.100   1
  12  -1 -13 22.1000  4.0000   1
 -12   1  13 30.3000  4.9000   1
  12  -1 -14 219.400  11.000   1
 -12   1  14 216.100  10.100   1
  12  -1 -15 13.1000  4.6000   1
 -12   1  15 10.9000  5.6000   1
 -12   1  16 209.000  16.800   1
 -12   1  17  4.7000  6.5000   1
 -12   1  18 38.9000  6.6000   1
  12  -1 -19 12.0000  5.5000   1
 -12   1  19 20.6000  7.0000   1
  12  -1 -20 127.500  12.100   1
 -12   1  20 116.300   8.200   1
  12  -1 -21 19.2000  8.2000   1
  12  -1 -22  3.0000  6.0000   1
 -12   1  22  8.6000  4.6000   1
  12  -1 -23  1.9000  6.2000   1
 -12   1  23  5.1000  5.7000   1
  12  -2   6 56.0000  9.3000   1
 -12   2  -6 45.7000  7.7000   1
  12  -2   5  6.1000  6.9000   1
 -12   2  -5  6.3000  6.2000   1
  12  -2   4 -1.2000  6.6000   1
 -12   2  -4  2.6000  5.5000   1
  12  -2   3 12.2000  3.8000   1
 -12   2  -3 19.8000  5.8000   1
  12  -2   2  7.9000  3.5000   1
 -12   2  -2  2.8000  3.1000   1
  12  -2   1 31.5000  3.4000   1
 -12   2  -1 30.1000  3.9000   1
  12  -2   0  0.9000  2.3000   1
 -12   2   0 -0.1000  2.8000   1
  12  -2  -1  2.7000  2.6000   1
 -12   2   1  7.7000  3.8000   1
  12  -2  -2 21.4000  3.4000   1
 -12   2   2 20.5000  2.9000   1
  12  -2  -3 14.4000  2.5000   1
 -12   2   3 12.6000  2.9000   1
  12  -2  -4 11.6000  2.5000   1
 -12   2   4 18.4000  3.0000   1
  12  -2  -5 23.6000  3.4000   1
 -12   2   5 20.3000  3.7000   1
  12  -2  -6 10.0000  2.2000   1
 -12   2   6 14.7000  3.6000   1
  12  -2  -7 51.6000  2.9000   1
 -12   2   7 54.4000  3.5000   1
  12  -2  -8  6.8000  3.1000   1
 -12   2   8 16.3000  3.6000   1
  12  -2  -9 16.5000  2.8000   1
 -12   2   9 17.1000  4.0000   1
  12  -2 -10 103.900   8.800   1
 -12   2  10 86.1000  5.9000   1
  12  -2 -11 33.0000  3.4000   1
 -12   2  11 30.5000  5.2000   1
  12  -2 -12 215.900   8.800   1
 -12   2  12 198.300  13.200   1
  12  -2 -13  9.5000  3.0000   1
 -12   2  13 10.9000  3.7000   1
  12  -2 -14 73.4000  8.0000   1
 -12   2  14 88.4000  9.6000   1
  12  -2 -15  8.1000  6.3000   1
 -12   2  15  5.8000  4.8000   1
  12  -2 -16 142.300   8.600   1
 -12   2  16 169.300  12.400   1
 -12   2  17 -3.0000  4.2000   1
 -12   2  18 47.7000  8.2000   1
  12  -2 -19  7.2000  4.5000   1
 -12   2  19  3.1000  4.3000   1
 -12   2  20 -0.5000  6.3000   1
  12  -2 -21 23.6000  5.3000   1
 -12   2  21 20.0000  5.6000   1
  12  -2 -22 -0.6000  4.5000   1
 -12   2  22  1.4000  4.9000   1
  12  -2 -23 21.3000  6.1000   1
 -12   2  23  9.1000  8.1000   1
  12  -3   6 19.1000  6.1000   1
  12  -3   5 11.5000  7.1000   1
 -12   3  -5  7.6000  5.9000   1
  12  -3   4  0.4000  6.9000   1
 -12   3  -4  5.1000  5.0000   1
  12  -3   3 16.2000  3.8000   1
 -12   3  -3 11.0000  5.8000   1
  12  -3   2  3.4000  4.4000   1
 -12   3  -2 -0.4000  3.2000   1
  12  -3   1 41.8000  4.1000   1
 -12   3  -1 55.6000  3.9000   1
  12  -3   0 -1.3000  3.1000   1
 -12   3   0  1.1000  2.7000   1
  12  -3  -1 46.4000  3.7000   1
 -12   3   1 64.2000  4.9000   1
  12  -3  -2  1.6000  2.8000   1
 -12   3   2  0.0000  2.6000   1
  12  -3  -3  7.5000  2.6000   1
 -12   3   3  6.3000  2.6000   1
  12  -3  -4 22.5000  3.1000   1
 -12   3   4 19.7000  3.0000   1
  12  -3  -5  7.3000  2.5000   1
 -12   3   5  8.8000  2.8000   1
  12  -3  -6  4.9000  2.1000   1
 -12   3   6  4.2000  3.0000   1
  12  -3  -7  0.2000  3.0000   1
 -12   3   7  0.4000  2.3000   1
  12  -3  -8  7.3000  2.7000   1
 -12   3   8  2.2000  3.3000   1
  12  -3  -9  1.8000  4.0000   1
 -12   3   9 -1.7000  2.9000   1
  12  -3 -10 14.0000  3.6000   1
 -12   3  10 30.9000  6.2000   1
  12  -3 -11  6.5000  3.3000   1
 -12   3  11  3.8000  4.5000   1
  12  -3 -12 22.2000  3.6000   1
 -12   3  12 35.3000  4.6000   1
  12  -3 -13  8.8000  4.1000   1
 -12   3  13  5.9000  3.2000   1
  12  -3 -14 14.3000  5.5000   1
  12  -3 -15  5.1000  3.7000   1
  12  -3 -16 17.7000  5.9000   1
 -12   3  16 -0.6000  4.3000   1
  12  -3 -17 10.0000  6.9000   1
 -12   3  17 10.7000  5.1000   1
  12  -3 -18 -1.4000  3.9000   1
  12  -3 -19 11.5000  7.2000   1
 -12   3  19 20.3000  4.3000   1
 -12   3  20 13.7000  5.6000   1
  12  -3 -21  1.6000  4.5000   1
 -12   3  21 15.8000  6.2000   1
  12  -3 -22 -0.5000  4.7000   1
 -12   3  22 13.5000  7.1000   1
  12  -3 -23 40.3000  6.6000   1
 -12   3  23 12.2000  7.9000   1
  12  -4   6 19.7000  9.1000   1
  12  -4   5 -9.0000  7.8000   1
  12  -4   4  1.6000  7.5000   1
 -12   4  -4  1.0000  4.9000   1
  12  -4   3 40.6000  5.3000   1
 -12   4  -3 44.2000  7.4000   1
  12  -4   2 -1.5000  3.7000   1
 -12   4  -2  4.0000  3.6000   1
  12  -4   1 -2.1000  3.1000   1
 -12   4  -1 -3.7000  3.2000   1
  12  -4   0  1.3000  2.6000   1
 -12   4   0 -3.9000  2.9000   1
  12  -4  -1  8.4000  2.6000   1
 -12   4   1  6.8000  3.2000   1
  12  -4  -2  7.7000  2.9000   1
 -12   4   2  7.1000  3.0000   1
  12  -4  -3  5.0000  2.7000   1
 -12   4   3  2.5000  2.9000   1
  12  -4  -4 73.9000  4.3000   1
 -12   4   4 77.6000  4.3000   1
  12  -4  -5 13.0000  2.8000   1
 -12   4   5 11.7000  2.8000   1
  12  -4  -6  4.8000  2.2000   1
 -12   4   6  2.2000  2.1000   1
  12  -4  -7 45.5000  4.0000   1
 -12   4   7 48.5000  4.4000   1
  12  -4  -8 94.4000  6.2000   1
 -12   4   8 101.400   6.600   1
  12  -4  -9  7.2000  2.9000   1
 -12   4   9 10.4000  3.4000   1
  12  -4 -10  3.4000  3.9000   1
 -12   4  10  1.1000  3.0000   1
  12  -4 -11 15.4000  3.7000   1
 -12   4  11 10.3000  3.1000   1
  12  -4 -12  7.3000  3.3000   1
 -12   4  12 17.0000  6.9000   1
  12  -4 -13  2.1000  3.3000   1
  12  -4 -14 -1.9000  2.8000   1
 -12   4  14  7.5000  4.4000   1
  12  -4 -15 -1.5000  4.0000   1
  12  -4 -16 34.0000  5.7000   1
 -12   4  16 40.9000  6.8000   1
  12  -4 -17  4.9000  4.6000   1
 -12   4  17 12.4000  3.3000   1
  12  -4 -18  5.5000  5.8000   1
 -12   4  18  2.9000  5.1000   1
  12  -4 -19  1.3000  6.5000   1
  12  -4 -20  0.6000  6.4000   1
 -12   4  20 -2.5000  4.7000   1
  12  -4 -21 -4.4000  4.9000   1
 -12   4  21  4.5000  6.9000   1
  12  -4 -22  2.4000  4.4000   1
 -12   4  22 -7.3000  7.0000   1
  12  -4 -23  1.2000  4.6000   1
 -12   4  23 14.8000  9.3000   1
  12  -5   5 10.6000  8.4000   1
  12  -5   4 20.7000  8.8000   1
  12  -5   3 19.4000  5.0000   1
 -12   5  -3 19.8000  5.9000   1
  12  -5   2  9.1000  4.5000   1
 -12   5  -2  4.0000  3.4000   1
  12  -5   1 -7.9000  6.3000   1
 -12   5  -1  1.9000  3.7000   1
  12  -5   0 -0.9000  4.3000   1
 -12   5   0  0.7000  3.3000   1
  12  -5  -1  9.0000  2.8000   1
 -12   5   1 11.0000  2.5000   1
  12  -5  -2  3.4000  2.6000   1
 -12   5   2  4.5000  2.2000   1
  12  -5  -3  9.5000  2.5000   1
 -12   5   3 11.5000  2.3000   1
  12  -5  -4 -7.2000  2.7000   1
 -12   5   4  1.0000  2.7000   1
  12  -5  -5 -0.3000  2.5000   1
 -12   5   5 -2.1000  2.2000   1
  12  -5  -6  2.8000  3.0000   1
 -12   5   6  1.9000  2.3000   1
  12  -5  -7 22.2000  2.8000   1
 -12   5   7 16.6000  3.1000   1
  12  -5  -8 25.1000  5.7000   1
 -12   5   8 27.8000  3.3000   1
  12  -5  -9 23.1000  3.1000   1
 -12   5   9 24.1000  2.8000   1
  12  -5 -10 24.6000  4.7000   1
 -12   5  10 24.3000  3.1000   1
  12  -5 -11 86.0000  5.2000   1
 -12   5  11 76.3000  5.5000   1
  12  -5 -12 37.4000  4.8000   1
  12  -5 -13 12.6000  5.9000   1
  12  -5 -14  3.9000  3.5000   1
  12  -5 -15 43.1000  8.0000   1
 -12   5  15 43.1000  4.1000   1
  12  -5 -16 13.6000  7.3000   1
 -12   5  16  7.1000  4.1000   1
  12  -5 -17 -3.0000  3.8000   1
 -12   5  17 -0.9000  2.9000   1
  12  -5 -18  2.4000  3.8000   1
  12  -5 -19 26.4000  5.0000   1
 -12   5  19 28.9000  6.4000   1
  12  -5 -20 15.7000  6.7000   1
  12  -5 -21 10.3000  7.5000   1
 -12   5  21  4.3000  6.2000   1
  12  -5 -22  3.4000  4.5000   1
 -12   5  22 -3.8000  6.1000   1
  12  -5 -23 23.5000  5.7000   1
 -12   5  23 19.7000  8.7000   1
  12  -6   5  7.9000  8.6000   1
  12  -6   4 -3.5000  4.8000   1
  12  -6   3 -6.9000  4.2000   1
  12  -6   2  8.8000  4.8000   1
 -12   6  -2  1.6000  3.5000   1
  12  -6   1 44.2000  5.4000   1
 -12   6  -1 33.3000  4.4000   1
  12  -6   0 47.8000  5.9000   1
 -12   6   0 52.8000  5.1000   1
  12  -6  -1  3.0000  2.3000   1
 -12   6   1  2.8000  3.4000   1
  12  -6  -2 13.4000  2.8000   1
 -12   6   2  6.2000  3.4000   1
  12  -6  -3 13.6000  2.7000   1
 -12   6   3 17.4000  2.6000   1
  12  -6  -4 176.700   7.700   1
 -12   6   4 186.000   7.200   1
  12  -6  -5  5.3000  2.9000   1
 -12   6   5 -1.8000  2.5000   1
  12  -6  -6 55.4000  4.4000   1
 -12   6   6 48.5000  3.6000   1
  12  -6  -7  4.2000  2.4000   1
 -12   6   7  2.9000  2.3000   1
  12  -6  -8 31.1000  4.8000   1
 -12   6   8 32.3000  3.1000   1
  12  -6  -9 -4.3000  5.4000   1
 -12   6   9  3.6000  2.1000   1
  12  -6 -10 21.7000  3.5000   1
 -12   6  10 13.1000  2.7000   1
  12  -6 -11  5.1000  3.0000   1
 -12   6  11  0.7000  3.1000   1
  12  -6 -12 11.4000  3.6000   1
 -12   6  12 13.1000  5.9000   1
  12  -6 -13  8.4000  3.6000   1
 -12   6  13  8.1000  3.9000   1
  12  -6 -14  0.3000  3.7000   1
 -12   6  14  9.6000  3.6000   1
  12  -6 -15 40.1000  7.0000   1
  12  -6 -16 21.4000  5.4000   1
 -12   6  16 25.0000  5.6000   1
  12  -6 -17 17.9000  5.0000   1
 -12   6  17 20.9000  5.9000   1
  12  -6 -18 32.2000  5.0000   1
  12  -6 -19  5.4000  4.8000   1
 -12   6  19 11.3000  5.7000   1
  12  -6 -20  4.3000  7.0000   1
 -12   6  20-10.3000  6.1000   1
  12  -6 -21 20.1000  8.4000   1
  12  -6 -22  9.5000  8.3000   1
 -12   6  22  0.2000  6.8000   1
  12  -7   4 34.5000  7.1000   1
  12  -7   3  0.4000  4.7000   1
  12  -7   2 32.7000  5.5000   1
  12  -7   1 12.6000  4.7000   1
 -12   7  -1  6.6000  3.5000   1
  12  -7   0 10.4000  5.0000   1
 -12   7   0  4.0000  3.2000   1
  12  -7  -1 11.2000  3.4000   1
 -12   7   1  4.1000  2.9000   1
  12  -7  -2 19.0000  3.1000   1
 -12   7   2 21.7000  4.0000   1
  12  -7  -3 14.7000  3.0000   1
 -12   7   3 19.2000  3.8000   1
  12  -7  -4 22.7000  3.4000   1
 -12   7   4 20.3000  4.0000   1
  12  -7  -5 31.5000  3.7000   1
 -12   7   5 23.8000  2.8000   1
  12  -7  -6 157.100   7.500   1
 -12   7   6 165.600   6.900   1
  12  -7  -7 10.3000  2.8000   1
 -12   7   7 17.0000  2.7000   1
  12  -7  -8  1.0000  3.1000   1
 -12   7   8  8.5000  4.8000   1
  12  -7  -9 68.2000  6.1000   1
 -12   7   9 83.5000  5.2000   1
  12  -7 -10 66.1000  5.1000   1
 -12   7  10 66.8000  6.3000   1
  12  -7 -11 15.8000  3.3000   1
 -12   7  12 12.8000  3.3000   1
  12  -7 -13  3.7000  5.7000   1
 -12   7  13  4.2000  3.3000   1
  12  -7 -14 18.4000  4.3000   1
  12  -7 -15 21.8000  5.3000   1
  12  -7 -16 95.0000  7.5000   1
 -12   7  16 99.4000  8.2000   1
  12  -7 -17 20.3000  5.4000   1
 -12   7  17 25.8000  5.7000   1
  12  -7 -18  8.2000  3.7000   1
 -12   7  18 12.8000  4.8000   1
  12  -7 -19 11.8000  4.4000   1
 -12   7  19  6.4000  6.1000   1
  12  -7 -20 53.3000  9.4000   1
 -12   7  20 20.0000  6.7000   1
  12  -7 -21  0.0000  7.9000   1
  12  -7 -22-11.3000  8.4000   1
 -12   7  22  0.2000  6.4000   1
  12  -8   4  4.7000  5.8000   1
  12  -8   3  3.4000  4.6000   1
  12  -8   2  2.5000  5.7000   1
  12  -8   1  9.0000  4.3000   1
 -12   8  -1 11.3000  3.8000   1
  12  -8   0 22.0000  4.6000   1
 -12   8   0 26.5000  5.1000   1
  12  -8  -1 -1.0000  4.4000   1
 -12   8   1 -1.3000  3.7000   1
  12  -8  -2 11.5000  3.4000   1
 -12   8   2  6.6000  4.0000   1
  12  -8  -3 10.2000  3.4000   1
 -12   8   3 24.2000  5.0000   1
  12  -8  -4 25.2000  3.6000   1
 -12   8   4 26.8000  5.2000   1
  12  -8  -5  1.0000  3.1000   1
 -12   8   5 -0.5000  3.9000   1
  12  -8  -6 13.7000  3.0000   1
 -12   8   6 26.5000  4.1000   1
  12  -8  -7  3.2000  2.4000   1
 -12   8   7  1.1000  4.2000   1
  12  -8  -8 117.100   7.300   1
 -12   8   8 118.500  10.200   1
  12  -8  -9 17.1000  3.4000   1
 -12   8   9 23.5000  3.1000   1
  12  -8 -10  7.1000  3.2000   1
 -12   8  10  5.8000  2.0000   1
  12  -8 -11 15.2000  5.1000   1
 -12   8  11 23.6000  2.4000   1
  12  -8 -12 188.500  14.500   1
 -12   8  12 188.800  11.600   1
  12  -8 -13 57.2000  6.1000   1
 -12   8  13 67.0000  6.5000   1
  12  -8 -14 95.4000  7.0000   1
 -12   8  14 86.4000  7.6000   1
  12  -8 -15  4.1000  4.9000   1
 -12   8  15  5.0000  4.5000   1
  12  -8 -16 16.3000  5.6000   1
 -12   8  16 14.8000  4.6000   1
  12  -8 -17  6.7000  5.3000   1
 -12   8  17  3.2000  4.7000   1
  12  -8 -18 72.8000  7.4000   1
 -12   8  18 86.7000  8.3000   1
  12  -8 -19  5.0000  4.0000   1
 -12   8  19 -0.7000  5.4000   1
  12  -8 -20 -0.8000  5.8000   1
  12  -8 -21  9.4000  6.1000   1
 -12   8  21  6.2000  7.0000   1
  12  -9   3 -4.4000  5.8000   1
  12  -9   2 18.2000  5.2000   1
  12  -9   1  8.8000  5.5000   1
  12  -9   0  5.2000  5.1000   1
 -12   9   0  0.0000  3.5000   1
  12  -9  -1  4.1000  4.2000   1
  12  -9  -2 108.500   8.100   1
 -12   9   2 111.000  10.100   1
  12  -9  -3 -3.9000  3.4000   1
 -12   9   3  5.2000  3.9000   1
  12  -9  -4  5.1000  2.9000   1
 -12   9   4  6.5000  4.1000   1
  12  -9  -5 39.8000  3.6000   1
 -12   9   5 47.1000  6.5000   1
  12  -9  -6 90.4000  4.3000   1
 -12   9   6 106.900   8.000   1
  12  -9  -7 12.2000  3.4000   1
 -12   9   7  6.0000  1.8000   1
  12  -9  -8 16.3000  4.6000   1
 -12   9   8 19.4000  2.6000   1
  12  -9  -9 76.3000  6.6000   1
 -12   9   9 68.9000  4.1000   1
  12  -9 -10 30.6000  5.8000   1
 -12   9  10 27.3000  2.7000   1
  12  -9 -11 40.8000  5.3000   1
 -12   9  11 49.1000  7.3000   1
  12  -9 -12  2.8000  3.2000   1
 -12   9  12  1.8000  2.3000   1
  12  -9 -13  6.0000  3.6000   1
 -12   9  13 -2.7000  3.6000   1
  12  -9 -14 86.0000  6.4000   1
  12  -9 -15 14.5000  4.2000   1
 -12   9  15 17.8000  4.7000   1
  12  -9 -16 26.6000  5.3000   1
 -12   9  16 13.0000  4.6000   1
  12  -9 -17 -1.2000  5.2000   1
 -12   9  17 -1.2000  4.1000   1
  12  -9 -18 -2.3000  5.3000   1
 -12   9  18  9.5000  5.0000   1
  12  -9 -19  9.8000  7.9000   1
 -12   9  19  5.3000  5.0000   1
  12  -9 -20 19.3000  9.4000   1
 -12   9  20 19.0000  6.0000   1
  12  -9 -21 17.0000  8.9000   1
 -12   9  21 23.1000  7.5000   1
  12 -10   2 16.6000  6.0000   1
  12 -10   1 -8.6000  4.6000   1
  12 -10   0 15.2000  5.9000   1
  12 -10  -1 -0.5000  5.1000   1
  12 -10  -2 18.5000  4.5000   1
 -12  10   2 11.5000  4.1000   1
  12 -10  -3 -3.2000  3.8000   1
 -12  10   3 -2.0000  3.7000   1
  12 -10  -4 141.200   9.000   1
 -12  10   4 167.300  12.600   1
  12 -10  -5  8.2000  4.2000   1
 -12  10   5  2.6000  4.3000   1
  12 -10  -6 14.3000  3.5000   1
 -12  10   6 15.0000  4.9000   1
  12 -10  -7  6.0000  3.2000   1
 -12  10   7  3.6000  4.0000   1
  12 -10  -8 106.000   6.000   1
 -12  10   8 121.900  10.300   1
  12 -10  -9  6.2000  4.0000   1
 -12  10   9 11.4000  5.1000   1
  12 -10 -10 16.7000  4.2000   1
 -12  10  10 15.7000  5.2000   1
  12 -10 -11 52.0000  6.2000   1
 -12  10  11 50.9000  4.8000   1
  12 -10 -12  4.8000  5.0000   1
 -12  10  12  6.4000  3.0000   1
  12 -10 -13 75.3000  7.2000   1
  12 -10 -14 17.0000  4.9000   1
 -12  10  14  4.6000  3.6000   1
  12 -10 -15  1.9000  4.0000   1
 -12  10  15 13.2000  4.6000   1
  12 -10 -16 -2.9000  4.4000   1
 -12  10  16  0.1000  3.6000   1
  12 -10 -17 16.0000  6.3000   1
 -12  10  17  6.5000  4.3000   1
  12 -10 -18 64.6000 11.1000   1
 -12  10  18 57.3000  7.3000   1
  12 -10 -19  4.3000  7.1000   1
 -12  10  19  5.1000  5.6000   1
  12 -10 -20  4.0000  8.5000   1
 -12  10  20  4.9000  7.2000   1
  12 -11   1 10.6000  6.3000   1
  12 -11   0  9.1000  5.9000   1
  12 -11  -1 30.5000  5.5000   1
  12 -11  -2  2.1000  4.0000   1
  12 -11  -3 -3.4000  5.1000   1
 -12  11   3  3.6000  4.0000   1
  12 -11  -4 20.7000  4.3000   1
  12 -11  -5  8.6000  3.5000   1
  12 -11  -6  6.1000  3.2000   1
  12 -11  -7 -5.8000  4.7000   1
  12 -11  -8 10.2000  7.5000   1
  12 -11  -9 11.4000  4.5000   1
  12 -11 -10 32.8000  5.2000   1
  12 -11 -11  7.1000  4.1000   1
  12 -11 -12  5.0000  5.5000   1
  12 -11 -13  1.1000  5.4000   1
  12 -11 -14  4.2000  4.0000   1
  12 -11 -15  1.3000  4.7000   1
  12 -11 -16 22.4000  8.2000   1
  12 -11 -17 19.4000  8.8000   1
  12 -11 -18 28.5000  8.5000   1
  12 -11 -19 -8.3000  7.7000   1
  12 -12   0 -2.7000  4.9000   1
  12 -12  -1  3.7000  4.9000   1
  12 -12  -2 -8.5000  5.4000   1
  12 -12  -3  6.4000  5.8000   1
  12 -12  -4 14.6000  4.9000   1
  12 -12  -5  0.6000  5.1000   1
  12 -12  -6  1.3000  5.2000   1
  12 -12  -7 12.3000  4.8000   1
  12 -12  -8  2.9000  4.1000   1
  12 -12  -9 -4.0000  8.3000   1
  12 -12 -10  3.8000  4.1000   1
  12 -12 -11 12.0000  4.6000   1
  12 -12 -12 -3.7000  3.6000   1
  12 -12 -13 38.6000  8.4000   1
  12 -12 -14 16.7000  8.1000   1
  12 -12 -15  8.2000  7.8000   1
  12 -12 -16 -8.8000  5.5000   1
  12 -12 -17 12.2000  8.6000   1
  12 -12 -18 16.7000  8.8000   1
  12 -13  -1 -7.0000  8.8000   1
  12 -13  -2 -6.6000  8.9000   1
  12 -13  -3 14.2000  9.8000   1
  12 -13  -4 26.4000 10.1000   1
  12 -13  -5  3.8000  7.9000   1
  12 -13  -8 27.8000  8.5000   1
  12 -13  -9 15.3000  6.3000   1
  12 -13 -11 -0.8000  5.2000   1
  12 -13 -12  0.0000  7.8000   1
  12 -13 -13  9.5000  8.0000   1
  12 -13 -14 -5.3000  6.2000   1
  12 -13 -15 18.5000  8.9000   1
  12 -13 -16  0.4000  9.3000   1
  12 -14  -3 54.7000 10.0000   1
  12 -14  -4  8.6000  5.9000   1
  12 -14  -5  5.9000  6.5000   1
  12 -14  -6 -6.7000  5.6000   1
  12 -14  -9 -0.4000  6.0000   1
  12 -14 -12 17.0000  8.8000   1
  12 -14 -13  1.5000  6.1000   1
  12 -14 -14  7.7000  8.2000   1
  12 -15  -6 30.6000  8.1000   1
  12 -15  -7 24.1000  8.0000   1
  12 -15 -10 40.3000  9.2000   1
  12 -15 -11 12.7000 10.0000   1
  13   0   4 38.3000  8.5000   1
  13   0   3 -9.1000  7.4000   1
  13   0   2 63.2000  9.2000   1
  13   0   1 -0.1000  3.2000   1
  13   0   0 14.9000  4.7000   1
  13   0  -1  6.7000  3.0000   1
  13   0  -2 164.000   7.200   1
  13   0  -3 -4.3000  2.9000   1
  13   0  -4  1.0000  3.1000   1
  13   0  -5  4.3000  3.2000   1
  13   0  -6 71.1000  5.2000   1
  13   0  -7 -3.0000  3.1000   1
  13   0  -8 28.7000  3.5000   1
  13   0  -9  0.3000  2.5000   1
  13   0 -10 -0.7000  2.7000   1
  13   0 -11  4.2000  3.5000   1
  13   0 -12 14.9000  5.2000   1
  13   0 -13  2.0000  5.7000   1
  13   0 -14  4.1000  4.5000   1
  13   0 -20  5.5000  6.5000   1
  13   0 -21 -3.2000  4.5000   1
  13  -1   4 62.1000  9.7000   1
 -13   1  -4 40.7000  7.6000   1
  13  -1   3  0.9000  7.1000   1
 -13   1  -3  3.2000  6.2000   1
  13  -1   2 22.7000  7.3000   1
 -13   1  -2 15.1000  6.9000   1
  13  -1   1  2.7000  3.5000   1
 -13   1  -1  1.7000  6.4000   1
  13  -1   0 10.6000  4.5000   1
 -13   1   0  8.8000  6.7000   1
  13  -1  -1 43.2000  4.1000   1
 -13   1   1 56.4000  5.4000   1
  13  -1  -2 64.4000  5.1000   1
 -13   1   2 62.8000  5.6000   1
  13  -1  -3  4.7000  3.7000   1
 -13   1   3  7.9000  3.3000   1
  13  -1  -4  6.8000  3.7000   1
 -13   1   4 11.0000  3.1000   1
  13  -1  -5  7.8000  5.7000   1
 -13   1   5 13.7000  3.0000   1
  13  -1  -6  2.1000  2.7000   1
 -13   1   6  3.5000  2.9000   1
  13  -1  -7 44.7000  4.1000   1
 -13   1   7 58.9000  6.0000   1
  13  -1  -8  6.1000  5.9000   1
 -13   1   8  6.0000  4.2000   1
  13  -1  -9  9.2000  4.1000   1
 -13   1   9  5.8000  3.2000   1
  13  -1 -10  3.5000  2.5000   1
 -13   1  10 -1.3000  2.8000   1
  13  -1 -11  5.4000  4.5000   1
 -13   1  11  8.8000  5.3000   1
  13  -1 -12 36.8000  7.2000   1
  13  -1 -13 20.0000  4.4000   1
 -13   1  13 15.1000  4.9000   1
  13  -1 -14 -5.0000  6.3000   1
  13  -1 -15  8.0000  5.2000   1
  13  -1 -17  3.2000  4.4000   1
 -13   1  18 18.0000  6.4000   1
  13  -1 -19 12.6000  5.6000   1
 -13   1  19 12.6000  7.5000   1
 -13   1  20 -2.4000  5.5000   1
  13  -1 -21 -0.3000  3.6000   1
 -13   1  21 -9.6000  6.8000   1
  13  -1 -22  1.2000  5.8000   1
 -13   1  22  1.4000  5.4000   1
  13  -2   4  9.4000  7.2000   1
 -13   2  -4 29.6000  6.6000   1
  13  -2   3  8.7000  7.5000   1
 -13   2  -3  3.5000  6.4000   1
  13  -2   2 12.9000  7.3000   1
 -13   2  -2 10.4000  6.2000   1
  13  -2   1 32.3000  4.4000   1
 -13   2  -1 43.0000  7.2000   1
  13  -2   0  3.2000  4.0000   1
 -13   2   0 -2.5000  3.9000   1
  13  -2  -1 -0.6000  3.0000   1
 -13   2   1  0.9000  3.9000   1
  13  -2  -2  5.1000  3.4000   1
 -13   2   2 -3.0000  3.9000   1
  13  -2  -3 90.0000  6.7000   1
 -13   2   3 89.1000  6.0000   1
  13  -2  -4  0.2000  3.6000   1
 -13   2   4 -2.5000  2.8000   1
  13  -2  -5  7.4000  5.7000   1
 -13   2   5 11.4000  2.9000   1
  13  -2  -6  0.5000  3.7000   1
 -13   2   6  5.5000  2.7000   1
  13  -2  -7 138.600   7.500   1
 -13   2   7 129.300   6.300   1
  13  -2  -8 13.6000  3.0000   1
 -13   2   8 13.8000  3.2000   1
  13  -2  -9 166.100   7.800   1
 -13   2   9 163.300  14.800   1
  13  -2 -10 19.3000  3.9000   1
 -13   2  10  5.5000  4.2000   1
  13  -2 -11 61.9000  5.5000   1
 -13   2  11 58.9000  4.8000   1
  13  -2 -12 47.6000  7.6000   1
  13  -2 -13 112.400   9.800   1
  13  -2 -14  6.8000  6.4000   1
 -13   2  14  4.8000  4.0000   1
  13  -2 -15 -3.4000  6.8000   1
  13  -2 -16 15.3000  7.2000   1
 -13   2  17 24.5000  6.1000   1
  13  -2 -19  9.4000  5.4000   1
 -13   2  19  7.1000  6.3000   1
  13  -2 -20  5.8000  7.7000   1
 -13   2  20 -1.2000  4.1000   1
  13  -2 -21 16.2000  4.5000   1
  13  -2 -22  2.1000  6.3000   1
 -13   2  22 -3.7000  4.4000   1
  13  -3   3 17.7000  8.2000   1
 -13   3  -3 12.6000  6.4000   1
  13  -3   2 43.5000  8.5000   1
 -13   3  -2 52.4000  7.6000   1
  13  -3   1 19.0000  4.6000   1
 -13   3  -1  6.3000  5.6000   1
  13  -3   0 38.4000  5.4000   1
 -13   3   0 28.0000  4.9000   1
  13  -3  -1  7.4000  3.6000   1
 -13   3   1  8.7000  4.0000   1
  13  -3  -2 69.5000  4.8000   1
 -13   3   2 73.6000  4.8000   1
  13  -3  -3  9.6000  3.3000   1
 -13   3   3 13.6000  3.2000   1
  13  -3  -4 91.3000  5.1000   1
 -13   3   4 81.0000  5.6000   1
  13  -3  -5 10.5000  2.8000   1
 -13   3   5 11.3000  2.9000   1
  13  -3  -6  4.5000  2.8000   1
 -13   3   6  0.9000  2.6000   1
  13  -3  -7 36.8000  4.9000   1
 -13   3   7 35.2000  3.8000   1
  13  -3  -8 13.6000  5.9000   1
 -13   3   8 10.2000  3.2000   1
  13  -3  -9 46.8000  5.6000   1
 -13   3   9 50.7000  5.5000   1
  13  -3 -10 14.7000  3.2000   1
 -13   3  10  5.6000  5.2000   1
  13  -3 -11  5.2000  4.3000   1
  13  -3 -12  1.2000  3.3000   1
 -13   3  12  6.9000  4.8000   1
  13  -3 -13 78.1000  9.7000   1
  13  -3 -14 33.1000  6.7000   1
  13  -3 -15 87.3000  9.2000   1
 -13   3  15 107.800  10.200   1
  13  -3 -16 12.5000  3.8000   1
 -13   3  16  5.1000  4.9000   1
  13  -3 -17  8.1000  5.5000   1
  13  -3 -18  2.7000  5.4000   1
 -13   3  18 17.8000  6.3000   1
 -13   3  19 102.900   7.700   1
  13  -3 -20  4.0000  7.6000   1
  13  -3 -21 146.000  13.400   1
 -13   3  21 131.600  13.400   1
  13  -3 -22-10.7000  8.7000   1
 -13   3  22 -2.2000  5.3000   1
  13  -4   3 -3.7000  8.7000   1
  13  -4   2 -0.5000  4.7000   1
 -13   4  -2 -0.4000  6.6000   1
  13  -4   1 24.1000  8.5000   1
 -13   4  -1  9.1000  5.6000   1
  13  -4   0 61.6000  6.8000   1
 -13   4   0 45.9000  5.4000   1
  13  -4  -1 32.2000  5.1000   1
 -13   4   1 36.2000  4.9000   1
  13  -4  -2 44.8000  4.5000   1
 -13   4   2 40.8000  5.3000   1
  13  -4  -3  3.9000  3.1000   1
 -13   4   3  3.8000  4.1000   1
  13  -4  -4  0.9000  3.7000   1
 -13   4   4 -2.9000  2.7000   1
  13  -4  -5 14.4000  3.4000   1
 -13   4   5 11.5000  2.9000   1
  13  -4  -6 -3.5000  3.8000   1
 -13   4   6 -4.1000  3.0000   1
  13  -4  -7  4.7000  2.8000   1
 -13   4   7  0.4000  2.6000   1
  13  -4  -8  9.7000  3.7000   1
 -13   4   8 12.9000  3.4000   1
  13  -4  -9 17.0000  3.5000   1
 -13   4   9 30.8000  4.0000   1
  13  -4 -10 34.4000  3.8000   1
 -13   4  10 31.2000  5.3000   1
 -13   4  11 -4.9000  4.5000   1
  13  -4 -12 100.600  10.300   1
  13  -4 -13 98.4000 10.6000   1
 -13   4  13 106.400   8.400   1
  13  -4 -14 24.8000  7.3000   1
  13  -4 -15 57.8000  6.3000   1
  13  -4 -16 41.3000  5.6000   1
 -13   4  17 31.6000  4.7000   1
  13  -4 -18  9.9000  5.7000   1
 -13   4  18 -2.2000  5.9000   1
  13  -4 -19-13.3000  7.2000   1
 -13   4  19  6.8000  4.0000   1
  13  -4 -20 -6.2000  7.5000   1
 -13   4  20  5.0000  6.0000   1
  13  -4 -21  7.6000  6.3000   1
 -13   4  21  2.7000  4.0000   1
  13  -4 -22 -0.5000  4.9000   1
 -13   4  22 -0.1000  6.9000   1
  13  -5   3-19.9000  8.2000   1
  13  -5   2  2.6000  4.9000   1
 -13   5  -2  2.0000  5.3000   1
  13  -5   1 39.1000  5.6000   1
 -13   5  -1 51.9000  7.0000   1
  13  -5   0 47.7000  5.7000   1
 -13   5   0 67.1000  8.9000   1
  13  -5  -1 31.6000  5.5000   1
 -13   5   1 30.4000  4.9000   1
  13  -5  -2 21.2000  5.1000   1
 -13   5   2 17.3000  4.2000   1
  13  -5  -3  1.9000  3.8000   1
 -13   5   3  4.1000  4.5000   1
  13  -5  -4  5.7000  4.1000   1
 -13   5   4  1.5000  4.0000   1
  13  -5  -5 92.2000  7.1000   1
 -13   5   5 100.500   7.000   1
  13  -5  -6 -0.9000  3.7000   1
 -13   5   6  5.1000  3.0000   1
  13  -5  -7 191.600   7.900   1
 -13   5   7 191.100   9.900   1
  13  -5  -8  2.3000  3.0000   1
 -13   5   8  3.5000  3.1000   1
  13  -5  -9 15.1000  6.3000   1
 -13   5   9 32.0000  3.9000   1
  13  -5 -10  3.0000  2.8000   1
 -13   5  10  7.2000  3.9000   1
  13  -5 -11 297.900  20.700   1
  13  -5 -12 16.5000  7.4000   1
  13  -5 -14  7.3000  5.0000   1
 -13   5  14 13.5000  5.1000   1
  13  -5 -15 110.100   7.400   1
 -13   5  15 117.000   7.700   1
  13  -5 -16 18.7000  4.8000   1
 -13   5  16 12.2000  3.9000   1
  13  -5 -17  1.7000  5.8000   1
  13  -5 -18  2.0000  3.7000   1
  13  -5 -19 17.4000  8.4000   1
 -13   5  19 15.7000  6.4000   1
  13  -5 -20 13.4000  7.5000   1
 -13   5  20  2.9000  4.4000   1
  13  -5 -21 16.4000  8.8000   1
 -13   5  21 13.4000  7.8000   1
  13  -5 -22 -9.9000  5.8000   1
 -13   5  22 -4.1000  7.6000   1
  13  -6   2 12.4000  4.8000   1
  13  -6   1 30.0000  5.6000   1
 -13   6  -1 34.8000  7.4000   1
  13  -6   0 20.0000  4.9000   1
 -13   6   0 29.1000  6.0000   1
  13  -6  -1 -8.7000  3.9000   1
 -13   6   1 -1.5000  5.2000   1
  13  -6  -2  3.5000  4.6000   1
 -13   6   2  3.3000  4.4000   1
  13  -6  -3 69.2000  4.9000   1
 -13   6   3 70.1000  7.8000   1
  13  -6  -4  8.3000  3.6000   1
 -13   6   4 11.0000  3.9000   1
  13  -6  -5  9.7000  4.1000   1
 -13   6   5  5.9000  4.7000   1
  13  -6  -6  8.2000  3.5000   1
 -13   6   6  5.3000  5.1000   1
  13  -6  -7 30.3000  3.7000   1
 -13   6   7 28.1000  6.1000   1
  13  -6  -8  3.3000  3.1000   1
 -13   6   8  4.2000  4.9000   1
  13  -6  -9 94.0000  7.5000   1
 -13   6   9 103.000   8.100   1
 -13   6  10 16.5000  4.5000   1
  13  -6 -11 20.1000  5.7000   1
 -13   6  11 14.9000  5.5000   1
  13  -6 -12  4.3000  4.3000   1
  13  -6 -13 -3.5000  6.5000   1
  13  -6 -14 97.5000 11.4000   1
  13  -6 -15  0.0000  4.9000   1
  13  -6 -16 19.0000  4.9000   1
 -13   6  16 22.7000  3.6000   1
  13  -6 -17 23.8000  5.9000   1
 -13   6  17 21.7000  5.9000   1
  13  -6 -18 57.3000  7.6000   1
 -13   6  18 67.3000  6.1000   1
  13  -6 -19 81.6000 10.7000   1
  13  -6 -20 81.1000 12.2000   1
 -13   6  20 70.2000  9.7000   1
  13  -6 -21 19.1000 10.1000   1
 -13   6  21  0.8000  6.9000   1
  13  -7   2 -1.9000  5.5000   1
  13  -7   1  2.7000  5.3000   1
  13  -7   0-18.8000  8.4000   1
 -13   7   0  8.7000  4.6000   1
  13  -7  -1 16.6000  7.8000   1
  13  -7  -2 20.7000  5.2000   1
 -13   7   2 34.6000  6.1000   1
  13  -7  -3 -1.8000  4.6000   1
  13  -7  -4  6.3000  4.0000   1
 -13   7   4 10.8000  4.8000   1
  13  -7  -5 10.5000  5.2000   1
 -13   7   5  8.4000  4.7000   1
  13  -7  -6 -4.5000  4.1000   1
 -13   7   6  7.7000  5.1000   1
  13  -7  -7 14.2000  3.1000   1
 -13   7   7  8.6000  4.1000   1
  13  -7  -8 -6.4000  4.1000   1
 -13   7   8  6.1000  5.4000   1
  13  -7  -9 10.2000  4.7000   1
 -13   7   9 10.7000  5.8000   1
  13  -7 -10 88.4000  6.7000   1
 -13   7  10 73.2000  8.6000   1
  13  -7 -11  6.8000  7.4000   1
 -13   7  11 25.0000  7.2000   1
  13  -7 -12 16.3000  7.9000   1
 -13   7  12  6.7000  3.1000   1
  13  -7 -13-17.5000  7.0000   1
 -13   7  13  1.8000  6.1000   1
  13  -7 -14 88.9000  7.2000   1
  13  -7 -15 29.5000  6.1000   1
 -13   7  15 33.9000  5.8000   1
  13  -7 -16 40.0000  5.8000   1
  13  -7 -17 76.5000 10.3000   1
  13  -7 -18 41.0000  9.7000   1
 -13   7  18 46.3000  6.9000   1
  13  -7 -19  9.5000  6.0000   1
 -13   7  19  2.4000  5.5000   1
  13  -7 -20 30.8000  9.4000   1
 -13   7  20 43.4000  8.6000   1
  13  -7 -21  6.3000  9.6000   1
 -13   7  21 -6.4000  7.2000   1
  13  -8   1 12.8000  5.1000   1
  13  -8   0  0.5000  5.2000   1
  13  -8  -1  3.5000  5.5000   1
 -13   8   1 12.9000  4.9000   1
  13  -8  -2 22.1000  5.9000   1
 -13   8   2 23.0000  5.3000   1
  13  -8  -3  5.0000  3.7000   1
 -13   8   3  4.1000  4.7000   1
  13  -8  -4  7.9000  3.2000   1
 -13   8   4 -1.4000  4.4000   1
  13  -8  -5  7.9000  3.5000   1
 -13   8   5  1.1000  3.9000   1
  13  -8  -6 -2.0000  3.3000   1
 -13   8   6 -2.1000  4.7000   1
  13  -8  -7  1.9000  4.7000   1
 -13   8   7 17.0000  5.6000   1
  13  -8  -8  1.0000  4.6000   1
  13  -8  -9 25.7000  6.6000   1
 -13   8   9 34.1000  7.8000   1
  13  -8 -10 38.5000  5.3000   1
 -13   8  10 40.8000  7.0000   1
  13  -8 -11-11.3000  4.8000   1
 -13   8  11  7.0000  6.1000   1
  13  -8 -12 76.3000  6.9000   1
 -13   8  12 86.3000  9.1000   1
  13  -8 -13  3.9000  4.6000   1
 -13   8  13 -1.7000  3.4000   1
  13  -8 -14  5.0000  5.4000   1
  13  -8 -15  8.8000  4.8000   1
 -13   8  15  5.5000  3.5000   1
  13  -8 -16 -4.9000  4.4000   1
 -13   8  16 -1.9000  4.4000   1
  13  -8 -17 13.6000  7.0000   1
 -13   8  17 25.1000  5.4000   1
  13  -8 -18-13.3000  8.5000   1
 -13   8  18 -4.9000  5.0000   1
  13  -8 -19 -4.6000  7.7000   1
 -13   8  19  3.3000  5.8000   1
  13  -8 -20 73.5000 11.1000   1
 -13   8  20 65.5000  9.4000   1
  13  -9   0 20.5000  5.8000   1
  13  -9  -1 -0.7000  5.5000   1
  13  -9  -2 -5.1000  5.1000   1
 -13   9   2 -1.5000  4.5000   1
  13  -9  -3 34.7000  6.7000   1
 -13   9   3 28.8000  5.4000   1
  13  -9  -4  0.0000  5.1000   1
 -13   9   4  3.9000  4.3000   1
  13  -9  -5  7.3000  4.2000   1
 -13   9   5 14.7000  5.2000   1
  13  -9  -6  5.9000  4.0000   1
 -13   9   6  4.1000  4.6000   1
  13  -9  -7 -2.4000  5.0000   1
 -13   9   7  9.6000  4.6000   1
  13  -9  -8 -4.7000  4.6000   1
 -13   9   8  6.4000  5.8000   1
  13  -9  -9 11.6000  4.5000   1
 -13   9   9 11.5000  5.5000   1
  13  -9 -10 15.5000  8.0000   1
 -13   9  10 23.6000  5.5000   1
  13  -9 -11-13.7000  6.9000   1
 -13   9  11  9.0000  6.4000   1
  13  -9 -12  6.8000  3.8000   1
 -13   9  12 11.4000  6.4000   1
  13  -9 -13  4.3000  5.5000   1
 -13   9  13  1.4000  2.8000   1
  13  -9 -14 -2.9000  4.6000   1
 -13   9  14  6.4000  3.6000   1
  13  -9 -15 33.4000  7.4000   1
 -13   9  15 32.3000  5.7000   1
  13  -9 -16 22.7000  8.5000   1
 -13   9  16 12.2000  5.5000   1
  13  -9 -17  3.0000  7.9000   1
  13  -9 -18  6.2000  6.5000   1
 -13   9  18  1.3000  5.4000   1
  13  -9 -19 54.1000 11.1000   1
 -13   9  19 53.1000  7.4000   1
  13 -10  -1 24.8000  6.5000   1
  13 -10  -2  6.9000  4.8000   1
  13 -10  -3  8.1000  6.2000   1
 -13  10   3  9.3000  4.7000   1
  13 -10  -4  2.2000  4.2000   1
 -13  10   4  4.7000  4.6000   1
  13 -10  -5 17.1000  8.8000   1
 -13  10   5 15.3000  5.4000   1
  13 -10  -6 15.4000  8.4000   1
  13 -10  -7 26.7000  5.3000   1
 -13  10   7 16.8000  5.8000   1
  13 -10  -8  3.0000  3.9000   1
 -13  10   8 -0.7000  3.3000   1
  13 -10  -9 49.4000  9.9000   1
 -13  10   9 67.5000  9.2000   1
  13 -10 -10  9.8000  8.6000   1
 -13  10  10  9.8000  6.0000   1
  13 -10 -11 -3.4000  4.2000   1
 -13  10  11  2.8000  4.5000   1
  13 -10 -12 -1.1000  4.8000   1
  13 -10 -13 123.600  11.500   1
  13 -10 -14 22.5000  8.9000   1
  13 -10 -15 22.3000  8.4000   1
  13 -10 -16 -2.4000  5.7000   1
  13 -10 -17 65.6000 12.6000   1
  13 -10 -18 38.5000 10.8000   1
  13 -11  -2 13.1000  9.4000   1
  13 -11  -3  9.4000  6.5000   1
  13 -11  -4 10.7000  5.0000   1
 -13  11   4  7.9000  5.1000   1
  13 -11  -5  9.3000  6.0000   1
 -13  11   5  5.3000  4.5000   1
  13 -11  -6 10.8000  6.9000   1
 -13  11   6 17.4000  5.3000   1
  13 -11  -7 26.1000  8.1000   1
  13 -11  -8  5.6000  6.2000   1
  13 -11 -10 -0.4000  5.3000   1
  13 -11 -11 14.9000  8.4000   1
  13 -11 -12  6.9000  5.1000   1
  13 -11 -13-10.9000  8.4000   1
  13 -11 -14  8.7000  6.9000   1
  13 -11 -15 58.7000 11.2000   1
  13 -11 -16  6.1000  8.6000   1
  13 -11 -17  0.2000  6.6000   1
  13 -12  -3 12.7000  7.5000   1
  13 -12  -4 -3.1000  6.3000   1
  13 -12  -5 16.1000  9.5000   1
  13 -12  -6 -2.2000  6.6000   1
  13 -12  -7  0.6000  5.6000   1
  13 -12  -8 16.4000  6.7000   1
  13 -12 -11  8.7000  6.6000   1
  13 -12 -12 47.7000 10.9000   1
  13 -12 -13 29.5000  8.4000   1
  13 -12 -14 57.1000 10.5000   1
  13 -12 -15  3.0000  6.3000   1
  13 -13  -6 15.0000  9.1000   1
  13 -13  -9 20.9000  7.7000   1
  13 -13 -12 22.1000  7.2000   1
  13 -13 -13 -4.7000  9.3000   1
  14   0   1 -2.2000  7.3000   1
  14   0   0  9.0000  6.9000   1
  14   0  -1 -5.2000  4.7000   1
  14   0  -2 88.4000  7.2000   1
  14   0  -3  5.0000  4.4000   1
  14   0  -4  5.1000  3.6000   1
  14   0  -5  6.6000  5.9000   1
  14   0  -6 -4.8000  4.2000   1
  14   0  -7 -6.9000  4.5000   1
  14   0  -8 -1.1000  4.3000   1
  14   0  -9  1.4000  4.4000   1
  14   0 -10 21.7000  6.1000   1
  14   0 -11 -0.3000  4.8000   1
  14   0 -12 20.6000  6.1000   1
  14   0 -15  2.9000  4.3000   1
  14   0 -18 24.4000  6.6000   1
  14   0 -20  1.3000  5.4000   1
  14   0 -21  2.3000  5.9000   1
  14  -1   1 -5.1000  7.8000   1
 -14   1  -1 18.6000  7.6000   1
  14  -1   0 91.0000 12.5000   1
 -14   1   0 95.2000 11.0000   1
  14  -1  -1  5.1000  4.4000   1
 -14   1   1 31.3000  8.3000   1
  14  -1  -2 57.6000  6.0000   1
 -14   1   2 59.9000  8.9000   1
  14  -1  -3  0.3000  3.7000   1
 -14   1   3 -3.3000  4.4000   1
  14  -1  -4 26.4000  5.0000   1
 -14   1   4 27.6000  4.6000   1
  14  -1  -5  9.1000  4.5000   1
 -14   1   5 11.0000  4.4000   1
  14  -1  -6 31.7000  5.4000   1
 -14   1   6 26.7000  4.4000   1
 -14   1   7  5.8000  5.0000   1
  14  -1  -8  1.7000  3.5000   1
 -14   1   8  3.7000  4.8000   1
  14  -1  -9  8.9000  3.9000   1
 -14   1   9  7.3000  4.5000   1
  14  -1 -10 41.3000  6.4000   1
  14  -1 -11  5.9000  6.7000   1
  14  -1 -12 68.5000  7.0000   1
  14  -1 -13 17.1000  4.1000   1
 -14   1  14 36.8000  6.7000   1
  14  -1 -16 127.800  12.600   1
 -14   1  17 64.9000  8.9000   1
  14  -1 -18  6.3000  4.9000   1
 -14   1  20 43.4000  8.1000   1
  14  -1 -21 68.0000  7.1000   1
 -14   1  21 71.8000  7.9000   1
  14  -2   1  5.9000  8.1000   1
 -14   2  -1 12.9000  7.5000   1
  14  -2   0  8.9000  7.7000   1
 -14   2   0 25.0000  5.3000   1
  14  -2  -1 35.5000  5.1000   1
 -14   2   1 29.1000  7.9000   1
  14  -2  -2 -6.9000  7.0000   1
 -14   2   2 -1.3000  6.2000   1
  14  -2  -3 99.0000  8.1000   1
 -14   2   3 98.1000 10.3000   1
  14  -2  -4 34.9000  5.4000   1
 -14   2   4 41.7000  5.9000   1
  14  -2  -5  9.6000  4.4000   1
 -14   2   5  0.7000  6.2000   1
  14  -2  -6 -0.9000  4.1000   1
 -14   2   6  1.0000  7.0000   1
  14  -2  -7 21.0000  6.4000   1
 -14   2   7 23.5000  7.0000   1
  14  -2  -8 50.1000  8.6000   1
 -14   2   8 54.6000  8.4000   1
  14  -2  -9  6.2000  6.4000   1
 -14   2   9  4.9000  6.5000   1
  14  -2 -10 28.7000  6.3000   1
  14  -2 -11  2.9000  4.2000   1
 -14   2  11  7.3000  5.1000   1
  14  -2 -12 -4.2000  6.8000   1
 -14   2  12  0.5000  4.5000   1
  14  -2 -13  5.6000  7.4000   1
  14  -2 -14 24.3000  4.6000   1
  14  -2 -16 14.4000  4.2000   1
 -14   2  16  0.9000  4.6000   1
  14  -2 -19 13.4000  6.3000   1
 -14   2  19  6.0000  4.8000   1
  14  -2 -21  3.9000  5.5000   1
  14  -3   0 -6.0000  5.1000   1
 -14   3   0 -3.9000  6.5000   1
  14  -3  -1 17.7000  5.1000   1
 -14   3   1 20.6000  6.5000   1
  14  -3  -2 -3.2000  4.3000   1
 -14   3   2  8.5000  6.2000   1
  14  -3  -3  7.4000  5.1000   1
 -14   3   3  5.2000  4.3000   1
  14  -3  -4 13.8000  3.8000   1
 -14   3   4  6.7000  6.1000   1
  14  -3  -5  9.3000  4.0000   1
 -14   3   5  0.4000  6.3000   1
  14  -3  -6 15.2000  3.2000   1
 -14   3   6 20.9000  6.5000   1
  14  -3  -7 25.9000  4.0000   1
 -14   3   7 22.0000  6.7000   1
  14  -3  -8 23.3000  7.7000   1
 -14   3   8 43.3000  7.8000   1
  14  -3  -9  5.3000  4.6000   1
 -14   3   9 16.8000  6.9000   1
  14  -3 -10 24.5000  7.8000   1
 -14   3  10 22.6000  7.1000   1
  14  -3 -11 -0.5000  3.4000   1
  14  -3 -12 63.5000  6.1000   1
 -14   3  13  6.6000  4.6000   1
  14  -3 -14 -0.3000  3.6000   1
 -14   3  14 -8.1000  4.6000   1
  14  -3 -15 20.4000  8.0000   1
  14  -3 -16 22.2000  8.2000   1
  14  -3 -17 22.1000  6.4000   1
 -14   3  18 14.4000  4.6000   1
  14  -3 -19 83.7000  9.7000   1
 -14   3  19 74.9000  9.7000   1
  14  -3 -20  0.8000  9.0000   1
  14  -3 -21 12.7000  7.3000   1
 -14   3  21 15.9000  7.8000   1
  14  -4   0 -2.5000  4.3000   1
 -14   4   0 -2.5000  6.4000   1
  14  -4  -1 21.2000  5.4000   1
 -14   4   1 19.3000  6.8000   1
  14  -4  -2 12.1000  5.1000   1
 -14   4   2  5.2000  5.8000   1
  14  -4  -3  6.5000  4.2000   1
 -14   4   3  7.5000  6.4000   1
  14  -4  -4  5.3000  3.9000   1
 -14   4   4 -1.2000  6.1000   1
  14  -4  -5 20.9000  4.0000   1
 -14   4   5 19.7000  6.3000   1
  14  -4  -6  0.9000  4.1000   1
 -14   4   6 12.4000  6.4000   1
  14  -4  -7 -0.8000  3.3000   1
 -14   4   7  3.6000  5.7000   1
  14  -4  -8 -1.8000  3.7000   1
 -14   4   8 -1.9000  5.8000   1
  14  -4  -9  2.2000  7.3000   1
 -14   4   9  1.6000  6.3000   1
  14  -4 -10 20.4000  7.5000   1
 -14   4  10 27.1000  6.6000   1
  14  -4 -11 25.1000  8.2000   1
  14  -4 -12 13.4000  3.6000   1
  14  -4 -13 11.1000  7.8000   1
  14  -4 -15 24.2000  7.1000   1
 -14   4  15  9.0000  4.7000   1
  14  -4 -16 -0.7000  5.2000   1
 -14   4  16  6.1000  4.9000   1
  14  -4 -17  7.1000  6.0000   1
 -14   4  17  0.6000  5.7000   1
 -14   4  18  0.9000  6.1000   1
  14  -4 -19 49.1000  9.0000   1
  14  -4 -20  7.3000  7.8000   1
 -14   4  20 -1.3000  6.7000   1
  14  -5   0  3.7000  5.5000   1
 -14   5   0 -6.2000  6.3000   1
  14  -5  -1 51.4000 10.2000   1
 -14   5   1 65.2000  8.5000   1
  14  -5  -2 29.0000  5.5000   1
 -14   5   2 19.1000  6.7000   1
  14  -5  -3  7.2000  4.3000   1
 -14   5   3 -4.9000  5.9000   1
  14  -5  -4 67.8000  6.2000   1
  14  -5  -5 41.4000  4.8000   1
 -14   5   5 41.7000  7.2000   1
  14  -5  -6 -1.3000  3.8000   1
 -14   5   6 -3.4000  5.4000   1
  14  -5  -7 12.6000  3.8000   1
 -14   5   7 16.6000  7.0000   1
  14  -5  -8 -0.8000  3.9000   1
 -14   5   8  0.1000  5.5000   1
  14  -5  -9  4.6000  4.0000   1
 -14   5   9  2.4000  5.6000   1
  14  -5 -10 -9.7000  7.0000   1
 -14   5  10  6.5000  5.9000   1
  14  -5 -11 14.0000  7.9000   1
 -14   5  11  4.5000  5.4000   1
  14  -5 -12  3.9000  4.4000   1
  14  -5 -14-13.0000  7.4000   1
  14  -5 -15  6.0000  8.0000   1
  14  -5 -17 52.5000  7.6000   1
 -14   5  17 63.4000  6.8000   1
 -14   5  19  4.0000  5.8000   1
 -14   5  20 18.2000  5.1000   1
  14  -6  -1  7.6000  5.9000   1
 -14   6   1 10.6000  5.7000   1
  14  -6  -2  7.1000  5.6000   1
 -14   6   2 17.3000  6.4000   1
  14  -6  -3  9.3000  4.6000   1
 -14   6   3  4.7000  5.2000   1
  14  -6  -4  2.4000  4.7000   1
 -14   6   4 15.0000  6.2000   1
  14  -6  -5  0.4000  4.3000   1
 -14   6   5  1.6000  5.6000   1
  14  -6  -6 -3.8000  4.0000   1
 -14   6   6 -4.4000  5.6000   1
  14  -6  -7  1.9000  3.7000   1
 -14   6   7  4.0000  5.8000   1
  14  -6  -8  6.7000  4.2000   1
 -14   6   8 -1.2000  5.2000   1
 -14   6   9 23.8000  6.8000   1
  14  -6 -10 12.4000  7.6000   1
 -14   6  10 22.3000  6.7000   1
  14  -6 -11  4.3000  8.7000   1
 -14   6  11  6.5000  4.8000   1
  14  -6 -12  4.0000  3.8000   1
 -14   6  12  4.2000  4.6000   1
  14  -6 -13  8.2000  7.6000   1
 -14   6  13  2.5000  4.5000   1
  14  -6 -14 -7.2000  7.8000   1
 -14   6  14  4.2000  5.6000   1
 -14   6  15 -0.2000  5.0000   1
 -14   6  16  2.4000  5.1000   1
  14  -6 -19 11.8000  8.7000   1
 -14   6  19 12.0000  8.9000   1
  14  -7  -2 46.1000  7.2000   1
  14  -7  -3  5.2000  5.5000   1
 -14   7   3  4.4000  5.6000   1
  14  -7  -4  6.5000  5.1000   1
 -14   7   4  3.8000  5.6000   1
  14  -7  -5-10.3000  5.2000   1
 -14   7   5 -2.6000  5.5000   1
  14  -7  -6 26.4000  5.7000   1
 -14   7   6 28.2000  6.5000   1
  14  -7  -7 -1.5000  4.3000   1
 -14   7   7  5.1000  5.4000   1
  14  -7  -8 -5.0000  4.3000   1
 -14   7   8 10.9000  6.2000   1
  14  -7  -9 89.6000 12.8000   1
 -14   7   9 75.9000  9.0000   1
  14  -7 -10 24.6000  8.4000   1
 -14   7  10 28.2000  6.9000   1
  14  -7 -11 18.9000  5.9000   1
 -14   7  11  8.7000  5.1000   1
  14  -7 -12 26.4000  5.6000   1
 -14   7  12 27.5000  6.3000   1
  14  -7 -13 17.2000  5.9000   1
 -14   7  13  3.3000  5.3000   1
  14  -7 -14 13.2000  6.7000   1
 -14   7  14  7.9000  7.2000   1
  14  -7 -15 -6.4000  6.9000   1
 -14   7  15 -7.1000  3.6000   1
  14  -7 -16 49.6000  9.9000   1
 -14   7  16 50.2000  5.9000   1
  14  -7 -17 27.5000  9.6000   1
 -14   7  17  9.0000  5.5000   1
  14  -7 -18  3.1000  6.7000   1
 -14   7  18 -1.6000  4.1000   1
  14  -7 -19 12.7000  9.0000   1
 -14   7  19 -2.3000  6.0000   1
  14  -8  -2 18.1000  6.8000   1
  14  -8  -3  7.2000  5.8000   1
 -14   8   3  6.0000  5.7000   1
  14  -8  -4 44.5000  7.2000   1
 -14   8   4 54.0000  8.2000   1
  14  -8  -5  7.6000  6.1000   1
  14  -8  -6 27.9000  9.6000   1
 -14   8   6 13.3000  5.8000   1
  14  -8  -7  9.9000  8.3000   1
 -14   8   7  9.9000  6.2000   1
  14  -8  -8 50.7000  9.1000   1
 -14   8   8 52.3000  7.6000   1
  14  -8  -9 44.7000 10.0000   1
 -14   8   9 34.5000  7.1000   1
  14  -8 -10 60.0000  9.3000   1
 -14   8  10 36.1000  8.3000   1
  14  -8 -11  4.8000  4.5000   1
 -14   8  11  5.2000  4.7000   1
 -14   8  12 17.3000  5.4000   1
 -14   8  13  2.6000  6.6000   1
  14  -8 -14 25.3000  7.1000   1
 -14   8  14 29.9000  8.0000   1
 -14   8  15 -4.1000  7.5000   1
  14  -8 -16 18.0000  8.1000   1
 -14   8  16 12.2000  8.4000   1
  14  -8 -17  4.3000  9.4000   1
  14  -8 -18 176.700  17.500   1
  14  -9  -4  4.8000  6.3000   1
 -14   9   4  7.0000  5.6000   1
  14  -9  -5 19.3000  6.9000   1
 -14   9   5 42.0000  8.0000   1
  14  -9  -6 30.7000  5.0000   1
 -14   9   6 34.8000  7.1000   1
 -14   9   7 12.4000  6.2000   1
  14  -9  -8  2.9000  7.7000   1
 -14   9   8 -8.2000  5.2000   1
  14  -9  -9  8.8000  6.1000   1
 -14   9   9  1.9000  5.5000   1
  14  -9 -10 72.2000 10.7000   1
 -14   9  10 80.6000  9.7000   1
 -14   9  11 -4.5000  6.0000   1
 -14   9  12 14.3000  5.3000   1
  14  -9 -13 -1.4000  5.2000   1
 -14   9  13 12.7000  7.8000   1
  14  -9 -14 28.8000  9.1000   1
 -14   9  14 21.2000  6.9000   1
  14  -9 -15 71.5000 10.3000   1
  14  -9 -16 92.8000 13.4000   1
  14  -9 -17 12.2000  6.7000   1
  14 -10  -5 16.1000  7.4000   1
 -14  10   5 14.8000  5.5000   1
  14 -10  -6 -1.7000  6.9000   1
 -14  10   6  4.1000  5.6000   1
  14 -10  -7 18.1000  7.5000   1
 -14  10   7 19.7000  6.4000   1
  14 -10  -8 99.4000 11.1000   1
 -14  10   8 96.6000  9.9000   1
 -14  10   9  4.1000  6.3000   1
 -14  10  10  4.4000  6.3000   1
 -14  10  11 -2.0000  6.3000   1
  14 -10 -12 21.3000  6.8000   1
 -14  10  12 12.6000  5.7000   1
  14 -10 -15 15.3000  9.9000   1
 -14  11   7 23.5000  6.8000   1
  14 -11 -10  4.2000  6.1000   1
  14 -11 -11 -9.8000  5.5000   1
  14 -11 -13  3.2000  6.7000   1
  15   0  -3  1.6000  7.4000   1
  15   0  -4 12.2000  8.4000   1
  15   0  -5  5.8000  7.9000   1
  15   0  -7  1.3000  5.0000   1
  15   0  -8  8.7000  5.1000   1
  15   0  -9  7.1000  5.5000   1
  15   0 -10  4.5000  4.6000   1
  15   0 -11  4.2000  5.2000   1
  15   0 -16  5.8000  5.8000   1
  15   0 -19 -1.2000  5.8000   1
  15  -1  -3 10.4000  5.5000   1
 -15   1   3 20.0000  8.4000   1
  15  -1  -4 45.9000  5.9000   1
 -15   1   4 39.5000  6.7000   1
  15  -1  -5 -2.1000  5.2000   1
 -15   1   5  7.0000  7.4000   1
  15  -1  -6 86.7000 10.6000   1
  15  -1  -7  1.5000  6.2000   1
 -15   1   7 -2.7000  6.8000   1
  15  -1  -8 13.6000  7.1000   1
 -15   1   8 12.7000  7.5000   1
  15  -1  -9  6.3000  6.7000   1
 -15   1   9 -1.5000  6.7000   1
 -15   1  10 10.0000  7.2000   1
  15  -1 -11  7.5000  7.3000   1
 -15   1  11 -0.5000  7.1000   1
  15  -1 -12  6.8000  4.0000   1
  15  -1 -13  0.2000  5.2000   1
 -15   1  14  1.6000  5.0000   1
 -15   1  15  3.5000  5.2000   1
  15  -1 -16 13.8000  5.9000   1
  15  -1 -17  7.6000  6.4000   1
 -15   1  18  0.9000  5.6000   1
 -15   1  19 10.2000  6.5000   1
  15  -2  -3  7.6000  4.7000   1
 -15   2   3 13.2000  6.9000   1
  15  -2  -4 70.7000  7.6000   1
  15  -2  -5 12.6000  5.6000   1
 -15   2   5  2.9000  7.6000   1
  15  -2  -6 16.6000  7.6000   1
 -15   2   6 22.5000  7.8000   1
  15  -2  -7 -3.6000  6.8000   1
 -15   2   7  6.4000  7.4000   1
  15  -2  -8 73.1000  9.4000   1
 -15   2   8 73.1000  8.5000   1
  15  -2  -9 25.1000  5.7000   1
 -15   2   9 28.0000  7.0000   1
  15  -2 -10  3.0000  7.5000   1
 -15   2  10  0.1000  5.1000   1
  15  -2 -11  4.2000  7.2000   1
 -15   2  11  5.1000  5.4000   1
  15  -2 -13 11.3000  4.8000   1
  15  -2 -14 -0.3000  4.9000   1
  15  -2 -17 16.6000  7.0000   1
 -15   2  17 25.4000  7.1000   1
 -15   2  18  4.8000  6.1000   1
  15  -3  -3 15.2000  5.5000   1
 -15   3   3 20.0000  5.9000   1
  15  -3  -4 23.9000  6.5000   1
 -15   3   4 23.6000  8.9000   1
  15  -3  -5 23.1000  6.1000   1
 -15   3   5 31.6000  8.5000   1
  15  -3  -6  2.0000  5.6000   1
 -15   3   6 12.5000  7.3000   1
  15  -3  -7 37.8000  5.6000   1
 -15   3   7 33.1000  6.9000   1
  15  -3  -8  2.8000  3.9000   1
  15  -3  -9  4.1000  4.5000   1
 -15   3   9  2.3000  6.1000   1
  15  -3 -10  8.8000  8.0000   1
 -15   3  10 12.6000  7.6000   1
  15  -3 -11  9.3000  4.8000   1
 -15   3  11  4.4000  7.1000   1
  15  -3 -12 -4.2000  7.4000   1
 -15   3  12  2.5000  6.7000   1
  15  -3 -13  1.1000  5.2000   1
  15  -3 -14  4.3000  5.4000   1
 -15   3  14  6.8000  5.6000   1
 -15   3  15 23.9000  6.4000   1
 -15   3  16  0.5000  5.7000   1
  15  -3 -17 19.1000  7.0000   1
  15  -4  -4  7.6000  5.9000   1
 -15   4   4 28.6000  8.1000   1
  15  -4  -5 24.3000  5.4000   1
 -15   4   5 30.8000  8.2000   1
  15  -4  -6 -0.6000  4.8000   1
 -15   4   6 -1.3000  5.0000   1
  15  -4  -7 -5.4000  5.4000   1
 -15   4   7  5.1000  6.2000   1
  15  -4  -8  6.5000  3.9000   1
 -15   4   8  5.5000  6.6000   1
  15  -4  -9  0.9000  4.4000   1
 -15   4   9 -1.0000  7.0000   1
  15  -4 -10  2.8000  3.5000   1
 -15   4  10 -6.3000  6.6000   1
  15  -4 -11  6.0000  8.0000   1
 -15   4  11 19.7000  7.7000   1
  15  -4 -12  8.5000  5.9000   1
 -15   4  12 12.3000  7.7000   1
 -15   4  13  3.3000  6.4000   1
  15  -4 -14 10.6000  6.3000   1
 -15   4  14 -1.6000  7.7000   1
  15  -4 -17 19.1000  6.9000   1
  15  -4 -18  9.6000  8.8000   1
 -15   4  18  4.4000  6.7000   1
  15  -5  -4 -9.3000  8.3000   1
 -15   5   4 -1.3000  6.6000   1
  15  -5  -5  2.4000  4.7000   1
 -15   5   5  2.3000  6.2000   1
  15  -5  -6 15.1000  5.1000   1
  15  -5  -7 205.500  12.300   1
 -15   5   7 190.200  19.200   1
  15  -5  -8  6.8000  5.2000   1
 -15   5   8  0.1000  7.0000   1
  15  -5  -9 22.6000  7.0000   1
 -15   5   9 27.9000  8.5000   1
  15  -5 -10  1.8000  4.3000   1
 -15   5  10 -4.0000  6.8000   1
  15  -5 -11 156.300  16.100   1
 -15   5  11 162.100  16.400   1
 -15   5  12 31.6000  7.2000   1
 -15   5  13 17.4000  5.9000   1
  15  -5 -14 24.2000  6.6000   1
 -15   5  14 15.1000  5.8000   1
 -15   5  15  6.9000  5.5000   1
 -15   5  16 54.5000  9.5000   1
  15  -5 -17  2.8000  6.4000   1
 -15   5  17  7.8000  6.5000   1
  15  -6  -5 22.9000  6.7000   1
 -15   6   5 25.0000  7.3000   1
  15  -6  -6  0.7000  4.9000   1
 -15   6   6  8.4000  7.0000   1
  15  -6  -7 -0.2000  3.9000   1
 -15   6   7  1.0000  6.7000   1
  15  -6  -8 11.0000  5.4000   1
 -15   6   8  5.4000  6.6000   1
  15  -6  -9 76.0000  7.2000   1
 -15   6   9 83.6000 10.1000   1
  15  -6 -10 -7.6000  5.9000   1
 -15   6  10 -2.9000  6.3000   1
 -15   6  11  4.9000  5.7000   1
 -15   6  12 28.7000  6.2000   1
 -15   6  13 29.9000  7.9000   1
  15  -6 -14  9.0000  5.7000   1
 -15   6  14 30.0000  9.5000   1
 -15   6  15 -3.2000  4.6000   1
 -15   6  16 22.0000  5.2000   1
  15  -6 -17 16.5000  6.6000   1
 -15   6  17 17.0000  9.1000   1
  15  -7  -6 42.0000 10.0000   1
 -15   7   6 32.2000  7.9000   1
  15  -7  -7 -3.1000  9.1000   1
 -15   7   7  7.0000  4.7000   1
  15  -7  -8 18.2000  8.9000   1
 -15   7   8-10.3000  6.7000   1
  15  -7  -9 33.4000 10.4000   1
 -15   7   9 28.4000  7.9000   1
 -15   7  11 29.9000  8.6000   1
 -15   7  12  3.7000  7.4000   1
  15  -7 -13  2.2000  5.8000   1
 -15   7  13  5.7000  8.0000   1
 -15   7  14 -4.0000  8.0000   1
 -15   7  15 64.6000 10.2000   1
  15  -8  -8  9.5000  9.1000   1
 -15   8   8  9.2000  6.4000   1
  15  -8  -9 30.3000  9.7000   1
 -15   8   9 42.7000  8.2000   1
 -15   8  10  7.6000  7.0000   1
 -15   8  11  4.2000  6.8000   1
  15  -8 -12  5.7000  6.9000   1
 -15   8  12 10.7000  8.0000   1
  15  -8 -13 -5.8000  5.8000   1
 -15   8  13  8.9000  7.4000   1
 -15   8  14 -0.3000  8.2000   1
  16   0 -11 15.1000  8.7000   1
  16   0 -15  0.7000  6.4000   1
 -16   1   9 -7.4000  5.3000   1
 -16   1  10  2.8000  5.6000   1
  16  -1 -11 20.1000  8.7000   1
 -16   1  11 10.7000  6.2000   1
 -16   1  12 33.1000  8.1000   1
 -16   1  13  0.4000  6.2000   1
 -16   1  14 11.6000  7.0000   1
 -16   1  15 19.8000  7.3000   1
  16  -2  -9  8.9000  6.1000   1
 -16   2   9  0.2000  8.0000   1
  16  -2 -10 10.0000  6.5000   1
 -16   2  10  8.1000  7.8000   1
  16  -2 -11  5.4000  5.8000   1
 -16   2  11 15.0000  7.8000   1
  16  -2 -12 -2.0000  6.0000   1
 -16   2  12 10.7000  8.4000   1
 -16   2  13 14.5000  8.8000   1
 -16   2  14 26.6000  9.1000   1
  16  -3 -10  9.8000  6.3000   1
 -16   3  10  2.1000  5.5000   1
  16  -3 -11  5.9000  6.3000   1
 -16   3  11  5.9000  5.5000   1
  16  -3 -12 15.7000  7.0000   1
 -16   3  12  7.8000  6.6000   1
  16  -3 -13  0.5000  5.5000   1
 -16   3  13  7.3000  6.2000   1
   0   0   0  0.0000  0.0000   1
;
_shelx_hkl_checksum              40966
loop_
_space_group_symop_operation_xyz
'x, y, z'
'-x, y+1/2, -z+1/2'
'-x, -y, -z'
'x, -y-1/2, z-1/2'
loop_
_atom_site_label
_atom_site_type_symbol
_atom_site_fract_x
_atom_site_fract_y
_atom_site_fract_z
_atom_site_U_iso_or_equiv
_atom_site_adp_type
_atom_site_occupancy
_atom_site_site_symmetry_order
_atom_site_calc_flag
_atom_site_refinement_flags_posn
_atom_site_refinement_flags_adp
S1 S 0.28464(4) -0.19145(3) 0.11443(3) 0.03068(14) Uani 1 1 d . .
S2 S 0.22924(5) 0.30776(3) -0.09776(4) 0.03917(16) Uani 1 1 d . .
O1 O 0.20259(15) -0.21310(8) -0.08753(9) 0.0380(4) Uani 1 1 d . .
H1A H 0.2489 -0.2216 -0.0425 0.057 Uiso 1 1 calc R U
N2 N 0.31534(15) 0.37136(10) -0.11031(10) 0.0314(4) Uani 1 1 d . .
O4 O 0.06499(14) 0.46397(11) -0.20997(8) 0.0453(4) Uani 1 1 d . .
H2A H 0.0616 0.4233 -0.1909 0.068 Uiso 1 1 calc R U
N1 N 0.14061(14) -0.17116(10) 0.05906(9) 0.0278(4) Uani 1 1 d . .
O3 O 0.34971(14) -0.12427(9) 0.15241(9) 0.0445(4) Uani 1 1 d . .
O2 O 0.33143(14) -0.23541(10) 0.07201(9) 0.0451(4) Uani 1 1 d . .
C1 C 0.10727(17) -0.12903(11) -0.00125(11) 0.0243(4) Uani 1 1 d . .
C33 C 0.02924(17) 0.55398(12) -0.12833(11) 0.0270(5) Uani 1 1 d . .
C3 C -0.10624(18) -0.16273(11) -0.03848(12) 0.0271(4) Uani 1 1 d . .
H1 H -0.0787 -0.2005 -0.0014 0.032 Uiso 1 1 calc R U
C8 C 0.02118(18) -0.00015(12) -0.10838(12) 0.0297(5) Uani 1 1 d . .
H7A H -0.0064 0.0509 -0.1068 0.036 Uiso 1 1 calc R U
H2B H 0.0192 -0.0071 -0.1577 0.036 Uiso 1 1 calc R U
C2 C -0.02325(17) -0.11525(11) -0.04722(11) 0.0233(4) Uani 1 1 d . .
C7 C -0.06410(18) -0.05603(11) -0.10081(11) 0.0268(4) Uani 1 1 d . .
C13 C 0.24829(19) -0.04709(12) -0.17763(12) 0.0312(5) Uani 1 1 d . .
H5 H 0.1673 -0.0401 -0.2115 0.037 Uiso 1 1 calc R U
C10 C 0.18892(17) -0.09189(11) -0.02908(11) 0.0240(4) Uani 1 1 d . .
H6 H 0.2715 -0.0933 0.0125 0.029 Uiso 1 1 calc R U
C12 C 0.28066(18) -0.09677(12) -0.11703(11) 0.0272(4) Uani 1 1 d . .
C25 C 0.52057(19) 0.50209(15) -0.18017(12) 0.0389(6) Uani 1 1 d . .
H8 H 0.5554 0.4810 -0.2085 0.047 Uiso 1 1 calc R U
C22 C 0.30862(17) 0.44385(12) -0.10325(11) 0.0250(4) Uani 1 1 d . .
C30 C 0.29820(18) 0.54649(12) -0.02111(11) 0.0284(5) Uani 1 1 d . .
H10A H 0.2448 0.5738 -0.0064 0.034 Uiso 1 1 calc R U
H10B H 0.3591 0.5218 0.0242 0.034 Uiso 1 1 calc R U
C28 C 0.41564(17) 0.56630(12) -0.09500(11) 0.0288(5) Uani 1 1 d . .
C6 C -0.18824(19) -0.04823(13) -0.14694(12) 0.0324(5) Uani 1 1 d . .
H12 H -0.2169 -0.0098 -0.1833 0.039 Uiso 1 1 calc R U
C31 C 0.22566(17) 0.48577(12) -0.07987(11) 0.0251(4) Uani 1 1 d . .
H13 H 0.1942 0.4496 -0.0557 0.030 Uiso 1 1 calc R U
C9 C 0.15002(18) -0.00845(11) -0.04635(12) 0.0277(4) Uani 1 1 d . .
H14A H 0.1580 0.0158 -0.0001 0.033 Uiso 1 1 calc R U
H14B H 0.2033 0.0175 -0.0621 0.033 Uiso 1 1 calc R U
C29 C 0.35936(19) 0.60297(12) -0.05028(13) 0.0330(5) Uani 1 1 d . .
H15A H 0.3004 0.6400 -0.0825 0.040 Uiso 1 1 calc R U
H15B H 0.4212 0.6298 -0.0071 0.040 Uiso 1 1 calc R U
C24 C 0.44473(18) 0.45945(14) -0.16268(11) 0.0320(5) Uani 1 1 d . .
H16 H 0.4286 0.4094 -0.1791 0.038 Uiso 1 1 calc R U
C14 C 0.3349(2) -0.00770(13) -0.18838(14) 0.0389(5) Uani 1 1 d . .
H17 H 0.3116 0.0256 -0.2293 0.047 Uiso 1 1 calc R U
C32 C 0.11787(17) 0.51943(13) -0.15157(11) 0.0286(5) Uani 1 1 d . .
H18 H 0.1489 0.5603 -0.1713 0.034 Uiso 1 1 calc R U
C5 C -0.26897(19) -0.09672(13) -0.13947(12) 0.0348(5) Uani 1 1 d . .
H19 H -0.3511 -0.0913 -0.1714 0.042 Uiso 1 1 calc R U
C39 C 0.2395(2) 0.23159(13) -0.15434(14) 0.0388(5) Uani 1 1 d . .
C4 C -0.22824(18) -0.15367(12) -0.08443(12) 0.0313(5) Uani 1 1 d . .
H21 H -0.2829 -0.1854 -0.0787 0.038 Uiso 1 1 calc R U
C27 C 0.49401(19) 0.60835(13) -0.11313(13) 0.0371(5) Uani 1 1 d . .
H22 H 0.5120 0.6583 -0.0965 0.045 Uiso 1 1 calc R U
C23 C 0.39132(17) 0.49104(12) -0.12016(11) 0.0264(4) Uani 1 1 d . .
C35 C -0.0455(2) 0.66246(16) -0.09039(16) 0.0529(7) Uani 1 1 d . .
H24 H -0.0436 0.7145 -0.0821 0.063 Uiso 1 1 calc R U
C15 C 0.4552(2) -0.01739(15) -0.13896(14) 0.0447(6) Uani 1 1 d . .
H25 H 0.5131 0.0101 -0.1455 0.054 Uiso 1 1 calc R U
C21 C 0.4027(2) -0.27776(15) 0.23766(14) 0.0451(6) Uani 1 1 d . .
H26A H 0.4030 -0.3096 0.2772 0.068 Uiso 1 1 calc R U
H26B H 0.4511 -0.2336 0.2601 0.068 Uiso 1 1 calc R U
H26C H 0.4350 -0.3053 0.2093 0.068 Uiso 1 1 calc R U
C17 C 0.4020(2) -0.10823(15) -0.06881(14) 0.0430(6) Uani 1 1 d . .
H27 H 0.4255 -0.1429 -0.0290 0.052 Uiso 1 1 calc R U
C36 C -0.1225(2) 0.61715(17) -0.07608(14) 0.0504(7) Uani 1 1 d . .
H28 H -0.1727 0.6384 -0.0582 0.060 Uiso 1 1 calc R U
C34 C 0.0287(2) 0.63082(13) -0.11704(14) 0.0406(6) Uani 1 1 d . .
H29 H 0.0792 0.6620 -0.1275 0.049 Uiso 1 1 calc R U
C26 C 0.5449(2) 0.57644(16) -0.15555(13) 0.0433(6) Uani 1 1 d . .
H30 H 0.5960 0.6053 -0.1676 0.052 Uiso 1 1 calc R U
O5 O 0.10523(17) 0.33016(11) -0.12999(16) 0.0786(7) Uani 1 1 d . .
C18 C 0.27309(19) -0.25335(13) 0.18390(12) 0.0344(5) Uani 1 1 d . .
C37 C -0.1245(2) 0.54025(16) -0.08851(15) 0.0476(6) Uani 1 1 d . .
H33 H -0.1773 0.5095 -0.0798 0.057 Uiso 1 1 calc R U
C11 C 0.18646(18) -0.13342(11) -0.09931(12) 0.0273(4) Uani 1 1 d . .
H34 H 0.1073 -0.1247 -0.1430 0.033 Uiso 1 1 calc R U
C38 C -0.04797(19) 0.50835(14) -0.11398(13) 0.0375(5) Uani 1 1 d . .
H35 H -0.0487 0.4562 -0.1214 0.045 Uiso 1 1 calc R U
O6 O 0.2831(2) 0.28703(14) -0.01928(11) 0.0902(9) Uani 1 1 d . .
C20 C 0.1955(2) -0.32140(15) 0.14295(16) 0.0556(7) Uani 1 1 d . .
H37A H 0.1956 -0.3569 0.1799 0.083 Uiso 1 1 calc R U
H37B H 0.2275 -0.3454 0.1125 0.083 Uiso 1 1 calc R U
H37C H 0.1146 -0.3049 0.1106 0.083 Uiso 1 1 calc R U
C16 C 0.4889(2) -0.06833(18) -0.07948(15) 0.0526(7) Uani 1 1 d . .
H38 H 0.5700 -0.0760 -0.0464 0.063 Uiso 1 1 calc R U
C19 C 0.2203(2) -0.20790(16) 0.22724(14) 0.0501(7) Uani 1 1 d . .
H39A H 0.1409 -0.1909 0.1923 0.075 Uiso 1 1 calc R U
H39B H 0.2707 -0.1648 0.2510 0.075 Uiso 1 1 calc R U
H39C H 0.2162 -0.2394 0.2657 0.075 Uiso 1 1 calc R U
C40 C 0.1564(2) 0.16909(14) -0.15235(17) 0.0537(7) Uani 1 1 d . .
H40A H 0.0748 0.1870 -0.1762 0.081 Uiso 1 1 calc R U
H40B H 0.1795 0.1556 -0.1003 0.081 Uiso 1 1 calc R U
H40C H 0.1628 0.1254 -0.1793 0.081 Uiso 1 1 calc R U
C41 C 0.3686(3) 0.20463(19) -0.1180(3) 0.1113(18) Uani 1 1 d . .
H41A H 0.3770 0.1651 -0.1487 0.167 Uiso 1 1 calc R U
H41B H 0.3904 0.1854 -0.0678 0.167 Uiso 1 1 calc R U
H41C H 0.4204 0.2462 -0.1145 0.167 Uiso 1 1 calc R U
C42 C 0.1977(4) 0.2602(2) -0.23449(18) 0.0981(14) Uani 1 1 d . .
H42A H 0.2489 0.3009 -0.2340 0.147 Uiso 1 1 calc R U
H42B H 0.1163 0.2782 -0.2546 0.147 Uiso 1 1 calc R U
H42C H 0.2011 0.2197 -0.2660 0.147 Uiso 1 1 calc R U
loop_
_atom_site_aniso_label
_atom_site_aniso_U_11
_atom_site_aniso_U_22
_atom_site_aniso_U_33
_atom_site_aniso_U_23
_atom_site_aniso_U_13
_atom_site_aniso_U_12
S1 0.0247(3) 0.0325(3) 0.0349(3) 0.0071(2) 0.0137(2) 0.0001(2)
S2 0.0451(3) 0.0347(3) 0.0493(4) -0.0094(3) 0.0317(3) -0.0135(3)
O1 0.0512(10) 0.0254(8) 0.0443(9) -0.0047(7) 0.0280(8) -0.0010(7)
N2 0.0301(9) 0.0310(10) 0.0400(10) -0.0051(8) 0.0220(8) -0.0066(8)
O4 0.0306(8) 0.0695(12) 0.0290(8) -0.0198(8) 0.0079(7) 0.0014(9)
N1 0.0249(8) 0.0302(9) 0.0299(9) 0.0043(7) 0.0138(8) 0.0004(7)
O3 0.0347(8) 0.0396(9) 0.0481(10) 0.0072(8) 0.0096(8) -0.0109(7)
O2 0.0372(9) 0.0592(11) 0.0461(10) 0.0110(8) 0.0255(8) 0.0167(8)
C1 0.0293(10) 0.0207(10) 0.0272(11) -0.0027(8) 0.0167(9) 0.0003(8)
C33 0.0209(9) 0.0329(11) 0.0220(10) 0.0007(8) 0.0055(8) 0.0012(9)
C3 0.0318(11) 0.0252(10) 0.0300(11) -0.0017(8) 0.0192(9) 0.0006(9)
C8 0.0398(12) 0.0254(11) 0.0310(11) 0.0016(9) 0.0224(10) 0.0030(9)
C2 0.0268(10) 0.0238(10) 0.0237(10) -0.0027(8) 0.0154(8) 0.0014(8)
C7 0.0341(11) 0.0282(11) 0.0228(10) -0.0035(8) 0.0173(9) 0.0027(9)
C13 0.0321(11) 0.0348(12) 0.0324(12) -0.0033(9) 0.0197(10) 0.0003(9)
C10 0.0254(10) 0.0244(10) 0.0270(10) -0.0009(8) 0.0162(9) -0.0015(8)
C12 0.0272(10) 0.0312(11) 0.0285(11) -0.0077(9) 0.0175(9) -0.0031(9)
C25 0.0304(11) 0.0627(17) 0.0270(11) 0.0037(11) 0.0161(9) -0.0033(11)
C22 0.0209(9) 0.0325(11) 0.0203(10) -0.0011(8) 0.0083(8) -0.0027(8)
C30 0.0263(10) 0.0323(11) 0.0235(10) -0.0021(9) 0.0088(8) 0.0022(9)
C28 0.0202(9) 0.0339(12) 0.0260(11) 0.0062(9) 0.0052(8) 0.0005(9)
C6 0.0362(12) 0.0368(12) 0.0248(11) 0.0028(9) 0.0147(9) 0.0079(10)
C31 0.0232(10) 0.0307(11) 0.0231(10) 0.0003(8) 0.0121(8) -0.0008(8)
C9 0.0367(11) 0.0229(10) 0.0322(11) -0.0030(9) 0.0233(9) -0.0036(9)
C29 0.0291(11) 0.0278(11) 0.0364(12) -0.0027(9) 0.0102(9) -0.0012(9)
C24 0.0249(10) 0.0457(13) 0.0247(11) -0.0026(9) 0.0107(9) -0.0043(9)
C14 0.0516(14) 0.0363(13) 0.0459(14) -0.0029(11) 0.0371(12) -0.0034(11)
C32 0.0224(10) 0.0400(12) 0.0230(10) 0.0000(9) 0.0100(8) -0.0028(9)
C5 0.0269(11) 0.0480(14) 0.0282(11) -0.0039(10) 0.0116(9) 0.0041(10)
C39 0.0406(13) 0.0298(12) 0.0532(15) -0.0092(11) 0.0277(12) -0.0061(10)
C4 0.0286(11) 0.0365(12) 0.0335(12) -0.0054(10) 0.0184(10) -0.0037(10)
C27 0.0283(11) 0.0355(12) 0.0418(13) 0.0106(10) 0.0112(10) -0.0027(10)
C23 0.0199(9) 0.0340(11) 0.0222(10) 0.0021(9) 0.0071(8) -0.0020(9)
C35 0.0522(15) 0.0420(15) 0.0573(17) -0.0085(13) 0.0191(14) 0.0129(13)
C15 0.0465(14) 0.0531(16) 0.0517(15) -0.0175(13) 0.0373(13) -0.0199(12)
C21 0.0387(13) 0.0441(14) 0.0434(14) 0.0127(11) 0.0112(11) 0.0041(11)
C17 0.0312(12) 0.0649(17) 0.0364(13) 0.0084(12) 0.0186(10) 0.0024(12)
C36 0.0437(14) 0.072(2) 0.0365(14) -0.0058(13) 0.0194(12) 0.0237(14)
C34 0.0353(12) 0.0338(13) 0.0493(15) 0.0016(11) 0.0166(11) 0.0038(10)
C26 0.0295(11) 0.0608(17) 0.0402(14) 0.0187(12) 0.0166(11) -0.0054(12)
O5 0.0491(11) 0.0395(11) 0.174(2) -0.0244(13) 0.0743(14) -0.0129(9)
C18 0.0334(12) 0.0334(12) 0.0329(12) 0.0083(10) 0.0124(10) -0.0037(10)
C37 0.0365(13) 0.0633(18) 0.0536(16) -0.0002(13) 0.0299(12) 0.0006(12)
C11 0.0295(10) 0.0258(10) 0.0310(11) -0.0047(9) 0.0178(9) -0.0018(9)
C38 0.0338(12) 0.0378(13) 0.0465(14) -0.0066(11) 0.0235(11) -0.0036(10)
O6 0.139(2) 0.0953(17) 0.0397(11) -0.0143(11) 0.0439(13) -0.0730(16)
C20 0.0583(16) 0.0428(15) 0.0495(16) 0.0106(12) 0.0111(13) -0.0175(13)
C16 0.0277(12) 0.093(2) 0.0410(15) -0.0084(14) 0.0191(11) -0.0093(13)
C19 0.0447(14) 0.0690(18) 0.0385(14) 0.0132(13) 0.0207(12) 0.0058(13)
C40 0.0601(16) 0.0303(13) 0.075(2) -0.0081(13) 0.0353(15) -0.0117(12)
C41 0.0515(19) 0.051(2) 0.229(5) -0.026(3) 0.062(3) 0.0067(16)
C42 0.171(4) 0.081(2) 0.053(2) -0.0308(18) 0.061(2) -0.065(3)
loop_
_atom_type_symbol
_atom_type_description
_atom_type_scat_dispersion_real
_atom_type_scat_dispersion_imag
_atom_type_scat_source
C C 0.0033 0.0016 'International Tables Vol C Tables 4.2.6.8 and 6.1.1.4'
H H 0.0000 0.0000 'International Tables Vol C Tables 4.2.6.8 and 6.1.1.4'
N N 0.0061 0.0033 'International Tables Vol C Tables 4.2.6.8 and 6.1.1.4'
O O 0.0106 0.0060 'International Tables Vol C Tables 4.2.6.8 and 6.1.1.4'
S S 0.1246 0.1234 'International Tables Vol C Tables 4.2.6.8 and 6.1.1.4'
loop_
_geom_angle_atom_site_label_1
_geom_angle_atom_site_label_2
_geom_angle_atom_site_label_3
_geom_angle
O3 S1 O2 117.38(10)
O3 S1 N1 110.38(9)
O2 S1 N1 109.90(9)
O3 S1 C18 109.00(10)
O2 S1 C18 108.08(10)
N1 S1 C18 100.78(9)
O6 S2 O5 115.25(16)
O6 S2 N2 108.85(11)
O5 S2 N2 113.20(11)
O6 S2 C39 110.64(14)
O5 S2 C39 107.69(12)
N2 S2 C39 100.16(10)
C11 O1 H1A 109.5
C22 N2 S2 125.16(15)
C32 O4 H2A 109.5
C1 N1 S1 121.31(14)
N1 C1 C2 117.02(17)
N1 C1 C10 126.49(18)
C2 C1 C10 116.48(17)
C34 C33 C38 119.0(2)
C34 C33 C32 120.41(19)
C38 C33 C32 120.53(19)
C4 C3 C2 120.47(19)
C4 C3 H1 119.8
C2 C3 H1 119.8
C7 C8 C9 113.22(17)
C7 C8 H2A 108.9
C9 C8 H2A 108.9
C7 C8 H2B 108.9
C9 C8 H2B 108.9
H2A C8 H2B 107.7
C7 C2 C3 120.15(18)
C7 C2 C1 120.03(18)
C3 C2 C1 119.80(17)
C6 C7 C2 118.22(19)
C6 C7 C8 119.68(18)
C2 C7 C8 122.08(18)
C14 C13 C12 120.8(2)
C14 C13 H5 119.6
C12 C13 H5 119.6
C1 C10 C9 107.24(16)
C1 C10 C11 112.36(16)
C9 C10 C11 112.24(16)
C1 C10 H6 108.3
C9 C10 H6 108.3
C11 C10 H6 108.3
C13 C12 C17 118.5(2)
C13 C12 C11 121.26(18)
C17 C12 C11 120.04(19)
C24 C25 C26 119.7(2)
C24 C25 H8 120.1
C26 C25 H8 120.1
N2 C22 C23 116.37(18)
N2 C22 C31 127.24(18)
C23 C22 C31 116.39(17)
C29 C30 C31 113.39(17)
C29 C30 H10A 108.9
C31 C30 H10A 108.9
C29 C30 H10B 108.9
C31 C30 H10B 108.9
H10A C30 H10B 107.7
C23 C28 C27 118.3(2)
C23 C28 C29 122.07(18)
C27 C28 C29 119.6(2)
C5 C6 C7 121.1(2)
C5 C6 H12 119.4
C7 C6 H12 119.4
C22 C31 C30 108.82(16)
C22 C31 C32 109.82(16)
C30 C31 C32 112.69(17)
C22 C31 H13 108.5
C30 C31 H13 108.5
C32 C31 H13 108.5
C8 C9 C10 112.42(16)
C8 C9 H14A 109.1
C10 C9 H14A 109.1
C8 C9 H14B 109.1
C10 C9 H14B 109.1
H14A C9 H14B 107.9
C28 C29 C30 113.19(17)
C28 C29 H15A 108.9
C30 C29 H15A 108.9
C28 C29 H15B 108.9
C30 C29 H15B 108.9
H15A C29 H15B 107.8
C25 C24 C23 120.5(2)
C25 C24 H16 119.8
C23 C24 H16 119.8
C15 C14 C13 120.5(2)
C15 C14 H17 119.8
C13 C14 H17 119.8
O4 C32 C33 113.03(16)
O4 C32 C31 111.12(17)
C33 C32 C31 109.15(16)
O4 C32 H18 107.8
C33 C32 H18 107.8
C31 C32 H18 107.8
C6 C5 C4 120.4(2)
C6 C5 H19 119.8
C4 C5 H19 119.8
C42 C39 C41 112.4(3)
C42 C39 C40 110.9(2)
C41 C39 C40 110.6(2)
C42 C39 S2 108.3(2)
C41 C39 S2 108.0(2)
C40 C39 S2 106.24(17)
C3 C4 C5 119.5(2)
C3 C4 H21 120.2
C5 C4 H21 120.2
C26 C27 C28 120.7(2)
C26 C27 H22 119.6
C28 C27 H22 119.6
C28 C23 C24 120.09(19)
C28 C23 C22 120.85(18)
C24 C23 C22 119.06(19)
C36 C35 C34 120.1(2)
C36 C35 H24 120.0
C34 C35 H24 120.0
C14 C15 C16 119.3(2)
C14 C15 H25 120.4
C16 C15 H25 120.4
C18 C21 H26A 109.5
C18 C21 H26B 109.5
H26A C21 H26B 109.5
C18 C21 H26C 109.5
H26A C21 H26C 109.5
H26B C21 H26C 109.5
C12 C17 C16 120.5(2)
C12 C17 H27 119.7
C16 C17 H27 119.7
C37 C36 C35 119.5(2)
C37 C36 H28 120.3
C35 C36 H28 120.3
C33 C34 C35 121.0(2)
C33 C34 H29 119.5
C35 C34 H29 119.5
C25 C26 C27 120.7(2)
C25 C26 H30 119.7
C27 C26 H30 119.7
C20 C18 C19 112.1(2)
C20 C18 C21 111.0(2)
C19 C18 C21 110.60(19)
C20 C18 S1 109.10(16)
C19 C18 S1 108.33(16)
C21 C18 S1 105.37(15)
C36 C37 C38 120.3(2)
C36 C37 H33 119.9
C38 C37 H33 119.9
O1 C11 C12 112.99(16)
O1 C11 C10 112.08(16)
C12 C11 C10 107.84(16)
O1 C11 H34 107.9
C12 C11 H34 107.9
C10 C11 H34 107.9
C33 C38 C37 120.1(2)
C33 C38 H35 119.9
C37 C38 H35 119.9
C18 C20 H37A 109.5
C18 C20 H37B 109.5
H37A C20 H37B 109.5
C18 C20 H37C 109.5
H37A C20 H37C 109.5
H37B C20 H37C 109.5
C15 C16 C17 120.3(2)
C15 C16 H38 119.9
C17 C16 H38 119.9
C18 C19 H39A 109.5
C18 C19 H39B 109.5
H39A C19 H39B 109.5
C18 C19 H39C 109.5
H39A C19 H39C 109.5
H39B C19 H39C 109.5
C39 C40 H40A 109.5
C39 C40 H40B 109.5
H40A C40 H40B 109.5
C39 C40 H40C 109.5
H40A C40 H40C 109.5
H40B C40 H40C 109.5
C39 C41 H41A 109.5
C39 C41 H41B 109.5
H41A C41 H41B 109.5
C39 C41 H41C 109.5
H41A C41 H41C 109.5
H41B C41 H41C 109.5
C39 C42 H42A 109.5
C39 C42 H42B 109.5
H42A C42 H42B 109.5
C39 C42 H42C 109.5
H42A C42 H42C 109.5
H42B C42 H42C 109.5
loop_
_geom_bond_atom_site_label_1
_geom_bond_atom_site_label_2
_geom_bond_distance
S1 O3 1.4368(16)
S1 O2 1.4478(17)
S1 N1 1.6599(16)
S1 C18 1.810(2)
S2 O6 1.423(2)
S2 O5 1.435(2)
S2 N2 1.6508(18)
S2 C39 1.788(2)
O1 C11 1.423(2)
O1 H1A 0.8200
N2 C22 1.292(3)
O4 C32 1.421(3)
O4 H2A 0.8200
N1 C1 1.298(3)
C1 C2 1.478(3)
C1 C10 1.514(3)
C33 C34 1.373(3)
C33 C38 1.383(3)
C33 C32 1.510(3)
C3 C4 1.379(3)
C3 C2 1.405(3)
C3 H1 0.9300
C8 C7 1.509(3)
C8 C9 1.517(3)
C8 H2A 0.9700
C8 H2B 0.9700
C2 C7 1.404(3)
C7 C6 1.399(3)
C13 C14 1.383(3)
C13 C12 1.384(3)
C13 H5 0.9300
C10 C9 1.537(3)
C10 C11 1.555(3)
C10 H6 0.9800
C12 C17 1.385(3)
C12 C11 1.520(3)
C25 C24 1.374(3)
C25 C26 1.382(4)
C25 H8 0.9300
C22 C23 1.481(3)
C22 C31 1.510(3)
C30 C29 1.521(3)
C30 C31 1.531(3)
C30 H10A 0.9700
C30 H10B 0.9700
C28 C23 1.400(3)
C28 C27 1.401(3)
C28 C29 1.505(3)
C6 C5 1.382(3)
C6 H12 0.9300
C31 C32 1.554(3)
C31 H13 0.9800
C9 H14A 0.9700
C9 H14B 0.9700
C29 H15A 0.9700
C29 H15B 0.9700
C24 C23 1.407(3)
C24 H16 0.9300
C14 C15 1.376(3)
C14 H17 0.9300
C32 H18 0.9800
C5 C4 1.392(3)
C5 H19 0.9300
C39 C42 1.506(4)
C39 C41 1.511(4)
C39 C40 1.528(3)
C4 H21 0.9300
C27 C26 1.384(3)
C27 H22 0.9300
C35 C36 1.377(4)
C35 C34 1.379(4)
C35 H24 0.9300
C15 C16 1.381(4)
C15 H25 0.9300
C21 C18 1.534(3)
C21 H26A 0.9600
C21 H26B 0.9600
C21 H26C 0.9600
C17 C16 1.390(3)
C17 H27 0.9300
C36 C37 1.376(4)
C36 H28 0.9300
C34 H29 0.9300
C26 H30 0.9300
C18 C20 1.520(3)
C18 C19 1.526(3)
C37 C38 1.389(3)
C37 H33 0.9300
C11 H34 0.9800
C38 H35 0.9300
C20 H37A 0.9600
C20 H37B 0.9600
C20 H37C 0.9600
C16 H38 0.9300
C19 H39A 0.9600
C19 H39B 0.9600
C19 H39C 0.9600
C40 H40A 0.9600
C40 H40B 0.9600
C40 H40C 0.9600
C41 H41A 0.9600
C41 H41B 0.9600
C41 H41C 0.9600
C42 H42A 0.9600
C42 H42B 0.9600
C42 H42C 0.9600
