#------------------------------------------------------------------------------
#$Date: 2017-09-12 06:18:37 +0300 (Tue, 12 Sep 2017) $
#$Revision: 200624 $
#$URL: file:///home/coder/svn-repositories/cod/cif/1/54/71/1547105.cif $
#------------------------------------------------------------------------------
#
# This file is available in the Crystallography Open Database (COD),
# http://www.crystallography.net/
#
# All data on this site have been placed in the public domain by the
# contributors.
#
data_1547105
loop_
_publ_author_name
'Tian, Hua'
'Zhang, Pengxiang'
'Peng, Fei'
'Yang, Haijun'
'Fu, Hua'
_publ_section_title
;
 Chiral Cyclic Ligand-Enabled Iridium-Catalyzed Asymmetric Arylation of
 Unactivated Racemic Allylic Alcohols with Anilines.
;
_journal_issue                   14
_journal_name_full               'Organic letters'
_journal_page_first              3775
_journal_page_last               3778
_journal_paper_doi               10.1021/acs.orglett.7b01631
_journal_volume                  19
_journal_year                    2017
_chemical_absolute_configuration ad
_chemical_formula_sum            'C24 H26 N2 O2 S'
_chemical_formula_weight         406.53
_space_group_crystal_system      orthorhombic
_space_group_IT_number           19
_space_group_name_Hall           'P 2ac 2ab'
_space_group_name_H-M_alt        'P 21 21 21'
_symmetry_space_group_name_Hall  'P 2ac 2ab'
_symmetry_space_group_name_H-M   'P 21 21 21'
_atom_sites_solution_hydrogens   mixed
_audit_creation_method           SHELXL-2014/7
_cell_angle_alpha                90
_cell_angle_beta                 90
_cell_angle_gamma                90
_cell_formula_units_Z            4
_cell_length_a                   9.3681(3)
_cell_length_b                   9.6820(3)
_cell_length_c                   23.6969(7)
_cell_measurement_reflns_used    9022
_cell_measurement_temperature    295(2)
_cell_measurement_theta_max      68.2915
_cell_measurement_theta_min      3.7305
_cell_volume                     2149.35(11)
_computing_structure_refinement  'SHELXL-2014/7 (Sheldrick, 2014)'
_diffrn_ambient_temperature      295(2)
_diffrn_measured_fraction_theta_full 0.991
_diffrn_measured_fraction_theta_max 0.990
_diffrn_measurement_device_type  'Bruker APEX-II CCD'
_diffrn_measurement_method       '\f and \w scans'
_diffrn_radiation_type           CuK\a
_diffrn_radiation_wavelength     1.54178
_diffrn_reflns_av_R_equivalents  0.0281
_diffrn_reflns_av_unetI/netI     0.0316
_diffrn_reflns_Laue_measured_fraction_full 0.991
_diffrn_reflns_Laue_measured_fraction_max 0.990
_diffrn_reflns_limit_h_max       10
_diffrn_reflns_limit_h_min       -11
_diffrn_reflns_limit_k_max       10
_diffrn_reflns_limit_k_min       -11
_diffrn_reflns_limit_l_max       23
_diffrn_reflns_limit_l_min       -28
_diffrn_reflns_number            12304
_diffrn_reflns_point_group_measured_fraction_full 0.987
_diffrn_reflns_point_group_measured_fraction_max 0.985
_diffrn_reflns_theta_full        67.679
_diffrn_reflns_theta_max         68.289
_diffrn_reflns_theta_min         3.730
_exptl_absorpt_coefficient_mu    1.507
_exptl_crystal_colour            colourless
_exptl_crystal_density_diffrn    1.256
_exptl_crystal_description       block
_exptl_crystal_F_000             864
_exptl_crystal_size_max          0.25
_exptl_crystal_size_mid          0.19
_exptl_crystal_size_min          0.15
_refine_diff_density_max         0.137
_refine_diff_density_min         -0.302
_refine_diff_density_rms         0.032
_refine_ls_abs_structure_details
;
 Flack x determined using 1468 quotients [(I+)-(I-)]/[(I+)+(I-)]
 (Parsons, Flack and Wagner, Acta Cryst. B69 (2013) 249-259).
;
_refine_ls_abs_structure_Flack   0.032(6)
_refine_ls_extinction_method     none
_refine_ls_goodness_of_fit_ref   1.066
_refine_ls_hydrogen_treatment    mixed
_refine_ls_matrix_type           full
_refine_ls_number_parameters     269
_refine_ls_number_reflns         3897
_refine_ls_number_restraints     0
_refine_ls_restrained_S_all      1.066
_refine_ls_R_factor_all          0.0326
_refine_ls_R_factor_gt           0.0303
_refine_ls_shift/su_max          0.001
_refine_ls_shift/su_mean         0.000
_refine_ls_structure_factor_coef Fsqd
_refine_ls_weighting_details
'w=1/[\s^2^(Fo^2^)+(0.0470P)^2^+0.0953P] where P=(Fo^2^+2Fc^2^)/3'
_refine_ls_weighting_scheme      calc
_refine_ls_wR_factor_gt          0.0785
_refine_ls_wR_factor_ref         0.0797
_reflns_Friedel_coverage         0.730
_reflns_Friedel_fraction_full    0.982
_reflns_Friedel_fraction_max     0.977
_reflns_number_gt                3664
_reflns_number_total             3897
_reflns_threshold_expression     'I > 2\s(I)'
_cod_data_source_file            ol7b01631_si_002.cif
_cod_data_source_block           cu_20170406_yjp_0m
_cod_original_cell_volume        2149.36(11)
_cod_database_code               1547105
_shelx_shelxl_version_number     2014/7
_shelx_space_group_comment
;
The symmetry employed for this shelxl refinement is uniquely defined
by the following loop, which should always be used as a source of
symmetry information in preference to the above space-group names.
They are only intended as comments.
;
_shelx_res_file
;

    cu_20170406_yjp_0m.res created by SHELXL-2014/7


TITL cu_20170406_yjp_0m_a.res in P2(1)2(1)2(1)
REM Old TITL cu_20170406_yjp_0m in P2(1)2(1)2(1)

REM SHELXT solution in P2(1)2(1)2(1)
REM R1 0.125,  Rweak 0.035,  Alpha 0.003,  Orientation as input
REM Flack x =  0.074 ( 0.007 ) from Parsons' quotients
REM Formula found by SHELXT:  C22 N2 O4 S

CELL  1.54178   9.3681   9.6820  23.6969   90.000   90.000   90.000
ZERR   4   0.0003   0.0003   0.0007    0.000    0.000    0.000
LATT -1
SYMM 1/2-X, -Y, 1/2+Z
SYMM -X, 1/2+Y, 1/2-Z
SYMM 1/2+X, 1/2-Y, -Z
SFAC C H N O S
UNIT 96 104 8 8 4
TEMP 22.000
L.S. 10
BOND $H
LIST 6
FMAP 2
PLAN 20
ACTA
WGHT    0.047000    0.095300
FVAR       0.31463
S1    5    0.428510    0.312360    0.712219    11.00000    0.04996    0.03810 =
         0.04559    0.00243    0.01635   -0.00386
H1    2    0.585958    0.463091    0.723410    11.00000    0.04356
C1    1    0.695862    0.601750    0.353109    11.00000    0.07721    0.08552 =
         0.04619    0.00195   -0.00700   -0.01281
AFIX 137
H1A   2    0.714035    0.642779    0.316935    11.00000   -1.50000
H1B   2    0.601832    0.626706    0.365575    11.00000   -1.50000
H1C   2    0.702546    0.503087    0.350077    11.00000   -1.50000
AFIX   0
O1    4    0.346036    0.393588    0.750368    11.00000    0.06467    0.05215 =
         0.05443   -0.00243    0.02749   -0.00075
N1    3    0.799771    0.650838    0.393279    11.00000    0.07251    0.08438 =
         0.03796    0.00044    0.00186   -0.02805
N2    3    0.589548    0.376927    0.716130    11.00000    0.05318    0.03955 =
         0.03724    0.00008    0.00887   -0.00324
O2    4    0.438912    0.166578    0.719736    11.00000    0.06544    0.04136 =
         0.06970    0.01000    0.01883   -0.00367
C2    1    0.940030    0.677292    0.371554    11.00000    0.08132    0.08918 =
         0.04637    0.00570    0.01375   -0.02631
AFIX 137
H2A   2    0.933672    0.700625    0.332260    11.00000   -1.50000
H2B   2    0.998024    0.596265    0.375978    11.00000   -1.50000
H2C   2    0.982273    0.752692    0.391883    11.00000   -1.50000
AFIX   0
C5    1    0.863856    0.652948    0.547091    11.00000    0.04466    0.05854 =
         0.04472    0.00441   -0.00091   -0.01368
AFIX  43
H5    2    0.931876    0.687224    0.572011    11.00000   -1.20000
AFIX   0
C4    1    0.882166    0.674166    0.489809    11.00000    0.05316    0.06409 =
         0.04172    0.00529    0.00533   -0.02261
AFIX  43
H4    2    0.962891    0.720562    0.477065    11.00000   -1.20000
AFIX   0
C3    1    0.781524    0.627124    0.450769    11.00000    0.05065    0.04129 =
         0.04157    0.00112    0.00513   -0.00579
C6    1    0.662511    0.559701    0.472345    11.00000    0.04187    0.04851 =
         0.04728   -0.00292   -0.00136   -0.00606
AFIX  43
H6    2    0.591972    0.528915    0.447761    11.00000   -1.20000
AFIX   0
C7    1    0.646945    0.537537    0.529510    11.00000    0.03561    0.04486 =
         0.05246    0.00180    0.00824   -0.00601
AFIX  43
H7    2    0.566428    0.491054    0.542407    11.00000   -1.20000
AFIX   0
C9    1    0.730043    0.549029    0.630793    11.00000    0.03949    0.04297 =
         0.04332    0.00776    0.01188    0.00417
AFIX  13
H9    2    0.627483    0.552977    0.638780    11.00000   -1.20000
AFIX   0
C8    1    0.747489    0.582330    0.568388    11.00000    0.03730    0.03866 =
         0.04216    0.00447    0.00763    0.00257
C10   1    0.799581    0.655165    0.668079    11.00000    0.07688    0.05227 =
         0.04085   -0.00165    0.01716    0.00101
AFIX  43
H10   2    0.765695    0.745150    0.665070    11.00000   -1.20000
AFIX   0
C11   1    0.902580    0.634297    0.704256    11.00000    0.10009    0.07769 =
         0.06136   -0.01139   -0.00725   -0.00945
AFIX  93
H11A  2    0.940296    0.546172    0.708892    11.00000   -1.20000
H11B  2    0.938186    0.707567    0.725372    11.00000   -1.20000
AFIX   0
C12   1    0.778128    0.402643    0.644661    11.00000    0.03725    0.04301 =
         0.03976    0.00313    0.00065    0.00235
C13   1    0.708083    0.322388    0.684755    11.00000    0.04125    0.04419 =
         0.03376    0.00278   -0.00056    0.00074
C14   1    0.754353    0.189850    0.697024    11.00000    0.06057    0.04781 =
         0.04956    0.01230    0.00062    0.00247
AFIX  43
H14   2    0.705458    0.136526    0.723328    11.00000   -1.20000
AFIX   0
C15   1    0.873273    0.137002    0.670116    11.00000    0.06445    0.05113 =
         0.07381    0.01037   -0.00271    0.01809
AFIX  43
H15   2    0.903622    0.047554    0.677903    11.00000   -1.20000
AFIX   0
C16   1    0.946880    0.216729    0.631770    11.00000    0.04965    0.06254 =
         0.07892    0.00127    0.00894    0.01752
AFIX  43
H16   2    1.028627    0.182434    0.614463    11.00000   -1.20000
AFIX   0
C17   1    0.898888    0.346977    0.619269    11.00000    0.04335    0.05769 =
         0.05997    0.01075    0.01210    0.00880
AFIX  43
H17   2    0.948639    0.399674    0.593004    11.00000   -1.20000
AFIX   0
C18   1    0.297421    0.466449    0.631701    11.00000    0.05238    0.05020 =
         0.06000   -0.00728    0.00306    0.00332
AFIX  43
H18   2    0.284911    0.531748    0.660055    11.00000   -1.20000
AFIX   0
C19   1    0.248254    0.492290    0.578045    11.00000    0.04983    0.06602 =
         0.07017    0.00412    0.00011    0.00562
AFIX  43
H19   2    0.203641    0.576029    0.570391    11.00000   -1.20000
AFIX   0
C20   1    0.263748    0.396402    0.535237    11.00000    0.04205    0.08590 =
         0.06035   -0.00184   -0.00187   -0.01092
C21   1    0.332410    0.274270    0.547539    11.00000    0.06386    0.06967 =
         0.05926   -0.01784    0.00311   -0.01110
AFIX  43
H21   2    0.344882    0.209181    0.519102    11.00000   -1.20000
AFIX   0
C22   1    0.383541    0.245786    0.601355    11.00000    0.05918    0.04712 =
         0.06215   -0.00970    0.01010   -0.00267
AFIX  43
H22   2    0.429190    0.162576    0.609017    11.00000   -1.20000
AFIX   0
C23   1    0.365256    0.343476    0.643269    11.00000    0.03851    0.04379 =
         0.05164   -0.00360    0.00891   -0.00637
C24   1    0.207278    0.425554    0.476764    11.00000    0.07919    0.14894 =
         0.06973   -0.00066   -0.01761    0.00046
AFIX 137
H24A  2    0.266471    0.493458    0.458767    11.00000   -1.50000
H24B  2    0.111321    0.459758    0.479380    11.00000   -1.50000
H24C  2    0.208137    0.341984    0.454965    11.00000   -1.50000
REM #####
REM #####
AFIX   0
HKLF 4

REM  cu_20170406_yjp_0m_a.res in P2(1)2(1)2(1)
REM R1 =  0.0303 for    3664 Fo > 4sig(Fo)  and  0.0326 for all    3897 data
REM    269 parameters refined using      0 restraints

END

WGHT      0.0470      0.0953

REM Highest difference peak  0.137,  deepest hole -0.302,  1-sigma level  0.032
Q1    1   0.4141  0.3547  0.6727  11.00000  0.05    0.14
Q2    1   0.9206  0.7841  0.3433  11.00000  0.05    0.13
Q3    1   0.7753  0.1346  0.6740  11.00000  0.05    0.12
Q4    1   0.8234  0.5739  0.4079  11.00000  0.05    0.11
Q5    1   0.9528  0.5984  0.3337  11.00000  0.05    0.11
Q6    1   0.2806  0.3868  0.4487  11.00000  0.05    0.11
Q7    1   0.4920  0.4543  0.6443  11.00000  0.05    0.11
Q8    1   0.8392  0.7196  0.5134  11.00000  0.05    0.10
Q9    1   0.8779  0.6032  0.5134  11.00000  0.05    0.10
Q10   1   0.3073  0.3929  0.6515  11.00000  0.05    0.10
Q11   1   0.9279  0.7597  0.5758  11.00000  0.05    0.10
Q12   1   0.7426  0.5739  0.5977  11.00000  0.05    0.10
Q13   1   1.0541  0.6566  0.4010  11.00000  0.05    0.10
Q14   1   0.6863  0.5024  0.4942  11.00000  0.05    0.10
Q15   1   0.3981  0.3134  0.6284  11.00000  0.05    0.09
Q16   1   0.6999  0.6386  0.4651  11.00000  0.05    0.09
Q17   1   0.7471  0.5539  0.4661  11.00000  0.05    0.09
Q18   1   0.2409  0.2509  0.6709  11.00000  0.05    0.09
Q19   1   0.5639  0.1832  0.6629  11.00000  0.05    0.09
Q20   1   0.3654  0.3034  0.6316  11.00000  0.05    0.09
;
_shelx_res_checksum              35523
_shelx_hkl_file
;
   1   0   0   -0.02    0.06
  -1   0   0    0.02    0.06
   3   0   0    0.31    0.26
  -3   0   0    0.14    0.23
   4   0   0   42.96    2.48
  -4   0   0   41.03    1.66
   5   0   0    0.10    0.63
  -5   0   0    0.07    0.19
  -6   0   0  303.00   11.04
  -7   0   0   -0.14    0.45
   7   0   0   -0.18    0.33
  -7   0   0   -0.23    0.20
   8   0   0    0.80    0.32
  -8   0   0    1.09    0.32
  -8   0   0    0.89    0.41
   9   0   0   -0.04    0.25
  -9   0   0    0.20    0.31
  -9   0   0    0.03    0.27
 -10   0   0    7.32    0.71
 -10   0   0    8.69    0.60
 -11   0   0    0.17    0.18
   0  -1   0    0.10    0.06
  -2   1   0  470.99   17.44
   3   1   0   77.01    3.19
  -3   1   0   69.09    2.73
  -3   1   0   74.98    3.50
   3  -1   0   71.05    3.45
   4   1   0  125.73    5.31
   4  -1   0  125.76    5.68
  -4  -1   0  121.05    4.57
   5   1   0    2.13    1.12
  -5  -1   0    2.22    0.35
   5  -1   0    2.08    0.97
  -5   1   0    2.03    0.33
  -6  -1   0    2.44    0.40
   6  -1   0    2.64    0.47
  -6   1   0    2.04    0.37
  -7   1   0    0.46    0.39
   7   1   0    0.25    0.34
   7  -1   0    0.13    0.34
  -7   1   0    0.32    0.24
  -7  -1   0    0.13    0.22
  -8  -1   0    3.48    0.52
  -8  -1   0    3.30    0.53
  -8   1   0    3.88    0.57
  -8   1   0    3.40    0.52
   8   1   0    3.43    0.54
   8  -1   0    4.51    0.61
  -9  -1   0    0.39    0.34
  -9   1   0    0.50    0.26
   9   1   0    0.04    0.25
  -9   1   0    0.30    0.28
  -9  -1   0    0.03    0.28
   9  -1   0    0.24    0.29
 -10   1   0    6.24    0.64
 -10   1   0    6.55    0.50
 -10  -1   0    5.00    0.52
 -10  -1   0    6.14    0.60
 -11  -1   0    0.87    0.22
 -11   1   0    1.00    0.19
  -3   2   0  212.73    7.74
   3  -2   0  218.51    8.78
   3   2   0  210.47    7.95
   3  -2   0  214.10    7.78
   4   2   0  143.43    5.72
   4  -2   0  150.51    6.65
  -4  -2   0  136.21    5.23
   4  -2   0  143.82    5.31
  -5  -2   0   35.95    1.50
  -5   2   0   36.11    1.48
  -6   2   0   29.79    1.29
   6  -2   0   29.28    1.45
  -6   2   0   28.64    1.35
  -6  -2   0   30.03    1.32
  -7  -2   0    6.90    0.60
   7  -2   0    7.44    0.70
   7   2   0    7.51    0.68
  -7   2   0    6.02    0.61
  -7   2   0    6.83    0.57
  -8   2   0   21.45    1.08
   8  -2   0   20.78    1.13
  -8   2   0   21.04    1.05
  -8  -2   0   22.58    1.12
  -8  -2   0   20.03    1.76
  -9   2   0    0.43    0.31
   9  -2   0    0.43    0.31
  -9  -2   0    0.74    0.38
  -9   2   0    0.40    0.26
  -9  -2   0    0.05    0.27
 -10  -2   0    0.92    0.28
 -10   2   0    0.49    0.21
 -10   2   0    0.11    0.41
 -10  -2   0    0.25    0.27
  10  -2   0    0.40    0.25
 -11  -2   0    0.16    0.20
 -11   2   0    0.51    0.16
   0  -3   0    0.23    0.18
   1  -3   0  255.55    9.84
   2  -3   0    2.58    0.68
   2  -3   0    2.50    0.30
   3  -3   0   26.83    2.10
   4  -3   0  209.64    9.39
   4  -3   0  216.70    7.82
  -5   3   0   15.61    0.75
  -5  -3   0   15.36    0.78
   5  -3   0   14.19    2.86
   5  -3   0   14.51    0.91
   6  -3   0    1.11    0.44
  -6   3   0    0.17    0.29
  -6  -3   0    0.04    0.25
   6  -3   0    0.28    0.43
  -6   3   0    0.13    0.69
  -6   3   0    0.17    0.22
  -7   3   0    0.72    0.27
   7  -3   0    0.86    0.42
  -7   3   0    0.89    0.36
  -7   3   0    0.79    0.64
  -7  -3   0    0.58    0.28
   8  -3   0    3.30    0.48
  -8   3   0    2.68    0.71
  -8  -3   0    2.57    0.50
  -8   3   0    2.40    0.42
  -8   3   0    2.34    0.38
  -9  -3   0    5.93    0.90
  -9   3   0    6.82    0.49
   9  -3   0    6.34    0.63
  -9  -3   0    6.80    0.60
 -10   3   0    6.66    0.41
 -10  -3   0    6.75    0.56
 -10  -3   0    6.47    0.57
   1  -4   0  490.35   17.70
   1  -4   0  496.51   18.54
   2  -4   0   48.19    2.71
   2  -4   0   39.54    1.73
   3  -4   0  181.46    8.11
   4  -4   0   22.51    1.07
   4  -4   0   20.98    2.79
   5  -4   0    2.07    0.38
  -5   4   0    2.15    0.32
  -5   4   0    1.65    0.55
   5  -4   0    1.98    0.43
  -6  -4   0    8.99    0.69
   6  -4   0    8.60    0.94
  -6   4   0    8.93    0.98
  -6   4   0    9.74    0.60
   6  -4   0    9.64    0.78
  -7  -4   0   31.67    1.50
  -7   4   0   32.47    1.71
  -7   4   0   33.80    1.37
   7  -4   0   34.48    1.63
   8  -4   0    0.88    0.36
  -8  -4   0    0.91    0.32
  -8   4   0    1.02    0.52
  -8   4   0    0.90    0.21
  -9   4   0    0.22    0.19
   9  -4   0    0.48    0.32
  -9  -4   0    0.23    0.27
  -9   4   0    0.11    0.51
 -10  -4   0    3.20    0.40
 -10  -4   0    3.44    0.48
   0  -5   0    0.10    0.34
   0  -5   0    0.08    0.17
   1  -5   0   84.04    3.18
   1  -5   0   84.86    4.12
   2  -5   0   93.08    4.86
   2  -5   0   96.97    3.61
   3  -5   0    0.19    0.19
  -4   5   0  158.71    6.10
   4  -5   0  161.53    6.08
   4  -5   0  165.56    6.09
   5  -5   0  125.39    5.02
  -5   5   0  130.61    4.96
   5  -5   0  128.06    4.88
   5  -5   0  128.68    4.94
   6  -5   0    7.72    1.01
   6  -5   0    9.53    1.03
   6  -5   0    7.19    0.77
   7  -5   0    4.22    0.68
   7  -5   0    5.76    0.79
  -7   5   0    4.95    0.82
  -7  -5   0    4.60    0.63
   8  -5   0    1.00    0.37
  -8  -5   0    0.38    0.32
  -8   5   0   -0.08    0.41
  -9   5   0    6.49    0.76
   9  -5   0    5.86    0.59
  -9  -5   0    6.11    0.57
 -10   5   0    4.95    0.71
   0  -6   0  224.92    8.19
   1  -6   0   -0.08    0.19
  -1  -6   0    0.29    0.22
   2  -6   0   50.91    2.09
   3  -6   0   88.99    3.46
  -3   6   0   89.11    3.45
   3  -6   0   85.10    3.50
   4  -6   0   18.66    1.07
  -4   6   0   19.09    1.13
   4  -6   0   19.90    1.15
   5  -6   0    0.77    0.40
  -5   6   0    0.83    0.55
   5  -6   0    1.13    0.38
   6  -6   0   29.35    1.61
  -6   6   0   30.58    1.50
   6  -6   0   29.10    1.43
   6  -6   0   31.11    1.70
  -7   6   0   31.26    1.52
   7  -6   0   31.17    1.55
   7  -6   0   30.70    1.42
   8  -6   0    5.48    0.69
  -8   6   0    5.99    0.71
  -9   6   0    6.44    0.63
   0  -7   0    0.00    0.23
  -1   7   0    9.30    0.80
   1  -7   0    8.74    0.64
  -1  -7   0    8.60    0.63
  -2   7   0   16.02    0.93
   2  -7   0   15.64    0.92
   2  -7   0   15.87    1.31
  -3   7   0   50.04    2.06
   3  -7   0   48.07    2.18
   3  -7   0   48.73    2.13
   4  -7   0   79.86    3.28
  -4   7   0   81.46    3.18
   4  -7   0   78.02    3.22
   5  -7   0   11.27    0.98
   5  -7   0   11.97    0.88
  -5   7   0   12.70    0.87
   6  -7   0    1.53    0.37
   6  -7   0    1.89    0.62
  -6   7   0    1.47    0.39
  -7   7   0    3.39    0.46
   7  -7   0    2.89    0.52
   7  -7   0    3.43    0.58
  -8   7   0    1.15    0.32
  -9   7   0   12.06    0.67
   0  -8   0   26.31    1.28
  -1   8   0    0.65    0.35
  -1  -8   0    0.13    0.32
  -2   8   0    7.34    0.65
   2  -8   0    6.73    0.71
   2  -8   0    6.77    1.03
   3  -8   0   12.57    0.98
   3  -8   0   12.35    0.91
  -3   8   0   11.44    0.78
   4  -8   0    3.21    0.50
  -4   8   0    4.27    0.58
   4  -8   0    4.18    0.71
   5  -8   0    2.55    0.57
  -5   8   0    3.35    0.56
   5  -8   0    2.67    0.44
  -6   8   0   12.93    0.80
   6  -8   0   12.79    1.39
   6  -8   0   13.07    0.80
  -7   8   0    0.56    0.25
   7  -8   0    0.96    0.32
  -8   8   0    6.27    0.46
   0  -9   0   -0.01    0.32
  -1  -9   0   17.93    1.05
   1  -9   0   18.76    1.09
  -2   9   0    4.88    0.52
  -2  -9   0    5.14    0.88
   2  -9   0    4.53    0.65
   2  -9   0    4.53    0.68
   3  -9   0    1.06    0.39
  -3   9   0    1.46    0.30
   3  -9   0    1.38    0.42
  -4   9   0   13.62    0.74
   4  -9   0   14.12    1.03
   4  -9   0   13.39    0.89
  -5   9   0    0.89    0.25
   5  -9   0    0.53    0.51
   5  -9   0    0.64    0.30
   6  -9   0   11.10    0.67
  -6   9   0   10.59    0.61
  -7   9   0    2.06    0.31
   0 -10   0    0.44    0.39
   1 -10   0    0.71    0.49
   1 -10   0    0.19    0.37
   2 -10   0   -0.07    0.35
   2 -10   0    0.62    0.39
   3 -10   0    0.42    0.38
   3 -10   0    0.52    0.32
   4 -10   0   10.07    0.69
   4 -10   0   10.76    0.95
  -4  10   0    9.88    0.52
  -5  10   0    1.92    0.30
   5 -10   0    2.45    0.40
   0 -11   0   -0.70    0.41
   1 -11   0    2.75    0.50
   1 -11   0    4.42    0.65
   2 -11   0   -0.25    0.29
   2 -11   0    0.13    0.41
   3 -11   0    7.22    0.55
   3   0   1   30.02    1.70
   3   0  -1   29.14    1.70
  -3   0   1   28.42    1.70
   4   0   1   58.56    3.09
  -4   0   1   59.97    3.14
   4   0  -1   59.32    3.09
  -4   0   1   58.11    2.25
  -4   0  -1   55.23    2.23
  -5   0  -1   13.53    0.73
   5   0  -1   12.90    1.69
   5   0   1   13.88    1.79
  -5   0   1   14.18    0.73
  -6   0   1    1.32    0.27
   7   0   1   57.56    2.28
  -7   0   1   55.98    2.30
   7   0  -1   56.63    2.28
  -7   0  -1   54.15    2.26
  -7   0  -1   54.51    2.34
  -8   0  -1   13.91    0.92
  -8   0  -1   15.87    0.90
  -8   0   1   16.25    0.97
   8   0  -1   13.63    0.88
  -8   0   1   14.81    0.91
   8   0   1   15.14    0.87
   9   0   1    8.84    0.63
   9   0  -1    9.75    0.67
  -9   0   1    9.81    0.75
  -9   0  -1    9.90    0.72
  -9   0   1    9.72    0.75
  -9   0  -1    9.48    0.70
 -10   0   1    4.48    0.50
 -10   0  -1    3.62    0.46
 -10   0  -1    4.34    0.57
 -10   0   1    4.39    0.57
 -11   0   1    0.01    0.18
 -11   0  -1    0.08    0.18
   0  -1  -1   37.27    1.48
   0   1   1   36.87    1.49
  -1  -1   1    5.16    0.33
   1   1   1    5.42    0.27
   1  -1  -1    5.29    0.46
   1   1   1    5.54    0.29
  -2   1   1  134.27    5.55
   2   1  -1  138.07    5.26
   2  -1   1  142.40    5.57
   2   1   1  135.52    5.23
  -2  -1   1  139.33    5.29
   2  -1  -1  136.67    5.52
   3   1  -1  380.33   14.01
  -3   1   1  368.83   13.51
   3  -1   1  394.62   14.40
  -3   1   1  390.63   14.42
  -3   1  -1  338.67   13.48
   3   1   1  375.30   14.00
   3  -1  -1  380.70   14.35
  -4   1   1   67.89    3.66
   4   1  -1   66.49    3.24
   4  -1   1   67.69    3.61
  -4  -1  -1   64.88    2.56
  -4  -1   1   63.50    3.80
   4  -1  -1   71.59    3.66
   4   1   1   71.23    3.31
  -5   1   1    1.06    0.23
   5   1  -1    1.40    0.88
   5  -1   1    1.47    0.91
  -5  -1  -1    1.34    0.25
  -5   1  -1    1.93    0.30
   6  -1   1   12.45    0.85
  -6  -1  -1   12.07    0.71
  -6   1   1   12.36    0.72
  -6  -1   1   12.64    0.74
  -6   1  -1   13.21    0.71
   6  -1  -1   12.14    0.88
   7  -1   1    6.56    0.70
  -7   1   1    7.24    0.73
   7   1  -1    7.77    0.70
  -7  -1  -1    6.44    1.06
  -7   1   1    6.36    0.57
  -7  -1  -1    6.75    0.56
   7  -1  -1    6.97    0.72
  -7   1  -1    6.64    0.71
  -7   1  -1    6.71    0.57
   7   1   1    7.05    0.65
  -7  -1   1    7.43    0.62
   8  -1   1    0.71    0.34
   8   1  -1    1.90    0.35
  -8   1   1    1.05    0.31
  -8  -1  -1    1.21    0.45
  -8   1   1    1.51    0.35
  -8  -1  -1    1.36    0.31
  -8  -1   1    1.21    0.47
  -8   1  -1    0.69    0.32
   8  -1  -1    1.01    0.39
  -8  -1   1    0.92    0.30
  -8   1  -1    1.03    0.30
   8   1   1    1.08    0.32
   9   1  -1    3.72    0.47
  -9   1   1    4.23    0.53
  -9   1   1    3.83    0.56
  -9  -1  -1    4.17    0.55
   9  -1   1    3.03    0.49
  -9  -1  -1    4.18    0.60
  -9   1  -1    5.65    0.53
  -9  -1   1    4.99    0.67
  -9  -1   1    5.35    0.60
  -9   1  -1    5.14    0.56
   9  -1  -1    5.00    0.56
 -10  -1  -1    0.81    0.29
 -10   1   1    0.86    0.25
 -10  -1  -1    0.60    0.26
 -10   1   1    0.30    0.33
  10  -1  -1    0.78    0.25
 -10  -1   1    0.53    0.30
 -10  -1   1    0.30    0.27
 -10   1  -1    1.14    0.33
 -10   1  -1    0.60    0.23
 -11   1   1    9.59    0.51
 -11  -1  -1    9.76    0.55
 -11  -1   1   10.90    0.57
 -11   1  -1   10.15    0.52
   3   2  -1   64.03    2.63
   3  -2   1   63.23    3.30
  -3   2   1   62.53    3.33
   3  -2   1   62.28    2.43
  -3   2   1   57.53    2.39
   3  -2  -1   66.20    3.31
   3  -2  -1   63.09    2.43
   3   2   1   67.53    2.61
  -3   2  -1   63.42    2.39
  -3  -2   1   67.11    2.70
  -4  -2  -1   32.68    1.39
   4  -2   1   35.82    2.58
   4  -2   1   34.83    1.49
   4   2  -1   34.74    1.84
  -4   2   1   33.48    2.61
  -4  -2   1   38.44    1.41
   4   2   1   35.94    1.84
   4  -2  -1   34.91    1.49
   4  -2  -1   36.84    2.60
  -5   2   1   27.58    1.17
  -5  -2  -1   27.63    1.18
  -5   2  -1   26.26    1.15
   5  -2  -1   26.27    3.65
  -6   2   1    5.53    0.49
   6  -2   1    4.72    0.70
  -6   2   1    5.09    0.65
  -6  -2  -1    4.93    0.49
  -6   2  -1    6.43    0.63
  -6  -2   1    6.88    0.55
   6  -2  -1    7.31    0.77
   7  -2   1   18.58    1.07
  -7   2   1   19.50    0.97
   7   2  -1   18.75    0.98
  -7   2   1   18.96    0.97
  -7  -2  -1   19.05    0.97
  -7   2  -1   17.63    0.93
  -7  -2   1   16.98    0.98
   7  -2  -1   17.69    1.06
   7   2   1   18.03    0.94
  -7   2  -1   17.44    0.95
  -8  -2  -1   19.62    1.72
  -8  -2  -1   20.57    1.05
  -8   2   1   20.66    1.02
  -8   2   1   20.15    1.04
   8  -2   1   21.14    1.09
  -8   2  -1   18.45    1.01
   8  -2  -1   18.83    1.09
  -8   2  -1   18.63    0.98
  -8  -2   1   19.27    1.08
   9  -2   1   10.20    0.75
  -9   2   1   10.07    0.78
  -9   2   1   10.64    0.68
  -9  -2  -1   10.45    0.85
  -9  -2  -1   11.59    0.76
  -9  -2   1   12.25    0.92
  -9   2  -1   12.09    0.69
  -9  -2   1   12.30    0.80
  -9   2  -1   12.29    0.78
   9  -2  -1   11.33    0.77
 -10  -2  -1    3.31    0.47
 -10   2   1    3.33    0.50
 -10   2   1    3.19    0.37
 -10  -2  -1    3.47    0.49
  10  -2  -1    3.17    0.46
 -10   2  -1    3.08    0.49
 -10  -2   1    4.56    0.52
 -10  -2   1    3.42    0.53
 -10   2  -1    3.48    0.37
 -11   2   1    1.19    0.20
 -11  -2  -1    1.51    0.23
 -11   2  -1    1.14    0.18
 -11  -2   1    1.63    0.25
   0  -3  -1  295.19   10.98
   0  -3   1  295.72   11.03
   1  -3   1  167.07    6.50
  -1   3   1  167.89    6.50
  -1  -3   1  157.28    5.94
  -1  -3   1  151.13    5.92
   1  -3  -1  160.05    6.43
  -2   3   1   70.23    3.63
   2  -3   1   69.30    3.60
   2  -3  -1   80.33    3.67
   2  -3  -1   83.27    2.90
   3  -3   1  164.59    7.50
  -3   3   1  164.61    7.47
   3  -3  -1  182.92    7.51
   4  -3   1   23.79    1.17
   4  -3   1   22.06    2.32
   4  -3  -1   29.87    2.59
   4  -3  -1   29.78    1.21
  -5  -3  -1    3.11    0.46
   5  -3   1    3.24    0.61
  -5   3   1    2.81    0.39
  -5  -3   1    2.75    0.43
  -5   3  -1    2.43    0.34
   5  -3  -1    2.90    0.57
   5  -3  -1    2.06    1.26
  -6  -3  -1   25.90    1.14
  -6   3   1   24.65    1.13
  -6   3   1   24.77    1.11
   6  -3   1   24.30    1.29
   6  -3   1   23.52    1.26
  -6   3   1   25.67    1.58
   6  -3  -1   24.91    1.25
   6  -3  -1   22.82    1.31
  -6  -3   1   23.76    1.16
  -6   3  -1   22.96    1.11
  -6   3  -1   24.10    1.52
  -6   3  -1   23.66    1.09
  -7   3   1    0.39    0.26
   7  -3   1    0.56    0.66
  -7  -3  -1    0.43    0.26
  -7   3   1    0.18    0.65
  -7   3   1    0.64    0.33
   7  -3  -1    0.00    0.65
  -7   3  -1   -0.04    0.24
  -7   3  -1    0.29    0.61
  -7  -3   1    0.21    0.27
  -8   3   1    0.69    0.65
  -8   3   1    0.25    0.24
  -8  -3  -1    0.04    0.26
  -8   3   1    0.20    0.32
   8  -3   1   -0.05    0.32
  -8   3  -1    0.09    0.22
   8  -3  -1   -0.25    0.34
  -8  -3   1   -0.06    0.27
  -8   3  -1    0.75    0.62
  -8   3  -1    0.29    0.30
   9  -3   1   13.84    0.84
  -9   3   1   14.09    0.72
  -9  -3  -1   13.42    0.82
  -9  -3   1   14.55    0.86
  -9   3  -1   14.79    0.71
   9  -3  -1   15.19    0.90
  -9  -3   1   13.52    1.14
 -10  -3  -1    5.64    0.53
 -10  -3  -1    6.48    0.53
 -10   3   1    6.51    0.38
 -10  -3   1    4.36    0.55
 -10  -3   1    4.56    0.54
  10  -3  -1    4.84    0.49
 -10   3  -1    5.27    0.38
   0  -4   1   11.22    0.92
   0  -4  -1   11.07    0.88
   1  -4   1   43.57    1.58
   1  -4   1   41.80    2.28
   1  -4  -1   37.47    2.19
  -1  -4   1   41.40    1.69
   1  -4  -1   36.61    1.55
  -1  -4   1   38.47    1.66
   2  -4   1   81.94    3.93
   2  -4  -1   70.91    3.77
   2  -4  -1   70.64    2.82
   3  -4   1  124.08    6.03
   3  -4  -1  121.10    5.97
   4  -4   1   13.78    2.38
   4  -4   1   14.70    0.83
   4  -4  -1   17.53    0.86
   4  -4  -1   13.77    2.44
   5  -4   1    0.33    0.32
   5  -4   1    0.46    0.35
  -5   4   1   -0.04    0.29
  -5   4   1    0.41    0.53
   5  -4  -1    0.33    0.34
  -5   4  -1   -0.18    0.27
   5  -4  -1    0.53    0.32
  -5   4  -1    0.35    0.53
  -6   4   1   23.46    1.43
  -6   4   1   25.36    1.06
   6  -4   1   22.71    1.34
  -6  -4  -1   24.31    1.12
   6  -4   1   22.81    1.18
   6  -4  -1   23.07    1.20
  -6  -4   1   22.97    1.16
  -6   4  -1   23.83    1.04
  -6   4  -1   22.72    1.36
   6  -4  -1   21.24    1.33
   7  -4   1    0.23    0.38
  -7   4   1   -0.19    0.22
  -7   4   1    0.23    0.53
  -7  -4  -1    0.25    0.29
  -7   4  -1    0.39    0.51
  -7   4  -1    0.49    0.22
   7  -4  -1    0.40    0.41
  -7  -4   1   -0.07    0.31
  -8   4   1    8.74    0.50
   8  -4   1    8.60    0.73
  -8   4   1    7.23    0.99
  -8   4  -1    6.17    0.47
  -8   4  -1    7.14    0.93
  -8  -4   1    6.62    0.66
   8  -4  -1    6.21    0.73
  -9   4   1    5.94    0.91
   9  -4   1    6.02    0.68
  -9   4   1    5.72    0.41
  -9  -4  -1    5.83    0.58
  -9  -4   1    5.39    0.58
  -9   4  -1    6.33    0.41
  -9   4  -1    5.20    0.91
   9  -4  -1    6.22    0.68
 -10  -4  -1    5.21    0.67
 -10  -4  -1    3.75    0.48
 -10  -4   1    4.51    0.52
 -10  -4   1    5.11    0.55
   0  -5  -1    3.24    0.32
   0  -5   1    3.30    0.34
   0  -5  -1    2.73    0.68
   0  -5   1    2.90    0.76
   0  -5   1    3.04    0.76
   1  -5   1   41.28    1.61
   1  -5   1   41.48    2.50
   1  -5  -1   38.61    1.60
   1  -5  -1   38.60    2.41
   2  -5   1    1.81    0.33
   2  -5   1    2.07    0.86
   3  -5   1   72.96    2.92
   3  -5  -1   76.36    2.93
   4  -5   1   63.47    2.70
  -4   5   1   68.67    2.75
   4  -5   1   68.24    2.70
   4  -5  -1   67.75    2.71
  -4   5  -1   64.31    2.73
   4  -5  -1   67.85    2.73
   5  -5   1    7.80    0.74
  -5   5   1    8.43    0.88
   5  -5   1    7.88    0.73
   5  -5   1    6.52    1.13
   5  -5  -1    5.30    0.79
  -5   5  -1    6.18    0.81
   5  -5  -1    7.11    0.71
   5  -5  -1    7.01    0.72
   6  -5   1    2.67    0.46
   6  -5   1    1.95    0.55
   6  -5   1    2.57    0.67
  -6   5   1    3.43    0.66
   6  -5  -1    1.74    0.58
  -6   5  -1    2.44    0.79
   6  -5  -1    2.06    0.64
   6  -5  -1    1.84    0.42
   7  -5   1   16.97    0.94
  -7  -5  -1   16.01    0.91
  -7   5   1   15.52    1.10
   7  -5   1   16.50    1.03
   7  -5  -1   14.63    1.08
  -7  -5   1   15.03    0.94
   7  -5  -1   15.44    0.97
  -7   5  -1   15.36    1.09
  -8   5   1    2.81    0.52
   8  -5   1    2.84    0.45
  -8  -5  -1    2.71    0.51
  -8   5  -1    3.05    0.53
   8  -5  -1    2.59    0.44
  -8  -5   1    2.51    0.42
  -9  -5  -1    0.21    0.28
  -9   5   1    0.33    0.41
   9  -5  -1    0.15    0.29
  -9   5  -1    0.20    0.40
  -9  -5   1    0.15    0.29
 -10   5   1    7.94    0.77
 -10   5  -1    9.13    0.76
   0  -6  -1    5.83    0.46
   0  -6   1    6.25    0.47
   1  -6   1   67.94    2.68
  -1  -6  -1   66.69    2.69
   1  -6  -1   71.17    2.68
  -1  -6   1   69.39    2.61
   2  -6   1   83.41    3.18
   2  -6  -1   79.43    3.17
   3  -6   1   19.38    1.01
   3  -6   1   18.03    1.19
  -3   6   1   18.67    1.09
   3  -6  -1   18.67    1.00
   3  -6  -1   17.57    1.22
  -3   6  -1   18.85    1.08
   4  -6   1    3.23    0.55
   4  -6   1    2.87    0.46
  -4   6   1    3.30    0.52
   4  -6  -1    2.77    0.55
  -4   6  -1    3.30    0.50
   4  -6  -1    2.87    0.49
  -5   6   1    1.15    0.51
   5  -6   1    0.31    0.34
   5  -6   1    0.87    0.41
   5  -6  -1    0.23    0.38
  -5   6  -1    0.00    0.46
   5  -6  -1    0.29    0.37
   6  -6   1    2.53    0.43
   6  -6   1    3.18    0.62
   6  -6   1    2.76    0.61
  -6   6   1    1.81    0.46
   6  -6  -1    1.81    0.41
   6  -6  -1    2.03    0.63
   6  -6  -1    1.20    0.60
  -6   6  -1    1.31    0.42
   7  -6   1   32.35    1.61
  -7   6   1   33.51    1.60
   7  -6   1   34.98    1.48
   7  -6  -1   31.91    1.48
   7  -6  -1   32.19    1.62
  -7   6  -1   32.79    1.58
   8  -6   1    7.80    0.71
  -8   6   1    7.53    0.75
   8  -6  -1    7.06    0.72
  -8   6  -1    6.49    0.74
  -9   6   1    1.96    0.39
  -9   6  -1    1.62    0.36
   0  -7   1    8.68    0.63
   0  -7  -1    9.67    0.63
  -1  -7  -1   28.20    1.22
   1  -7   1   28.45    1.29
  -1   7   1   27.22    1.30
  -1  -7   1   26.76    1.23
   1  -7  -1   25.75    1.26
  -1   7  -1   27.41    1.30
  -2   7   1    2.67    0.45
   2  -7   1    3.11    0.67
   2  -7   1    3.11    0.49
   2  -7  -1    2.21    0.66
  -2   7  -1    3.51    0.46
   2  -7  -1    2.90    0.49
   3  -7   1   46.79    2.13
   3  -7   1   49.31    2.19
  -3   7   1   49.87    2.09
   3  -7  -1   47.80    2.13
   3  -7  -1   49.95    2.21
  -3   7  -1   52.18    2.07
   4  -7   1   13.86    0.99
  -4   7   1   13.27    0.93
   4  -7  -1   14.82    1.01
   4  -7  -1   14.94    1.00
  -4   7  -1   14.39    0.92
  -5   7   1   27.12    1.33
   5  -7   1   27.65    1.35
   5  -7   1   25.74    1.44
   5  -7  -1   26.15    1.44
   5  -7  -1   24.97    1.34
  -5   7  -1   25.22    1.31
   6  -7   1    6.62    0.67
  -6   7   1    6.13    0.69
   6  -7   1    7.19    1.11
  -6   7  -1    6.57    0.70
   6  -7  -1    6.18    0.67
   6  -7  -1    8.53    1.15
  -7   7   1    1.72    0.38
   7  -7   1    2.23    0.40
   7  -7  -1    2.49    0.47
   7  -7  -1    2.71    0.58
  -7   7  -1    2.13    0.40
  -8   7   1    2.66    0.39
  -8   7  -1    3.75    0.50
  -9   7   1    4.75    0.46
  -9   7  -1    5.52    0.47
   0  -8   1    5.70    0.60
   0  -8  -1    5.91    0.60
  -1  -8  -1   39.20    1.71
  -1   8   1   43.90    1.81
  -1  -8   1   38.33    1.73
  -1   8  -1   38.43    1.63
   2  -8   1    4.44    0.62
  -2   8   1    4.54    0.60
   2  -8   1    5.87    0.97
   2  -8  -1    4.19    0.61
  -2  -8   1    3.98    0.77
   2  -8  -1    4.86    0.72
  -2   8  -1    4.21    0.56
   3  -8   1    1.92    0.47
  -3   8   1    2.60    0.40
   3  -8   1    1.97    0.44
  -3   8  -1    1.77    0.37
   3  -8  -1    2.12    0.43
   3  -8  -1    1.84    0.48
   4  -8   1   18.75    1.10
   4  -8   1   19.44    1.19
  -4   8   1   18.12    1.00
   4  -8  -1   18.50    1.18
   4  -8  -1   18.91    1.11
  -4   8  -1   18.65    1.01
   5  -8   1   10.46    0.77
   5  -8   1   10.43    0.99
  -5   8   1   10.28    0.73
  -5   8  -1    8.53    0.71
   5  -8  -1    9.46    0.77
   5  -8  -1    8.37    0.95
  -6   8   1    0.79    0.30
   6  -8   1   -0.21    0.67
   6  -8   1    0.44    0.30
  -6   8  -1    0.51    0.29
   6  -8  -1   -0.35    0.66
   6  -8  -1    0.42    0.31
   7  -8   1   16.67    0.84
  -7   8   1   15.00    0.82
   7  -8  -1   15.36    0.83
  -7   8  -1   15.43    0.81
  -8   8   1    0.22    0.21
  -8   8  -1    0.71    0.22
   0  -9  -1    0.60    0.36
   0  -9   1    0.91    0.35
   1  -9   1    0.59    0.94
  -1  -9  -1    1.53    0.40
   1  -9   1    0.62    0.35
   1  -9  -1    0.86    0.35
  -1  -9   1   -0.05    0.36
  -2   9   1    0.59    0.29
   2  -9   1    0.85    0.47
   2  -9   1    0.99    0.37
   2  -9  -1    1.14    0.39
   2  -9  -1    0.15    0.47
  -2  -9   1    1.34    0.48
  -2   9  -1    1.22    0.30
  -3   9   1   32.58    1.38
   3  -9   1   33.95    1.58
   3  -9   1   34.89    1.67
   3  -9  -1   32.42    1.64
   3  -9  -1   31.78    1.57
  -3   9  -1   32.84    1.38
   4  -9   1    7.16    0.68
  -4   9   1    7.44    0.55
   4  -9   1    7.82    0.83
   4  -9  -1    6.55    0.83
   4  -9  -1    6.76    0.70
  -4   9  -1    7.14    0.54
  -5   9   1    3.79    0.44
   5  -9   1    3.09    0.53
   5  -9   1    3.07    0.61
   5  -9  -1    4.54    0.65
  -5   9  -1    4.93    0.45
   5  -9  -1    4.51    0.57
   6  -9   1    2.80    0.44
  -6   9   1    3.40    0.38
  -6   9  -1    2.75    0.37
   6  -9  -1    3.92    0.46
  -7   9   1    0.16    0.18
  -7   9  -1    0.12    0.17
   0 -10   1    1.81    0.44
   0 -10  -1    2.34    0.46
   1 -10   1    4.72    0.86
   1 -10  -1    6.13    0.71
   1 -10  -1    5.80    0.88
   2 -10   1    4.01    0.69
   2 -10   1    4.49    0.66
   2 -10  -1    3.88    0.66
   2 -10  -1    4.38    0.68
   3 -10   1    1.43    0.35
   3 -10   1    1.11    0.41
   3 -10  -1    1.30    0.42
   3 -10  -1    1.49    0.35
   4 -10   1    1.50    0.31
  -4  10   1    1.68    0.23
   4 -10   1    1.87    0.50
  -4  10  -1    1.95    0.33
   4 -10  -1    2.07    0.51
  -5  10   1    5.10    0.48
   5 -10   1    4.94    0.46
   5 -10  -1    4.16    0.44
  -5  10  -1    4.32    0.35
   0 -11   1    1.92    0.46
   0 -11  -1    1.74    0.47
   1 -11   1    1.40    0.39
   1 -11   1    1.47    0.44
   1 -11  -1    1.23    0.42
   1 -11  -1    1.17    0.45
   2 -11   1    7.22    0.82
   2 -11   1    8.14    0.64
   2 -11  -1    7.93    0.85
   2 -11  -1    9.71    0.66
   3 -11   1    0.78    0.26
   3 -11  -1    1.20    0.27
   0   0   2   79.99    3.06
   0   0  -2   82.33    3.07
   1   0  -2    5.80    0.45
  -1   0   2    6.11    0.47
   3   0  -2   25.21    1.56
   3   0   2   25.78    1.58
  -3   0   2   24.51    1.59
  -4   0  -2   20.20    0.91
   4   0  -2   23.14    1.69
  -4   0   2   21.42    1.72
   4   0   2   20.51    1.66
  -4   0   2   20.85    0.95
  -5   0   2    8.98    1.69
   5   0   2    8.13    1.59
  -5   0   2    8.83    0.55
  -5   0  -2    8.20    0.51
   5   0  -2    8.47    1.51
  -6   0   2  103.20    3.94
  -6   0  -2  102.40    3.89
  -7   0   2   29.65    1.40
  -7   0  -2   29.73    1.47
   7   0   2   31.71    1.38
  -7   0  -2   28.79    1.35
   7   0  -2   30.94    1.43
  -8   0  -2   70.22    2.85
   8   0  -2   70.91    2.85
  -8   0   2   72.00    2.90
  -8   0   2   70.50    2.90
   8   0   2   72.09    2.81
  -8   0  -2   75.05    2.87
  -9   0   2    5.68    0.64
   9   0  -2    6.69    0.59
  -9   0  -2    6.71    0.60
  -9   0   2    7.58    0.69
  -9   0  -2    6.81    0.60
 -10   0  -2    2.50    0.50
 -10   0  -2    2.91    0.40
 -10   0   2    2.76    0.43
 -10   0   2    2.44    0.40
 -11   0   2    0.83    0.21
 -11   0  -2    1.02    0.21
  -1   1   2   87.27    3.59
   1   1  -2   89.26    3.38
   1   1   2   87.97    3.30
   1  -1  -2   91.93    3.58
  -1  -1   2   86.65    3.42
   2  -1   2  483.68   17.17
  -2   1   2  464.90   17.18
   2  -1  -2  435.34   17.08
  -3   1   2  221.00    9.12
   3   1  -2  226.63    8.75
   3  -1   2  221.94    9.08
  -3   1   2  217.74    8.25
   3  -1  -2  247.55    9.14
  -3  -1   2  233.48    8.84
   3   1   2  238.67    8.78
  -3   1  -2  214.61    8.22
   4  -1   2  131.84    6.06
  -4   1   2  131.11    6.13
  -4  -1  -2  125.76    4.92
   4   1  -2  128.34    5.67
   4   1   2  139.70    5.75
  -4  -1   2  141.74    5.82
   4  -1  -2  137.32    6.07
  -4  -1   2  139.78    4.95
   5  -1   2  131.39    6.64
  -5   1   2  140.74    6.94
  -5   1   2  138.28    5.09
  -5  -1   2  124.06    5.22
   5  -1  -2  143.45    6.71
  -5   1  -2  142.20    5.06
   6  -1   2   57.12    2.33
  -6   1   2   61.80    2.32
  -6  -1  -2   59.83    2.28
  -6   1  -2   54.99    2.25
  -6  -1   2   53.52    2.30
   6  -1  -2   55.32    2.37
   7  -1   2    3.07    0.44
   7   1  -2    2.90    0.44
  -7  -1  -2    3.15    0.64
  -7   1   2    3.63    0.51
  -7   1   2    3.37    0.49
  -7  -1  -2    3.31    0.44
  -7   1  -2    2.12    0.43
  -7   1  -2    2.09    0.43
   7  -1  -2    1.85    0.44
   7   1   2    2.38    0.39
  -8   1   2   12.70    0.80
   8   1  -2   11.93    0.77
  -8   1   2   11.54    0.98
  -8  -1  -2   12.56    0.93
  -8  -1  -2   12.40    0.76
   8   1   2   10.66    0.72
  -8   1  -2   11.12    0.74
   8  -1  -2   11.64    1.18
  -8  -1   2   11.24    0.81
  -8   1  -2   10.76    0.93
   9   1  -2    8.17    0.57
  -9  -1  -2    8.68    0.64
  -9  -1  -2    7.70    0.69
  -9   1   2    7.57    0.68
   9  -1   2    7.60    0.61
  -9   1   2    7.56    0.63
  -9  -1   2    7.68    0.69
   9  -1  -2    6.28    0.63
  -9   1  -2    7.66    0.60
  -9  -1   2    7.95    0.74
  -9   1  -2    7.56    0.65
 -10   1   2    0.93    0.26
 -10  -1  -2    0.84    0.28
 -10   1   2    1.04    0.36
 -10  -1  -2    0.77    0.26
 -10   1  -2    1.40    0.25
 -10  -1   2    1.02    0.29
  10  -1  -2    1.19    0.27
 -10  -1   2    1.73    0.35
 -10   1  -2    1.73    0.36
 -11  -1  -2    4.27    0.36
 -11   1   2    3.48    0.34
 -11  -1   2    4.10    0.38
 -11   1  -2    3.96    0.34
   1  -2   2  311.75   11.53
  -1   2   2  308.68   11.54
   1  -2  -2  297.75   11.47
   2  -2   2   22.21    1.46
  -2   2   2   22.30    1.50
   2   2  -2   22.37    0.98
  -2  -2   2   17.51    1.02
  -3   2   2  212.88    7.93
  -3   2   2  221.08    9.06
   3  -2   2  221.20    9.00
   3   2  -2  214.69    8.21
   3  -2   2  217.23    7.95
  -3  -2   2  224.29    8.34
   3   2   2  220.01    8.18
  -3   2  -2  209.53    7.90
   3  -2  -2  216.65    7.95
   3  -2  -2  227.58    8.98
   3   2   2  221.86    8.10
   4  -2   2   40.56    1.72
   4  -2   2   39.65    2.80
  -4   2   2   40.16    2.91
  -4  -2  -2   38.89    1.64
   4   2  -2   41.92    2.14
  -4  -2   2   43.28    1.65
   4  -2  -2   43.78    1.73
  -4  -2   2   43.81    2.25
   4   2   2   43.63    2.13
   4  -2  -2   44.25    2.86
  -5   2   2   34.77    1.47
  -5  -2  -2   34.12    1.45
   5  -2  -2   36.59    3.13
  -5   2  -2   36.65    1.46
   6  -2   2   63.06    2.59
  -6   2   2   63.41    2.52
  -6   2   2   62.82    2.54
  -6  -2  -2   63.71    2.50
  -6  -2   2   63.06    2.55
  -6   2  -2   63.82    2.52
   6  -2  -2   63.41    2.63
  -6   2  -2   66.48    2.50
  -7  -2  -2    3.86    0.47
  -7   2   2    3.82    0.56
   7   2  -2    3.81    0.47
  -7   2   2    4.46    0.53
   7  -2   2    4.32    0.64
  -7  -2   2    5.44    0.58
   7   2   2    5.42    0.59
   7  -2  -2    5.96    0.72
  -7   2  -2    5.85    0.56
  -7   2  -2    5.40    0.50
   8  -2   2   14.34    0.87
  -8   2   2   15.30    0.88
  -8  -2  -2   15.02    0.84
  -8   2   2   15.29    0.83
  -8   2  -2   13.18    0.80
  -8   2  -2   13.95    0.84
  -8  -2   2   12.24    0.89
   8  -2  -2   13.05    0.93
  -9   2   2    7.23    0.68
  -9  -2  -2    7.64    0.62
  -9  -2  -2    8.13    0.71
   9  -2   2    7.52    0.63
  -9   2   2    8.30    0.58
  -9   2  -2    6.28    0.53
  -9   2  -2    6.56    0.64
  -9  -2   2    5.95    0.75
   9  -2  -2    6.42    0.66
  -9  -2   2    6.86    0.67
 -10  -2  -2    4.93    0.49
 -10  -2  -2    5.17    0.53
 -10   2   2    5.43    0.77
 -10   2   2    5.19    0.42
 -10  -2   2    5.61    0.58
  10  -2  -2    6.37    0.52
 -10   2  -2    6.57    0.42
 -10   2  -2    5.45    0.75
 -10  -2   2    5.63    0.60
 -11  -2  -2    3.33    0.34
 -11  -2   2    3.29    0.38
 -11   2  -2    3.30    0.31
   0   3   2   58.08    2.52
   0  -3  -2   55.38    2.59
   1  -3   2   50.53    2.51
  -1   3   2   50.57    2.51
   1  -3  -2   50.40    2.46
  -1  -3   2   49.07    2.08
  -2   3   2   52.13    2.86
   2  -3   2   52.21    2.85
   2  -3  -2   55.10    2.83
   3  -3   2   28.24    2.26
   3  -3  -2   34.96    2.34
   4  -3   2  269.00   11.37
   4  -3   2  270.59    9.63
  -4   3   2  262.18   11.48
   4  -3  -2  259.75    9.62
   4  -3  -2  257.25   11.22
   5  -3   2    5.23    1.82
  -5  -3  -2    4.08    0.48
  -5   3   2    4.86    0.45
   5  -3   2    4.03    0.61
   5  -3  -2    5.38    0.68
  -5   3  -2    5.02    0.42
   5  -3  -2    4.97    1.73
  -6   3   2    0.34    0.24
  -6   3   2   -0.32    0.73
  -6   3   2    0.42    0.28
   6  -3   2    0.29    0.43
   6  -3   2    0.48    0.45
  -6  -3   2    0.51    0.29
  -6   3  -2    0.44    0.22
   6  -3  -2    0.62    0.43
  -6   3  -2    0.26    0.27
   6  -3  -2    0.07    0.47
  -6   3  -2    0.82    0.60
  -7  -3  -2   15.49    0.86
  -7   3   2   15.58    0.87
  -7   3   2   12.75    1.41
  -7  -3   2   17.77    0.96
  -7   3  -2   16.97    0.86
  -7   3  -2   15.29    1.28
   8  -3   2    0.38    0.32
  -8   3   2    0.35    0.35
  -8  -3  -2    0.61    0.26
  -8   3   2    0.80    0.66
  -8   3   2    0.50    0.24
   8  -3  -2    0.05    0.35
  -8   3  -2    0.59    0.31
  -8   3  -2    0.05    0.23
  -8  -3   2    0.11    0.30
  -8   3  -2    0.89    0.63
  -9  -3  -2    5.02    0.53
   9  -3   2    4.64    0.57
  -9   3   2    5.06    0.44
  -9   3  -2    5.47    0.42
  -9  -3   2    6.26    0.62
   9  -3  -2    6.22    0.64
  -9  -3   2    5.98    0.89
 -10  -3  -2    4.59    0.47
 -10  -3  -2    4.97    0.48
 -10   3   2    4.79    0.35
 -10  -3   2    4.39    0.53
  10  -3  -2    3.53    0.47
 -10   3  -2    4.24    0.35
 -10  -3   2    4.24    0.54
   0  -4  -2  274.33   10.52
   0  -4   2  273.73   10.64
   0  -4   2  287.51   10.64
   1  -4   2   73.31    3.74
   1  -4   2   70.81    2.98
   1  -4  -2   88.93    3.79
  -1  -4   2   79.53    3.23
   1  -4  -2   81.82    2.99
  -1  -4   2   86.33    3.29
   2  -4   2   16.88    1.61
  -2   4   2   17.06    1.71
   2  -4  -2   14.02    0.73
   2  -4  -2   13.99    1.46
   3  -4   2   69.08    4.10
   3  -4  -2   74.94    4.13
   3  -4  -2   68.43    2.80
   4  -4   2  132.15    4.88
   4  -4   2  122.60    6.82
   4  -4  -2  128.47    6.77
   4  -4  -2  134.59    4.90
   5  -4   2    5.89    0.70
  -5   4   2    6.89    0.57
  -5   4   2    5.34    0.73
   5  -4   2    6.50    0.87
   5  -4   2    5.61    0.67
   5  -4  -2    6.57    0.73
  -5   4  -2    6.06    0.88
  -5  -4   2    6.34    0.58
  -5   4  -2    7.39    0.54
   5  -4  -2    6.73    0.68
  -6  -4  -2   18.48    0.93
  -6   4   2   19.38    0.90
  -6   4   2   18.89    1.32
   6  -4   2   19.68    1.03
   6  -4   2   17.43    1.16
  -6   4  -2   19.86    0.88
  -6   4  -2   17.54    1.20
   6  -4  -2   18.05    1.05
   6  -4  -2   17.52    1.20
  -7   4   2   77.84    3.32
  -7   4   2   76.64    2.99
   7  -4   2   75.22    3.18
  -7  -4  -2   77.61    3.07
  -7   4  -2   81.50    3.00
  -7  -4   2   81.71    3.17
   7  -4  -2   83.42    3.25
  -7   4  -2   81.28    3.28
  -8   4   2    2.95    0.60
  -8   4   2    3.41    0.38
  -8  -4  -2    2.93    0.47
   8  -4   2    2.25    0.42
  -8   4  -2    2.47    0.56
   8  -4  -2    3.90    0.64
  -8  -4   2    3.30    0.60
  -8   4  -2    2.64    0.37
  -9   4   2    0.20    0.49
   9  -4   2    0.05    0.37
  -9   4   2    0.01    0.19
   9  -4  -2    0.71    0.45
  -9   4  -2    0.35    0.51
  -9   4  -2    0.10    0.18
  -9  -4   2    0.60    0.33
 -10  -4  -2    5.30    0.51
 -10  -4   2    6.19    0.57
 -10  -4   2    6.87    0.62
  10  -4  -2    5.99    0.51
   0  -5  -2    3.04    0.71
   0  -5   2    4.28    0.82
   0  -5   2    3.74    0.81
   0  -5   2    4.13    0.36
   0  -5  -2    3.69    0.32
   1  -5   2    6.67    0.46
   1  -5   2    6.30    1.15
  -1  -5   2    6.89    0.50
   1  -5  -2    6.55    1.10
  -1  -5   2    6.95    0.64
   1  -5  -2    6.60    0.45
   2  -5   2  166.86    6.05
   2  -5   2  154.56    7.39
   2  -5  -2  166.21    6.03
   2  -5  -2  165.20    7.36
   3  -5   2   61.95    2.54
   3  -5  -2   65.62    2.55
   4  -5   2   12.41    0.80
  -4   5   2   12.34    0.98
   4  -5   2   11.35    0.89
   4  -5  -2   13.69    0.97
  -4   5  -2   14.03    0.95
   5  -5   2   39.14    1.97
   5  -5   2   39.46    1.73
   5  -5   2   38.45    1.77
  -5   5   2   37.32    1.83
  -5   5  -2   39.00    1.78
   5  -5  -2   40.06    1.75
   5  -5  -2   38.21    1.79
   6  -5   2   17.05    1.26
  -6   5   2   16.44    1.21
   6  -5   2   17.53    1.00
   6  -5  -2   16.09    1.73
   6  -5  -2   19.04    1.05
  -6   5  -2   18.63    1.12
   6  -5  -2   18.50    1.34
  -6  -5   2   18.41    1.01
   7  -5   2    7.23    0.71
  -7  -5  -2    6.17    0.60
  -7   5   2    5.65    0.83
   7  -5   2    5.48    0.76
  -7   5  -2    4.80    0.77
   7  -5  -2    6.72    0.85
   7  -5  -2    5.35    0.71
  -7  -5   2    5.78    0.70
   8  -5   2   10.06    0.79
  -8  -5  -2   10.99    0.69
  -8   5   2   10.70    0.91
   8  -5  -2    9.37    0.81
  -8   5  -2    8.83    0.85
  -8  -5   2    9.73    0.77
  -9   5   2    3.76    0.52
  -9  -5  -2    4.09    0.49
   9  -5  -2    4.35    0.54
  -9  -5   2    3.44    0.54
  -9   5  -2    4.72    0.70
 -10   5   2    1.76    0.43
 -10   5  -2    1.47    0.42
   0  -6  -2  133.79    4.88
   0  -6   2  130.41    4.90
   1  -6   2   12.77    0.71
  -1  -6  -2   13.89    0.71
  -1  -6   2   10.55    0.79
   1  -6  -2   11.49    0.68
  -2   6   2   23.15    1.41
   2  -6   2   19.83    1.05
  -2   6  -2   23.05    1.15
   2  -6  -2   21.86    1.06
  -3   6   2    0.51    0.44
   3  -6   2    0.80    0.50
   3  -6   2    0.42    0.26
   3  -6  -2    0.73    0.48
  -3   6  -2    1.27    0.40
   3  -6  -2    0.86    0.28
   4  -6   2    6.56    0.66
   4  -6   2    5.88    0.69
  -4   6   2    7.08    0.77
  -4   6  -2    4.49    0.69
   4  -6  -2    5.54    0.76
   4  -6  -2    4.44    0.60
  -5   6   2   46.72    2.08
   5  -6   2   43.14    1.98
   5  -6   2   43.39    2.07
   5  -6  -2   46.83    2.10
   5  -6  -2   49.28    2.04
  -5   6  -2   47.12    2.06
   6  -6   2   20.90    1.42
   6  -6   2   20.69    1.34
   6  -6   2   20.94    1.13
  -6   6   2   19.52    1.23
   6  -6  -2   22.18    1.18
  -6   6  -2   21.92    1.21
   6  -6  -2   24.19    1.46
   6  -6  -2   22.86    1.47
   7  -6   2   12.42    0.82
  -7   6   2   12.32    0.93
   7  -6   2   13.04    0.98
  -7   6  -2   11.26    0.90
   7  -6  -2   12.76    1.01
   7  -6  -2   12.57    0.84
  -8   6   2    7.66    0.75
  -8   6  -2    7.17    0.75
   8  -6  -2    8.30    0.73
  -9   6   2    1.03    0.36
   9  -6  -2    1.66    0.33
  -9   6  -2    1.27    0.35
   0  -7  -2    0.88    0.25
   0  -7   2    0.16    0.25
  -1   7   2    8.05    0.76
  -1  -7  -2    7.29    0.56
   1  -7   2    6.53    0.58
  -1   7  -2    6.29    0.68
   1  -7  -2    6.85    0.58
  -1  -7   2    6.60    0.60
  -2   7   2   24.61    1.28
   2  -7   2   25.10    1.27
   2  -7   2   24.25    1.53
   2  -7  -2   26.03    1.59
  -2   7  -2   28.34    1.27
   2  -7  -2   26.20    1.27
   3  -7   2    7.27    0.69
  -3   7   2    7.26    0.76
   3  -7   2    7.75    0.84
   3  -7  -2    6.81    0.67
   3  -7  -2    6.17    0.90
  -3   7  -2    8.61    0.70
   4  -7   2  123.68    4.63
  -4   7   2  120.70    4.60
   4  -7   2  122.48    4.70
   4  -7  -2  115.81    4.69
   4  -7  -2  117.99    4.64
  -4   7  -2  117.66    4.57
   5  -7   2   13.53    0.93
  -5   7   2   14.93    0.98
   5  -7   2   14.86    1.08
   5  -7  -2   16.03    0.99
  -5   7  -2   17.41    0.98
   5  -7  -2   15.16    1.09
   6  -7   2    0.66    0.59
   6  -7   2    0.68    0.33
  -6   7   2    0.66    0.36
  -6   7  -2    0.45    0.34
   6  -7  -2    1.04    0.36
   6  -7  -2    0.71    0.63
   7  -7   2    3.29    0.44
  -7   7   2    4.19    0.59
  -7   7  -2    3.42    0.57
   7  -7  -2    4.10    0.63
   7  -7  -2    4.38    0.62
  -8   7   2    6.06    0.59
  -8   7  -2    6.44    0.55
   0  -8   2   15.28    0.91
   0  -8  -2   14.99    0.88
   1  -8   2    7.49    0.71
  -1  -8  -2    6.86    0.65
   1  -8  -2    8.50    0.86
  -1   8  -2    8.56    0.92
  -1  -8   2    7.98    0.68
   2  -8   2    6.90    0.92
  -2   8   2    7.01    0.64
   2  -8   2    6.46    0.66
   2  -8  -2    6.13    0.99
   2  -8  -2    5.27    0.64
  -2   8  -2    4.79    0.59
  -3   8   2   57.38    2.35
   3  -8   2   58.40    2.52
   3  -8   2   56.28    2.47
   3  -8  -2   58.39    2.51
  -3   8  -2   60.24    2.35
   3  -8  -2   58.82    2.52
   4  -8   2   12.58    0.90
  -4   8   2   11.99    0.79
   4  -8   2   12.38    0.97
   4  -8  -2   12.20    0.91
   4  -8  -2   11.77    0.94
  -4   8  -2   11.39    0.79
   5  -8   2    2.86    0.44
  -5   8   2    1.93    0.38
   5  -8   2    1.83    0.52
   5  -8  -2    1.53    0.40
   5  -8  -2    1.50    0.50
  -5   8  -2    1.39    0.35
   6  -8   2   19.10    1.51
   6  -8   2   18.54    1.24
  -6   8   2   20.36    1.02
  -6   8  -2   19.55    0.99
   6  -8  -2   18.00    1.54
   6  -8  -2   19.00    1.11
  -7   8   2    0.52    0.26
   7  -8   2    0.29    0.31
   7  -8  -2    0.50    0.31
  -7   8  -2    0.75    0.25
  -8   8   2    6.35    0.45
  -8   8  -2    5.92    0.44
   0  -9  -2    8.67    0.76
   0  -9   2    7.60    0.75
   1  -9   2    3.64    0.64
   1  -9   2    4.03    0.66
  -1  -9  -2    3.57    0.67
  -1  -9   2    4.05    0.66
   1  -9  -2    5.48    0.67
   2  -9   2   21.15    1.20
  -2   9   2   21.54    0.96
   2  -9   2   20.62    1.23
  -2   9  -2   20.13    0.93
  -2  -9   2   18.38    1.15
   2  -9  -2   19.78    1.17
   2  -9  -2   19.90    1.24
   3  -9   2    4.46    0.68
  -3   9   2    4.09    0.49
   3  -9   2    5.07    0.72
   3  -9  -2    4.65    0.70
  -3   9  -2    4.24    0.47
   3  -9  -2    4.49    0.70
  -4   9   2   15.90    0.80
   4  -9   2   14.29    0.91
   4  -9   2   14.74    1.07
   4  -9  -2   14.63    1.06
  -4   9  -2   14.38    0.77
   4  -9  -2   14.60    0.92
  -5   9   2    0.45    0.25
   5  -9   2    0.53    0.49
   5  -9   2   -0.13    0.27
   5  -9  -2   -0.32    0.47
   5  -9  -2    0.55    0.29
  -5   9  -2    0.06    0.22
   6  -9   2    0.53    0.25
  -6   9   2    0.24    0.21
  -6   9  -2    0.61    0.21
   6  -9  -2    0.03    0.25
  -7   9   2    3.49    0.34
  -7   9  -2    4.38    0.35
   0 -10  -2   14.17    0.96
   0 -10   2   14.15    0.97
   1 -10   2    0.20    0.35
  -1 -10  -2   -0.09    0.52
   1 -10   2    0.29    0.45
   1 -10  -2    0.34    0.51
   1 -10  -2    0.34    0.36
   2 -10   2    2.58    0.46
   2 -10   2    2.26    0.44
   2 -10  -2    2.07    0.43
  -2 -10   2    2.29    0.53
   2 -10  -2    1.81    0.42
   3 -10   2    0.90    0.33
   3 -10   2    0.91    0.41
   3 -10  -2    1.04    0.34
   3 -10  -2    1.21    0.41
   4 -10   2   14.20    0.81
   4 -10   2   14.77    1.06
   4 -10  -2   14.41    1.05
  -4  10  -2   14.33    0.66
   4 -10  -2   15.38    0.84
   5 -10   2    1.73    0.28
   5 -10  -2    1.31    0.27
  -5  10  -2    1.21    0.19
   0 -11   2    1.93    0.45
   0 -11  -2    2.90    0.51
   1 -11   2    0.49    0.42
   1 -11   2    0.52    0.36
   1 -11  -2    0.04    0.40
   2 -11   2    0.50    0.30
   2 -11   2   -0.15    0.38
   2 -11  -2    0.15    0.30
   2 -11  -2    0.17    0.40
   3 -11   2    9.34    0.59
   3 -11  -2    7.77    0.57
   0   0  -3    0.10    0.08
   0   0   3    0.07    0.08
   1   0  -3  263.68    9.80
   3   0  -3   88.70    3.93
  -3   0  -3   92.14    3.29
  -3   0   3   82.29    3.26
  -3   0   3   90.29    4.03
   3   0   3   85.91    3.93
   4   0   3  122.24    5.55
   4   0  -3  121.23    5.48
  -4   0   3  124.92    4.56
  -4   0  -3  123.42    4.51
  -4   0   3  122.10    5.61
   5   0   3  154.42    7.40
  -5   0  -3  153.31    5.69
  -5   0   3  162.72    7.67
  -5   0   3  153.21    5.75
   5   0  -3  151.34    7.08
  -6   0  -3    8.88    0.56
   6   0   3    8.77    0.74
  -6   0   3    9.10    0.63
   6   0  -3    8.83    0.78
   7   0   3   11.60    0.77
   7   0  -3   11.49    0.84
  -7   0   3   11.11    0.76
  -7   0  -3   11.05    0.89
  -7   0  -3   11.12    0.70
   8   0   3    0.19    0.29
  -8   0   3   -0.08    0.38
  -8   0   3    0.13    0.27
  -8   0  -3    0.15    0.23
   8   0  -3   -0.14    0.38
  -8   0  -3    0.56    0.33
  -9   0   3   25.76    1.28
  -9   0  -3   25.24    1.20
  -9   0   3   24.75    1.24
  -9   0  -3   24.66    1.18
   9   0  -3   24.75    1.18
  10   0  -3    5.77    0.48
 -10   0  -3    6.31    0.58
 -10   0   3    6.13    0.53
 -10   0  -3    5.74    0.48
 -10   0   3    6.51    0.64
 -11   0  -3    2.08    0.30
 -11   0   3    2.05    0.33
  -1  -1  -3   50.63    2.15
  -1   1   3   54.24    2.40
   1   1   3   56.75    2.14
   1  -1  -3   54.16    2.36
  -1  -1   3   50.18    2.25
   2  -1   3  113.75    4.64
  -2   1   3  114.38    4.71
   2  -1  -3  103.39    4.56
   2   1   3  107.91    4.26
  -2  -1   3  110.71    4.47
  -3   1   3  308.55   11.64
  -3   1   3  306.37   10.59
   3  -1   3  300.65   11.50
   3  -1  -3  290.59   11.43
   3   1   3  290.91   11.15
  -3   1  -3  266.41   10.54
  -3  -1   3  288.34   11.23
  -4  -1  -3  107.04    4.23
   4  -1   3  115.73    5.48
  -4   1   3  108.66    5.47
  -4  -1   3  116.95    4.27
   4   1   3  121.62    5.13
  -4  -1   3  116.64    5.18
   4  -1  -3  119.41    5.42
  -5  -1  -3   78.33    3.20
  -5   1   3   84.63    3.21
   5  -1   3   82.62    4.80
  -5   1   3   83.88    5.02
  -5   1  -3   85.94    3.16
   5  -1  -3   81.99    4.69
  -5  -1   3   88.18    3.22
  -6  -1  -3   62.70    2.45
   6  -1   3   62.12    2.51
  -6   1   3   67.00    2.52
   6   1  -3   59.58    2.70
   6  -1  -3   63.42    2.56
  -6  -1   3   60.52    2.51
  -6   1  -3   61.98    2.45
  -7  -1  -3   30.40    1.67
  -7  -1  -3   33.85    1.48
  -7   1   3   34.00    1.57
  -7   1   3   32.81    1.52
   7  -1   3   33.04    1.51
   7   1  -3   34.83    1.53
   7  -1  -3   34.77    1.59
  -7   1  -3   33.37    1.51
   7   1   3   36.58    1.47
  -7  -1   3   33.74    1.57
  -7   1  -3   35.25    1.48
  -8  -1  -3    2.17    0.49
  -8  -1  -3    2.79    0.46
  -8   1   3    2.93    0.54
  -8  -1   3    2.06    0.40
  -8   1  -3    1.39    0.30
   9   1  -3   24.89    1.13
  -9  -1  -3   25.20    1.19
  -9  -1  -3   25.60    1.19
  -9   1   3   25.34    1.19
  -9   1   3   26.78    1.27
  -9  -1   3   24.48    1.28
  -9  -1   3   24.75    1.26
  -9   1  -3   24.27    1.14
  -9   1  -3   24.82    1.20
   9  -1  -3   23.19    1.20
 -10   1   3    0.78    0.36
 -10  -1  -3    1.35    0.27
 -10   1   3    0.48    0.23
 -10  -1  -3    0.64    0.27
  10  -1  -3    0.67    0.26
 -10   1  -3    0.82    0.22
 -10  -1   3    0.61    0.29
 -10  -1   3    0.47    0.32
 -10   1  -3    0.68    0.31
 -11  -1  -3    1.51    0.22
 -11   1   3    1.47    0.21
 -11   1  -3    1.21    0.20
 -11  -1   3    1.17    0.22
   0  -2  -3   29.92    1.39
   0  -2   3   26.67    1.36
   0   2   3   29.11    1.42
  -1   2   3   37.70    2.00
  -1  -2  -3   37.08    1.64
   1   2  -3   35.19    1.69
  -1  -2   3   40.32    1.77
   1  -2  -3   43.93    2.00
   1   2   3   44.07    1.68
   2   2  -3   32.54    1.39
   2  -2   3   34.74    1.91
  -2   2   3   32.74    1.94
  -2  -2   3   27.49    1.46
   2  -2  -3   26.00    1.71
   2   2   3   28.36    1.26
   2   2   3   27.94    1.32
  -3   2   3   82.66    3.04
   3  -2   3   76.87    3.97
   3  -2   3   77.40    3.05
   3   2  -3   82.10    3.38
  -3   2   3   71.49    4.35
   3   2   3   83.61    3.34
   3  -2  -3   82.67    4.37
   3   2   3   87.86    3.24
   3  -2  -3   83.18    3.06
  -3  -2   3   81.83    3.50
  -3   2  -3   80.15    2.99
   4  -2   3  320.16   10.89
   4  -2   3  309.14   12.43
  -4   2   3  310.06   12.56
   4   2  -3  298.90   11.43
  -4  -2  -3  289.28   10.80
  -4   2  -3  259.91   10.80
   4   2   3  308.02   11.44
   4  -2  -3  305.62   12.30
  -4  -2   3  308.85   11.63
   4  -2  -3  303.89   10.88
  -4  -2   3  308.42   10.82
   4   2   3  275.57   11.20
  -5   2   3    2.25    1.44
  -5   2   3    2.81    0.38
  -5  -2  -3    2.31    0.44
  -5  -2   3    1.82    0.35
  -5   2  -3    2.03    0.29
   5  -2  -3    1.65    0.99
  -6   2   3    6.56    0.52
  -6   2   3    6.37    0.66
   6   2  -3    5.74    0.95
   6  -2   3    6.22    0.71
  -6  -2  -3    6.33    0.47
   6  -2  -3    4.67    0.77
  -6  -2   3    4.56    0.54
  -6   2  -3    5.36    0.60
  -6   2  -3    4.90    0.43
  -7  -2  -3   36.01    1.57
   7   2  -3   36.56    1.60
  -7   2   3   38.09    1.62
   7  -2   3   35.55    1.65
  -7   2   3   35.92    1.61
  -7   2  -3   39.03    1.59
  -7   2  -3   37.74    1.59
   7  -2  -3   37.31    1.72
  -7  -2   3   37.33    1.69
  -8   2   3    7.53    0.66
   8   2  -3    5.52    0.61
   8  -2   3    5.92    0.64
  -8  -2  -3    6.81    0.97
  -8  -2  -3    6.88    0.59
  -8   2   3    6.39    0.60
  -8   2  -3    8.03    0.59
  -8   2  -3    7.65    0.62
   8  -2  -3    8.59    0.76
  -8  -2   3    7.87    0.72
  -9   2   3    2.92    0.45
  -9  -2  -3    4.15    0.59
  -9  -2  -3    3.43    0.47
   9  -2   3    2.87    0.48
  -9   2   3    3.68    0.59
   9  -2  -3    2.22    0.42
  -9   2  -3    2.90    0.42
  -9  -2   3    2.75    0.48
  -9   2  -3    3.19    0.54
  -9  -2   3    3.44    0.58
 -10   2   3    4.78    0.77
 -10   2   3    4.55    0.39
 -10  -2  -3    4.30    0.48
 -10  -2  -3    4.21    0.45
 -10   2  -3    4.16    0.38
 -10  -2   3    5.19    0.59
  10  -2  -3    4.55    0.49
 -10  -2   3    4.91    0.55
 -10   2  -3    3.97    0.74
 -11   2   3    0.99    0.18
 -11  -2  -3    1.11    0.20
 -11  -2   3    1.20    0.22
   0  -3  -3    2.84    0.44
   0   3   3    3.16    0.49
  -1  -3  -3  143.20    5.93
   1  -3   3  154.68    5.82
   1  -3   3  167.11    6.57
  -1   3   3  159.41    6.54
  -1  -3   3  163.39    6.14
   1  -3  -3  167.46    6.47
   1   3   3  164.07    5.96
   2  -3   3    4.44    0.86
  -2   3   3    4.54    0.87
  -2  -3   3    3.28    0.44
   2  -3  -3    3.31    0.74
   3   3  -3   44.87    1.77
   3  -3   3   42.51    2.77
  -3   3   3   39.90    2.79
  -3   3  -3   38.04    1.57
   3  -3  -3   39.84    2.61
  -3  -3   3   38.67    1.83
   4  -3   3   55.82    3.70
   4  -3   3   59.81    2.14
  -4   3   3   53.29    3.88
   4   3  -3   58.14    2.30
  -4  -3   3   48.48    2.01
   4  -3  -3   48.07    3.45
   4  -3  -3   44.55    2.09
  -5  -3  -3  150.69    6.21
   5  -3   3  163.73    8.73
   5  -3   3  175.56    6.24
  -5   3   3  174.71    6.16
  -5  -3   3  171.06    6.17
   5  -3  -3  168.37    8.60
  -5   3  -3  167.01    6.13
  -6   3   3   44.93    2.23
  -6   3   3   46.12    1.81
  -6   3   3   43.81    1.82
   6  -3   3   43.82    1.93
  -6  -3  -3   44.49    1.80
   6  -3   3   41.16    1.85
  -6   3  -3   43.60    1.78
  -6   3  -3   44.22    1.78
  -6   3  -3   44.26    2.10
   6  -3  -3   44.32    1.90
   6  -3  -3   44.47    2.01
  -7   3   3   20.11    1.00
  -7   3   3   20.02    1.52
  -7   3   3   18.61    1.05
  -7  -3  -3   20.33    0.94
   7  -3   3   19.17    1.27
  -7   3  -3   16.89    0.93
  -7   3  -3   19.31    1.35
  -7   3  -3   17.76    0.93
  -7  -3   3   17.29    1.04
  -8   3   3    3.54    0.46
  -8   3   3    2.76    0.72
   8  -3   3    2.65    0.42
  -8  -3  -3    3.82    0.47
  -8   3   3    2.23    0.42
  -8   3  -3    2.76    0.35
   8  -3  -3    3.30    0.51
  -8  -3   3    3.18    0.58
  -8   3  -3    2.86    0.68
  -8   3  -3    3.59    0.55
  -9  -3  -3    0.95    0.26
   9  -3   3    0.64    0.29
  -9   3   3    0.90    0.23
  -9  -3  -3    1.49    0.48
  -9  -3   3    1.43    0.37
   9  -3  -3    1.45    0.37
 -10  -3  -3    5.44    0.50
 -10   3   3    5.70    0.38
 -10  -3  -3    5.65    0.50
  10  -3  -3    6.51    0.53
 -10  -3   3    6.19    0.61
 -10   3  -3    6.32    0.38
 -10  -3   3    5.99    0.59
   0  -4  -3   32.50    1.72
   0  -4   3   33.63    1.81
   0  -4   3   32.79    1.29
   0  -4   3   32.63    1.86
   0   4   3   31.35    1.79
   1  -4   3  212.81    7.38
   1  -4   3  212.95    8.34
  -1  -4   3  185.76    7.69
   1  -4  -3  191.11    7.33
  -1  -4   3  205.27    7.76
   1  -4  -3  207.38    8.18
  -2   4   3   72.92    3.96
   2  -4   3   78.28    3.98
   2  -4  -3   70.65    3.76
   2  -4  -3   72.37    2.80
   3  -4   3   58.99    3.84
   3  -4   3   58.96    2.43
  -3   4   3   57.34    4.37
   3  -4  -3   66.94    2.46
   3  -4  -3   67.36    3.83
   4  -4   3    2.54    0.44
   4  -4   3    3.66    1.47
   4  -4  -3    2.00    1.21
  -5   4   3   32.94    1.42
   5  -4   3   31.15    1.65
  -5   4   3   30.76    1.69
   5  -4   3   30.85    1.52
   5  -4   3   31.68    1.50
  -5  -4   3   33.43    1.56
   5  -4  -3   37.71    1.60
   5  -4  -3   35.38    1.58
   5  -4  -3   33.77    1.81
  -5   4  -3   36.54    1.66
  -5   4  -3   34.45    1.38
  -6   4   3    3.64    0.48
   6  -4   3    3.67    0.63
  -6   4   3    3.45    0.69
   6  -4   3    4.63    0.78
  -6  -4  -3    2.88    0.46
  -6  -4   3    3.38    0.54
   6  -4  -3    2.33    0.57
  -6   4  -3    2.68    0.56
  -6   4  -3    2.30    0.40
   6  -4  -3    2.19    0.44
  -7   4   3    3.74    0.69
  -7   4   3    3.63    0.45
  -7  -4  -3    4.01    0.48
  -7   4  -3    3.67    0.61
  -7  -4   3    3.34    0.50
   7  -4  -3    4.00    0.61
  -7   4  -3    4.87    0.43
  -8   4   3   18.12    0.83
  -8  -4  -3   18.50    0.92
   8  -4   3   18.65    1.02
  -8   4   3   17.77    1.26
  -8   4  -3   16.63    1.20
  -8   4  -3   18.93    0.84
  -8  -4   3   18.57    1.05
   8  -4  -3   17.13    1.10
  -9   4   3    0.12    0.50
  -9   4   3    0.13    0.20
  -9   4  -3    0.35    0.17
  -9   4  -3    0.03    0.50
 -10  -4  -3    0.81    0.33
 -10  -4  -3   -0.02    0.24
  10  -4  -3    0.14    0.24
 -10  -4   3    0.25    0.30
 -10  -4   3    0.28    0.30
   0  -5   3   88.62    4.17
   0  -5  -3   93.47    4.00
   0  -5   3   92.87    3.41
   0  -5   3   89.93    4.14
   0  -5  -3   91.57    3.37
   1  -5   3  159.20    7.17
   1  -5   3  145.43    6.15
   1  -5  -3  162.93    6.07
  -1  -5   3  178.71    6.03
   1  -5  -3  167.65    7.06
  -1  -5   3  170.58    6.47
  -1  -5   3  173.86    6.52
   2  -5   3    4.17    1.42
   2  -5   3    5.19    0.45
   2  -5  -3    6.57    0.47
   2  -5  -3    5.77    1.41
   3  -5   3    1.74    0.31
   3  -5  -3    2.29    0.39
   4  -5   3  101.88    3.75
   4  -5   3   96.31    3.73
  -4   5   3   96.68    3.80
   4  -5  -3   93.85    3.76
   4  -5  -3   93.42    3.75
  -4   5  -3   93.06    3.73
   5  -5   3   17.75    0.99
   5  -5   3   18.43    1.05
   5  -5   3   18.47    1.27
  -5   5   3   18.39    1.15
   5  -5  -3   13.28    1.44
   5  -5  -3   14.25    1.02
   5  -5  -3   15.05    1.03
   6  -5   3   33.61    1.50
  -6   5   3   34.70    1.68
   6  -5   3   30.65    2.10
   6  -5  -3   32.61    1.54
   6  -5  -3   31.86    1.76
  -6  -5   3   31.46    1.50
  -6   5  -3   31.99    1.59
  -7  -5  -3   13.79    0.80
   7  -5   3   12.81    0.92
  -7   5   3   14.04    1.08
   7  -5   3   14.75    0.99
  -7   5  -3   14.80    1.03
   7  -5  -3   15.86    1.06
  -7  -5   3   16.08    0.98
   7  -5  -3   14.56    0.94
  -8  -5  -3   10.65    0.68
  -8   5   3   10.50    0.93
   8  -5   3   11.16    0.79
  -8  -5   3   10.61    0.82
   8  -5  -3   10.28    0.84
  -8   5  -3   10.37    0.90
  -9   5   3    1.39    0.43
  -9  -5  -3    1.32    0.29
  -9  -5   3    1.60    0.36
   9  -5  -3    1.64    0.33
  -9   5  -3    1.60    0.42
 -10   5   3    2.61    0.45
 -10   5  -3    1.82    0.42
   0  -6  -3   26.70    1.12
   0  -6   3   25.57    1.19
  -1  -6  -3   41.18    1.62
   1  -6   3   43.41    1.75
   1  -6  -3   40.48    1.72
  -1  -6   3   42.63    1.70
   2  -6   3   36.52    1.51
  -2   6   3   33.80    1.58
  -2   6  -3   31.54    1.53
   2  -6  -3   33.31    1.49
  -3   6   3    7.32    0.79
   3  -6   3    7.20    0.85
   3  -6   3    7.68    0.62
   3  -6  -3    5.66    0.59
  -3   6  -3    4.81    0.69
   4  -6   3   26.84    1.40
   4  -6   3   27.99    1.42
  -4   6   3   29.06    1.44
   4  -6  -3   30.04    1.48
  -4   6  -3   29.26    1.40
   4  -6  -3   30.44    1.45
   5  -6   3  120.07    4.77
   5  -6   3  121.37    4.69
  -5   6   3  127.32    4.77
   5  -6  -3  125.34    4.84
  -5   6  -3  120.58    4.71
   5  -6  -3  121.72    4.73
   6  -6   3   12.91    0.85
   6  -6   3   11.29    1.10
  -6   6   3   12.07    0.97
   6  -6   3   12.13    1.15
  -6   6  -3   11.86    0.93
   6  -6  -3   14.53    1.23
   6  -6  -3   12.76    0.90
   6  -6  -3   12.30    1.21
  -7   6   3   10.79    0.92
   7  -6   3   11.63    0.79
   7  -6   3   11.93    0.95
  -7   6  -3   13.39    0.90
   7  -6  -3   13.83    0.86
  -7  -6   3   13.05    0.95
   7  -6  -3   12.30    1.00
  -8   6   3    4.37    0.65
   8  -6  -3    2.83    0.46
  -8  -6   3    3.55    0.72
  -8   6  -3    3.54    0.61
  -9   6   3    3.10    0.44
   9  -6  -3    4.47    0.51
  -9   6  -3    4.12    0.56
   0  -7   3  106.37    4.15
   0  -7  -3  111.28    4.13
  -1  -7  -3    2.13    0.42
   1  -7   3    2.24    0.45
  -1  -7   3    1.52    0.33
   1  -7  -3    1.52    0.30
  -1   7  -3    1.93    0.38
  -2   7   3   12.37    0.87
   2  -7   3   12.88    0.81
   2  -7   3   12.77    1.14
   2  -7  -3   11.56    1.23
  -2   7  -3   12.24    0.82
  -2  -7   3   10.82    0.74
   2  -7  -3   11.18    0.78
   3  -7   3  102.12    4.00
   3  -7   3  105.78    3.99
  -3   7   3  103.89    3.93
  -3   7  -3  101.08    3.89
   3  -7  -3   99.15    4.00
   3  -7  -3   95.93    3.98
   4  -7   3   41.35    1.93
   4  -7   3   43.86    2.01
  -4   7   3   45.36    1.94
   4  -7  -3   43.12    2.01
   4  -7  -3   44.47    1.98
  -4   7  -3   43.57    1.89
   5  -7   3   24.18    1.25
  -5   7   3   23.81    1.27
   5  -7   3   25.72    1.39
   5  -7  -3   23.01    1.38
  -5   7  -3   25.01    1.25
   5  -7  -3   23.25    1.27
   6  -7   3    2.12    0.38
  -6   7   3    2.09    0.42
   6  -7   3    1.37    0.64
  -6   7  -3    1.65    0.40
   6  -7  -3    1.95    0.65
   6  -7  -3    1.79    0.41
  -7   7   3   15.95    0.95
   7  -7   3   15.05    0.87
   7  -7  -3   16.17    0.91
   7  -7  -3   15.54    1.14
  -7   7  -3   16.30    0.98
  -8   7   3    0.91    0.30
  -8   7  -3    0.80    0.29
   8  -7  -3    0.80    0.41
   0  -8  -3   21.11    1.18
   1  -8   3   28.74    1.40
  -1  -8  -3   27.96    1.29
   1  -8  -3   26.12    1.34
   2  -8   3   11.00    1.01
  -2   8   3   11.48    0.77
   2  -8   3   10.93    0.84
   2  -8  -3   12.44    1.12
  -2   8  -3   12.10    0.74
  -2  -8   3   12.81    0.88
   2  -8  -3   11.99    0.86
   3  -8   3   13.83    0.98
  -3   8   3   14.28    0.88
   3  -8   3   14.92    1.01
   3  -8  -3   15.03    1.06
  -3   8  -3   14.67    0.84
   3  -8  -3   15.88    1.01
   4  -8   3   13.29    0.91
  -4   8   3   12.84    0.83
   4  -8   3   12.64    0.97
   4  -8  -3   13.05    0.99
   4  -8  -3   13.53    0.95
  -4   8  -3   13.11    0.80
  -5   8   3    0.73    0.32
   5  -8   3    0.81    0.47
   5  -8   3    1.48    0.36
  -5   8  -3    1.01    0.32
   5  -8  -3    1.61    0.50
   5  -8  -3    0.73    0.37
   6  -8   3    6.47    1.38
  -6   8   3    3.80    0.63
   6  -8  -3    3.76    0.80
  -6   8  -3    3.85    0.65
  -7   8   3    6.79    0.54
   7  -8   3    6.50    0.60
   7  -8  -3    5.67    0.58
  -7   8  -3    5.99    0.51
  -8   8   3    0.54    0.22
  -8   8  -3    0.15    0.20
   0  -9   3    3.57    0.63
   0  -9  -3    3.35    0.62
   1  -9   3    4.45    0.66
  -1  -9  -3    4.52    0.68
   1  -9   3    5.60    0.69
  -1  -9   3    4.11    0.66
   1  -9  -3    4.35    0.66
   2  -9   3    1.61    0.47
  -2   9   3    1.52    0.34
   2  -9   3    1.64    0.41
   2  -9  -3    1.13    0.39
   2  -9  -3    1.05    0.50
  -2   9  -3    0.85    0.27
  -2  -9   3    0.79    0.44
   3  -9   3   35.18    1.69
   3  -9   3   34.38    1.60
  -3   9   3   35.36    1.44
   3  -9  -3   32.97    1.66
  -3   9  -3   32.90    1.41
   3  -9  -3   33.55    1.61
   4  -9   3    7.34    0.67
  -4   9   3    6.09    0.53
   4  -9   3    6.65    0.83
   4  -9  -3    5.87    0.65
   4  -9  -3    4.76    0.76
  -4   9  -3    6.00    0.50
   5  -9   3    0.55    0.51
  -5   9   3    0.59    0.26
   5  -9   3    0.71    0.29
   5  -9  -3    0.30    0.29
   5  -9  -3    0.18    0.48
  -5   9  -3    0.18    0.21
  -6   9   3    5.28    0.44
   6  -9   3    5.96    0.50
   6  -9  -3    4.93    0.50
  -6   9  -3    5.27    0.42
  -7   9   3    0.45    0.18
  -7   9  -3    0.55    0.18
   0 -10  -3    2.67    0.48
   0 -10   3    2.98    0.49
   1 -10   3    8.03    0.78
   1 -10   3    6.62    0.83
  -1 -10  -3    5.89    0.81
   1 -10  -3    8.05    0.76
   1 -10  -3    8.98    0.94
   2 -10   3    4.58    0.79
   2 -10   3    3.87    0.63
  -2 -10   3    4.72    0.84
   2 -10  -3    5.16    0.70
   2 -10  -3    4.27    0.89
   3 -10   3    3.56    0.54
   3 -10   3    3.68    0.72
   3 -10  -3    3.48    0.68
   3 -10  -3    3.36    0.56
   4 -10   3    6.72    0.56
   4 -10   3    7.53    0.87
  -4  10  -3    6.64    0.43
   4 -10  -3    5.74    0.83
   4 -10  -3    6.25    0.57
   5 -10   3    1.02    0.26
  -5  10   3    0.86    0.27
   5 -10  -3    1.00    0.26
  -5  10  -3    1.83    0.31
   0 -11   3    0.11    0.41
   0 -11  -3    0.29    0.44
   1 -11   3    2.55    0.41
   1 -11   3    2.68    0.48
   1 -11  -3    2.43    0.47
   1 -11  -3    3.55    0.48
   2 -11   3    2.80    0.49
   2 -11   3    3.60    0.52
   2 -11  -3    3.06    0.48
   2 -11  -3    3.97    0.55
   3 -11   3    0.39    0.24
   3 -11  -3    0.37    0.25
   0   0   4   35.15    1.57
   0   0  -4   33.88    1.56
  -2   0   4  155.53    6.13
   2   0  -4  145.48    5.98
  -3   0   4  392.84   13.92
  -3   0  -4  376.44   13.88
   3   0   4  392.00   14.74
  -3   0   4  389.55   14.87
   3   0  -4  383.55   14.70
  -4   0   4  192.93    8.45
  -4   0  -4  193.70    7.20
   4   0  -4  206.41    8.32
   4   0   4  200.88    8.38
  -5   0   4    1.81    0.36
  -5   0  -4    1.78    0.27
   6   0   4    4.08    0.48
  -6   0  -4    4.53    0.41
   6   0  -4    4.73    0.70
  -6   0   4    4.54    0.49
  -7   0  -4    8.34    0.78
   7   0   4    8.62    0.67
  -7   0   4    9.02    0.70
  -7   0  -4    8.99    0.61
   7   0  -4    9.16    0.79
  -8   0   4    3.09    0.57
  -8   0  -4    3.22    0.45
  -9   0  -4    1.16    0.28
  -9   0   4    1.18    0.36
   9   0  -4    1.12    0.32
  -9   0   4    0.78    0.34
  -9   0  -4    1.34    0.30
  10   0  -4    8.09    0.55
 -10   0  -4    8.70    0.55
 -10   0   4    8.95    0.73
 -10   0  -4    8.61    0.63
 -10   0   4    8.01    0.59
 -11   0  -4    7.24    0.43
 -11   0   4    7.06    0.45
   0  -1  -4   10.04    0.72
   0   1  -4   11.65    0.72
   0   1   4   10.46    0.71
   0  -1   4   11.77    0.71
   1  -1   4  399.72   14.75
   1  -1  -4  398.84   14.79
  -2   1   4   95.16    4.36
   2   1  -4   87.96    4.03
  -2  -1   4  104.85    4.24
   2   1   4  106.04    3.99
   2  -1  -4  105.65    4.33
   3  -1   4  206.81    8.35
  -3   1   4  207.85    7.43
  -3   1   4  214.91    8.52
  -3   1  -4  186.08    7.37
   3   1   4  200.43    8.02
  -3  -1   4  199.05    7.39
   3   1   4  210.15    7.89
  -3  -1   4  204.64    8.18
   3  -1  -4  206.93    8.31
  -4   1   4   16.96    0.82
   4  -1   4   19.50    1.82
  -4  -1  -4   17.91    0.76
  -4   1   4   18.07    1.89
  -4  -1   4   16.21    0.79
   4  -1  -4   14.61    1.61
   4   1   4   15.42    1.49
  -4  -1   4   17.72    1.61
  -5  -1  -4   54.78    2.03
   5  -1   4   55.67    4.38
  -5   1   4   54.46    2.10
  -5  -1   4   50.79    2.09
  -5   1  -4   49.05    2.02
   5  -1  -4   47.14    3.51
   6   1  -4   57.67    2.45
  -6  -1  -4   57.94    2.37
  -6   1   4   63.13    2.47
   6  -1   4   57.38    2.44
  -6   1  -4   62.73    2.39
  -6  -1   4   62.35    2.48
   6   1   4   64.84    2.41
   6  -1  -4   62.14    2.52
  -6   1  -4   60.06    2.44
   7  -1   4  110.55    4.12
  -7  -1  -4  108.25    4.17
   7   1  -4  108.63    4.11
  -7   1   4  110.97    4.17
  -7  -1  -4  108.12    4.09
  -7  -1   4  102.81    4.18
  -7   1  -4  105.89    4.09
   7   1   4  109.44    4.05
  -7   1  -4  106.97    4.09
   7  -1  -4  106.75    4.18
  -8   1   4   39.47    1.80
  -8   1   4   39.99    1.78
   8   1  -4   39.03    1.92
   8  -1   4   39.36    1.73
  -8  -1  -4   41.51    1.74
  -8   1  -4   41.54    1.75
  -8  -1   4   41.90    1.87
   8  -1  -4   42.42    1.84
  -8   1  -4   41.05    1.74
  -9   1   4    1.90    0.35
   9   1  -4    2.18    0.34
  -9   1   4    2.73    0.43
  -9  -1  -4    1.97    0.36
  -9  -1  -4    1.58    0.31
  -9  -1   4    2.15    0.43
  -9   1  -4    3.09    0.42
   9  -1  -4    2.59    0.41
  -9  -1   4    2.64    0.45
  -9   1  -4    2.57    0.48
 -10  -1  -4   31.16    1.32
 -10   1   4   31.09    1.28
 -10   1   4   29.80    1.40
 -10  -1  -4   30.43    1.28
 -10  -1   4   30.01    1.40
 -10  -1   4   28.87    1.33
  10  -1  -4   28.73    1.30
 -10   1  -4   28.95    1.24
 -10   1  -4   29.33    1.35
 -11  -1  -4    1.41    0.21
 -11   1   4    1.22    0.20
 -11  -1   4    1.32    0.23
 -11   1  -4    1.44    0.20
   0   2   4    1.58    0.37
   0  -2   4    1.47    0.32
   0  -2  -4    1.41    0.33
  -1  -2  -4  134.24    5.05
   1   2  -4  132.22    5.09
  -1   2   4  137.88    5.44
  -1  -2   4  125.38    5.13
   1   2   4  128.65    5.02
   1  -2  -4  128.52    5.31
  -2   2   4  248.31    9.86
   2  -2   4  246.72    9.80
   2   2  -4  237.59    9.24
   2  -2  -4  249.75    8.95
  -2  -2   4  257.64    9.47
   2  -2  -4  244.78    9.71
   3  -2   4  168.20    7.36
   3  -2   4  172.32    6.25
   3   2  -4  164.36    6.63
  -3   2   4  160.29    7.39
  -3   2   4  172.67    6.23
   3  -2  -4  168.15    6.24
   3   2   4  180.91    6.68
  -3  -2   4  175.62    6.86
  -3   2  -4  166.24    6.18
   3  -2  -4  172.44    7.26
   3   2   4  174.91    6.48
   4  -2   4  123.86    6.26
   4  -2   4  130.64    4.86
  -4   2   4  127.75    6.45
  -4  -2  -4  121.82    4.77
  -4   2   4  120.05    4.83
   4   2  -4  127.85    5.44
   4   2   4  137.72    5.28
   4  -2  -4  135.27    4.87
  -4   2  -4  133.92    4.79
  -4  -2   4  139.38    4.82
   4   2   4  133.51    5.47
  -4  -2   4  132.34    5.68
   4  -2  -4  134.08    6.23
  -5  -2  -4   74.08    2.85
   5  -2   4   75.24    5.53
  -5   2   4   76.84    2.92
   5  -2  -4   76.54    4.87
  -5   2  -4   73.24    2.86
  -5  -2   4   77.09    2.92
   6  -2   4   44.64    1.84
  -6   2   4   46.60    1.82
   6   2  -4   43.10    1.81
  -6   2   4   44.94    1.78
  -6  -2  -4   44.83    1.72
  -6  -2   4   39.81    1.81
   6  -2  -4   37.19    1.88
  -6   2  -4   39.32    1.71
  -6   2  -4   39.66    1.74
   7   2  -4    8.42    0.75
  -7   2   4    9.30    0.69
  -7  -2  -4    8.35    0.59
  -7   2   4    8.66    0.68
   7  -2   4    8.84    0.72
  -7   2  -4    9.42    0.65
   7  -2  -4    8.34    0.82
  -7   2  -4    9.87    0.62
  -7  -2   4    9.32    0.74
  -8   2   4   13.00    0.80
   8  -2   4   13.47    0.84
   8   2  -4   13.34    0.81
  -8  -2  -4   12.91    0.98
  -8  -2  -4   13.55    0.79
  -8   2   4   13.98    0.87
  -8  -2   4   15.76    0.97
   8  -2  -4   15.24    0.97
  -8   2  -4   15.78    0.84
  -8   2  -4   15.02    0.79
   9   2  -4    9.39    0.86
  -9  -2  -4    9.35    0.65
  -9  -2  -4    8.36    0.69
  -9   2   4    8.94    0.61
  -9   2   4    9.07    0.76
  -9  -2   4   10.35    0.83
  -9   2  -4   10.42    0.61
  -9   2  -4   10.56    0.71
  -9  -2   4   11.25    0.81
   9  -2  -4   10.30    0.79
 -10  -2  -4    4.61    0.45
 -10  -2  -4    5.38    0.49
 -10   2   4    5.03    0.40
 -10   2  -4    4.75    0.39
 -10  -2   4    3.97    0.53
  10  -2  -4    4.08    0.50
 -10  -2   4    4.05    0.60
 -10   2  -4    3.86    0.53
 -11   2   4    3.92    0.31
 -11   2  -4    3.45    0.28
 -11  -2   4    4.06    0.38
   0   3   4  209.46    8.38
   0  -3   4  222.18    8.39
   0  -3  -4  221.11    8.36
   1  -3   4  150.37    5.51
  -1  -3  -4  139.74    5.72
  -1   3   4  148.58    6.27
   1  -3  -4  160.50    6.22
   1   3   4  153.84    5.77
   1  -3  -4  147.08    5.47
  -1  -3   4  155.25    5.93
  -2   3   4   11.67    1.29
   2  -3   4   11.54    1.32
  -2  -3   4   10.07    0.83
   2  -3  -4    8.85    1.11
   3  -3   4   41.97    2.77
  -3   3   4   41.70    2.86
   3   3  -4   42.97    1.85
   3  -3  -4   37.33    2.56
   3  -3  -4   35.96    1.59
  -3   3  -4   36.24    1.51
  -3  -3   4   37.77    1.95
   4  -3   4    1.45    1.08
   4  -3   4    2.60    0.43
  -4   3  -4    1.95    0.31
  -4  -3   4    2.06    0.83
   4  -3  -4    2.32    0.42
   4  -3  -4    1.51    0.83
  -4  -3   4    2.29    0.35
   5  -3   4   10.89    0.83
  -5  -3  -4   10.49    0.60
  -5   3   4   11.08    0.65
   5  -3  -4    8.99    2.89
  -5  -3   4   10.43    0.64
  -5   3  -4   10.41    0.63
   5  -3  -4    9.93    0.82
  -6   3   4   53.85    2.18
  -6   3   4   52.31    2.54
   6  -3   4   54.73    2.29
  -6  -3  -4   53.61    2.15
   6  -3   4   54.13    2.58
  -6   3   4   53.27    2.20
  -6   3  -4   58.57    2.17
   6  -3  -4   56.00    2.40
  -6   3  -4   53.33    2.43
  -6   3  -4   57.62    2.17
   6  -3  -4   55.92    2.27
  -7   3   4   11.18    0.74
   7  -3   4   11.09    0.81
  -7   3   4    9.86    1.35
  -7  -3  -4   11.23    0.65
  -7   3   4   11.84    0.69
  -7  -3   4    9.86    0.79
   7  -3  -4   10.16    0.88
  -7   3  -4    9.24    1.12
  -7   3  -4   10.36    0.65
  -7   3  -4   10.17    0.68
  -8   3   4   48.39    1.88
  -8   3   4   49.25    1.97
   8  -3   4   50.58    2.01
  -8  -3  -4   48.96    1.93
  -8   3   4   48.35    2.31
  -8   3  -4   44.92    1.86
   8  -3  -4   44.08    2.06
  -8   3  -4   45.19    1.94
  -8   3  -4   43.73    2.20
  -8  -3   4   43.08    2.05
  -9  -3  -4    8.22    0.76
  -9   3   4    8.37    0.53
  -9  -3  -4    9.49    0.61
  -9   3  -4    9.15    0.54
  -9  -3   4    7.40    0.95
  -9  -3   4    9.96    0.77
   9  -3  -4    9.89    0.74
 -10  -3  -4    2.56    0.41
 -10  -3  -4    2.31    0.41
 -10   3   4    2.60    0.30
  10  -3  -4    3.12    0.46
 -10   3  -4    2.34    0.28
 -10  -3   4    2.23    0.39
 -10  -3   4    2.94    0.39
   0  -4   4   45.19    2.31
   0  -4   4   43.42    1.72
   0  -4  -4   43.17    1.66
   0  -4  -4   46.04    2.24
   0  -4   4   44.05    2.38
   1  -4   4   13.49    1.37
   1  -4   4   13.46    0.71
  -1  -4  -4   13.67    0.86
   1  -4   4   13.87    1.34
  -1  -4   4   17.84    0.72
  -1  -4   4   15.84    1.10
   1  -4  -4   16.98    0.70
   2  -4   4    8.69    1.35
  -2   4   4    8.36    1.42
  -2  -4   4    6.95    0.68
   2  -4  -4    6.12    0.46
   2  -4  -4    6.81    1.16
   3  -4   4    6.50    0.50
   3  -4   4    6.50    1.80
   3  -4  -4    6.61    0.51
   3  -4  -4    6.34    1.52
   4  -4   4   72.11    5.01
   4  -4  -4   70.71    5.24
   4  -4  -4   77.16    2.94
  -4  -4   4   75.04    2.78
  -5   4   4   20.17    1.00
  -5   4   4   22.84    1.33
   5  -4   4   20.67    1.12
   5  -4   4   20.55    1.09
   5  -4   4   19.12    1.24
   5  -4  -4   21.01    1.46
  -5   4  -4   22.01    1.25
   5  -4  -4   20.90    1.16
  -5  -4   4   20.04    1.02
  -5   4  -4   20.42    0.95
   5  -4  -4   23.04    1.17
  -6   4   4   13.52    0.75
  -6   4   4   11.85    1.21
   6  -4   4   14.08    0.86
  -6  -4  -4   13.02    0.74
   6  -4   4   13.00    0.95
   6  -4  -4   15.29    0.94
   6  -4  -4   13.12    1.09
  -6  -4   4   14.88    0.88
  -6   4  -4   15.20    0.73
  -6   4  -4   15.32    1.05
  -7   4   4    3.36    0.86
  -7   4   4    4.21    0.64
  -7  -4  -4    3.03    0.43
  -7   4  -4    3.82    0.61
  -7  -4   4    3.98    0.64
  -8  -4  -4    0.16    0.23
   8  -4   4    0.34    0.31
  -8   4   4    0.26    0.21
  -8   4   4    0.04    0.51
  -8  -4   4    0.42    0.36
  -8   4  -4    0.06    0.20
   8  -4  -4    0.21    0.36
  -8   4  -4   -0.08    0.48
  -9  -4  -4    5.75    0.48
  -9   4   4    5.35    0.69
  -9   4   4    4.87    0.40
   9  -4  -4    6.26    0.65
  -9   4  -4    6.33    0.95
  -9  -4   4    4.88    0.81
  -9   4  -4    6.18    0.38
 -10  -4  -4    3.02    0.44
 -10   4   4    2.45    0.82
 -10  -4   4    2.63    0.37
 -10  -4   4    2.94    0.54
  10  -4  -4    2.71    0.42
   0  -5   4    2.36    0.35
   0  -5  -4    2.45    0.27
   0  -5  -4    1.96    0.71
   0  -5   4    2.25    0.93
   1  -5   4  171.75    7.84
   1  -5   4  181.59    6.67
   1  -5  -4  186.34    7.69
  -1  -5   4  190.45    6.62
  -1  -5   4  184.10    7.21
  -1  -5   4  173.86    7.17
  -2  -5   4   14.16    0.76
   2  -5  -4   13.57    0.74
   3  -5   4   67.40    2.55
   3  -5  -4   58.99    2.52
  -4   5   4    1.75    0.49
   4  -5   4    1.10    0.38
   4  -5   4    0.89    0.29
   4  -5  -4    0.91    0.29
   4  -5  -4    1.22    0.47
  -4   5  -4    1.43    0.45
   5  -5   4    7.07    0.68
   5  -5   4    7.14    1.04
  -5   5   4    6.52    0.88
   5  -5   4    7.19    0.73
  -5   5  -4    9.15    0.80
   5  -5  -4    7.76    0.77
   5  -5  -4    8.12    0.79
   5  -5  -4   10.10    1.28
  -5  -5   4    8.74    0.67
   6  -5   4   98.85    3.67
   6  -5   4   96.87    3.77
  -6   5   4  102.44    3.88
   6  -5  -4   92.08    3.88
   6  -5  -4   96.56    3.73
  -6   5  -4   95.10    3.76
  -6  -5   4   87.81    3.68
   6  -5  -4   91.15    3.85
   7  -5   4   26.46    1.36
  -7  -5  -4   27.83    1.20
   7  -5   4   26.94    1.32
  -7   5   4   26.80    1.49
   7  -5  -4   27.29    1.46
  -7  -5   4   26.63    1.38
  -7   5  -4   26.47    1.40
   7  -5  -4   26.72    1.33
  -8   5   4    6.15    0.80
  -8  -5  -4    5.22    0.52
  -8  -5   4    6.37    0.70
   8  -5  -4    5.51    0.70
  -8   5  -4    6.25    0.76
  -9   5   4    4.36    0.69
  -9  -5  -4    4.47    0.47
  -9  -5   4    4.14    0.60
   9  -5  -4    4.02    0.55
  -9   5  -4    4.07    0.68
 -10   5   4    0.23    0.39
 -10   5  -4    0.24    0.40
  10  -5  -4    0.03    0.23
   0  -6  -4    1.57    0.30
   0  -6   4    2.38    0.38
   1  -6   4   14.34    0.76
  -1  -6   4   14.01    0.74
   1  -6  -4   12.07    0.71
   2  -6   4   72.87    2.82
  -2   6   4   69.66    2.83
  -2   6  -4   72.22    2.79
   2  -6  -4   69.33    2.80
  -2  -6   4   68.99    2.70
  -3   6   4  174.07    6.44
   3  -6   4  166.19    6.43
   3  -6   4  176.55    6.46
   3  -6  -4  166.22    6.47
   3  -6  -4  176.22    6.47
  -3   6  -4  171.12    6.39
  -4   6   4   20.69    1.17
   4  -6   4   19.94    1.11
   4  -6   4   20.61    1.12
   4  -6  -4   18.77    1.11
  -4   6  -4   18.53    1.07
   4  -6  -4   18.40    1.15
  -5   6   4    3.42    0.56
   5  -6   4    1.74    0.49
   5  -6   4    2.78    0.43
   5  -6  -4    2.21    0.47
  -5   6  -4    1.65    0.43
  -6   6   4   17.30    1.13
   6  -6   4   15.88    1.17
   6  -6   4   17.44    0.97
   6  -6   4   16.22    1.31
  -6  -6   4   18.12    1.08
   6  -6  -4   17.68    1.33
   6  -6  -4   17.05    1.04
  -6   6  -4   15.86    1.05
   6  -6  -4   16.31    1.34
  -7   6   4    1.70    0.45
   7  -6   4    1.84    0.39
   7  -6  -4    2.38    0.53
  -7  -6   4    2.79    0.54
  -7   6  -4    2.03    0.44
   7  -6  -4    2.85    0.44
  -8   6   4    7.25    0.72
   8  -6  -4    7.61    0.73
  -8   6  -4    8.35    0.68
  -8  -6   4    8.08    0.81
  -9   6   4    0.99    0.34
  -9   6  -4    0.37    0.29
   9  -6  -4    0.64    0.31
   0  -7   4    0.52    0.25
   0  -7  -4    0.42    0.23
   1  -7   4   58.93    2.41
  -1  -7  -4   61.58    2.30
  -1   7   4   61.48    2.41
  -1  -7   4   56.29    2.35
   1  -7  -4   56.25    2.38
  -1   7  -4   58.45    2.32
  -2   7   4   30.17    1.42
   2  -7   4   30.33    1.57
   2  -7   4   31.24    1.44
   2  -7  -4   29.20    1.65
   2  -7  -4   28.87    1.41
  -2   7  -4   29.14    1.34
  -2  -7   4   28.37    1.33
   3  -7   4    3.35    0.58
  -3   7   4    3.34    0.50
   3  -7   4    3.38    0.50
  -3   7  -4    2.61    0.44
   3  -7  -4    2.61    0.51
   3  -7  -4    2.18    0.44
  -4   7   4   32.57    1.59
   4  -7   4   33.36    1.64
   4  -7   4   32.51    1.58
   4  -7  -4   34.13    1.64
  -4   7  -4   36.69    1.57
   4  -7  -4   32.89    1.65
  -5   7   4    4.93    0.69
   5  -7   4    4.17    0.78
   5  -7   4    4.14    0.60
   5  -7  -4    5.13    0.82
  -5   7  -4    5.34    0.65
   5  -7  -4    3.99    0.65
   6  -7   4   10.83    1.29
   6  -7   4   10.43    0.73
  -6   7   4   10.35    0.81
  -6   7  -4    9.93    0.78
   6  -7  -4    9.87    0.80
   6  -7  -4    9.67    1.24
   7  -7   4   11.53    0.73
   7  -7  -4    9.99    0.73
   7  -7  -4   11.19    0.99
  -8   7   4    0.40    0.28
  -8   7  -4    0.70    0.27
   8  -7  -4    1.27    0.43
   0  -8   4   15.66    0.98
   0  -8  -4   14.37    1.21
   1  -8   4   30.42    1.50
  -1  -8   4   30.18    1.45
  -1   8  -4   31.13    1.32
   1  -8  -4   31.43    1.48
   2  -8   4    5.86    0.67
   2  -8   4    5.11    0.83
  -2   8   4    5.31    0.66
  -2   8  -4    6.31    0.69
  -2  -8   4    5.90    0.66
   2  -8  -4    6.66    0.68
   2  -8  -4    6.77    0.94
   3  -8   4   58.79    2.37
   3  -8   4   58.78    2.43
  -3   8   4   58.03    2.26
   3  -8  -4   51.39    2.37
  -3   8  -4   52.28    2.21
   3  -8  -4   51.09    2.38
   4  -8   4    3.97    0.63
   4  -8   4    3.68    0.71
  -4   8   4    3.65    0.56
  -4   8  -4    3.17    0.52
   4  -8  -4    4.11    0.72
   4  -8  -4    3.13    0.50
  -5   8   4   18.76    1.02
   5  -8   4   18.72    1.04
   5  -8   4   18.22    1.25
   5  -8  -4   21.43    1.29
   5  -8  -4   21.01    1.11
  -5   8  -4   21.29    1.03
  -6   8   4    1.73    0.51
   6  -8   4    1.39    0.32
   6  -8  -4    1.11    0.73
  -6   8  -4    0.51    0.42
   6  -8  -4    0.78    0.34
   7  -8   4    3.50    0.57
  -7   8   4    2.53    0.44
   7  -8  -4    2.33    0.36
  -7   8  -4    2.79    0.40
  -8   8   4    0.97    0.23
  -8   8  -4    1.45    0.24
   0  -9  -4    6.52    0.69
   0  -9   4    5.20    0.67
  -1  -9  -4    9.37    0.79
   1  -9   4    9.41    0.99
   1  -9   4   11.14    0.83
   1  -9  -4    7.43    0.74
  -1  -9   4    8.82    0.79
   2  -9   4   23.49    1.27
   2  -9   4   24.21    1.27
  -2   9  -4   22.09    0.98
  -2  -9   4   20.11    1.18
   2  -9  -4   22.24    1.29
   2  -9  -4   22.59    1.25
   3  -9   4    1.55    0.43
   3  -9   4    1.13    0.37
  -3   9   4    1.21    0.30
   3  -9  -4    1.28    0.43
  -3   9  -4    1.12    0.26
   3  -9  -4    0.83    0.39
  -4   9   4    7.99    0.81
   4  -9   4    9.40    0.70
   4  -9   4    8.23    0.88
   4  -9  -4    9.04    0.73
   4  -9  -4    9.06    0.88
  -4   9  -4    7.94    0.56
   5  -9   4   20.75    1.34
   5  -9   4   21.36    1.02
  -5   9   4   21.28    0.96
   5  -9  -4   19.76    1.04
   5  -9  -4   18.86    1.28
  -5   9  -4   18.60    0.92
   6  -9   4    0.42    0.26
  -6   9   4    0.25    0.21
  -6   9  -4    0.33    0.20
   6  -9  -4    0.48    0.25
   0 -10   4   11.78    0.88
   0 -10  -4   11.58    0.99
  -1 -10  -4    0.38    0.45
   1 -10   4    0.72    0.43
   1 -10   4    1.04    0.39
  -1 -10   4    0.86    0.41
   1 -10  -4   -0.17    0.50
   1 -10  -4    1.00    0.39
   2 -10   4   11.17    0.81
   2 -10   4   11.29    1.40
   2 -10  -4   12.25    1.18
   2 -10  -4   11.80    0.85
   3 -10   4    3.50    0.54
   3 -10   4    5.29    0.75
   3 -10  -4    3.90    0.56
   3 -10  -4    4.03    0.69
   4 -10   4    2.77    0.55
   4 -10   4    3.26    0.45
   4 -10  -4    2.39    0.51
   4 -10  -4    2.59    0.47
  -4  10  -4    2.94    0.34
   5 -10   4    0.62    0.24
   5 -10  -4    0.24    0.23
   0 -11  -4    1.74    0.77
   0 -11   4    1.12    0.44
   1 -11   4    5.04    0.74
   1 -11   4    5.60    0.62
   1 -11  -4    5.73    0.74
   1 -11  -4    5.18    0.70
   2 -11   4    6.41    0.83
   2 -11   4    7.38    0.58
   2 -11  -4    6.15    0.84
   2 -11  -4    7.03    0.60
   3 -11   4    1.58    0.28
   3 -11  -4    1.69    0.29
   0   0  -5    0.29    0.18
   1   0  -5  462.93   17.07
   2   0  -5    4.85    0.65
   2   0   5    5.21    0.59
  -2   0   5    5.00    0.71
   3   0   5  134.48    5.73
   3   0  -5  129.18    5.65
  -3   0   5  134.44    5.88
  -3   0  -5  135.57    4.85
   4   0   5  224.89    9.70
   4   0  -5  236.02    9.66
  -4   0   5  244.30   10.01
  -4   0  -5  235.01    8.50
  -5   0   5    7.48    0.53
  -5   0  -5    6.71    0.43
  -6   0   5    0.52    0.24
   6   0   5    0.43    0.33
   6   0  -5    0.87    0.42
   7   0  -5   39.77    1.77
   7   0   5   39.40    1.67
  -7   0  -5   39.35    1.72
  -7   0   5   39.63    1.77
  -7   0  -5   39.33    1.66
  -8   0  -5    1.74    0.31
  -8   0   5    1.89    0.40
   8   0  -5    2.28    0.42
  -8   0  -5    1.37    0.35
   9   0  -5    0.37    0.30
  -9   0   5    0.29    0.32
  -9   0  -5    0.35    0.26
  -9   0   5    0.22    0.31
  -9   0  -5    0.44    0.25
 -10   0   5    2.99    0.60
 -10   0  -5    3.28    0.49
  10   0  -5    3.46    0.42
 -10   0   5    4.14    0.45
 -10   0  -5    3.50    0.38
 -11   0  -5    0.23    0.16
 -11   0   5    0.28    0.19
   1  -1   5  412.81   15.19
  -1   1   5  426.75   15.36
  -1  -1   5  392.89   15.19
   1  -1  -5  406.93   15.27
   1   1   5  410.40   15.04
  -2   1   5   23.28    1.63
   2   1  -5   21.46    1.35
   2  -1  -5   25.82    1.57
  -2  -1   5   24.71    1.52
  -3  -1  -5  146.91    5.45
  -3   1   5  150.65    5.53
  -3   1   5  156.62    6.69
   3  -1   5  152.53    6.51
   3   1  -5  148.82    6.19
   3  -1  -5  142.90    6.38
   3   1   5  149.47    6.21
  -3  -1   5  154.22    6.42
  -3  -1   5  151.98    5.49
  -4   1   5  140.48    5.10
  -4   1   5  141.85    6.68
   4   1  -5  135.99    6.37
  -4  -1  -5  138.05    5.02
   4  -1   5  136.17    6.39
   4  -1  -5  139.80    6.33
  -4  -1   5  136.37    5.07
   4   1   5  137.62    6.08
  -4  -1   5  130.20    6.17
  -5   1   5   28.24    1.26
  -5  -1  -5   27.76    1.17
  -5   1  -5   28.73    1.21
  -6  -1  -5   75.18    3.06
   6   1  -5   78.26    3.15
  -6   1   5   80.23    3.16
   6  -1   5   79.75    3.13
  -6  -1   5   85.06    3.20
  -6   1  -5   78.39    3.11
   6  -1  -5   82.86    3.23
   6   1   5   82.68    3.08
  -6   1  -5   81.87    3.08
   7  -1   5    3.94    0.57
   7   1  -5    5.36    0.66
  -7  -1  -5    4.18    0.45
  -7  -1  -5    5.31    0.62
  -7   1   5    4.61    0.57
  -7  -1   5    4.87    0.60
  -7   1  -5    5.32    0.58
   7  -1  -5    5.58    0.73
  -7   1  -5    5.01    0.47
  -8  -1  -5   43.07    1.85
  -8   1   5   45.38    1.89
   8   1  -5   44.74    1.86
  -8   1   5   46.70    1.93
  -8  -1  -5   44.63    1.82
  -8   1  -5   42.24    1.83
  -8  -1   5   41.29    1.95
   8  -1  -5   41.78    1.92
  -8   1  -5   41.64    1.80
  -9  -1  -5    1.58    0.30
  -9   1   5    1.40    0.37
   9   1  -5    1.34    0.32
  -9  -1  -5    2.08    0.42
  -9   1   5    1.49    0.33
   9  -1  -5    1.77    0.38
  -9   1  -5    2.50    0.41
  -9  -1   5    1.79    0.40
  -9  -1   5    2.02    0.41
  -9   1  -5    1.54    0.31
 -10  -1  -5    1.61    0.30
 -10   1   5    1.51    0.26
 -10   1   5    2.25    0.43
 -10  -1  -5    1.61    0.26
 -10  -1   5    1.30    0.37
 -10   1  -5    1.34    0.34
  10  -1  -5    1.67    0.32
 -10  -1   5    2.22    0.34
 -10   1  -5    2.15    0.32
 -11   1   5    4.76    0.35
 -11  -1  -5    4.32    0.34
 -11  -1   5    4.15    0.38
 -11   1  -5    4.46    0.33
   0   2   5    4.87    0.58
   0  -2   5    4.73    0.55
   0  -2  -5    4.76    0.55
  -1   2   5  122.25    5.06
  -1  -2  -5  114.07    4.69
   1  -2   5  119.82    4.91
   1   2   5  118.94    4.67
   1  -2  -5  121.09    4.94
  -1  -2   5  114.17    4.78
   2  -2   5   72.15    2.76
   2   2  -5   72.60    3.12
   2  -2  -5   74.56    2.76
   2   2   5   77.05    3.03
  -2  -2   5   70.03    3.78
   3   2  -5   77.92    3.43
  -3   2   5   80.35    2.98
   3  -2   5   83.42    4.34
  -3   2   5   78.03    4.19
   3  -2   5   79.80    2.99
   3  -2  -5   81.69    4.00
   3   2   5   76.39    3.45
  -3  -2   5   78.42    3.69
  -3   2  -5   74.61    2.91
   3  -2  -5   78.20    2.99
  -3  -2   5   75.87    2.92
   3   2   5   79.34    3.28
  -4  -2  -5   15.76    0.74
  -4   2   5   16.93    2.21
   4  -2   5   14.68    1.91
   4   2  -5   14.35    1.30
   4  -2   5   14.66    0.89
  -4   2   5   17.21    0.83
   4  -2  -5   19.55    2.59
  -4  -2   5   17.02    1.58
   4   2   5   18.42    1.25
  -4  -2   5   16.53    0.78
  -4   2  -5   16.58    0.75
   4  -2  -5   18.80    0.89
   4   2   5   18.08    1.47
  -5  -2  -5    6.35    0.43
  -5   2   5    6.94    0.55
  -5   2  -5    6.84    0.50
   5  -2  -5    5.59    2.47
  -5  -2   5    7.36    0.53
  -6  -2  -5    0.66    0.20
   6  -2   5    0.78    0.37
  -6   2   5    1.00    0.35
  -6   2   5    0.50    0.25
   6  -2  -5   -0.03    0.44
  -6  -2   5    0.54    0.28
  -6   2  -5    1.24    0.32
  -7  -2  -5   19.58    0.96
  -7   2   5   20.43    1.04
   7  -2   5   20.05    1.07
   7   2  -5   21.55    1.06
  -7   2   5   20.68    1.05
  -7   2  -5   19.31    0.97
   7  -2  -5   18.88    1.18
  -7  -2   5   19.47    1.11
  -7   2  -5   19.52    0.97
  -8  -2  -5    1.57    0.45
  -8   2   5    2.25    0.36
   8  -2   5    1.74    0.35
  -8  -2  -5    2.12    0.39
   8   2  -5    1.72    0.35
  -8   2   5    1.47    0.35
  -8   2  -5    1.19    0.29
  -8   2  -5    1.68    0.30
  -8  -2   5    1.06    0.37
   8  -2  -5    1.16    0.41
  -9  -2  -5    2.55    0.42
  -9  -2  -5    2.58    0.39
  -9   2   5    2.36    0.43
   9   2  -5    3.58    0.56
  -9   2   5    2.26    0.33
   9  -2  -5    3.51    0.60
  -9   2  -5    3.59    0.39
  -9  -2   5    3.29    0.48
 -10  -2  -5    7.27    0.51
 -10  -2  -5    7.37    0.55
 -10   2   5    7.59    0.47
 -10   2  -5    8.45    0.47
  10  -2  -5    7.79    0.59
 -10   2  -5    6.55    0.83
 -10  -2   5    7.90    0.63
 -10  -2   5    7.85    0.71
   0  -3   5   18.54    0.85
   0  -3   5   20.55    1.30
   0   3   5   20.82    1.34
   1  -3   5   61.08    2.43
  -1   3   5   62.60    3.20
  -1  -3  -5   57.82    2.74
   1  -3   5   63.82    3.11
   1   3   5   68.17    2.82
  -1  -3   5   70.75    2.99
   1  -3  -5   65.24    2.41
   2  -3   5   42.47    2.62
  -2   3   5   40.47    2.64
   2   3   5   41.08    1.80
   2  -3  -5   40.96    2.46
  -2  -3   5   42.49    2.19
   3  -3   5   36.33    1.44
   3  -3   5   35.54    2.64
  -3   3   5   34.44    2.74
   3   3  -5   36.13    1.79
   3  -3  -5   31.66    2.42
  -3  -3   5   34.10    1.95
  -3   3  -5   32.55    1.34
  -3  -3   5   33.37    1.35
   3  -3  -5   32.96    1.43
  -4  -3  -5    2.39    0.35
  -4   3   5    2.72    1.46
   4  -3   5    4.26    1.93
   4  -3   5    2.69    0.46
  -4  -3   5    3.55    0.37
   4  -3  -5    3.62    1.75
  -4  -3   5    3.19    0.99
  -5   3   5    3.72    0.48
  -5   3   5    3.18    0.46
  -5   3  -5    5.50    0.51
   5  -3  -5    6.32    0.71
  -5   3  -5    5.42    0.41
  -5  -3   5    5.17    0.47
  -6  -3  -5    1.52    0.25
  -6   3   5    1.62    0.34
   6   3  -5    2.65    0.53
  -6   3   5    1.46    0.32
  -6   3   5    1.73    0.75
   6  -3   5    2.09    0.41
   6  -3  -5    1.65    0.46
  -6  -3   5    1.27    0.31
  -6   3  -5    0.99    0.27
  -6   3  -5    1.58    0.60
  -6   3  -5    1.19    0.25
   6  -3  -5    1.58    0.52
   7  -3   5   80.92    3.17
  -7   3   5   77.58    3.12
  -7   3   5   80.49    3.08
   7  -3  -5   81.93    3.28
  -7   3  -5   84.09    3.06
  -7   3  -5   82.44    3.11
  -7  -3   5   72.99    3.51
   8  -3   5    9.81    0.72
  -8   3   5   10.11    0.81
  -8  -3  -5   10.82    0.65
  -8   3   5   13.58    1.35
  -8   3   5   10.75    0.63
  -8   3  -5    8.96    1.11
  -8   3  -5    9.28    0.60
  -8   3  -5   10.05    0.74
   8  -3  -5    9.69    0.85
  -8  -3   5    9.60    0.83
  -9  -3  -5    8.70    0.57
  -9   3   5    8.61    0.52
  -9  -3  -5    8.52    0.71
  -9   3  -5    8.03    0.51
  -9  -3   5    7.20    0.74
   9  -3  -5    8.58    0.74
 -10  -3  -5    1.93    0.27
 -10   3   5    1.98    0.28
 -10  -3  -5    1.97    0.40
 -10  -3   5    1.96    0.35
 -10   3  -5    1.41    0.20
 -10  -3   5    1.38    0.37
  10  -3  -5    1.85    0.34
   0  -4   5    0.56    0.42
   0   4   5    0.05    0.38
   0  -4   5   -0.01    0.16
   0  -4  -5    0.24    0.11
   1  -4   5   45.78    2.59
  -1  -4  -5   44.57    2.05
   1  -4   5   47.78    2.74
   1  -4   5   47.77    1.76
   1  -4  -5   40.96    1.70
  -1  -4   5   41.60    1.70
   1  -4  -5   41.88    2.44
  -1  -4   5   41.29    2.27
  -2   4   5   19.73    2.00
   2  -4   5   21.15    0.95
   2  -4   5   22.49    2.05
   2  -4  -5   19.94    0.93
   2  -4  -5   19.35    1.80
  -2  -4   5   19.69    1.36
  -2  -4   5   19.21    0.88
   3  -4   5   77.72    3.12
   3  -4   5   70.25    4.62
   3  -4  -5   84.43    3.14
  -3  -4   5   85.57    3.03
   3  -4  -5   86.14    4.63
  -3  -4   5   81.51    3.98
   4  -4   5   22.30    1.11
   4  -4   5   24.26    5.21
   4  -4  -5   22.15    1.12
   5  -4   5   42.29    1.90
   5  -4   5   44.12    1.78
   5  -4   5   45.50    1.84
  -5   4   5   44.30    1.67
   5  -4  -5   37.90    2.02
  -5  -4   5   39.37    1.71
   5  -4  -5   38.83    1.84
  -5   4  -5   37.88    1.85
   5  -4  -5   39.78    1.82
  -5   4  -5   40.08    1.64
  -6  -4  -5    6.86    0.49
  -6   4   5    7.89    0.56
  -6   4   5    8.22    1.01
   6  -4   5    6.41    0.79
   6  -4   5    6.71    0.67
  -6   4  -5    5.50    0.84
  -6   4  -5    7.12    0.50
   6  -4  -5    7.65    0.96
   6  -4  -5    6.79    0.76
  -6  -4   5    6.18    0.64
   7  -4   5   59.56    2.49
  -7   4   5   59.97    2.80
  -7   4   5   58.58    2.37
  -7  -4  -5   60.12    2.34
  -7  -4   5   60.61    2.56
   7  -4  -5   58.17    2.58
  -7   4  -5   62.17    2.89
  -7   4  -5   60.58    2.31
  -8   4   5    6.08    0.46
  -8   4   5    7.47    0.99
  -8  -4  -5    5.42    0.51
  -8  -4   5    6.31    0.73
   8  -4  -5    5.41    0.74
  -8   4  -5    6.49    0.44
  -8   4  -5    6.65    0.86
  -9   4   5    8.31    1.02
  -9  -4  -5    9.57    0.62
  -9  -4   5   11.93    0.83
  -9   4  -5   13.82    1.03
   9  -4  -5   12.34    0.81
  -9   4  -5   10.56    0.53
 -10  -4  -5    1.01    0.26
 -10   4   5    1.25    0.68
 -10  -4   5    0.53    0.33
  10  -4  -5    0.49    0.25
   0  -5   5  147.45    5.65
   0  -5  -5  155.68    6.30
   0  -5   5  148.89    6.64
   0  -5  -5  159.96    5.58
   1  -5   5   14.82    1.82
   1  -5   5   15.78    0.84
  -1  -5  -5   17.49    0.72
  -1  -5   5   17.31    1.47
  -1  -5   5   19.47    0.84
  -1  -5   5   19.05    1.50
   1  -5  -5   19.44    0.84
   1  -5  -5   18.40    1.68
   2  -5   5    3.10    0.40
   2  -5  -5    3.71    0.44
  -2  -5   5    4.29    0.43
   3  -5   5   12.66    0.75
  -3  -5   5   12.10    0.66
   3  -5  -5   11.39    0.74
   4  -5   5   10.81    0.82
   4  -5   5   11.58    0.77
   4  -5  -5   11.55    0.78
  -4   5  -5   11.19    0.85
  -4  -5   5   10.49    0.75
   5  -5   5    5.92    0.64
   5  -5   5    6.51    0.76
  -5   5   5    6.00    0.86
   5  -5   5    5.86    0.71
  -5   5  -5    4.91    0.71
   5  -5  -5    4.23    0.72
  -5  -5   5    5.06    0.58
   5  -5  -5    4.13    0.83
   5  -5  -5    4.50    0.71
  -6   5   5   29.25    1.59
   6  -5   5   27.28    1.36
   6  -5   5   29.82    1.50
   6  -5  -5   31.27    1.72
   6  -5  -5   30.20    1.67
  -6   5  -5   31.52    1.51
   6  -5  -5   31.65    1.48
  -7   5   5   14.78    1.13
  -7  -5  -5   15.59    0.81
   7  -5  -5   16.21    1.12
   7  -5  -5   15.38    0.99
  -7  -5   5   16.56    1.08
  -7   5  -5   15.77    1.02
  -8  -5  -5   16.22    0.80
  -8   5   5   15.77    1.07
  -8   5  -5   16.93    1.00
   8  -5  -5   15.62    1.01
  -8  -5   5   15.06    0.99
  -9   5   5    2.25    0.45
  -9  -5  -5    2.34    0.33
  -9  -5   5    2.83    0.58
   9  -5  -5    1.97    0.37
  -9   5  -5    3.10    0.43
  10  -5  -5    0.97    0.25
 -10  -5   5    1.38    0.34
   0  -6  -5    0.43    0.18
   0  -6   5    0.26    0.21
  -1  -6  -5    2.71    0.31
   1  -6   5    2.81    0.42
  -2   6   5   66.13    2.80
   2  -6   5   68.71    2.78
   2  -6   5   78.12    3.19
  -2   6  -5   70.38    2.75
   2  -6  -5   66.88    2.77
  -2  -6   5   68.69    2.70
  -3   6   5   63.68    2.48
   3  -6   5   63.18    2.48
   3  -6   5   63.46    2.49
  -3  -6   5   55.26    2.31
   3  -6  -5   54.45    2.50
   3  -6  -5   56.19    2.45
  -3   6  -5   58.63    2.41
   4  -6   5   51.08    2.09
  -4   6   5   49.27    2.13
   4  -6   5   47.00    2.11
   4  -6  -5   46.40    2.13
  -4  -6   5   45.59    1.96
   4  -6  -5   50.66    2.14
  -4   6  -5   49.57    2.07
   5  -6   5   10.35    0.80
  -5   6   5   10.82    0.94
   5  -6   5   11.22    1.01
   5  -6  -5   12.43    1.01
  -5   6  -5   13.08    0.88
   5  -6  -5   12.39    0.91
  -5  -6   5   11.79    0.85
  -6   6   5    3.79    0.57
   6  -6   5    3.58    0.55
   6  -6  -5    3.16    0.49
   6  -6  -5    3.14    0.68
   6  -6  -5    3.17    0.70
  -6   6  -5    2.70    0.47
  -6  -6   5    2.80    0.52
  -7   6   5    2.32    0.46
   7  -6   5    3.68    0.60
  -7  -6   5    3.37    0.56
  -7   6  -5    2.39    0.42
   7  -6  -5    3.07    0.55
   7  -6  -5    2.01    0.42
  -8   6   5    0.93    0.38
  -8   6  -5    1.98    0.37
  -8  -6   5    1.62    0.43
   8  -6  -5    1.88    0.42
  -9   6   5    1.50    0.34
  -9   6  -5    1.40    0.31
   9  -6  -5    1.02    0.31
   0   7  -5   52.09    2.05
   0  -7   5   50.81    2.14
   0  -7  -5   51.55    2.08
  -1  -7  -5   24.51    1.04
   1  -7   5   23.71    1.16
  -1   7   5   24.64    1.23
   1  -7  -5   20.70    1.10
  -1   7  -5   22.03    1.09
  -1  -7   5   20.82    1.10
  -2   7   5   34.57    1.50
   2  -7   5   33.59    1.51
   2  -7   5   31.01    1.59
  -2   7  -5   31.27    1.40
  -2  -7   5   28.13    1.39
   2  -7  -5   30.75    1.68
   2  -7  -5   31.06    1.48
   3  -7   5   35.65    1.76
  -3  -7   5   36.25    1.59
   3  -7  -5   36.83    1.77
   3  -7  -5   38.16    1.81
   4  -7   5    1.90    0.41
   4  -7  -5    2.45    0.61
   4  -7  -5    3.22    0.63
   5  -7   5    9.94    0.75
  -5   7   5   10.15    0.84
   5  -7   5    9.57    0.92
  -5   7  -5    8.92    0.73
   5  -7  -5    8.85    0.82
   5  -7  -5   10.43    0.97
  -6   7   5   29.46    1.43
   6  -7   5   27.97    1.33
  -6   7  -5   30.29    1.37
   6  -7  -5   29.84    1.41
   6  -7  -5   26.76    1.74
   7  -7   5    0.25    0.31
  -7   7   5    0.08    0.40
  -7   7  -5    0.79    0.32
   7  -7  -5    0.58    0.51
   7  -7  -5    0.62    0.33
  -8   7   5    7.74    0.59
  -8   7  -5    6.74    0.55
   8  -7  -5    7.72    0.76
   0  -8   5   14.77    0.94
   0  -8  -5   15.54    0.91
  -1  -8  -5    0.51    0.32
   1  -8   5    0.45    0.58
   1  -8   5    0.23    0.30
  -1   8  -5    1.21    0.29
   1  -8  -5    0.96    0.32
  -1  -8   5    0.80    0.34
   2  -8   5   31.41    1.91
  -2  -8  -5   36.29    1.65
   2  -8   5   33.53    1.67
  -2  -8   5   36.13    1.60
   2  -8  -5   37.34    1.68
  -2   8  -5   35.95    1.67
  -3   8   5   27.39    1.27
   3  -8   5   26.00    1.34
   3  -8   5   27.23    1.41
   3  -8  -5   25.44    1.39
  -3  -8   5   24.39    1.30
  -3   8  -5   25.47    1.20
   3  -8  -5   26.09    1.39
   4  -8   5   56.48    2.44
   4  -8   5   60.48    2.36
  -4   8   5   58.07    2.30
  -4   8  -5   52.08    2.23
   4  -8  -5   53.40    2.45
   4  -8  -5   53.07    2.36
   5  -8   5    9.44    0.99
  -5   8   5    9.90    0.71
   5  -8   5    9.53    0.72
   5  -8  -5   10.10    0.99
   5  -8  -5    9.17    0.76
  -5   8  -5    9.18    0.67
   6  -8   5    7.38    0.60
  -6   8   5    5.64    0.60
   6  -8  -5    7.98    0.66
   6  -8  -5    7.42    0.94
  -6   8  -5    7.25    0.58
  -7   8   5    3.24    0.43
   7  -8  -5    2.03    0.36
  -7   8  -5    2.30    0.39
   0  -9   5   56.13    2.40
   0  -9  -5   56.39    2.36
   1  -9   5   16.33    1.03
   1  -9   5   18.31    1.14
  -1  -9  -5   16.56    0.98
   1  -9  -5   14.85    1.20
   1  -9  -5   15.72    0.99
  -1  -9   5   14.55    0.98
   2  -9   5    1.55    0.42
   2  -9   5    2.02    0.47
  -2  -9  -5    2.50    0.77
   2  -9  -5    0.83    0.37
  -2  -9   5    1.09    0.42
   2  -9  -5    0.72    0.46
  -2   9  -5    1.36    0.28
  -3   9   5    3.52    0.50
   3  -9   5    3.63    0.70
   3  -9   5    4.25    0.62
   3  -9  -5    4.40    0.66
   3  -9  -5    3.77    0.69
  -3   9  -5    4.35    0.44
  -3  -9   5    4.07    0.81
   4  -9   5   -0.04    0.39
   4  -9   5    0.38    0.30
   4  -9  -5    0.45    0.40
   4  -9  -5    0.25    0.31
   5  -9   5   15.07    0.84
  -5   9   5   15.15    0.78
   5  -9   5   15.14    1.23
   5  -9  -5   15.93    0.88
   5  -9  -5   15.38    1.15
  -5   9  -5   15.42    0.76
   6  -9   5   15.74    0.77
  -6   9   5   14.20    0.72
   6  -9  -5   14.77    0.77
  -6   9  -5   13.85    0.69
   0 -10   5    7.59    0.82
   0 -10   5    8.74    0.92
   0 -10  -5    7.89    0.99
  -1 -10  -5    4.13    0.78
   1 -10   5    3.83    0.61
   1 -10   5    4.08    0.54
  -1 -10   5    4.79    0.70
   1 -10  -5    5.32    0.64
   2 -10   5    8.18    0.78
   2 -10   5    7.95    0.70
   2 -10  -5    7.87    0.77
   2 -10  -5    8.13    0.71
   3 -10   5   10.44    0.69
   3 -10   5   10.48    0.90
   3 -10  -5    9.12    0.84
   3 -10  -5    9.06    0.70
   4 -10   5    1.16    0.50
   4 -10   5    1.29    0.28
   4 -10  -5    1.50    0.31
  -4  10  -5    1.98    0.33
   4 -10  -5    2.01    0.47
   5 -10   5    1.83    0.27
   5 -10  -5    2.55    0.39
  -5  10  -5    2.56    0.45
   0 -11   5    1.64    0.47
   1 -11   5    3.13    0.50
   1 -11   5    4.79    0.59
   1 -11  -5    3.32    0.56
   1 -11  -5    3.64    0.65
   2 -11   5    1.41    0.30
   2 -11  -5    0.87    0.32
   3 -11   5    0.37    0.23
   3 -11  -5    0.48    0.24
   0   0   6  142.74    5.76
   0   0  -6  149.61    5.81
   1   0   6   84.82    3.47
  -1   0  -6   82.36    3.58
   1   0  -6   81.23    3.56
  -1   0   6   82.73    3.63
  -2   0   6  139.27    6.07
  -2   0  -6  157.02    5.34
  -2   0   6  141.26    5.31
   2   0  -6  139.70    5.93
   3   0   6   22.76    1.55
  -3   0  -6   23.73    0.94
  -3   0   6   24.36    1.90
   3   0  -6   23.15    1.69
   4   0   6    3.88    1.19
  -4   0  -6    4.53    0.31
   4   0   6    4.95    1.07
   4   0  -6    4.00    1.09
  -4   0   6    4.83    1.40
  -6   0  -6   10.04    0.86
   6   0   6    9.42    0.69
  -6   0   6    9.19    0.67
  -6   0  -6    9.08    0.54
   6   0  -6    7.74    0.78
  -7   0  -6    0.65    0.22
  -7   0  -6    0.94    0.34
  -7   0   6    1.30    0.34
   7   0  -6    1.09    0.39
  -8   0   6   -0.30    0.30
   8   0  -6   -0.02    0.34
  -8   0  -6    0.39    0.29
  -8   0  -6    0.10    0.22
  -9   0  -6    6.64    0.54
   9   0  -6    7.54    0.65
  -9   0   6    7.59    0.72
  -9   0   6    7.67    0.67
  -9   0  -6    6.38    0.56
 -10   0  -6    6.03    0.45
 -10   0   6    5.90    0.67
  10   0  -6    6.09    0.50
 -10   0   6    6.11    0.52
 -10   0  -6    5.60    0.56
 -11   0   6   10.58    0.56
 -11   0  -6   11.71    0.54
   0  -1  -6   22.02    1.29
   0   1  -6   20.64    1.26
   0   1   6   24.24    1.34
   0  -1   6   20.38    1.23
  -2   1   6  212.99    8.48
   2   1  -6  204.66    8.08
   2  -1   6  209.97    8.19
  -2   1  -6  193.81    7.45
  -2  -1   6  204.35    8.28
  -2  -1   6  203.33    7.48
   2  -1  -6  210.06    8.30
   2   1   6  214.86    7.94
  -3   1   6   21.60    1.87
  -3  -1  -6   21.73    0.84
   3   1  -6   19.28    1.43
   3  -1   6   20.97    1.62
  -3   1   6   21.26    0.93
  -3  -1   6   19.23    1.64
  -3  -1   6   18.12    0.87
   3  -1  -6   20.54    1.65
   4   1  -6   30.07    2.14
  -4  -1  -6   32.80    1.26
  -4   1   6   33.73    2.90
   4  -1   6   30.94    2.52
  -4   1   6   33.54    1.36
   4  -1  -6   31.76    2.43
   4   1   6   30.88    2.01
  -4  -1   6   31.24    1.32
  -4   1  -6   30.71    1.27
  -4  -1   6   33.19    2.52
   4   1   6   30.54    2.26
  -5  -1  -6   31.36    1.38
  -5   1   6   30.87    1.52
  -5   1  -6   34.42    1.34
  -5  -1   6   33.57    1.48
   6  -1   6    6.65    0.63
  -6   1   6    6.89    0.58
  -6  -1  -6    6.14    0.45
   6   1  -6    6.75    0.73
  -6   1  -6    6.25    0.47
  -6  -1   6    5.72    0.58
   6  -1  -6    6.61    0.78
  -6   1  -6    6.65    0.65
  -7   1   6  124.36    4.71
  -7  -1  -6  122.79    4.60
   7  -1   6  124.24    4.62
   7   1  -6  123.53    4.65
  -7  -1  -6  119.87    4.63
   7  -1  -6  124.67    4.73
  -7  -1   6  120.29    4.74
  -7   1  -6  120.92    4.59
  -7   1  -6  122.36    4.61
  -8  -1  -6    1.48    0.29
  -8  -1  -6    1.89    0.38
  -8   1   6    1.80    0.40
  -8   1   6    1.04    0.35
   8   1  -6    1.62    0.38
  -8   1  -6    1.48    0.31
  -8   1  -6    1.21    0.28
   8  -1  -6    1.34    0.41
  -8  -1   6    1.20    0.38
  -9  -1  -6   11.84    0.72
  -9   1   6   12.35    0.85
   9   1  -6   11.56    0.72
  -9   1   6   12.84    0.76
  -9  -1  -6   11.80    0.70
  -9   1  -6   12.40    0.75
  -9  -1   6   11.89    0.84
   9  -1  -6   12.42    0.83
  -9  -1   6   11.83    0.87
  -9   1  -6   12.24    0.69
 -10  -1  -6    2.23    0.45
 -10  -1  -6    2.26    0.35
 -10   1   6    2.50    0.37
 -10   1   6    1.68    0.44
 -10  -1   6    2.36    0.42
 -10   1  -6    2.55    0.38
  10  -1  -6    2.16    0.32
 -10   1  -6    2.58    0.33
 -10  -1   6    2.51    0.44
   0   2   6    0.10    0.23
   0  -2   6    0.09    0.18
   0  -2  -6    0.32    0.25
  -1  -2  -6    7.96    0.76
   1  -2   6    8.02    0.48
  -1   2   6    8.60    0.96
   1  -2   6    9.00    0.89
   1   2  -6    8.10    0.77
   1   2   6   10.33    0.79
  -1  -2   6   10.79    0.88
   1  -2  -6   10.40    0.95
   1  -2  -6    9.60    0.46
   2  -2   6  258.93    9.29
  -2   2   6  255.43   10.37
   2  -2   6  266.59   10.21
  -2  -2   6  249.39   10.06
   2   2   6  263.16    9.68
  -2  -2   6  251.69    9.25
   2  -2  -6  249.49    9.28
   2  -2  -6  256.96   10.18
  -3   2   6  228.96    8.05
   3  -2   6  214.59    9.32
  -3  -2  -6  216.94    7.96
  -3   2   6  225.92    9.54
   3  -2   6  214.54    8.05
   3   2  -6  213.33    8.64
  -3  -2   6  217.86    8.01
  -3  -2   6  216.14    9.65
   3  -2  -6  233.62    9.29
   3  -2  -6  237.77    8.08
  -3   2  -6  212.10    7.98
   4  -2   6   18.09    2.15
  -4   2   6   19.56    2.49
   4  -2   6   20.22    0.97
  -4  -2  -6   18.93    0.77
   4   2  -6   19.02    1.53
  -4   2   6   20.23    0.88
  -4  -2   6   14.26    1.68
   4   2   6   14.65    1.59
  -4  -2   6   15.06    0.81
  -4   2  -6   16.55    0.77
  -5  -2  -6   39.73    1.56
  -5  -2   6   35.45    1.53
  -5   2  -6   32.65    1.44
   6   2  -6   18.25    1.08
   6  -2   6   18.42    1.04
  -6  -2  -6   18.93    0.90
  -6   2   6   20.59    1.02
  -6  -2   6   21.72    1.07
  -6   2  -6   20.04    0.96
  -6   2  -6   20.18    0.92
   6  -2  -6   19.68    1.21
  -7   2   6   15.16    1.27
  -7   2   6   15.05    0.89
   7   2  -6   16.99    0.94
  -7  -2  -6   14.94    0.78
   7  -2   6   15.09    1.22
  -7  -2   6   15.25    0.98
  -7   2  -6   15.42    0.82
  -7   2  -6   13.83    0.97
   8   2  -6    5.21    0.60
  -8   2   6    4.07    0.54
  -8   2   6    4.32    0.61
  -8  -2  -6    4.02    0.46
  -8  -2  -6    5.46    0.71
  -8  -2   6    5.02    0.68
   8  -2  -6    4.60    0.70
  -8   2  -6    4.51    0.47
  -8   2  -6    4.96    0.53
  -9  -2  -6   14.45    0.78
  -9   2   6   13.42    0.74
  -9   2   6   13.29    0.92
  -9  -2  -6   14.11    0.76
  -9  -2   6   14.41    0.96
   9  -2  -6   14.24    0.91
  -9   2  -6   13.72    0.85
  -9   2  -6   13.64    0.71
 -10  -2  -6    3.50    0.38
 -10  -2  -6    3.70    0.47
 -10   2   6    4.49    0.37
 -10  -2   6    2.96    0.44
  10  -2  -6    3.04    0.47
 -10  -2   6    2.84    0.49
 -10   2  -6    3.82    0.34
   0  -3   6  387.26   13.93
   0  -3  -6  370.83   13.86
   0  -3   6  396.38   14.63
   0  -3  -6  394.52   14.60
  -1  -3   6    3.79    0.67
   1  -3  -6    3.33    0.28
   1  -3  -6    3.67    0.71
   1   3   6    3.51    0.59
  -1  -3   6    3.41    0.32
  -2   3   6   62.21    3.46
   2  -3   6   66.10    3.35
   2   3  -6   64.13    2.83
   2  -3   6   64.09    3.44
  -2  -3   6   53.95    2.92
   2  -3  -6   56.86    3.17
   2   3   6   55.34    2.56
  -2  -3   6   50.27    2.22
   3  -3   6    9.06    0.58
   3  -3   6    9.30    1.61
  -3  -3  -6   10.07    0.46
  -3   3   6    9.25    1.82
   3   3  -6   10.82    1.02
  -3  -3   6    8.38    0.50
   3  -3  -6    8.76    1.50
  -3  -3   6    8.37    1.11
  -3   3  -6    8.28    0.50
   3  -3  -6    9.35    0.58
   4  -3   6    5.48    2.02
  -4   3   6    6.08    2.46
   4  -3   6    6.22    0.56
  -4  -3  -6    6.00    0.38
  -4   3  -6    5.09    0.39
   4  -3  -6    5.61    0.55
   4  -3  -6    5.45    1.94
  -5   3   6    1.81    0.33
  -5   3   6    1.63    0.38
  -5  -3  -6    1.71    0.33
   5  -3   6    2.01    0.49
  -5  -3   6    1.95    0.38
   5  -3  -6    1.66    0.46
  -5   3  -6    2.10    0.32
   5  -3  -6    2.80    1.09
  -5   3  -6    1.99    0.31
   6  -3   6   14.81    0.91
  -6   3   6   14.48    0.80
  -6   3   6   13.82    0.81
   6   3  -6   13.49    0.91
  -6  -3  -6   14.19    0.70
  -6  -3   6   13.07    0.83
  -6   3  -6   12.35    1.11
   6  -3  -6   12.92    1.04
   6  -3  -6   12.57    0.96
  -6   3  -6   12.90    0.71
  -6   3  -6   12.97    0.72
  -7  -3  -6    9.03    0.57
  -7   3   6    7.80    0.86
   7  -3   6    9.74    0.71
  -7   3   6    9.99    1.35
   7   3  -6    9.41    1.00
  -7   3   6    9.40    0.61
  -7   3  -6    7.54    0.55
   7  -3  -6    8.92    0.90
  -7  -3   6    7.26    0.78
  -7   3  -6    8.27    1.05
  -8   3   6   44.14    2.25
  -8   3   6   45.78    1.79
  -8  -3  -6   44.92    1.81
  -8   3  -6   44.53    1.86
   8  -3  -6   41.45    1.99
  -8   3  -6   45.15    1.77
  -8  -3   6   43.21    2.01
  -8   3  -6   44.08    2.22
  -9  -3  -6   18.64    0.98
  -9  -3  -6   19.07    0.92
   9  -3  -6   19.73    1.08
  -9  -3   6   20.33    1.14
  -9   3  -6   20.19    0.87
 -10  -3  -6    2.47    0.36
 -10   3   6    1.87    0.30
 -10  -3  -6    1.75    0.29
 -10  -3   6    1.97    0.40
 -10   3  -6    2.19    0.26
 -10  -3   6    2.66    0.37
  10  -3  -6    2.30    0.34
   0  -4   6   11.01    0.60
   0  -4  -6   12.46    1.09
   0  -4  -6   11.85    0.52
   0   4   6   11.31    1.24
   0  -4   6   11.17    1.14
   1  -4   6   83.14    4.25
   1  -4   6   85.08    3.14
   1  -4   6   87.47    4.15
  -1  -4  -6   83.04    3.57
  -1  -4  -6   81.43    3.00
   1  -4  -6   84.08    4.02
  -1  -4   6   79.00    3.84
   1  -4  -6   83.15    3.09
  -1  -4   6   83.36    3.10
   1   4   6   76.16    3.57
  -2  -4   6   10.98    0.57
   2  -4  -6   10.11    0.62
  -2  -4   6   10.64    1.19
   2  -4  -6   10.78    1.47
   3  -4   6  136.15    4.94
   3  -4   6  128.68    6.79
  -3  -4   6  132.12    4.84
   3  -4  -6  129.64    6.52
   3  -4  -6  136.01    4.96
  -3  -4   6  126.65    5.45
   4  -4   6   28.26    1.37
   4  -4   6   28.56    1.33
   4  -4  -6   28.70    1.36
  -4  -4   6   28.13    1.22
   4  -4  -6   29.81    1.49
  -5   4   6    7.24    0.63
  -5  -4  -6    8.11    0.50
   5  -4   6    9.14    0.92
   5  -4   6    8.66    0.70
   5  -4   6    8.21    0.78
  -5  -4   6    8.38    0.61
   5  -4  -6    7.47    0.79
  -5   4  -6    8.36    0.54
  -5   4  -6    7.93    0.88
   5  -4  -6    8.09    0.91
   5  -4  -6    8.16    0.80
   6  -4   6   16.40    0.92
   6  -4   6   16.99    1.00
  -6   4   6   16.81    1.24
  -6   4   6   15.22    0.79
  -6  -4  -6   15.15    0.75
  -6  -4   6   14.81    0.91
  -6   4  -6   15.20    0.76
  -6   4  -6   14.72    1.06
   6  -4  -6   15.26    1.00
   6  -4  -6   12.60    1.12
  -7   4   6    2.62    0.66
  -7  -4  -6    2.89    0.39
  -7   4   6    3.43    0.44
   7  -4  -6    1.82    0.50
  -7   4  -6    3.01    0.37
  -7   4  -6    2.44    0.53
  -7  -4   6    2.14    0.48
  -8  -4  -6    5.94    0.48
  -8   4   6    5.77    0.45
  -8   4   6    6.70    0.99
  -8   4  -6    5.70    0.83
  -8   4  -6    5.14    0.41
   8  -4  -6    4.91    0.73
  -8  -4   6    5.69    0.74
  -9  -4  -6    2.71    0.40
  -9   4   6    2.22    0.58
   9  -4  -6    2.05    0.39
  -9  -4   6    2.58    0.45
  -9   4  -6    2.89    0.53
  -9   4  -6    2.69    0.30
 -10   4   6    5.56    0.87
 -10  -4  -6    7.60    0.51
  10  -4  -6    8.17    0.55
   0  -5   6   48.38    3.07
   0  -5  -6   54.27    2.03
   0  -5  -6   54.34    2.79
   0  -5   6   53.86    2.09
  -1  -5  -6  115.53    4.81
   1  -5   6  126.99    4.55
  -1  -5  -6  124.04    4.40
   1  -5  -6  125.58    4.50
  -1  -5   6  113.40    5.34
   2  -5   6   29.12    1.29
   2  -5  -6   28.29    1.28
  -2  -5   6   28.59    1.83
   3  -5   6    3.98    0.47
   3  -5   6    3.16    0.48
  -3  -5   6    3.51    0.42
   3  -5  -6    3.07    0.48
  -3   5  -6    3.70    0.51
   4  -5   6    3.26    0.53
   4  -5   6    2.68    0.43
   4  -5  -6    4.02    0.56
  -4   5  -6    4.08    0.66
  -4  -5   6    3.57    0.46
   4  -5  -6    3.01    0.55
   5  -5   6   37.10    1.74
  -5   5   6   40.49    1.86
   5  -5   6   39.18    1.68
   5  -5  -6   38.25    1.82
   5  -5  -6   37.51    1.74
  -5   5  -6   36.98    1.72
   5  -5  -6   37.30    1.99
  -5  -5   6   35.80    1.64
  -6   5   6    9.72    0.99
  -6  -5  -6   10.92    0.75
   6  -5  -6    9.49    1.07
  -6   5  -6    8.99    0.83
   6  -5  -6    7.98    0.80
   6  -5  -6    6.79    1.40
  -6  -5   6    8.41    0.79
  -7   5   6   14.24    1.08
  -7  -5  -6   13.48    0.70
   7  -5  -6   12.07    0.93
   7  -5  -6   13.43    1.04
  -7   5  -6   13.47    0.93
  -7  -5   6   12.51    1.00
  -8   5   6   21.22    1.25
  -8  -5  -6   22.45    0.98
   8  -5  -6   20.58    1.19
  -8  -5   6   21.27    1.20
  -8   5  -6   21.71    1.24
  -9  -5  -6    0.06    0.26
  -9   5   6   -0.05    0.38
   9  -5  -6    0.10    0.29
  -9  -5   6    0.25    0.37
  -9   5  -6    0.31    0.34
   0  -6   6   15.33    0.85
   0  -6  -6   16.91    0.78
   1  -6   6   12.34    0.76
  -1  -6   6   13.20    0.73
   1  -6  -6   13.22    0.72
  -1   6  -6   13.31    0.81
   2  -6   6   78.84    3.31
   2  -6   6   83.86    3.25
  -2  -6   6   82.06    3.15
  -2   6  -6   80.73    3.17
   2  -6  -6   83.68    3.45
   2  -6  -6   83.35    3.23
   3  -6   6   78.48    3.11
  -3   6   6   77.75    3.12
   3  -6   6   78.69    3.12
   3  -6  -6   76.39    3.12
  -3   6  -6   78.99    3.05
  -3  -6   6   77.59    2.99
   3  -6  -6   74.75    3.14
  -4   6   6  106.19    4.03
   4  -6   6  109.35    4.04
   4  -6   6  105.88    3.96
   4  -6  -6   96.68    4.03
   4  -6  -6   97.10    4.00
  -4  -6   6   97.36    3.86
  -4   6  -6  102.15    3.95
  -5   6   6   22.49    1.25
   5  -6   6   20.88    1.25
   5  -6   6   22.70    1.15
   5  -6  -6   22.14    1.22
  -5   6  -6   21.60    1.17
   5  -6  -6   20.96    1.31
   6  -6   6    6.60    0.65
  -6   6   6    7.80    0.84
   6  -6  -6    7.31    1.19
  -6  -6   6    8.41    0.82
  -6   6  -6    8.79    0.75
   6  -6  -6    7.16    1.12
   6  -6  -6    8.39    0.76
  -7   6   6    4.27    0.71
   7  -6   6    5.33    0.68
   7  -6  -6    6.32    0.86
   7  -6  -6    4.12    0.65
  -7   6  -6    5.20    0.63
  -7  -6   6    5.12    0.86
  -8   6   6    4.53    0.63
   8  -6  -6    3.89    0.63
  -8   6  -6    4.17    0.56
  -8  -6   6    3.63    0.72
  -9   6   6    7.82    0.64
  -9   6  -6    8.23    0.59
   9  -6  -6    7.86    0.60
   0  -7  -6    7.51    0.56
   0   7  -6    8.09    0.65
   0  -7   6    7.25    0.62
   1  -7   6   46.46    2.00
   1  -7   6   48.03    2.40
  -1  -7  -6   45.52    1.85
  -1   7   6   46.26    1.96
   1  -7  -6   46.48    1.96
  -1   7  -6   47.13    1.88
  -1  -7   6   44.85    1.94
  -2  -7  -6   10.15    0.60
  -2   7   6   10.55    0.83
   2  -7   6   10.28    0.95
   2  -7   6   10.90    0.78
   2  -7  -6    9.94    1.09
   2  -7  -6    9.96    0.75
  -2   7  -6   10.71    0.70
  -2  -7   6   10.43    0.71
   3  -7   6   15.31    0.98
   3  -7   6   13.58    1.19
  -3   7   6   16.30    0.97
   3  -7  -6   14.84    1.06
  -3   7  -6   14.29    0.86
   3  -7  -6   15.45    1.13
  -3  -7   6   13.69    0.86
   4  -7   6    1.77    0.38
   4  -7   6    1.56    0.42
  -4   7   6    1.44    0.41
  -4   7  -6    2.22    0.41
   4  -7  -6    1.06    0.39
   4  -7  -6    1.93    0.48
  -4  -7   6    1.59    0.40
   5  -7   6   16.73    1.12
  -5   7   6   16.51    0.99
   5  -7   6   15.63    0.92
  -5  -7   6   14.55    1.04
  -5   7  -6   14.31    0.89
   5  -7  -6   14.04    0.99
   5  -7  -6   13.59    1.11
  -6   7   6   15.25    0.95
   6  -7   6   15.58    0.86
   6  -7  -6   12.91    1.37
  -6   7  -6   15.08    0.89
   6  -7  -6   14.44    0.93
  -6  -7   6   15.37    1.08
  -7   7   6   22.22    1.16
   7  -7   6   22.08    1.08
   7  -7  -6   23.22    1.31
  -7   7  -6   23.78    1.12
   7  -7  -6   22.40    1.09
  -8   7   6    5.25    0.54
   8  -7  -6    5.71    0.72
  -8   7  -6    6.51    0.52
   0  -8   6   12.46    0.85
   0  -8  -6   13.74    0.82
   1  -8   6   11.32    1.06
   1  -8   6   10.78    0.83
  -1  -8  -6   10.95    0.74
  -1   8  -6   12.93    0.72
   1  -8  -6   12.79    0.83
  -1  -8   6   12.31    0.81
  -2   8   6   41.25    1.74
  -2  -8  -6   39.65    1.73
   2  -8   6   39.99    1.87
   2  -8   6   41.29    1.89
  -2  -8   6   41.06    1.80
   2  -8  -6   41.57    1.87
   2  -8  -6   40.38    1.92
  -2   8  -6   41.78    1.69
   3  -8   6  103.78    4.05
   3  -8   6  105.95    4.14
  -3   8   6  108.62    3.99
  -3   8  -6  105.18    3.94
   3  -8  -6  101.12    4.13
   3  -8  -6  102.89    4.09
  -3  -8   6   99.94    4.00
   4  -8   6    1.38    0.43
   4  -8   6    1.39    0.37
  -4   8   6    1.64    0.37
   4  -8  -6    1.58    0.40
  -4  -8   6    1.63    0.49
  -4   8  -6    0.70    0.29
   4  -8  -6    1.05    0.44
  -5   8   6    0.65    0.32
   5  -8   6    1.11    0.32
   5  -8   6    1.00    0.52
   5  -8  -6    1.79    0.52
   5  -8  -6    0.97    0.35
  -5   8  -6    1.38    0.30
   6  -8   6    3.51    0.49
  -6   8   6    3.97    0.51
   6  -8  -6    5.07    1.19
   6  -8  -6    3.57    0.54
  -6   8  -6    3.43    0.45
  -7   8   6    0.36    0.24
   7  -8  -6    0.39    0.33
  -7   8  -6    0.56    0.22
   0  -9  -6    8.08    0.73
   0  -9   6    8.69    0.77
   1  -9   6   14.45    1.03
  -1  -9  -6   14.02    0.91
   1  -9   6   14.67    0.96
  -1  -9   6   13.44    0.92
   1  -9  -6   12.15    1.12
   1  -9  -6   13.45    0.92
   2  -9   6    3.44    0.64
   2  -9   6    2.77    0.45
  -2  -9  -6    3.56    0.52
  -2   9  -6    2.91    0.42
   2  -9  -6    2.74    0.47
  -2  -9   6    2.30    0.46
   2  -9  -6    3.51    0.55
   3  -9   6    0.64    0.37
  -3   9   6    1.20    0.29
   3  -9   6    0.26    0.32
   3  -9  -6    0.24    0.34
  -3  -9   6    0.67    0.46
  -3   9  -6    0.65    0.23
   3  -9  -6    0.63    0.38
   4  -9   6    0.10    0.44
  -4   9   6    0.12    0.26
  -4   9  -6    0.24    0.22
   4  -9  -6    0.56    0.47
   4  -9  -6    0.19    0.39
   5  -9   6    0.26    0.25
   5  -9   6    0.33    0.59
  -5   9   6    0.30    0.23
   5  -9  -6    0.19    0.28
  -5   9  -6    0.17    0.20
   5  -9  -6    0.01    0.50
   6  -9   6    0.15    0.25
  -6   9   6    0.19    0.21
   6  -9  -6    0.35    0.25
  -6   9  -6    0.16    0.18
   0 -10  -6    3.10    0.50
   0 -10   6    4.13    0.58
   0 -10   6    3.57    0.74
   1 -10   6    2.27    0.50
   1 -10   6    2.18    0.43
  -1 -10  -6    2.23    0.50
   1 -10  -6    2.40    0.46
  -1 -10   6    2.38    0.46
   1 -10  -6    3.11    0.51
   2 -10   6    0.58    0.33
   2 -10   6    0.52    0.38
   2 -10  -6    0.48    0.38
  -2 -10   6    0.28    0.45
   2 -10  -6    0.50    0.34
   3 -10   6   10.08    0.67
   3 -10   6    8.70    0.87
   3 -10  -6    8.89    0.69
   3 -10  -6    9.40    0.85
   4 -10   6    8.07    0.56
   4 -10   6    8.32    0.93
  -4  10  -6    7.70    0.49
   4 -10  -6    7.89    0.59
   4 -10  -6    6.36    0.88
   5 -10   6    0.12    0.22
  -5  10  -6   -0.19    0.17
   5 -10  -6    0.30    0.22
   0 -11   6    6.45    0.93
   1 -11   6    1.77    0.33
   2 -11   6   -0.12    0.23
   2 -11  -6    0.80    0.29
   0   0  -7    0.15    0.21
   0   0   7    0.08    0.20
   1   0  -7   88.10    3.96
  -1   0   7   94.13    4.07
   1   0   7   94.38    3.90
  -1   0  -7   88.63    3.98
  -2   0   7   22.03    0.97
  -2   0  -7   22.96    0.91
   2   0   7   23.56    1.47
  -2   0   7   24.42    1.72
   2   0  -7   21.58    1.52
  -3   0   7   72.80    3.95
   3   0  -7   70.10    3.65
   3   0   7   76.87    3.57
   4   0  -7   22.03    2.03
   4   0   7   21.03    2.09
   4   0   7   25.96    2.31
  -4   0  -7   21.85    0.98
  -4   0   7   24.83    2.50
  -4   0   7   23.34    1.16
  -5   0   7    0.27    0.21
  -5   0  -7    0.09    0.14
  -6   0  -7   20.09    0.91
  -6   0   7   19.85    1.04
  -6   0  -7   18.46    1.06
   6   0  -7   19.15    1.11
  -7   0   7   14.60    0.92
   7   0  -7   15.00    0.97
  -7   0  -7   14.41    0.77
  -7   0  -7   13.75    0.84
  -8   0   7    0.82    0.32
   8   0  -7    0.10    0.36
  -8   0  -7    0.52    0.23
  -8   0  -7    0.36    0.25
   9   0  -7    2.60    0.41
  -9   0  -7    2.34    0.44
  -9   0   7    2.95    0.42
  -9   0  -7    2.74    0.41
  -9   0   7    2.43    0.43
  10   0  -7   16.10    0.81
 -10   0  -7   16.76    0.76
 -10   0   7   15.07    0.95
 -10   0  -7   16.26    0.86
 -10   0   7   16.59    0.82
   0  -1   7  409.02   15.14
   0   1   7  408.04   15.19
   0   1  -7  412.72   15.20
   0  -1  -7  390.57   15.17
  -1   1   7    9.88    0.99
   1  -1   7   10.05    0.89
  -1  -1  -7    9.50    0.86
   1   1  -7    9.42    0.85
   1  -1  -7    7.69    0.85
   1   1   7    7.60    0.77
  -1  -1   7    7.26    0.84
  -1  -1   7    7.64    0.48
  -2   1   7   84.00    4.11
   2   1  -7   80.94    3.75
  -2  -1  -7   83.90    3.08
   2  -1   7   78.58    4.01
  -2   1  -7   88.54    3.10
   2  -1  -7   82.52    3.14
  -2  -1   7   84.80    4.01
   2  -1  -7   84.63    3.96
   2   1   7   87.51    3.67
  -2  -1   7   86.19    3.14
   3   1  -7   71.65    3.60
  -3  -1  -7   72.53    2.73
  -3   1   7   75.06    4.10
  -3   1   7   76.50    2.89
   3  -1   7   73.75    3.69
  -3  -1   7   72.97    2.79
  -3  -1   7   73.94    3.91
   3  -1  -7   74.26    2.83
   3  -1  -7   74.81    3.82
   4   1  -7    5.50    1.17
  -4   1   7    4.60    1.80
   4  -1   7    5.68    1.47
   4  -1   7    4.60    1.37
  -4   1   7    5.15    0.44
  -4  -1  -7    5.96    0.34
  -4   1  -7    4.03    0.36
  -4  -1   7    5.53    1.55
   4  -1  -7    4.72    1.38
  -5   1   7   23.34    1.10
  -5  -1  -7   23.24    0.98
  -5   1  -7   22.93    0.99
  -5  -1   7   22.29    1.08
  -6  -1  -7   60.32    2.43
   6  -1   7   60.45    2.49
   6   1  -7   61.91    2.56
  -6   1   7   61.52    2.55
  -6  -1   7   66.04    2.60
   6  -1  -7   62.70    2.61
  -6   1  -7   65.70    2.45
  -6   1  -7   64.33    2.47
  -7   1   7   11.47    0.80
  -7  -1  -7   11.38    0.86
  -7  -1  -7   11.47    0.66
   7   1  -7   12.06    0.86
  -7   1  -7   11.44    0.67
  -7   1  -7   10.85    0.72
  -7  -1   7   11.25    0.83
  -8   1   7   36.60    1.67
  -8   1   7   36.88    1.63
  -8  -1  -7   36.68    1.55
   8   1  -7   36.29    1.61
  -8  -1  -7   35.78    1.56
  -8   1  -7   36.77    1.57
  -8   1  -7   37.32    1.54
   8  -1  -7   35.00    1.70
  -8  -1   7   36.27    1.73
  -9   1   7    1.27    0.39
  -9   1   7    1.25    0.31
  -9  -1  -7    1.16    0.28
  -9  -1  -7    1.56    0.28
   9   1  -7    1.70    0.33
  -9  -1   7    1.91    0.41
   9  -1  -7    1.87    0.40
  -9   1  -7    1.39    0.31
  -9  -1   7    1.83    0.41
  -9   1  -7    1.33    0.25
 -10  -1  -7    0.09    0.19
 -10   1   7    0.37    0.20
 -10   1   7   -0.03    0.41
 -10  -1  -7    0.25    0.25
  10  -1  -7    0.32    0.25
 -10  -1   7    0.18    0.34
 -10  -1   7    0.50    0.27
 -10   1  -7   -0.14    0.32
 -10   1  -7    0.29    0.18
   0  -2   7  253.48    8.96
   0  -2  -7  226.47    8.90
   0  -2   7  255.50    9.63
   0  -2  -7  250.57    9.63
   0   2   7  253.57    9.67
   1  -2   7   12.18    1.05
  -1  -2  -7    9.97    0.92
  -1   2   7   10.81    1.12
   1   2  -7   10.92    0.95
   1  -2   7   10.61    0.55
  -1  -2  -7   10.46    0.47
  -1  -2   7    9.85    0.52
  -1  -2   7   10.89    0.99
   1  -2  -7    9.73    0.53
   1  -2  -7   10.91    1.04
   1   2   7   10.66    1.03
   2  -2   7   10.23    0.56
  -2   2   7    9.45    1.32
   2  -2   7   11.05    1.15
  -2  -2   7   10.64    1.15
   2  -2  -7    8.55    0.53
  -2   2  -7   10.71    0.49
  -2  -2   7   10.44    0.52
   2  -2  -7    8.90    1.12
   3  -2   7   66.04    3.62
  -3   2   7   63.76    2.52
   3  -2   7   64.46    2.53
   3  -2   7   60.64    3.71
  -3  -2  -7   63.14    2.42
  -3   2   7   64.84    3.93
   3  -2  -7   68.40    3.67
   3   2   7   69.70    3.05
  -3  -2   7   65.84    2.49
  -3  -2   7   67.55    3.56
  -4  -2  -7  126.83    4.73
   4  -2   7  127.13    4.86
   4  -2   7  122.92    6.38
   4  -2   7  123.09    6.62
  -4   2   7  127.87    7.06
  -4   2   7  129.86    4.84
  -4  -2   7  140.08    4.83
   4  -2  -7  133.29    6.48
  -4   2  -7  135.53    4.77
  -5  -2  -7   46.55    1.81
  -5   2   7   49.69    1.94
  -5   2  -7   45.36    1.83
  -5  -2   7   44.63    1.91
   6  -2   7   19.97    1.03
  -6  -2  -7   19.60    0.88
  -6   2   7   19.54    1.01
   6   2  -7   20.58    1.07
  -6   2  -7   18.20    0.90
  -6   2  -7   18.14    0.92
   6  -2  -7   18.40    1.18
  -7   2   7    8.27    0.69
  -7   2   7    7.99    0.66
  -7  -2   7    8.16    1.19
  -7   2  -7    8.32    0.58
  -7   2  -7    9.22    0.74
   7  -2  -7    7.90    0.85
  -8  -2  -7    5.03    0.46
  -8  -2  -7    5.07    0.64
  -8   2   7    5.51    0.55
  -8   2   7    4.58    0.65
   8   2  -7    5.20    0.61
   8  -2  -7    4.66    0.72
  -8  -2   7    5.08    0.70
  -8   2  -7    5.60    0.55
  -8   2  -7    4.61    0.46
  -9  -2  -7    0.33    0.34
   9   2  -7    0.86    0.30
  -9   2   7    0.59    0.45
  -9   2   7    0.33    0.23
  -9  -2  -7    0.39    0.22
  -9  -2   7    0.42    0.36
   9  -2  -7    0.16    0.33
  -9   2  -7    0.38    0.21
  -9   2  -7    0.51    0.32
 -10  -2  -7    5.17    0.42
 -10   2   7    5.63    0.40
 -10  -2  -7    5.46    0.50
 -10  -2   7    6.07    0.57
 -10  -2   7    6.11    0.67
 -10   2  -7    5.83    0.38
  10  -2  -7    6.26    0.54
   0  -3   7  121.52    4.51
   0  -3  -7  120.76    4.45
   0  -3   7  119.10    5.20
   0  -3  -7  128.66    5.23
   1  -3   7   86.30    4.25
  -1  -3  -7   86.77    3.38
  -1  -3  -7   87.94    4.04
  -1   3   7   85.77    4.40
  -1  -3   7  100.14    4.28
   1  -3  -7  104.81    4.42
   1  -3  -7   98.19    3.45
  -1  -3   7   94.38    3.46
   2  -3   7   51.86    2.98
  -2  -3  -7   52.15    1.86
   2  -3   7   51.63    1.99
   2   3  -7   50.04    2.57
  -2   3   7   52.12    3.22
  -2  -3   7   46.90    1.92
   2  -3  -7   50.66    2.95
  -2  -3   7   45.12    2.72
   3  -3   7    4.79    1.47
   3  -3   7    4.94    0.46
  -3  -3  -7    5.71    0.32
   3  -3   7    5.64    1.57
  -3   3   7    5.18    1.91
   3   3  -7    5.21    0.95
  -3   3  -7    4.34    0.37
   3   3   7    5.08    0.92
   3   3   7    4.54    0.75
  -3  -3   7    4.12    0.37
   3  -3  -7    4.62    0.49
   3  -3  -7    4.62    1.39
  -3  -3   7    5.17    1.13
   4  -3   7    3.10    1.50
  -4  -3  -7    3.02    0.29
  -4   3   7    2.96    0.38
   4  -3   7    2.89    1.53
   4  -3  -7    4.44    2.08
   4  -3  -7    3.27    0.51
  -4  -3   7    2.71    0.35
   5  -3   7    8.41    0.82
  -5  -3  -7    9.11    0.54
   5  -3   7    8.72    0.78
   5  -3  -7    9.95    1.06
   5  -3  -7   12.09    0.86
  -5   3  -7   12.23    1.05
  -5  -3   7   10.65    0.66
   5  -3  -7   11.43    0.96
  -5   3  -7   12.00    0.60
  -5   3  -7   11.03    0.63
  -6  -3  -7   12.67    0.66
   6  -3   7   12.98    0.86
   6   3  -7   13.15    0.91
  -6   3   7   12.27    0.82
  -6   3   7   13.04    0.78
  -6  -3   7   13.95    0.84
  -6   3  -7   12.50    1.13
   6  -3  -7   14.36    1.09
   6  -3  -7   13.84    0.98
  -6   3  -7   13.51    0.72
  -6   3  -7   13.31    0.70
  -7   3   7   60.90    2.70
  -7   3   7   57.48    2.23
  -7   3   7   56.48    2.36
  -7  -3  -7   59.39    2.23
   7   3  -7   58.68    2.25
  -7  -3   7   55.47    2.44
  -7   3  -7   54.83    2.22
  -7   3  -7   51.70    2.43
  -7   3  -7   54.62    2.25
   7  -3  -7   54.06    2.48
  -8  -3  -7    2.07    0.37
  -8   3   7    1.96    0.31
  -8   3   7    2.90    0.73
   8  -3  -7    2.32    0.49
  -8  -3   7    2.09    0.46
  -8   3  -7    2.47    0.41
  -8   3  -7    2.41    0.37
  -8   3  -7    2.89    1.02
  -9   3   7    1.49    0.77
  -9  -3  -7    0.35    0.28
  -9  -3  -7    0.62    0.23
  -9   3   7    0.31    0.21
  -9   3  -7    0.93    0.24
  -9  -3   7    0.86    0.39
 -10  -3  -7    1.23    0.23
 -10  -3  -7    1.24    0.26
 -10   3  -7    1.12    0.17
 -10  -3   7    1.19    0.33
  10  -3  -7    1.42    0.30
 -10  -3   7    0.80    0.37
   0   4   7    0.52    0.56
   0  -4   7    0.30    0.17
   0  -4  -7    0.40    0.40
   0  -4   7    0.57    0.48
   0  -4  -7    0.39    0.12
   1  -4   7   58.54    2.27
  -1  -4  -7   60.54    2.82
  -1  -4  -7   60.63    2.12
   1  -4   7   64.04    3.39
   1  -4  -7   54.53    3.11
   1  -4  -7   57.14    2.20
  -1  -4   7   51.72    3.01
  -1  -4   7   55.58    2.21
   1   4   7   53.33    2.81
  -2  -4  -7   24.65    0.94
   2  -4   7   25.92    1.11
   2  -4   7   24.87    2.43
   2  -4   7   24.60    2.28
   2   4   7   22.23    1.31
   2  -4  -7   24.11    1.08
  -2  -4   7   23.18    1.03
   2  -4  -7   23.47    2.11
  -2  -4   7   22.76    1.87
  -3  -4  -7   35.76    1.47
   3  -4   7   33.41    3.37
  -3  -4   7   42.50    1.60
   3  -4  -7   44.12    1.71
   4  -4   7    5.21    0.68
   4  -4   7    5.01    0.55
  -4   4  -7    5.41    0.75
   4  -4  -7    4.38    0.74
  -4  -4   7    4.69    0.44
   4  -4  -7    4.42    0.58
   5  -4   7    3.20    0.57
  -5   4  -7    2.41    0.49
   5  -4  -7    2.93    0.49
   5  -4  -7    2.38    0.49
  -5  -4   7    2.07    0.34
   5  -4  -7    2.96    0.70
  -5   4  -7    2.56    0.40
  -6   4   7   14.60    0.74
  -6   4   7   14.54    1.68
  -6  -4  -7   14.21    0.69
   6  -4   7   13.69    0.85
  -6   4  -7   13.52    0.73
  -6  -4   7   13.05    0.87
  -6   4  -7   12.76    1.02
   6  -4  -7   14.51    1.17
   6  -4  -7   13.21    0.95
  -7   4   7   15.77    0.76
  -7  -4  -7   14.41    0.74
  -7   4   7   15.15    1.23
   7  -4  -7   13.67    1.05
  -7  -4   7   14.47    1.03
  -7   4  -7   14.99    1.03
  -7   4  -7   14.53    0.71
  -8   4   7    2.79    0.40
  -8   4   7    2.91    0.61
  -8  -4  -7    2.75    0.39
   8  -4  -7    2.19    0.48
  -8   4  -7    2.82    0.50
  -8   4  -7    2.96    0.32
  -8  -4   7    2.48    0.51
  -9  -4  -7   18.31    0.83
  -9   4   7   17.29    1.22
   9  -4  -7   17.16    0.97
  -9  -4   7   16.39    1.03
  -9   4  -7   15.61    0.71
  -9   4  -7   16.18    1.06
 -10   4   7    1.56    0.75
 -10  -4  -7    0.71    0.23
  10  -4  -7    1.09    0.26
 -10  -4   7    1.01    0.35
   0  -5   7   20.54    0.94
   0  -5  -7   19.05    0.85
   1  -5   7   57.57    2.24
  -1  -5  -7   58.81    2.10
  -1  -5  -7   56.08    2.69
  -1  -5   7   51.11    2.19
   2  -5   7   38.16    1.66
  -2  -5  -7   39.95    1.47
  -2  -5   7   38.50    1.59
   2  -5  -7   38.79    1.65
   3  -5   7    1.18    0.38
   3  -5   7    1.33    0.30
  -3  -5   7    1.26    0.26
  -3   5  -7    1.13    0.35
   3  -5  -7    1.65    0.34
   3  -5  -7    1.29    0.53
   4  -5   7   18.15    0.97
   4  -5   7   16.51    0.95
  -4  -5   7   16.01    0.85
  -4   5  -7   15.66    0.98
   4  -5  -7   16.40    1.05
   4  -5  -7   15.82    0.99
  -5   5   7   10.52    0.97
  -5  -5  -7   10.65    0.56
   5  -5   7   10.33    0.75
   5  -5   7    9.85    0.86
   5  -5  -7    7.67    1.28
   5  -5  -7   10.51    0.93
  -5   5  -7    9.82    0.83
  -5  -5   7    9.46    0.71
   5  -5  -7   10.04    0.87
  -6  -5  -7   17.59    0.81
  -6   5   7   17.71    1.48
   6  -5  -7   16.72    1.27
  -6  -5   7   16.80    1.02
  -7   5   7    4.00    0.60
   7  -5  -7    3.46    0.58
  -7  -5   7    3.41    0.56
   7  -5  -7    4.33    0.75
  -7   5  -7    3.71    0.63
  -8  -5   7   17.32    1.10
  -8   5  -7   17.89    1.15
  -9  -5  -7    4.78    0.50
  -9   5   7    5.95    0.68
  -9   5  -7    4.88    0.61
   9  -5  -7    4.88    0.56
  -9  -5   7    4.85    0.69
   0   6  -7   41.76    1.73
   0  -6  -7   42.24    1.70
   0  -6   7   43.01    1.79
   1  -6   7    0.55    0.25
  -1  -6  -7    0.83    0.19
  -1  -6   7    1.06    0.26
  -1   6  -7    1.32    0.36
   1  -6  -7    1.17    0.25
   2  -6   7    4.49    0.51
   2  -6   7    4.70    0.64
  -2  -6  -7    3.89    0.32
   2  -6  -7    3.01    0.69
   3  -6   7   42.55    1.81
   3  -6   7   39.20    1.79
   3  -6  -7   40.35    1.87
  -3   6  -7   40.41    1.73
   3  -6  -7   40.56    1.83
  -3  -6   7   38.83    1.68
   4  -6   7   65.63    2.92
   4  -6   7   68.73    2.81
  -4   6   7   63.17    3.01
   4  -6  -7   69.56    2.85
   4  -6  -7   69.91    2.86
  -4  -6   7   71.62    2.70
  -4   6  -7   65.07    2.87
   5  -6   7   11.91    0.94
   5  -6   7   10.67    1.13
  -5  -6   7    9.57    0.79
   5  -6  -7   10.15    0.94
   6  -6   7   14.53    0.82
  -6   6   7   14.37    1.00
   6  -6  -7   11.71    0.89
  -6  -6   7   12.95    0.95
   6  -6  -7   11.57    1.32
  -6   6  -7   12.42    0.87
   6  -6  -7   13.02    1.24
  -7   6   7    1.38    0.43
   7  -6  -7    1.65    0.41
  -7  -6   7    1.15    0.49
  -7   6  -7    1.45    0.37
   7  -6  -7    1.58    0.51
  -8   6   7    1.75    0.38
  -8  -6   7    1.15    0.44
  -8   6  -7    1.00    0.31
   8  -6  -7    1.20    0.37
  -9   6   7    1.99    0.35
  -9   6  -7    1.72    0.32
   9  -6  -7    2.55    0.35
   0   7  -7  122.94    4.54
   0  -7  -7  120.33    4.60
   0  -7   7  123.74    4.69
   1  -7   7    7.77    1.02
   1  -7   7    7.09    0.65
  -1  -7  -7    7.74    0.52
  -1   7   7    7.34    0.78
  -1   7  -7    6.69    0.59
   1  -7  -7    7.77    0.61
  -1  -7   7    7.08    0.61
  -2  -7  -7    5.55    0.48
  -2   7   7    5.01    0.71
   2  -7   7    7.12    0.83
   2  -7   7    6.36    0.65
   2  -7  -7    6.46    0.97
  -2   7  -7    8.18    0.61
   2  -7  -7    7.61    0.66
  -3   7   7   20.95    1.13
   3  -7   7   20.49    1.16
   3  -7   7   20.76    1.14
  -3   7  -7   19.30    1.01
  -3  -7   7   18.12    1.22
   3  -7  -7   20.06    1.16
   4  -7   7    6.06    0.66
   4  -7   7    6.29    0.73
  -4   7   7    4.68    0.70
  -4  -7   7    6.28    0.69
   4  -7  -7    5.80    0.75
  -4   7  -7    5.70    0.60
   4  -7  -7    5.26    0.73
   5  -7   7   17.85    1.18
   5  -7   7   16.90    0.94
  -5   7   7   17.05    1.03
   5  -7  -7   16.57    1.19
  -5   7  -7   16.62    0.94
   5  -7  -7   14.82    1.01
  -5  -7   7   15.58    1.07
  -6   7   7   32.12    1.57
   6  -7   7   35.39    1.49
  -6  -7   7   34.96    1.65
   6  -7  -7   33.06    1.94
   6  -7  -7   33.29    1.56
  -6   7  -7   34.12    1.51
  -7   7   7    0.23    0.29
   7  -7  -7   -0.09    0.50
   7  -7  -7    0.19    0.34
  -7  -7   7    0.46    0.53
  -7   7  -7    0.09    0.24
  -8   7   7    1.43    0.30
  -8   7  -7    1.69    0.28
   0  -8   7   22.65    1.22
   0  -8  -7   24.12    1.18
   1  -8   7   24.61    1.46
   1  -8   7   25.99    1.32
  -1  -8  -7   25.29    1.20
  -1   8  -7   24.85    1.14
  -1  -8   7   24.41    1.27
   1  -8  -7   25.58    1.28
   2  -8   7   19.75    1.16
  -2   8   7   19.73    1.06
   2  -8   7   20.66    1.16
  -2  -8  -7   18.14    1.01
   2  -8  -7   20.30    1.15
  -2  -8   7   20.54    1.09
   2  -8  -7   19.81    1.22
  -2   8  -7   21.28    0.97
   3  -8   7    6.66    0.70
  -3   8   7    6.90    0.66
   3  -8   7    7.15    0.75
  -3  -8   7    6.37    0.71
  -3   8  -7    7.08    0.57
   3  -8  -7    6.95    0.77
   3  -8  -7    6.78    0.76
  -4   8   7   29.31    1.39
   4  -8   7   30.28    1.55
   4  -8   7   28.81    1.42
   4  -8  -7   32.59    1.60
  -4  -8   7   30.27    1.49
  -4   8  -7   29.65    1.34
   4  -8  -7   30.41    1.49
   5  -8   7    6.54    0.96
  -5   8   7    5.29    0.58
   5  -8   7    5.29    0.57
   5  -8  -7    6.34    0.65
   5  -8  -7    5.65    0.88
  -5   8  -7    5.75    0.54
   6  -8   7    2.66    0.46
  -6   8   7    2.09    0.34
   6  -8  -7    3.16    0.52
  -6   8  -7    2.50    0.41
  -7   8   7    1.18    0.26
  -7   8  -7    0.96    0.24
   0  -9   7   17.70    1.17
   0  -9  -7   17.39    1.02
   0  -9   7   17.51    1.06
   1  -9   7    0.68    0.44
  -1  -9  -7    1.12    0.38
   1  -9   7    0.88    0.37
   1  -9  -7    0.45    0.34
  -1  -9   7    0.85    0.36
   1  -9  -7    0.25    0.48
   2  -9   7    7.42    0.74
   2  -9   7    9.92    0.81
  -2  -9  -7    7.58    0.81
   2  -9  -7    8.76    0.82
  -2   9  -7    8.16    0.55
  -2  -9   7    8.83    0.79
   2  -9  -7    8.70    0.78
   3  -9   7    1.45    0.43
   3  -9   7    1.14    0.35
   3  -9  -7    1.18    0.38
  -3   9  -7    1.12    0.24
   3  -9  -7    1.27    0.40
  -3  -9   7    1.06    0.44
   4  -9   7    6.69    0.60
   4  -9   7    5.77    0.85
  -4   9   7    6.19    0.51
   4  -9  -7    6.76    1.19
   4  -9  -7    6.22    0.66
  -4   9  -7    6.27    0.47
  -5   9   7    1.79    0.27
   5  -9   7    1.50    0.29
   5  -9   7    1.69    0.67
   5  -9  -7    1.18    0.30
  -5   9  -7    1.16    0.23
   5  -9  -7    1.13    0.55
   6  -9   7    1.95    0.30
  -6   9   7    1.94    0.34
   6  -9  -7    2.60    0.42
  -6   9  -7    2.75    0.31
   0 -10  -7    0.40    0.39
   0 -10   7    1.00    0.43
   0 -10   7    0.40    0.36
   1 -10   7    3.75    0.66
   1 -10   7    3.71    0.59
  -1 -10  -7    3.47    0.52
   1 -10  -7    3.20    0.48
   1 -10  -7    2.85    0.50
  -1 -10   7    2.54    0.46
   2 -10   7    1.57    0.34
   2 -10   7    1.74    0.44
   2 -10  -7    2.08    0.44
   2 -10  -7    1.64    0.39
  -2 -10   7    1.84    0.47
   3 -10   7    2.95    0.52
   3 -10   7    2.52    0.45
   3 -10  -7    3.69    0.68
   3 -10  -7    4.00    0.51
   4 -10   7    7.62    0.54
   4 -10  -7    5.43    0.82
   4 -10  -7    5.92    0.53
   5 -10   7    4.43    0.41
   5 -10  -7    3.16    0.41
   0 -11   7    0.51    0.34
   1 -11   7   10.35    0.66
   1 -11  -7    9.59    0.75
   2 -11   7    0.33    0.24
   2 -11  -7    0.16    0.38
   0   0  -8   47.54    2.49
   0   0   8   49.76    2.46
   1   0  -8   41.78    2.26
  -1   0   8   41.15    1.63
  -1   0  -8   40.86    1.56
  -1   0   8   42.46    2.33
   2   0  -8  109.74    4.94
  -2   0   8  107.52    4.10
   2   0   8  112.94    4.80
  -2   0   8  112.95    5.16
   3   0   8   43.50    2.53
   3   0  -8   44.01    2.68
  -3   0   8   46.61    3.04
  -4   0   8   62.86    2.43
   4   0   8   57.66    3.80
  -4   0  -8   63.96    2.33
   4   0  -8   57.50    3.60
  -4   0   8   65.89    4.34
  -5   0  -8   52.57    2.04
  -5   0   8   52.91    2.17
   6   0  -8   35.35    1.63
  -6   0  -8   34.32    1.43
  -6   0   8   33.40    1.56
  -6   0  -8   34.34    1.49
   7   0  -8    4.10    0.62
  -7   0  -8    4.91    0.80
  -7   0  -8    4.59    0.49
  -7   0   8    4.22    0.66
  -8   0  -8    2.15    0.32
  -8   0   8    2.26    0.44
  -8   0  -8    2.80    0.42
   8   0  -8    2.53    0.46
  -9   0   8    2.39    0.44
  -9   0   8    2.04    0.37
  -9   0  -8    2.33    0.37
   9   0  -8    3.22    0.55
  -9   0  -8    2.92    0.44
 -10   0  -8    0.60    0.29
 -10   0   8    0.29    0.38
 -10   0   8    0.29    0.22
 -10   0  -8    0.31    0.19
  10   0  -8    0.46    0.25
   0  -1  -8   65.34    2.43
   0   1   8   66.95    3.15
   0   1  -8   65.49    3.14
   0  -1   8   63.87    2.48
   0  -1  -8   66.39    3.13
   0  -1   8   67.51    3.11
   1   1  -8  382.57   14.21
   1  -1   8  394.88   13.48
  -1   1   8  356.22   14.66
  -1  -1  -8  361.39   14.19
   1  -1   8  371.81   14.12
  -1  -1  -8  368.10   13.37
  -1  -1   8  386.36   14.32
  -1  -1   8  389.65   13.43
   1  -1  -8  339.02   13.40
   1  -1  -8  401.12   15.25
  -1   1  -8  341.88   13.37
   1   1   8  385.58   14.10
  -2  -1  -8   88.00    3.22
   2   1  -8   90.10    4.06
   2  -1   8   96.04    4.15
  -2  -1   8   86.77    4.27
  -2   1  -8   85.55    3.24
   2  -1  -8   82.25    3.29
  -3  -1  -8  145.99    5.34
   3   1  -8  138.17    6.30
   3  -1   8  153.92    6.52
  -3   1   8  149.77    6.99
  -3   1  -8  147.78    5.36
   3  -1  -8  146.61    5.44
  -3  -1   8  143.91    6.74
   3  -1  -8  151.17    6.65
  -4   1   8   34.41    1.49
   4   1  -8   31.55    3.47
   4  -1   8   34.43    2.99
  -4  -1  -8   33.97    1.38
  -4   1   8   36.24    3.37
  -4  -1   8   37.42    1.48
   4  -1  -8   33.41    2.76
  -4   1  -8   38.41    1.40
  -5   1   8  203.14    7.36
  -5  -1  -8  198.56    7.24
  -5   1  -8  190.73    7.24
  -5  -1   8  202.82    7.36
  -6  -1  -8   14.08    1.01
  -6   1   8   15.52    0.90
  -6  -1  -8   14.54    0.76
   6   1  -8   15.67    0.99
  -6   1  -8   16.55    0.85
  -6  -1   8   17.08    0.95
  -6   1  -8   16.33    0.78
   6  -1  -8   14.64    1.03
  -7  -1  -8   57.07    2.27
   7   1  -8   58.69    2.35
  -7   1   8   57.22    2.57
   7  -1  -8   54.56    2.38
  -7  -1   8   49.93    2.82
  -7   1  -8   55.27    2.21
   8   1  -8    5.32    0.65
  -8  -1  -8    6.19    0.56
  -8   1   8    5.42    0.66
  -8   1   8    6.47    0.63
  -8  -1  -8    6.11    0.49
   8  -1  -8    6.02    0.75
  -8   1  -8    4.87    0.52
  -8   1  -8    4.92    0.48
  -8  -1   8    5.16    0.68
  -9   1   8    2.62    0.47
  -9   1   8    3.49    0.66
  -9  -1  -8    2.41    0.40
   9   1  -8    3.22    0.51
  -9  -1  -8    2.90    0.43
  -9  -1   8    2.88    0.47
  -9  -1   8    2.30    0.40
  -9   1  -8    3.31    0.50
   9  -1  -8    3.97    0.61
  -9   1  -8    3.37    0.38
 -10   1   8    5.55    0.42
 -10  -1  -8    5.64    0.41
 -10  -1  -8    5.78    0.52
 -10   1   8    4.05    0.60
 -10  -1   8    4.72    0.68
 -10   1  -8    5.06    0.38
  10  -1  -8    5.64    0.51
 -10   1  -8    5.93    0.62
 -10  -1   8    5.83    0.50
   0   2   8   27.68    1.76
   0  -2  -8   26.07    1.04
   0  -2   8   29.20    1.73
   0  -2  -8   23.66    1.87
   1  -2   8   22.83    1.62
  -1   2   8   22.19    1.74
   1   2  -8   21.66    1.52
  -1  -2  -8   21.56    1.54
  -1  -2  -8   23.58    0.90
   1  -2   8   22.09    0.99
  -1  -2   8   24.20    0.98
  -1  -2   8   26.19    1.69
  -2   2   8  148.95    6.73
   2  -2   8  148.53    6.43
  -2  -2  -8  140.74    5.33
   2   2  -8  138.32    6.12
   2  -2   8  144.75    5.42
  -2  -2   8  152.07    5.40
   2  -2  -8  154.30    6.52
  -2   2  -8  146.50    5.36
  -2  -2   8  152.11    6.51
   3  -2   8  141.82    4.81
  -3   2   8  135.94    4.79
   3  -2   8  135.14    6.07
  -3   2   8  131.73    6.51
  -3  -2  -8  131.87    4.68
   3   2   8  128.24    5.46
  -3  -2   8  124.22    4.75
   3  -2  -8  121.99    4.80
  -3  -2   8  128.97    6.15
  -3   2  -8  114.61    4.69
   3  -2  -8  120.87    6.02
  -4  -2  -8   10.48    0.49
   4  -2   8    9.02    2.17
  -4   2   8    9.74    2.82
  -4  -2   8   10.30    0.58
   4  -2  -8    9.02    2.00
   4  -2  -8    9.32    0.73
  -4   2  -8    9.48    0.51
  -5   2   8   28.62    1.31
  -5  -2  -8   26.75    1.17
   5   2  -8   28.26    1.47
   5  -2  -8   26.53    1.50
  -5  -2   8   30.37    1.32
  -5   2  -8   30.13    1.21
  -5   2  -8   29.54    1.24
  -6  -2  -8    6.34    0.44
  -6   2   8    6.65    0.62
   6   2  -8    6.24    0.72
  -6   2  -8    6.02    0.50
  -6   2  -8    5.55    0.46
   6  -2  -8    5.13    0.80
   7   2  -8   28.04    1.34
  -7   2   8   27.34    1.48
  -7   2   8   28.38    1.33
  -7  -2  -8   28.35    1.25
  -7   2  -8   29.32    1.29
  -7  -2   8   29.57    1.49
  -7   2  -8   29.45    1.25
   7  -2  -8   28.84    1.47
   8   2  -8    7.12    0.65
  -8  -2  -8    7.04    0.64
  -8  -2  -8    7.50    0.52
  -8   2   8    6.63    0.71
  -8   2   8    7.28    0.59
  -8   2  -8    6.34    0.59
   8  -2  -8    6.38    0.79
  -8  -2   8    6.00    0.74
  -8   2  -8    6.59    0.50
   9   2  -8   20.59    0.93
  -9  -2  -8   22.01    0.98
  -9   2   8   20.83    0.96
  -9   2   8   20.28    1.16
  -9  -2  -8   21.39    0.98
  -9  -2   8   20.95    1.18
   9  -2  -8   20.51    1.12
  -9   2  -8   18.78    0.92
 -10  -2  -8   10.24    0.62
 -10  -2  -8   10.01    0.55
 -10   2   8    9.72    0.53
 -10  -2   8   10.46    0.68
 -10   2  -8   11.03    0.52
 -10  -2   8   11.17    0.83
  10  -2  -8   11.40    0.68
   0  -3   8    2.29    0.73
   0  -3  -8    2.54    0.22
   0  -3  -8    3.21    0.76
   0  -3   8    2.22    0.29
  -1   3   8   18.46    1.80
  -1  -3  -8   17.99    1.43
   1  -3   8   19.16    1.64
  -1  -3  -8   22.68    0.80
   1  -3  -8   21.43    1.65
   1  -3  -8   19.90    0.86
  -1  -3   8   19.72    0.88
  -1  -3   8   20.30    1.60
   2  -3   8  202.05   11.36
  -2   3   8  241.94   10.33
   2  -3   8  246.38    8.77
   2   3  -8  238.86    9.58
  -2  -3  -8  241.52    8.65
  -2  -3   8  247.03    8.73
  -2  -3   8  244.03    9.98
   2  -3  -8  253.48   10.08
   2   3   8  247.05    9.40
   2  -3  -8  241.71    8.76
   3  -3   8   48.94    3.44
   3  -3   8   50.60    2.16
  -3   3   8   54.32    4.39
   3  -3   8   51.63    3.73
  -3  -3  -8   54.78    1.96
   3  -3  -8   51.59    3.47
   3  -3  -8   53.48    2.13
   4  -3   8   66.08    5.16
  -4  -3  -8   77.82    2.82
   4  -3   8   76.46    2.97
  -4   3   8   77.73    2.94
  -4   3  -8   78.01    2.86
   4  -3  -8   79.73    3.03
   4  -3  -8   75.73    4.98
  -4  -3   8   73.69    2.91
  -5   3   8    5.24    0.60
   5   3  -8    4.58    0.74
  -5   3   8    5.33    0.61
  -5  -3  -8    5.31    0.38
   5  -3   8    5.42    0.66
  -5   3  -8    5.74    0.45
  -5   3  -8    6.52    0.49
  -5   3  -8    5.03    0.62
  -5  -3   8    6.49    0.52
   5  -3  -8    5.90    0.85
   5  -3  -8    5.57    0.95
   5  -3  -8    5.98    0.76
  -6   3   8   24.91    1.13
   6   3  -8   24.19    1.19
  -6   3   8   24.34    1.19
  -6  -3  -8   24.51    1.05
  -6  -3   8   23.89    1.22
  -6   3  -8   24.60    1.07
  -6   3  -8   23.37    1.09
  -6   3  -8   23.41    1.38
   6  -3  -8   22.56    1.39
   6  -3  -8   23.79    1.29
   7  -3  -8    3.08    0.55
  -7  -3   8    2.86    0.50
  -7   3  -8    3.08    0.41
  -7   3  -8    4.23    1.04
  -7   3  -8    2.77    0.49
  -8  -3  -8    8.09    0.54
  -8   3   8    7.05    1.20
  -8   3   8    8.22    0.55
  -8   3  -8    7.83    0.70
  -8  -3   8    8.76    0.84
  -8   3  -8    8.54    0.52
   8  -3  -8    8.33    0.82
  -9   3   8    5.81    0.43
  -9  -3  -8    5.51    0.62
  -9   3   8    7.29    1.16
  -9  -3  -8    6.79    0.53
   9  -3  -8    5.83    0.67
  -9   3  -8    6.18    0.41
  -9  -3   8    6.88    1.28
 -10  -3  -8    0.64    0.25
 -10  -3  -8    0.56    0.20
 -10  -3   8    0.41    0.37
 -10  -3   8    0.68    0.28
 -10   3  -8    0.51    0.16
  10  -3  -8    0.69    0.26
   0  -4  -8    0.51    0.49
   0  -4   8   -0.01    0.53
   0  -4  -8    0.21    0.12
  -1  -4  -8   24.49    1.70
  -1  -4  -8   23.40    0.92
   1  -4   8   24.70    1.06
   1  -4   8   25.98    2.19
   1  -4  -8   21.20    1.85
  -1  -4   8   20.28    1.04
   1  -4  -8   22.25    0.99
  -2  -4  -8   26.44    1.04
   2  -4   8   27.51    2.72
   2  -4   8   26.82    1.20
   2  -4  -8   28.00    1.19
   2  -4  -8   25.25    2.32
  -2  -4   8   26.77    1.15
  -3  -4  -8   21.68    0.88
   3  -4   8   21.88    1.06
  -3  -4   8   21.44    0.97
   3  -4  -8   21.80    1.08
   4  -4  -8   15.45    1.02
  -4  -4   8   14.91    0.78
  -4   4  -8   14.81    0.80
   4  -4  -8   15.72    0.94
  -4   4  -8   15.22    0.96
  -5   4   8    3.04    0.54
  -5  -4  -8    2.57    0.31
   5  -4   8    3.21    0.57
   5  -4   8    2.78    0.52
   5  -4  -8    3.49    0.55
   5  -4  -8    3.03    0.50
  -5   4  -8    3.94    0.41
  -5  -4   8    3.39    0.45
  -5   4  -8    4.43    0.68
   5  -4  -8    4.22    0.75
   6  -4   8   19.57    1.11
  -6  -4  -8   21.60    0.92
  -6   4  -8   20.49    0.91
   6  -4  -8   20.62    1.32
   6  -4  -8   20.42    1.16
  -6   4  -8   19.65    1.18
  -7  -4  -8   16.92    0.79
  -7   4   8   18.12    1.31
  -7   4   8   17.40    0.81
  -7  -4   8   15.63    1.09
  -7   4  -8   15.31    0.75
  -7   4  -8   15.28    1.06
   7  -4  -8   16.03    1.14
  -8   4   8    8.96    1.06
  -8  -4  -8   10.88    0.63
  -8   4  -8   11.19    0.56
  -8   4  -8   11.03    0.90
  -8  -4   8   11.65    0.93
   8  -4  -8   12.16    0.91
  -9   4   8    0.72    0.52
  -9  -4  -8    1.26    0.25
  -9  -4   8    1.55    0.43
  -9   4  -8    1.32    0.44
   9  -4  -8    1.47    0.35
 -10  -4  -8    0.45    0.22
  10  -4  -8    0.36    0.24
 -10  -4   8    0.22    0.26
   0  -5   8    0.63    0.21
   0  -5  -8    0.52    0.16
  -1  -5  -8   68.67    2.66
   1  -5   8   71.05    2.81
   1  -5  -8   74.34    2.77
  -1  -5   8   73.37    2.79
   2  -5   8   19.14    1.01
  -2  -5  -8   19.35    0.83
  -2  -5   8   21.88    0.97
   2  -5  -8   21.91    1.02
  -2   5  -8   20.02    1.05
   3  -5   8   18.70    1.03
   3  -5   8   18.64    0.96
   3  -5  -8   17.15    0.97
  -3  -5   8   16.42    0.85
   3  -5  -8   16.20    1.12
  -3   5  -8   17.55    0.97
  -4  -5  -8    5.94    0.40
   4  -5   8    5.95    0.65
   4  -5   8    5.93    0.63
  -4   5  -8    7.03    0.68
  -4  -5   8    7.06    0.55
   4  -5  -8    7.67    0.78
   4  -5  -8    6.56    0.69
  -5  -5  -8    7.77    0.47
   5  -5   8    8.45    0.86
   5  -5  -8    7.78    1.20
   5  -5  -8    7.50    1.02
  -5  -5   8    8.47    0.67
   5  -5  -8    7.79    0.90
   6  -5   8   25.23    1.21
  -6  -5  -8   25.41    1.09
  -6   5   8   27.48    1.49
   6  -5  -8   25.16    1.55
  -6   5  -8   26.05    1.32
  -6  -5   8   26.09    1.35
   6  -5  -8   26.69    1.34
  -7   5   8   23.38    1.36
  -7  -5  -8   22.61    1.00
  -7   5  -8   22.79    1.20
   7  -5  -8   21.03    1.20
  -7  -5   8   22.49    1.33
   7  -5  -8   24.03    1.34
  -8   5   8    2.18    0.50
  -8  -5  -8    2.27    0.40
  -8   5  -8    1.71    0.38
   8  -5  -8    0.98    0.42
  -9   5   8    5.36    0.68
  -9  -5   8    4.31    0.71
   9  -5  -8    4.08    0.53
  -9   5  -8    4.03    0.57
   0  -6   8   15.67    0.87
   0   6  -8   16.07    0.87
   0  -6  -8   16.54    0.79
   1  -6   8   26.23    1.29
   1  -6   8   25.14    1.56
   1   6  -8   25.16    1.26
  -1  -6  -8   27.60    1.14
   1  -6  -8   29.39    1.25
  -1  -6   8   29.64    1.28
  -1   6  -8   28.96    1.26
  -2  -6  -8   17.33    0.72
   2  -6   8   15.95    1.08
   2  -6   8   18.46    0.95
  -2   6  -8   15.67    0.88
   2  -6  -8   14.92    1.22
   2  -6  -8   14.70    0.90
  -2  -6   8   14.78    0.85
   3  -6   8    9.59    0.79
   3  -6   8    8.55    0.72
  -3  -6  -8    9.28    0.50
  -3  -6   8    9.81    0.66
   3  -6  -8   11.00    0.91
   3  -6  -8   11.12    0.79
  -3   6  -8    9.43    0.72
   4  -6   8   45.03    2.00
   4  -6   8   44.23    2.05
  -4   6  -8   48.09    2.00
   4  -6  -8   46.10    2.09
   4  -6  -8   52.42    2.54
  -4  -6   8   46.71    1.97
  -5   6   8   22.24    1.25
   5  -6   8   22.44    1.12
   5  -6   8   22.91    1.30
   5  -6  -8   21.53    1.22
  -5   6  -8   20.67    1.13
  -5  -6   8   20.20    1.15
   5  -6  -8   21.23    1.34
  -6   6   8    5.90    0.80
   6  -6   8    6.59    0.61
   6  -6  -8    8.44    1.13
   6  -6  -8    7.18    1.23
  -6  -6   8    6.61    0.78
   6  -6  -8    7.51    0.73
  -6   6  -8    7.65    0.69
  -7   6   8    3.25    0.51
  -7   6  -8    3.69    0.56
  -7  -6   8    3.93    0.61
   7  -6  -8    2.81    0.66
   7  -6  -8    5.05    0.88
  -8   6   8    4.53    0.61
  -8   6  -8    4.44    0.51
   8  -6  -8    3.55    0.64
  -8  -6   8    5.05    0.75
  -9   6   8    2.89    0.49
   0  -7  -8    7.46    0.56
   0   7  -8    7.34    0.64
   0  -7   8    6.50    0.62
  -1   7   8   22.82    1.20
   1  -7   8   22.12    1.18
  -1  -7  -8   21.59    1.04
   1  -7   8   22.14    1.34
   1  -7  -8   25.04    1.18
  -1  -7   8   23.19    1.16
  -1   7  -8   23.79    1.07
  -2  -7  -8    8.39    0.55
   2  -7  -8    7.24    0.95
  -2   7  -8    9.24    0.66
  -2  -7   8    8.63    0.67
   3  -7   8   11.52    0.86
   3  -7   8   11.83    0.85
  -3   7   8   13.08    0.86
   3  -7  -8   11.67    0.93
  -3   7  -8   11.45    0.75
  -3  -7   8   11.80    0.79
   3  -7  -8   11.37    0.88
   4  -7   8   12.43    0.82
   4  -7   8   11.68    0.93
  -4   7   8   12.66    0.88
   4  -7  -8   11.71    0.95
   4  -7  -8   12.29    0.92
  -4  -7   8   11.89    0.83
  -4   7  -8   11.94    0.77
   5  -7   8   10.89    0.75
   5  -7   8    9.62    1.02
  -5   7   8   10.20    0.83
   5  -7  -8   11.71    0.84
  -5   7  -8   11.82    0.75
  -5  -7   8   10.06    0.88
   5  -7  -8   10.46    1.05
   6  -7   8    3.82    0.50
  -6   7   8    3.03    0.46
  -6  -7   8    3.63    0.56
  -6   7  -8    2.76    0.49
   6  -7  -8    3.09    0.45
  -7   7   8    4.63    0.55
   7  -7  -8    4.55    0.59
   7  -7  -8    4.43    0.69
  -7   7  -8    4.01    0.49
  -7  -7   8    4.55    0.93
  -8   7   8    4.82    0.49
   8  -7  -8    5.90    0.72
  -8   7  -8    5.60    0.46
   0  -8   8    0.19    0.30
   0  -8   8   -0.16    0.55
   0  -8  -8    0.31    0.29
   0   8  -8    0.26    0.38
  -1  -8  -8    4.81    0.56
   1  -8   8    4.86    0.65
   1  -8   8    4.67    0.61
   1  -8  -8    5.11    0.60
  -1  -8   8    6.51    0.64
  -1   8  -8    5.60    0.52
   1  -8  -8    5.32    0.71
   2  -8   8    0.43    0.39
   2  -8   8    0.44    0.32
  -2  -8  -8    0.38    0.30
  -2   8   8    0.49    0.35
   2  -8  -8    0.63    0.34
  -2   8  -8    0.20    0.24
  -2  -8   8    0.46    0.33
   2  -8  -8   -0.03    0.43
   3  -8   8   27.91    1.43
   3  -8   8   26.48    1.33
  -3   8   8   26.98    1.29
  -3  -8   8   26.90    1.34
   3  -8  -8   27.69    1.41
   3  -8  -8   27.77    1.43
  -3   8  -8   26.11    1.22
   4  -8   8    5.77    0.79
  -4   8   8    4.93    0.61
   4  -8   8    4.06    0.57
   4  -8  -8    5.96    0.80
  -4   8  -8    5.02    0.51
  -4  -8   8    5.42    0.73
   4  -8  -8    5.72    0.67
  -5   8   8   22.73    1.11
   5  -8   8   25.04    1.14
  -5   8  -8   22.38    1.07
   5  -8  -8   22.67    1.40
  -5  -8   8   20.38    1.29
   5  -8  -8   23.33    1.17
  -6   8   8    0.43    0.26
   6  -8   8    0.58    0.26
  -6   8  -8    0.26    0.23
   6  -8  -8    0.65    0.29
  -7   8   8    0.25    0.22
  -7   8  -8    0.46    0.20
   0  -9  -8    4.44    0.63
   0  -9   8    5.38    0.79
   0  -9   8    3.34    0.65
   1  -9   8    3.65    0.65
   1  -9   8    3.94    0.52
  -1  -9  -8    4.60    0.62
   1  -9  -8    4.14    0.63
  -1  -9   8    4.47    0.65
   1  -9  -8    4.20    0.59
   2  -9   8    6.82    0.75
   2  -9   8    6.39    0.67
  -2  -9  -8    5.89    0.76
   2  -9  -8    6.79    0.75
  -2   9  -8    7.93    0.51
  -2  -9   8    7.03    0.76
   2  -9  -8    6.57    0.72
   3  -9   8    5.33    0.59
  -3   9   8    6.50    0.54
   3  -9   8    5.80    0.77
   3  -9  -8    5.96    0.67
   3  -9  -8    6.20    0.75
   4  -9   8    0.94    0.49
   4  -9   8    0.89    0.29
  -4   9   8    1.07    0.27
  -4   9  -8    1.01    0.23
  -4  -9   8    1.02    0.47
   4  -9  -8    1.75    0.47
   4  -9  -8    1.00    0.31
   5  -9   8    2.58    0.98
  -5   9   8    1.36    0.26
   5  -9   8    1.10    0.28
  -5   9  -8    1.61    0.24
   5  -9  -8    1.44    0.31
   5  -9  -8    2.14    0.60
  -6   9   8    0.35    0.20
   6  -9  -8    0.26    0.24
  -6   9  -8   -0.14    0.18
   0 -10  -8    2.14    0.45
   0 -10   8    1.85    0.42
   0 -10   8    2.35    0.45
   1 -10   8   -0.29    0.35
  -1 -10  -8    0.03    0.42
   1 -10   8    0.18    0.33
  -1 -10   8   -0.05    0.45
  -1 -10   8    0.64    0.38
   1 -10  -8   -0.13    0.35
   1 -10  -8    0.53    0.41
   2 -10   8    7.46    0.63
   2 -10   8    8.44    0.81
  -2 -10   8    8.74    0.82
   2 -10  -8    8.86    0.80
   2 -10  -8    8.32    0.69
   3 -10   8    1.68    0.49
   3 -10   8    2.41    0.34
   3 -10  -8    2.14    0.35
   3 -10  -8    2.80    0.49
   4 -10  -8    1.89    0.30
   0 -11   8    3.11    0.57
   0 -11  -8    4.97    0.59
   1 -11   8    2.14    0.32
   1 -11  -8    2.15    0.38
   2 -11   8    1.68    0.27
   2 -11  -8    1.34    0.30
   0   0  -9    0.36    0.32
   0   0   9    0.67    0.39
  -1   0  -9   10.07    1.13
  -1   0   9   10.15    1.14
  -1   0   9   10.25    0.56
   1   0  -9    9.00    0.51
   1   0  -9   11.40    1.13
  -1   0  -9   10.40    0.47
   1   0   9    9.96    1.01
  -2   0   9  109.55    5.14
   2   0  -9  104.45    4.86
   2   0   9  104.16    4.71
  -3   0   9   86.38    4.81
   3   0   9   87.28    4.25
   3   0  -9   87.70    4.45
   4   0  -9  231.50   10.05
  -4   0  -9  231.42    8.32
  -4   0   9  226.24    8.42
  -5   0   9   13.14    0.79
   5   0  -9   13.32    0.97
  -5   0  -9   12.99    0.64
  -6   0  -9   26.72    1.16
  -6   0   9   26.87    1.32
   6   0  -9   27.23    1.39
  -6   0  -9   26.61    1.23
  -7   0  -9   31.41    1.42
  -7   0  -9   33.83    1.43
  -7   0   9   33.92    1.60
   7   0  -9   33.42    1.61
  -8   0  -9    1.72    0.30
  -8   0  -9    2.01    0.30
  -8   0   9    1.72    0.41
   8   0  -9    1.52    0.42
  -9   0   9    1.46    0.33
  -9   0  -9    1.49    0.26
  -9   0  -9    1.62    0.30
  -9   0   9    1.79    0.41
   9   0  -9    1.40    0.35
 -10   0   9   11.32    0.63
  10   0  -9   10.98    0.63
 -10   0  -9   11.52    0.57
 -10   0  -9   10.75    0.68
 -10   0   9   10.85    0.87
   0   1   9  343.65   13.12
   0   1  -9  328.45   13.10
   0  -1   9  340.49   13.10
   0  -1  -9  340.81   13.13
   0  -1   9  343.19   12.23
  -1   1   9   15.82    1.44
   1  -1   9   15.14    0.76
   1   1  -9   15.20    1.33
  -1  -1  -9   16.11    1.36
  -1  -1   9   16.39    1.43
  -1   1  -9   16.30    0.69
   1   1   9   17.52    1.33
   1  -1  -9   15.69    0.72
   1  -1  -9   16.84    1.41
  -2   1   9  167.91    7.69
   2   1  -9  166.50    7.30
  -2  -1  -9  174.17    6.38
   2  -1   9  177.57    7.41
   2  -1   9  171.73    6.45
   2  -1  -9  193.86    7.63
   2   1   9  174.79    7.20
  -2  -1   9  184.92    7.71
   2  -1  -9  176.11    6.45
   3   1  -9  192.92    8.31
   3  -1   9  206.74    8.49
  -3   1   9  201.79    7.29
  -3   1   9  205.78    9.09
  -3  -1  -9  196.91    7.18
  -3   1  -9  193.52    7.19
   3   1   9  195.69    8.13
   3  -1  -9  200.72    8.60
   3  -1  -9  205.00    7.29
  -3  -1   9  179.60    7.24
  -3  -1   9  204.86    8.95
  -4  -1  -9  168.04    6.22
  -4   1   9  168.13    8.73
   4  -1   9  169.85    9.26
  -4   1   9  175.29    6.34
  -4   1  -9  173.70    6.24
   4  -1  -9  168.43    8.03
  -4  -1   9  173.22    6.34
  -5  -1  -9   50.53    1.89
  -5   1   9   48.79    2.02
   5   1  -9   50.09    2.09
  -5   1  -9   44.67    1.92
   5  -1  -9   45.71    2.12
  -5   1  -9   49.52    1.90
  -5  -1   9   49.07    2.02
  -6  -1  -9   79.39    2.94
  -6  -1  -9   78.79    3.00
   6   1  -9   80.38    3.09
  -6   1   9   78.68    3.08
  -6  -1   9   78.00    3.12
  -6   1  -9   74.81    2.94
  -6   1  -9   73.79    2.94
   6  -1  -9   72.63    3.12
  -7  -1  -9    7.18    0.52
   7   1  -9    7.33    0.77
  -7  -1  -9    6.25    0.62
  -7   1   9    7.46    0.73
   7  -1  -9    7.18    0.82
  -7  -1   9    7.16    0.73
  -7   1  -9    7.16    0.55
  -7   1  -9    7.26    0.53
   8   1  -9   14.22    0.94
  -8  -1  -9   14.21    0.82
  -8  -1  -9   16.23    0.82
  -8   1   9   14.88    0.97
  -8   1   9   15.83    0.90
  -8   1  -9   16.06    0.80
  -8  -1   9   16.65    1.02
   8  -1  -9   15.83    1.03
  -8   1  -9   16.54    0.85
  -9   1   9   12.15    0.94
  -9   1   9   12.70    0.75
  -9  -1  -9   12.54    0.77
  -9  -1  -9   12.45    0.73
  -9  -1   9   13.32    0.83
  -9  -1   9   14.45    0.93
  -9   1  -9   13.73    0.78
  -9   1  -9   13.45    0.69
   9  -1  -9   13.49    0.87
 -10  -1  -9    1.30    0.21
 -10  -1  -9    0.96    0.27
 -10   1   9    0.87    0.21
  10  -1  -9    1.04    0.28
 -10   1  -9    1.63    0.38
 -10   1  -9    1.01    0.20
 -10  -1   9    0.75    0.38
 -10  -1   9    1.13    0.26
   0   2   9  384.17   14.63
   0  -2  -9  367.61   14.54
   0  -2  -9  369.71   13.67
   0  -2   9  393.78   14.60
  -1  -2  -9  146.33    5.28
   1  -2   9  151.52    6.28
   1   2  -9  144.19    6.21
  -1   2   9  152.20    6.53
  -1  -2  -9  143.37    6.26
  -1  -2   9  139.25    6.29
   1  -2  -9  144.99    6.32
  -2   2   9  209.38    7.12
   2  -2   9  201.73    8.21
   2   2  -9  183.53    7.88
  -2  -2  -9  188.91    6.93
  -2   2   9  188.86    8.48
   2  -2  -9  189.11    8.18
  -2   2  -9  189.74    6.95
  -2  -2   9  195.85    7.01
  -2  -2   9  194.85    8.29
   2  -2  -9  179.34    7.02
  -3   2   9    7.62    1.92
   3  -2   9    6.18    1.53
  -3  -2  -9    7.06    0.40
  -3  -2   9    9.56    1.78
  -3  -2   9    8.63    0.51
   3  -2  -9    9.26    1.58
  -3   2  -9    8.62    0.45
   3  -2  -9    9.07    0.59
  -4  -2  -9   92.05    3.45
   4  -2   9   85.96    5.65
  -4   2   9   85.85    6.21
  -4   2   9   95.88    3.56
   4  -2  -9   94.70    5.46
   4  -2  -9   96.56    3.63
  -4   2  -9   95.69    3.47
  -4  -2   9   98.02    3.56
  -5  -2  -9    5.47    0.37
   5   2  -9    4.74    0.72
  -5   2   9    5.63    0.56
  -5  -2   9    4.46    0.49
  -5   2  -9    5.47    0.40
  -5   2  -9    4.14    0.48
   5  -2  -9    5.68    0.70
   5  -2  -9    4.87    0.81
  -6  -2  -9    7.07    0.47
  -6   2   9    6.73    0.66
   6   2  -9    8.06    0.75
   6  -2  -9    8.02    0.86
  -6   2  -9    7.80    0.52
  -6   2  -9    7.65    0.54
  -7   2   9   27.62    1.34
  -7  -2  -9   27.58    1.19
  -7  -2  -9   26.95    1.28
   7   2  -9   27.31    1.32
  -7   2   9   27.12    1.34
  -7   2  -9   29.12    1.45
   7  -2  -9   26.63    1.66
  -7  -2   9   26.19    1.41
  -7   2  -9   26.92    1.23
  -8  -2  -9   16.13    0.81
  -8   2   9   16.55    0.85
  -8  -2  -9   14.29    0.84
  -8   2   9   14.81    0.99
   8   2  -9   16.15    0.88
  -8   2  -9   16.26    0.88
  -8  -2   9   15.26    1.04
  -8   2  -9   15.92    0.79
   8  -2  -9   14.94    1.04
  -9   2   9    6.73    0.70
  -9  -2  -9    6.77    0.52
   9   2  -9    7.24    0.54
  -9  -2  -9    6.43    0.50
  -9  -2   9    7.25    0.76
  -9   2  -9    7.63    0.68
 -10  -2  -9    2.62    0.31
 -10   2   9    2.43    0.31
 -10  -2  -9    2.88    0.42
 -10  -2   9    2.09    0.42
 -10  -2   9    2.03    0.33
 -10   2  -9    1.87    0.27
  10  -2  -9    2.23    0.34
   0  -3   9    3.93    0.94
   0  -3  -9    3.45    0.92
   0  -3  -9    3.71    0.26
   1  -3   9    2.50    0.99
  -1   3   9    2.13    0.83
  -1  -3  -9    2.35    0.86
   1  -3   9    2.40    0.33
  -1  -3  -9    2.69    0.21
  -1  -3   9    2.25    0.31
   1   3   9    2.95    0.93
   1  -3  -9    2.62    0.97
   1  -3  -9    2.62    0.27
  -1  -3   9    2.39    0.99
  -2   3   9   27.86    2.69
   2  -3   9   31.15    2.49
   2  -3   9   29.32    1.42
  -2  -3  -9   30.60    1.24
  -2  -3   9   35.32    2.58
   2  -3  -9   35.50    1.38
  -2  -3   9   33.00    1.36
   2  -3  -9   35.54    2.54
   3  -3   9  103.12    6.03
   3  -3   9  110.88    4.04
   3  -3   9  110.01    5.85
   3  -3  -9  102.16    5.61
   3  -3  -9  106.47    4.06
  -3  -3   9  104.68    3.98
  -4  -3  -9   81.86    3.03
   4  -3   9   70.63    6.29
   4  -3   9   85.42    3.20
   4  -3  -9   82.60    3.24
  -4   3  -9   92.42    3.20
   4  -3  -9   80.13    3.23
  -4   3  -9   77.99    3.05
  -4  -3   9   80.41    3.13
  -5  -3  -9    3.46    0.32
   5  -3   9    2.92    0.44
  -5   3   9    3.26    0.61
   5   3  -9    3.01    0.48
  -5   3   9    2.75    0.41
   5  -3  -9    3.84    0.52
  -5  -3   9    3.93    0.46
  -5   3  -9    3.78    0.41
   5  -3  -9    4.88    0.89
  -5   3  -9    3.99    0.40
  -5   3  -9    3.55    0.59
   5  -3  -9    3.38    0.66
  -6  -3  -9    9.15    0.54
   6   3  -9    9.90    0.77
  -6   3   9    9.47    0.67
  -6   3   9    9.43    0.82
  -6  -3   9    9.49    0.74
  -6   3  -9   10.23    0.59
  -6   3  -9   10.00    0.63
   6  -3  -9    9.90    1.02
  -6   3  -9    9.30    0.97
   6  -3  -9    8.70    0.91
  -7   3   9    6.17    0.54
  -7   3   9    5.35    0.85
   7   3  -9    6.33    0.67
  -7  -3  -9    6.11    0.46
  -7   3  -9    7.15    0.90
  -7  -3   9    6.53    0.75
  -7   3  -9    6.62    0.47
   7  -3  -9    6.00    0.84
  -7   3  -9    6.79    0.60
  -8  -3  -9    2.05    0.36
  -8   3   9    1.16    0.68
  -8  -3  -9    1.21    0.34
  -8   3   9    1.40    0.26
  -8   3  -9    0.92    0.23
   8  -3  -9    1.00    0.43
  -8   3  -9    1.81    0.42
  -8  -3   9    1.39    0.44
  -9   3   9    9.44    1.23
  -9   3   9    7.33    0.45
  -9  -3  -9    7.87    0.53
  -9  -3  -9    8.09    0.52
   9  -3  -9    5.83    0.66
  -9   3  -9    6.87    0.43
  -9  -3   9    6.60    0.78
 -10  -3  -9    6.57    0.41
 -10  -3   9    6.86    0.56
  10  -3  -9    7.19    0.54
 -10   3  -9    6.58    0.38
   0  -4  -9   26.49    1.07
   0  -4  -9   26.37    2.03
   0  -4   9   25.43    1.14
  -1  -4  -9    8.54    1.28
   1  -4  -9    7.11    1.40
  -1  -4   9    7.73    0.50
   1  -4  -9    6.86    0.46
  -2  -4  -9   19.20    0.88
   2  -4   9   19.96    0.95
   2  -4   9   22.36    3.64
  -2  -4   9   17.08    0.87
   2  -4  -9   17.25    0.91
  -3  -4  -9    9.66    0.46
   3  -4   9    9.39    0.77
   3  -4   9    9.49    0.65
   3  -4  -9    8.35    0.65
  -3  -4   9    8.45    0.56
   4   4  -9    3.26    0.49
   4  -4   9    1.81    0.36
   4  -4   9    2.66    0.44
  -4  -4  -9    2.14    0.26
   4  -4  -9    2.13    0.46
  -4   4  -9    2.91    0.42
  -4   4  -9    2.32    0.47
   4  -4  -9    3.13    1.47
   4  -4  -9    1.57    0.37
  -4  -4   9    2.15    0.38
  -5  -4  -9   36.51    1.50
   5  -4   9   37.89    1.64
   5   4  -9   35.98    1.65
  -5  -4   9   39.66    1.68
   5  -4  -9   38.77    1.86
   5  -4  -9   39.16    1.76
  -5   4  -9   39.33    1.52
   5  -4  -9   35.81    1.95
  -5   4  -9   40.07    1.74
  -6   4   9    3.47    0.50
   6  -4   9    3.53    0.44
  -6  -4  -9    3.57    0.36
  -6  -4   9    2.68    0.55
  -6   4  -9    2.45    0.36
   6  -4  -9    2.75    0.49
  -6   4  -9    2.24    0.47
   6  -4  -9    2.91    0.60
  -7   4   9    6.52    0.95
  -7   4   9    5.46    0.51
  -7  -4  -9    5.58    0.44
   7  -4  -9    6.28    0.84
  -7   4  -9    4.87    0.41
  -7   4  -9    5.03    0.73
  -7  -4   9    4.68    0.75
  -8  -4  -9   16.07    0.78
  -8   4   9   15.94    1.20
  -8  -4   9   15.71    1.07
  -8   4  -9   15.50    0.71
   8  -4  -9   15.57    1.03
  -9  -4  -9    1.98    0.39
  -9  -4  -9    2.64    0.46
  -9   4   9    1.73    0.54
  -9   4  -9    2.52    0.46
  -9  -4   9    2.48    0.46
   9  -4  -9    1.66    0.37
   0  -5  -9   27.67    1.16
   0  -5   9   27.95    1.25
  -1  -5  -9    3.81    0.30
   1  -5   9    4.00    0.45
  -1   5  -9    6.49    0.93
  -1  -5   9    5.01    0.44
  -2  -5  -9   93.60    3.44
   2  -5   9   91.52    3.66
   2  -5   9   94.99    3.64
  -2   5  -9   92.61    3.58
   2  -5  -9   95.01    3.63
  -2  -5   9   94.79    3.58
   3  -5   9   11.67    0.83
   3   5  -9   11.66    1.08
  -3  -5  -9   11.54    0.54
   3  -5   9   11.05    0.75
  -3   5  -9   10.85    0.76
   3  -5  -9   11.14    0.95
   3  -5  -9   12.17    0.79
  -3  -5   9   10.58    0.66
  -4  -5  -9    5.49    0.39
   4  -5   9    6.32    0.64
   4  -5   9    5.83    0.65
  -4  -5   9    5.88    0.52
  -4   5  -9    7.01    0.67
   4  -5  -9    5.93    0.76
   4  -5  -9    5.79    0.69
   5  -5   9    5.31    0.62
   5  -5   9    4.88    0.84
  -5  -5  -9    5.18    0.40
   5  -5  -9    5.84    0.74
  -5  -5   9    5.69    0.74
   5  -5  -9    6.14    0.88
   5  -5  -9    7.32    1.16
  -5   5  -9    7.08    0.70
   6  -5   9    5.25    0.59
  -6  -5  -9    4.96    0.40
  -6   5   9    4.88    0.67
  -6  -5   9    4.27    0.65
  -6   5  -9    4.53    0.66
   6  -5  -9    4.71    0.71
   6  -5  -9    4.54    0.70
  -7   5   9    3.95    0.62
  -7  -5  -9    3.88    0.41
   7  -5  -9    3.02    0.57
  -7   5  -9    3.47    0.60
  -7  -5   9    3.03    0.54
  -8   5   9    5.27    0.75
  -8  -5  -9    4.83    0.45
  -8  -5   9    4.42    0.76
   8  -5  -9    4.78    0.68
  -8   5  -9    4.76    0.59
  -9   5   9    9.27    0.76
  -9   5  -9    7.83    0.64
   9  -5  -9    8.64    0.62
  -9  -5   9    6.09    0.79
   0  -6  -9   85.71    3.24
   0   6  -9   84.92    3.24
   0  -6   9   84.86    3.33
   1   6  -9   55.62    2.13
   1  -6   9   53.24    2.30
  -1  -6  -9   56.07    2.06
   1  -6   9   54.52    2.21
   1  -6  -9   50.27    2.14
  -1   6  -9   50.24    2.11
  -1  -6   9   49.93    2.16
   2  -6   9   25.87    1.42
  -2  -6  -9   26.93    1.15
   2  -6   9   27.10    1.35
   2  -6  -9   30.30    1.37
  -2  -6   9   29.27    1.31
  -2   6  -9   28.77    1.29
   2  -6  -9   30.78    1.54
  -3  -6  -9   19.75    0.85
   3  -6   9   19.19    1.09
   3  -6   9   19.06    1.09
  -3   6  -9   20.26    1.03
   3  -6  -9   20.00    1.13
  -3  -6   9   20.25    1.01
   3  -6  -9   20.05    1.19
  -4  -6  -9   25.78    1.11
   4  -6   9   28.51    1.33
   4  -6   9   28.32    1.42
   4  -6  -9   27.43    1.42
  -4   6  -9   26.83    1.30
   4  -6  -9   27.06    1.46
  -5   6   9   14.65    1.03
  -5  -6  -9   14.82    0.72
   5  -6   9   15.26    0.91
   5  -6   9   14.70    1.12
  -5   6  -9   16.13    0.93
  -5  -6   9   16.09    0.96
   5  -6  -9   15.83    1.01
   5  -6  -9   16.17    1.18
  -6  -6  -9   15.65    0.74
  -6   6   9   15.39    1.02
   6  -6   9   15.70    0.84
   6  -6  -9   14.81    0.94
  -6   6  -9   14.75    0.89
  -6  -6   9   14.24    1.01
   6  -6  -9   12.44    1.30
  -7   6   9    7.29    0.75
  -7  -6  -9    6.89    0.53
  -7   6  -9    6.99    0.68
   7  -6  -9    6.83    0.69
  -7  -6   9    7.14    0.93
   7  -6  -9    7.37    0.89
  -8   6   9    2.00    0.39
   8  -6  -9    3.07    0.45
  -8  -6   9    2.73    0.50
  -8   6  -9    2.36    0.34
   9  -6  -9    0.97    0.29
   0  -7   9   12.87    1.16
   0   7  -9   13.96    0.77
   0  -7   9   12.53    0.83
   0  -7  -9   11.81    0.74
  -1  -7  -9   21.03    1.03
  -1   7   9   21.21    1.18
   1   7  -9   22.49    1.09
   1  -7   9   19.78    1.28
   1  -7  -9   26.37    1.94
  -1  -7   9   24.47    1.18
   1  -7  -9   23.12    1.24
   2  -7   9   23.38    1.26
  -2   7   9   23.19    1.21
   2  -7   9   24.48    1.26
  -2  -7  -9   22.00    1.10
   2  -7  -9   23.11    1.33
  -2   7  -9   23.58    1.10
  -2  -7   9   23.07    1.19
   2  -7  -9   22.56    1.22
   3  -7   9   55.23    2.40
  -3   7   9   53.16    2.37
  -3  -7  -9   59.53    2.17
   3  -7   9   55.16    2.33
  -3   7  -9   54.87    2.26
  -3  -7   9   54.54    2.31
   3  -7  -9   56.06    2.43
   3  -7  -9   57.91    2.44
   4  -7   9   11.60    0.94
  -4   7   9   12.09    0.86
   4  -7   9   12.40    0.81
   4  -7  -9   11.68    0.96
  -4  -7   9   11.69    0.83
  -4   7  -9   11.57    0.76
   4  -7  -9   11.00    0.89
   5  -7   9    4.80    0.93
  -5   7   9    4.88    0.65
   5  -7   9    3.77    0.55
  -5   7  -9    3.30    0.52
  -5  -7   9    4.03    0.71
   5  -7  -9    3.45    0.63
   5  -7  -9    3.48    0.61
  -6   7   9    0.93    0.34
   6  -7  -9    1.53    0.37
  -6   7  -9    1.41    0.31
  -7   7   9    1.15    0.32
  -7   7  -9    1.96    0.30
   7  -7  -9    1.93    0.38
  -7  -7   9    2.43    0.54
  -8   7   9    5.77    0.49
  -8   7  -9    5.79    0.46
   8  -7  -9    5.52    0.72
   0  -8   9    6.48    0.91
   0  -8  -9    6.14    0.61
   0   8  -9    5.02    0.56
   0  -8   9    5.68    0.66
   1  -8   9    3.15    0.54
   1  -8   9    3.11    0.59
  -1  -8  -9    3.64    0.53
   1  -8  -9    4.32    0.59
  -1   8  -9    3.48    0.49
  -1  -8   9    3.82    0.61
   1  -8  -9    5.16    0.91
  -2   8   9   62.67    2.44
   2  -8   9   63.01    2.54
  -2  -8  -9   62.53    2.43
   2  -8   9   64.57    2.62
  -2  -8   9   59.81    2.54
   2  -8  -9   58.82    2.57
  -2   8  -9   59.84    2.39
   2  -8  -9   57.08    2.55
   3  -8   9    8.98    0.74
  -3  -8  -9    9.54    0.69
  -3   8   9    9.76    0.72
   3  -8   9    9.28    0.85
  -3   8  -9    9.50    0.62
   3  -8  -9    8.73    0.80
  -3  -8   9    8.59    0.76
   3  -8  -9    8.87    0.82
   4  -8   9   18.17    1.16
   4  -8   9   16.76    0.98
  -4   8   9   16.66    0.96
   4  -8  -9   19.32    1.19
   4  -8  -9   19.36    1.06
  -4   8  -9   18.61    0.91
  -4  -8   9   17.67    1.07
   5  -8   9    0.53    0.61
  -5  -8   9    0.95    0.47
   5  -8  -9   -0.12    0.50
   6  -8   9    2.97    0.45
  -6   8   9    2.44    0.42
   6  -8  -9    2.86    0.48
  -6   8  -9    3.19    0.39
  -7   8   9    1.19    0.25
  -7   8  -9    1.35    0.23
   0  -9  -9    2.67    0.43
   0  -9   9    2.83    0.48
   0  -9   9    2.93    0.51
   1  -9   9    4.84    0.69
   1  -9   9    5.91    0.70
  -1  -9  -9    6.15    0.66
   1  -9  -9    7.11    0.78
  -1  -9   9    6.78    0.71
   1  -9  -9    6.70    0.70
   2  -9   9    4.13    0.59
  -2  -9  -9    4.25    0.67
   2  -9   9    5.67    0.71
   2  -9  -9    4.89    0.65
  -2  -9   9    4.06    0.68
   2  -9  -9    4.46    0.65
  -3   9   9    4.37    0.49
   3  -9   9    4.27    0.73
   3  -9   9    3.64    0.74
  -3  -9   9    3.45    0.70
   3  -9  -9    4.25    0.61
  -3   9  -9    4.40    0.42
   3  -9  -9    4.13    0.71
   4  -9   9    0.36    0.27
   4  -9   9    0.02    0.45
  -4   9   9    0.13    0.24
   4  -9  -9    0.35    0.30
  -4   9  -9    0.49    0.21
   4  -9  -9    0.06    0.42
  -4  -9   9    0.17    0.46
   5  -9   9    0.60    0.24
  -5   9   9    0.06    0.21
  -5   9  -9    0.22    0.19
   5  -9  -9    0.04    0.25
   5  -9  -9    0.24    0.61
  -6   9   9    2.03    0.33
   6  -9  -9    2.56    0.43
  -6   9  -9    1.89    0.31
   0 -10   9    0.01    0.36
   0 -10  -9    0.48    0.51
   0 -10  -9    0.20    0.36
   0 -10   9   -0.14    0.33
  -1 -10  -9    5.22    0.78
   1 -10   9    5.77    0.59
   1 -10   9    5.66    0.71
  -1 -10   9    4.89    0.78
   1 -10  -9    5.79    0.67
   1 -10  -9    5.99    0.71
  -1 -10   9    4.82    0.71
   2 -10   9    2.25    0.45
   2 -10   9    2.65    0.46
  -2 -10   9    1.34    0.45
   2 -10  -9    1.99    0.39
   2 -10  -9    1.88    0.43
   3 -10   9    4.79    0.80
   3 -10   9    5.10    0.49
   3 -10  -9    4.98    0.75
   3 -10  -9    4.98    0.52
   4 -10   9    0.37    0.22
   4 -10  -9    0.39    0.24
   0 -11  -9   -0.50    0.44
   1 -11   9    3.58    0.47
   1 -11  -9    3.07    0.39
   0   0  10   46.51    2.60
   0   0  10   45.35    1.78
   0   0 -10   43.57    1.71
   0   0 -10   44.11    2.60
   1   0 -10  150.76    5.56
  -1   0 -10  156.57    5.57
  -1   0  10  150.79    6.70
  -1   0  10  158.66    5.60
  -1   0 -10  128.13    6.96
   1   0 -10  154.83    6.60
   1   0  10  165.26    6.55
   2   0 -10  380.00   13.93
   2   0  10  392.33   14.93
  -3   0 -10   10.08    0.50
   3   0  10   11.68    1.98
  -3   0  10    9.36    2.17
   3   0 -10    8.93    2.09
  -4   0 -10   12.92    0.61
   5   0 -10   16.98    1.12
  -5   0  10   17.77    0.97
  -5   0 -10   18.59    0.82
  -5   0 -10   17.27    0.92
  -6   0 -10   96.79    3.67
  -6   0  10   93.89    3.81
   6   0 -10   96.58    3.84
  -6   0 -10  101.33    3.67
  -7   0  10   24.08    1.27
   7   0 -10   23.75    1.31
  -7   0 -10   24.29    1.11
   8   0 -10    8.99    0.83
  -8   0 -10   10.02    0.64
  -8   0 -10    9.32    0.61
  -8   0  10   10.44    0.83
  -9   0  10    3.37    0.49
  -9   0 -10    2.89    0.46
  -9   0  10    3.27    0.50
 -10   0 -10    9.58    0.64
 -10   0  10    9.36    0.55
 -10   0 -10    9.42    0.51
  10   0 -10    9.62    0.58
   0  -1  10    1.83    0.69
   1   1 -10   44.72    2.61
  -1  -1 -10   41.62    2.60
  -1   1  10   43.88    1.77
  -1   1  10   43.77    2.72
   1  -1  10   47.18    1.77
   1  -1  10   46.19    2.58
  -1   1 -10   42.31    1.68
   1   1  10   41.98    2.50
  -1  -1  10   45.35    2.72
   2  -1  10   40.59    2.50
  -2  -1 -10   39.56    1.50
  -2   1  10   40.95    2.87
   2   1 -10   40.33    2.50
   2  -1  10   43.54    1.64
  -2  -1  10   35.71    2.68
   2   1  10   35.16    2.36
  -3   1  10   50.54    2.03
   3  -1  10   48.27    3.18
   3   1 -10   46.20    3.05
  -3   1  10   48.91    3.69
  -3  -1 -10   49.82    1.91
  -3   1 -10   47.19    1.96
  -3  -1  10   53.10    2.01
   3  -1 -10   53.34    2.11
   3  -1 -10   52.24    3.33
  -3  -1  10   53.50    3.73
  -4  -1 -10  167.05    6.20
  -4   1  10  170.55    6.41
  -4   1 -10  169.19    6.22
  -4  -1  10  174.61    6.33
   5   1 -10   47.63    2.13
  -5  -1 -10   50.47    1.95
  -5   1  10   50.13    2.08
  -5   1 -10   51.36    1.97
   5  -1 -10   48.64    2.18
  -5  -1  10   51.04    2.09
   6   1 -10    4.60    0.71
  -6  -1 -10    3.58    0.37
  -6  -1 -10    4.04    0.59
  -6   1  10    3.32    0.55
  -6   1 -10    4.85    0.42
   6  -1 -10    3.74    0.59
  -6   1 -10    5.02    0.47
  -6  -1  10    5.63    0.61
   7   1 -10    2.35    0.55
  -7   1  10    3.34    0.59
  -7  -1 -10    2.69    0.37
  -7  -1 -10    2.69    0.35
  -7   1 -10    2.00    0.41
  -7   1 -10    1.89    0.39
  -7  -1  10    2.65    0.47
   8   1 -10    5.02    0.66
  -8   1  10    5.04    0.68
  -8  -1 -10    5.07    0.48
  -8  -1 -10    4.73    0.48
  -8   1  10    4.46    0.56
   8  -1 -10    5.50    0.74
  -8   1 -10    6.15    0.48
  -8   1 -10    6.37    0.54
  -8  -1  10    6.32    0.72
  -9  -1 -10    5.92    0.52
  -9  -1 -10    5.71    0.46
   9   1 -10    5.98    0.59
  -9   1  10    6.53    0.79
  -9   1 -10    6.45    0.69
  -9  -1  10    7.76    0.74
 -10  -1 -10    2.81    0.31
 -10   1  10    2.94    0.33
 -10  -1 -10    3.52    0.45
 -10  -1  10    3.59    0.41
 -10  -1  10    3.75    0.67
  10  -1 -10    3.92    0.45
 -10   1 -10    4.06    0.31
   0  -2  10  327.66   12.48
   0  -2 -10  312.22   12.43
   0   2  10  297.84   12.42
   0  -2  10  320.80   11.39
  -1   2  10  148.93    6.64
  -1  -2 -10  149.37    5.26
   1   2 -10  150.03    6.40
   1  -2  10  150.04    6.44
  -1  -2 -10  140.35    6.37
   1  -2 -10  139.02    6.37
  -1  -2  10  147.29    6.50
  -1   2 -10  135.15    5.27
  -2   2  10  112.00    5.83
  -2  -2 -10  106.60    4.18
  -2   2  10  108.65    4.29
   2  -2  10  113.44    5.51
   2   2 -10  112.25    5.30
   2  -2 -10  122.76    5.63
  -2  -2  10  124.84    5.83
   2  -2 -10  114.41    4.29
  -2  -2  10  117.67    4.28
   3  -2  10   21.19    2.31
  -3  -2 -10   21.10    0.90
  -3   2  10   20.18    2.78
   3  -2 -10   24.12    2.42
   3  -2 -10   22.22    1.14
  -3   2 -10   22.00    0.98
  -3  -2  10   23.20    1.01
  -4  -2 -10   38.93    1.47
  -4   2  10   38.28    1.60
   4  -2 -10   37.51    3.75
  -4  -2  10   38.46    1.59
  -4   2 -10   38.79    1.50
   4  -2 -10   31.59    1.84
   5   2 -10   24.15    1.31
  -5   2  10   24.91    1.24
  -5  -2 -10   24.62    1.09
   5  -2 -10   27.12    1.45
   5  -2 -10   26.55    1.34
  -5   2 -10   25.29    1.50
  -5   2 -10   26.71    1.14
  -5   2 -10   27.68    1.14
  -5  -2  10   28.08    1.26
  -6   2  10   51.96    2.18
   6   2 -10   53.44    2.20
  -6  -2 -10   52.65    2.05
   6  -2 -10   49.93    2.30
  -6   2 -10   51.29    2.07
  -6   2 -10   53.13    2.06
  -7   2  10   42.67    1.81
  -7   2  10   42.68    1.88
  -7  -2 -10   44.57    1.76
   7   2 -10   44.72    1.87
  -7  -2 -10   43.36    2.12
  -7   2 -10   43.86    1.79
  -7  -2  10   42.10    1.98
   7  -2 -10   39.35    1.98
  -7   2 -10   42.64    1.74
  -8   2  10    8.63    0.85
  -8   2  10    9.26    0.66
  -8  -2 -10   10.55    0.63
  -8  -2 -10    8.79    0.64
   8   2 -10    9.93    0.73
  -8  -2  10   12.02    0.90
  -8   2 -10   11.49    0.60
   8  -2 -10   10.55    0.87
  -8   2 -10   12.00    0.71
  -9   2  10    0.36    0.20
  -9  -2 -10    0.45    0.22
   9   2 -10    0.52    0.28
  -9  -2 -10    0.48    0.26
  -9   2 -10    0.34    0.36
  -9  -2  10    0.00    0.42
  -9   2 -10    0.12    0.18
   9  -2 -10    0.28    0.35
 -10  -2 -10    2.00    0.39
 -10  -2 -10    2.26    0.29
 -10   2  10    2.33    0.31
 -10  -2  10    2.09    0.47
 -10   2 -10    2.45    0.26
  10  -2 -10    2.18    0.33
 -10  -2  10    2.39    0.41
   0  -3  10    8.14    1.36
   0  -3 -10    8.36    1.24
   0  -3 -10    8.07    0.43
  -1  -3 -10   33.97    2.36
  -1  -3 -10   31.87    1.30
   1  -3  10   33.85    1.43
   1  -3  10   34.13    2.52
   1  -3 -10   34.30    2.43
   1  -3 -10   34.01    1.38
  -1  -3  10   33.02    1.40
  -1  -3  10   35.28    2.59
   2  -3  10  154.01    5.59
   2  -3  10  153.53    7.20
  -2  -3 -10  135.59    5.50
  -2  -3  10  154.53    5.56
   2  -3 -10  152.15    5.59
   2  -3 -10  152.96    7.04
   3  -3  10   15.46    2.96
   3  -3  10   16.23    0.92
  -3  -3 -10   16.55    0.76
   3  -3 -10   19.29    2.52
  -3  -3  10   19.84    0.89
  -3   3 -10   20.00    0.84
   4   3 -10   14.57    1.00
   4  -3  10   15.03    0.96
   4  -3  10   15.30    0.91
  -4  -3 -10   15.21    0.70
   4  -3 -10   15.57    1.00
   4  -3 -10   17.64    1.00
  -4   3 -10   15.87    0.76
  -4  -3  10   16.61    0.84
  -4   3 -10   16.44    1.03
   5  -3  10   33.12    1.45
  -5   3  10   33.02    1.44
   5   3 -10   33.03    1.52
  -5  -3 -10   32.67    1.33
  -5   3 -10   32.60    1.38
   5  -3 -10   34.36    1.57
  -5   3 -10   32.42    1.58
  -5  -3  10   32.32    1.49
   5  -3 -10   32.44    2.30
  -5   3 -10   33.91    1.36
   5  -3 -10   33.26    1.72
  -6  -3 -10   14.31    0.78
  -6   3  10   16.24    0.88
   6  -3 -10   14.77    1.16
  -6   3 -10   15.96    0.76
  -6   3 -10   15.88    1.07
   6  -3 -10   14.88    1.06
  -6   3 -10   15.63    0.81
  -7   3  10    0.22    0.67
  -7   3  10   -0.09    0.24
  -7  -3 -10    0.02    0.19
   7   3 -10    0.29    0.34
  -7   3 -10    0.29    0.30
  -7   3 -10    0.07    0.19
  -7  -3  10   -0.44    0.33
  -7   3 -10    0.19    0.46
   7  -3 -10    0.04    0.42
  -8  -3 -10    6.36    0.49
  -8  -3 -10    6.47    0.57
  -8   3  10    5.53    0.48
  -8   3  10    5.43    0.82
  -8   3 -10    7.85    0.45
  -8  -3  10    7.96    0.80
   8  -3 -10    7.96    0.80
  -9  -3 -10    2.24    0.38
  -9   3  10    1.34    0.73
  -9   3  10    2.17    0.34
   9  -3 -10    1.66    0.40
  -9   3 -10    1.57    0.27
  -9  -3  10    1.64    0.43
 -10  -3  10    0.64    0.26
  10  -3 -10    0.80    0.26
   0  -4 -10   39.54    1.56
  -1  -4 -10   53.71    2.22
   1  -4  10   55.40    2.35
   1  -4 -10   63.24    2.33
  -1  -4  10   66.14    2.51
  -2  -4 -10   92.43    3.56
   2  -4  10   95.80    3.72
   2  -4 -10  101.03    3.72
  -2  -4  10   98.63    3.68
   3  -4  10   20.32    1.07
  -3  -4 -10   19.09    0.80
   3  -4  10   20.17    1.01
   3  -4 -10   19.01    1.16
   3  -4 -10   19.28    1.03
  -3   4 -10   18.47    1.04
  -3  -4  10   18.41    0.92
  -4  -4 -10   10.69    0.52
   4  -4  10   10.45    0.78
   4  -4  10   10.41    0.76
   4   4 -10   10.27    0.84
   4  -4 -10   10.12    0.82
  -4   4 -10    9.61    0.60
   4  -4 -10   10.01    0.84
   4  -4 -10    9.12    1.45
  -4  -4  10    9.82    0.64
  -4   4 -10    9.92    0.79
  -5  -4 -10    9.79    0.50
   5  -4  10    9.85    0.69
   5   4 -10    9.75    0.78
  -5   4 -10    8.98    0.78
  -5   4 -10    7.82    0.53
  -5  -4  10    8.37    0.66
   5  -4 -10    9.16    1.12
   5  -4 -10    7.97    0.97
   5  -4 -10    7.94    0.81
  -6  -4 -10    0.52    0.18
  -6  -4  10    0.27    0.29
   6  -4 -10   -0.15    0.49
  -7   4  10   10.13    1.06
  -7  -4 -10   10.25    0.58
  -7  -4  10    8.76    0.89
  -7   4 -10    9.82    0.83
  -7   4 -10    9.65    0.54
   7  -4 -10   10.16    0.91
  -8   4  10    6.71    1.05
  -8  -4 -10    8.45    0.54
  -8   4 -10    9.65    0.77
  -8  -4  10    9.21    0.87
   8  -4 -10    8.59    0.80
  -8   4 -10    8.72    0.47
  -9  -4 -10    7.20    0.49
  -9  -4 -10    7.45    0.53
  -9   4  10    8.41    0.88
   9  -4 -10    7.63    0.63
  -9  -4  10    6.18    0.79
  -9   4 -10    6.60    0.76
   0  -5  10    2.12    0.38
   0   5 -10    1.69    0.33
   0  -5 -10    1.41    0.27
   1   5 -10   13.98    0.82
   1  -5  10   14.73    0.79
  -1  -5 -10   13.56    0.63
   1  -5  10   15.62    1.54
  -1   5 -10   13.29    0.78
   1  -5 -10   11.15    0.69
  -1  -5  10   12.60    0.74
   2  -5  10    0.54    0.24
  -2  -5 -10    0.79    0.16
   2  -5  10    0.40    0.41
   2   5 -10    0.81    0.40
  -2  -5  10    1.00    0.25
  -2   5 -10    1.24    0.33
   2  -5 -10    0.94    0.25
   2  -5 -10    0.67    0.45
   3  -5  10   64.62    2.59
   3  -5  10   63.56    2.55
  -3  -5 -10   63.85    2.36
   3   5 -10   63.15    2.51
   3  -5 -10   62.01    2.60
  -3  -5  10   59.00    2.49
   3  -5 -10   64.56    2.62
  -3   5 -10   61.69    2.51
   4  -5  10    1.04    0.36
   4  -5  10    0.99    0.36
  -4  -5  10    0.51    0.24
  -4   5 -10    0.76    0.35
   4  -5 -10    0.48    0.36
   4  -5 -10    0.79    0.40
   5  -5  10   19.82    1.05
  -5  -5 -10   18.45    0.90
   5  -5 -10   20.78    1.19
  -5  -5  10   21.67    1.12
  -5   5 -10   21.94    1.12
   5  -5 -10   22.18    1.40
   5  -5 -10   21.51    1.52
  -6   5  10    6.68    0.89
  -6  -5 -10    7.32    0.50
   6  -5  10    7.81    0.64
   6  -5 -10    8.87    0.79
  -6  -5  10    8.59    0.78
   6  -5 -10    9.20    1.06
  -6   5 -10    8.26    0.73
  -7   5  10    1.47    0.46
  -7  -5 -10    1.21    0.23
  -7   5 -10    1.30    0.35
   7  -5 -10    1.45    0.49
  -7  -5  10    1.21    0.47
  -8   5  10    2.11    0.47
  -8  -5 -10    2.26    0.37
  -8   5 -10    1.71    0.35
  -8  -5  10    2.04    0.48
   8  -5 -10    1.94    0.42
  -9   5  10    1.24    0.39
   9  -5 -10    0.85    0.30
   0   6 -10  106.64    3.86
   0  -6 -10  100.28    3.85
   0  -6  10   99.16    4.01
   0  -6  10  101.51    3.95
   1   6 -10   23.01    1.11
  -1  -6 -10   20.65    0.98
   1  -6  10   22.45    1.15
   1  -6  10   20.83    1.27
   1  -6 -10   22.57    1.34
   1  -6 -10   21.62    1.09
  -1  -6  10   24.43    1.14
  -1   6 -10   24.18    1.08
   2   6 -10   26.66    1.18
  -2  -6 -10   25.74    1.02
   2  -6  10   23.94    1.25
   2  -6  10   25.02    1.24
  -2  -6  10   21.89    1.15
   2  -6 -10   23.00    1.32
   2  -6 -10   22.29    1.20
  -2   6 -10   22.30    1.13
  -3  -6 -10   31.63    1.35
   3  -6  10   33.84    1.61
  -3  -6  10   34.63    1.52
   3  -6 -10   36.16    1.65
  -4  -6 -10   10.22    0.59
   4  -6  10   10.70    0.88
   4  -6  10   10.60    0.87
   4  -6 -10   13.60    0.96
   4  -6 -10   13.72    1.02
  -4   6 -10   13.14    0.92
  -4  -6  10   12.24    0.78
  -5  -6 -10   10.32    0.56
   5  -6  10   10.78    1.03
  -5   6  10    9.93    0.86
   5  -6  10    9.86    0.72
  -5  -6  10    9.30    0.78
   5  -6 -10    9.73    0.83
   5  -6 -10    8.98    1.05
  -5   6 -10    9.36    0.73
  -6   6  10   14.18    0.97
   6  -6  10   13.26    0.78
  -6  -6 -10   14.25    0.70
   6  -6 -10   13.47    0.89
  -6   6 -10   13.90    0.84
   6  -6 -10   12.57    1.23
  -6  -6  10   13.37    0.97
  -7   6  10    6.28    0.74
  -7  -6 -10    6.73    0.53
   7  -6 -10    5.92    0.90
  -7  -6  10    6.00    0.88
  -7   6 -10    6.18    0.59
  -8   6  10    3.38    0.54
  -8  -6  10    2.85    0.51
  -8   6 -10    3.15    0.45
   8  -6 -10    4.42    0.64
   0  -7  10    2.03    0.40
   0  -7 -10    1.83    0.36
   0   7 -10    2.04    0.34
   1   7 -10    9.27    0.97
   1  -7  10    9.85    0.79
   1  -7  10   10.31    0.89
  -1  -7 -10    9.09    0.72
   1  -7 -10   11.78    0.80
   1  -7 -10   11.68    1.33
  -1   7 -10   11.79    0.69
  -1  -7  10   12.58    0.82
   2  -7  10   17.32    1.03
  -2  -7 -10   18.02    0.85
   2  -7  10   16.57    1.04
  -2   7  10   18.07    1.01
   2  -7 -10   16.13    0.99
  -2  -7  10   15.69    0.96
  -2   7 -10   15.70    0.98
   2  -7 -10   16.72    1.10
  -3   7  10   17.96    1.02
   3  -7  10   16.34    0.98
   3  -7  10   17.41    1.05
  -3  -7 -10   16.67    0.80
  -3   7 -10   15.27    0.87
   3  -7 -10   16.11    1.04
  -3  -7  10   14.94    0.94
   3  -7 -10   15.96    1.04
   4  -7  10   17.46    1.00
  -4  -7 -10   17.89    0.87
  -4   7  10   16.55    1.04
   4  -7  10   16.86    1.13
   4  -7 -10   19.92    1.20
  -4  -7  10   18.89    1.05
  -4   7 -10   19.98    0.98
   4  -7 -10   20.45    1.10
   5  -7  10    5.52    0.97
  -5   7  10    4.22    0.62
   5  -7  10    4.72    0.53
  -5  -7  10    3.05    0.49
   5  -7 -10    3.37    0.63
   5  -7 -10    3.08    0.47
  -5   7 -10    3.46    0.50
   6  -7  10    1.83    0.31
  -6   7  10    1.81    0.52
   6  -7 -10    1.78    0.42
  -6  -7  10    1.80    0.48
  -7   7  10    3.31    0.48
  -7  -7  10    5.28    0.90
  -7   7 -10    3.83    0.43
  -8   7  10    1.40    0.29
  -8   7 -10    2.24    0.29
   8  -7 -10    1.58    0.45
   0  -8  10   29.02    1.49
   0  -8 -10   28.93    1.38
   0  -8  10   28.42    1.44
   0   8 -10   28.42    1.24
   1  -8  10   15.51    1.02
  -1  -8 -10   15.68    0.89
   1  -8  10   16.64    1.01
  -1   8 -10   15.52    0.81
  -1  -8  10   14.90    1.14
   1  -8 -10   14.46    1.10
   1  -8 -10   15.65    0.96
  -1  -8  10   16.88    1.00
  -2   8  10   15.41    0.92
  -2  -8 -10   14.90    0.89
   2  -8  10   15.97    0.99
   2  -8  10   16.07    1.05
   2  -8 -10   18.12    1.06
  -2  -8  10   17.77    1.02
  -2   8 -10   16.99    0.84
   2  -8 -10   17.94    1.07
   3  -8  10   15.82    1.06
  -3   8  10   15.12    0.90
  -3  -8 -10   15.97    0.90
   3  -8  10   16.22    0.95
  -3   8 -10   15.99    0.83
  -3  -8  10   17.07    1.01
   3  -8 -10   15.86    1.00
   3  -8 -10   17.17    1.07
  -4   8  10    2.14    0.37
   4  -8  10    1.85    0.50
   4  -8  10    1.63    0.36
   4  -8 -10    2.68    0.53
  -4   8 -10    2.54    0.40
   4  -8 -10    2.11    0.42
  -4  -8  10    2.39    0.45
   5  -8  10   11.24    0.68
   5  -8  10   10.18    1.30
  -5   8  10   11.29    0.71
   5  -8 -10   11.63    0.79
   5  -8 -10   12.33    1.12
  -5   8 -10   11.10    0.66
  -5  -8  10   10.76    0.95
  -6   8  10    2.49    0.33
   6  -8 -10    2.16    0.34
  -6   8 -10    2.47    0.35
  -7   8  10    0.44    0.21
  -7   8 -10    0.64    0.21
   0  -9  10    0.87    0.43
   0  -9 -10    0.74    0.35
   0  -9  10    0.06    0.34
   1  -9  10    3.06    0.44
  -1  -9 -10    2.77    0.43
   1  -9  10    3.14    0.63
  -1  -9  10    2.14    0.52
   1  -9 -10    2.64    0.67
   1  -9 -10    2.77    0.46
  -1  -9  10    2.36    0.44
   2  -9  10    1.89    0.43
   2  -9  10    2.31    0.59
  -2  -9 -10    1.92    0.45
   2  -9 -10    2.18    0.43
  -2   9 -10    2.11    0.28
   2  -9 -10    2.10    0.42
  -2  -9  10    2.18    0.42
  -3   9  10    3.46    0.48
   3  -9  10    4.85    0.74
   3  -9  10    3.97    0.55
   3  -9 -10    3.76    0.63
  -3   9 -10    3.74    0.40
  -3  -9  10    3.72    0.68
   3  -9 -10    3.57    0.54
   4  -9  10    8.21    0.99
  -4   9  10    7.69    0.53
   4  -9  10    8.69    0.59
   4  -9 -10    7.68    0.88
  -4   9 -10    7.45    0.49
   4  -9 -10    7.64    0.63
  -5   9  10    0.22    0.21
   5  -9  10    0.57    0.23
   5  -9 -10    0.35    0.25
  -5   9 -10    0.33    0.18
   6  -9 -10    1.28    0.27
   0 -10  10    1.66    0.35
   0 -10 -10    1.10    0.49
   0 -10 -10    0.91    0.41
   0 -10  10    0.80    0.39
   1 -10  10    2.25    0.45
  -1 -10 -10    2.93    0.49
   1 -10  10    2.52    0.38
   1 -10 -10    2.57    0.42
   1 -10 -10    2.68    0.46
  -1 -10  10    3.83    0.66
  -1 -10  10    2.76    0.44
   2 -10  10    1.60    0.30
   2 -10  10    2.70    0.48
  -2 -10  10    2.34    0.46
   2 -10 -10    1.89    0.35
   2 -10 -10    2.07    0.44
   3 -10  10    1.42    0.63
   3 -10  10    1.88    0.28
   3 -10 -10    1.27    0.29
   3 -10 -10    1.01    0.44
   4 -10  10    6.30    0.46
   4 -10 -10    5.82    0.48
   0   0 -11    0.14    0.53
   0   0  11    0.08    0.20
  -1   0 -11  230.99    9.15
  -1   0  11  254.24   10.51
   1   0 -11  259.79   10.49
  -1   0 -11  259.90   10.61
   1   0 -11  252.00    9.21
   1   0  11  268.55   10.39
   2   0 -11   31.45    2.38
  -2   0  11   31.58    2.61
  -2   0 -11   31.65    1.24
   2   0 -11   30.39    1.35
   2   0  11   31.85    2.27
  -2   0  11   32.31    1.34
  -3   0 -11   14.21    0.65
  -3   0  11   15.28    2.46
   3   0 -11   14.43    1.93
  -4   0 -11   11.39    0.57
  -5   0 -11    0.72    0.31
   5   0 -11    0.09    0.42
  -5   0  11    0.10    0.24
  -6   0 -11   81.89    3.14
  -6   0  11   81.54    3.31
  -6   0 -11   84.10    3.15
   6   0 -11   82.64    3.34
  -7   0 -11   91.06    3.50
   7   0 -11   91.01    3.68
  -7   0 -11   92.97    3.53
  -7   0  11   94.88    3.70
  -8   0 -11   -0.02    0.20
  -8   0 -11    0.19    0.22
   8   0 -11   -0.20    0.35
  -8   0  11   -0.20    0.33
   9   0 -11    1.69    0.38
  -9   0  11    1.82    0.32
  -9   0 -11    1.73    0.25
  -9   0 -11    1.75    0.30
  -9   0  11    2.01    0.42
 -10   0  11    0.08    0.18
 -10   0 -11    0.23    0.15
  10   0 -11    0.23    0.24
   0   1 -11  101.66    4.92
   0  -1 -11  102.11    3.69
   0  -1 -11   99.90    4.87
   0   1 -11   99.51    3.70
   0   1  11   96.78    4.78
   0  -1  11   99.79    4.77
   1   1 -11   83.09    4.15
   1  -1  11   83.69    3.02
   1  -1  11   84.26    4.08
  -1   1  11   79.49    4.23
  -1  -1 -11   78.30    4.16
  -1   1  11   83.50    3.04
  -1  -1  11   77.21    3.00
  -1  -1  11   75.85    4.15
   1  -1 -11   72.80    4.02
   1  -1 -11   76.39    2.97
   1   1  11   74.61    3.97
   2  -1  11   54.92    2.26
   2   1 -11   52.89    3.30
  -2   1  11   54.37    3.69
   2  -1  11   51.23    3.27
   2  -1 -11   60.11    3.47
  -2  -1  11   58.98    2.27
  -2  -1  11   62.25    3.79
   2   1  11   61.35    3.57
   2  -1 -11   54.51    2.24
  -2   1 -11   59.55    2.16
  -3   1  11  110.60    6.47
  -3  -1 -11  111.11    4.21
   3  -1 -11  118.97    5.95
  -3   1 -11  116.03    4.23
  -3  -1  11  117.22    4.32
  -4  -1 -11   16.38    0.76
  -4  -1  11   16.97    0.90
  -4   1 -11   18.29    0.80
  -5  -1 -11   20.70    0.87
   5   1 -11   19.63    1.16
  -5   1  11   19.49    1.01
  -5  -1 -11   20.18    1.00
  -5   1 -11   18.20    0.87
  -5  -1  11   17.55    1.00
  -5   1 -11   17.44    0.90
   6   1 -11    6.48    0.77
  -6  -1 -11    6.38    0.58
  -6  -1 -11    6.21    0.46
  -6   1  11    6.77    0.65
   6  -1 -11    6.42    0.78
  -6   1 -11    5.63    0.49
  -6   1 -11    5.64    0.46
  -6  -1  11    5.28    0.64
  -7  -1 -11    1.94    0.36
  -7  -1 -11    2.13    0.33
   7   1 -11    1.95    0.43
  -7   1  11    2.15    0.42
  -7   1 -11    1.71    0.28
   7  -1 -11    1.84    0.49
  -7   1 -11    2.32    0.40
  -7  -1  11    1.91    0.41
  -8   1  11   14.31    1.00
  -8  -1 -11   15.52    0.80
  -8  -1 -11   15.75    0.82
   8   1 -11   17.57    0.98
  -8   1  11   15.60    0.89
  -8  -1  11   16.60    1.03
  -8   1 -11   16.81    0.86
   8  -1 -11   15.18    1.03
  -8   1 -11   16.15    0.79
  -9   1  11    7.61    0.54
  -9  -1 -11    7.09    0.54
  -9  -1 -11    6.92    0.47
  -9   1  11    8.63    0.85
   9   1 -11    7.92    0.61
  -9   1 -11    7.61    0.62
  -9   1 -11    7.55    0.48
  -9  -1  11    7.40    0.61
  -9  -1  11    6.50    0.75
   9  -1 -11    7.78    0.70
 -10  -1 -11    2.04    0.27
 -10   1  11    2.94    0.31
 -10   1 -11    2.36    0.27
  10  -1 -11    2.15    0.31
 -10  -1  11    2.77    0.36
   0   2  11   63.51    3.67
   0  -2 -11   66.82    2.52
   0  -2  11   67.57    3.70
   0  -2  11   69.20    2.59
   0  -2 -11   68.56    3.72
  -1   2  11  119.79    6.04
   1  -2  11  128.90    4.67
   1   2 -11  125.79    5.89
  -1  -2 -11  110.91    5.74
  -1  -2 -11  117.25    4.57
   1  -2  11  126.93    5.88
  -1  -2  11  136.91    6.15
  -1  -2  11  122.71    4.73
   1  -2 -11  131.13    4.65
  -1   2 -11  124.60    4.60
   1  -2 -11  135.63    5.96
  -2  -2 -11   76.82    2.79
  -2   2  11   75.58    4.58
   2  -2  11   77.08    4.21
   2  -2  11   77.51    2.90
   2   2 -11   77.63    4.14
   2  -2 -11   74.86    4.21
  -2  -2  11   76.14    4.52
  -2  -2  11   71.45    2.87
   2  -2 -11   71.98    2.90
  -2   2 -11   71.93    2.80
  -3   2  11   18.81    0.94
   3  -2  11   19.05    0.98
   3  -2 -11   16.28    2.44
   3  -2 -11   16.51    0.93
  -3  -2  11   16.60    0.85
  -3   2 -11   16.86    0.77
  -4   2  11   20.81    1.12
  -4  -2 -11   19.76    0.88
   4   2 -11   19.11    1.14
   4  -2 -11   21.49    1.15
   4  -2 -11   20.92    1.20
  -4   2 -11   21.03    0.95
  -4  -2  11   20.87    1.01
  -4   2 -11   20.96    0.91
  -5  -2 -11   15.54    0.75
  -5   2  11   15.04    0.93
   5   2 -11   14.93    1.02
  -5  -2  11   17.19    0.93
   5  -2 -11   17.00    1.08
  -5   2 -11   15.81    1.23
  -5   2 -11   16.58    0.79
  -5   2 -11   17.12    0.79
   5  -2 -11   17.08    1.14
  -6  -2 -11   38.46    1.55
  -6  -2 -11   36.46    1.59
  -6   2  11   38.93    1.70
  -6   2 -11   35.61    1.57
  -6   2 -11   38.11    1.57
  -7  -2 -11   12.22    0.64
  -7   2  11   11.31    0.72
  -7  -2 -11   11.25    0.71
  -7   2  11   11.55    0.88
   7   2 -11   11.07    0.81
  -7   2 -11    9.20    0.60
  -7  -2  11    9.80    0.85
   7  -2 -11    9.33    0.93
  -7   2 -11    9.27    0.64
  -8   2  11    3.74    0.46
  -8  -2 -11    3.71    0.45
  -8  -2 -11    3.58    0.43
   8   2 -11    3.48    0.58
  -8   2  11    5.43    1.06
  -8   2 -11    4.87    0.56
   8  -2 -11    4.66    0.70
  -8   2 -11    4.43    0.41
  -8  -2  11    4.77    0.69
  -9  -2 -11    4.58    0.43
  -9   2  11    3.98    0.38
   9   2 -11    3.60    0.46
  -9  -2 -11    4.05    0.37
   9  -2 -11    3.49    0.47
  -9  -2  11    3.16    0.50
  -9   2 -11    3.95    0.34
  -9   2 -11    3.80    0.70
 -10  -2 -11    2.06    0.27
 -10   2 -11    2.09    0.25
  10  -2 -11    1.85    0.30
 -10  -2  11    1.95    0.29
   0  -3 -11   11.09    0.55
   0  -3  11   11.26    1.83
   0  -3 -11   11.53    1.62
   0  -3  11   11.69    0.64
   1  -3  11   11.89    0.68
  -1  -3 -11   11.00    1.58
  -1  -3 -11   11.15    0.55
   1  -3  11   11.74    1.86
   1  -3 -11   14.32    1.81
   1  -3 -11   14.17    0.65
   2  -3  11    3.04    0.42
  -2  -3 -11    3.65    0.26
   3  -3  11   31.49    1.44
  -3  -3 -11   27.77    1.13
  -3  -3  11   28.32    1.26
  -3   3 -11   26.78    1.19
   3  -3 -11   28.46    1.34
  -4   3  11   60.97    2.29
   4  -3  11   61.11    2.32
   4   3 -11   56.42    2.37
  -4  -3 -11   61.59    2.20
  -4   3 -11   55.95    2.39
  -4   3 -11   54.48    2.20
  -4   3 -11   55.85    2.23
   4  -3 -11   55.33    2.40
   4  -3 -11   56.79    2.44
   4  -3 -11   55.53    2.55
  -4  -3  11   59.24    2.34
  -5  -3 -11   14.20    0.70
   5   3 -11   15.20    0.97
  -5   3  11   13.75    0.84
  -5   3 -11   15.40    0.73
  -5   3 -11   15.14    0.78
  -5   3 -11   16.46    1.02
   5  -3 -11   14.52    0.99
  -5  -3  11   14.64    0.86
   5  -3 -11   15.31    1.18
  -6   3  11    8.75    0.64
  -6  -3 -11    8.55    0.52
   6   3 -11    8.63    0.74
  -6   3 -11    8.69    0.53
  -6   3 -11    8.40    0.90
   6  -3 -11    8.12    0.93
  -6  -3  11    8.51    0.73
   6  -3 -11    6.92    1.04
   7   3 -11    0.16    0.33
  -7   3  11    0.47    0.24
  -7  -3 -11    0.17    0.41
  -7  -3 -11    0.31    0.20
  -7   3 -11    0.18    0.44
  -7  -3  11    0.35    0.37
   7  -3 -11    0.31    0.42
  -7   3 -11    0.40    0.32
  -7   3 -11    0.23    0.18
  -8  -3 -11    3.15    0.40
  -8   3  11    3.17    0.39
  -8  -3  11    3.47    0.69
   8  -3 -11    3.12    0.50
  -8   3 -11    3.29    0.34
  -9  -3 -11    5.20    0.43
  -9   3  11    5.10    0.80
  -9  -3 -11    4.43    0.41
   9  -3 -11    4.84    0.58
  -9   3 -11    4.76    0.34
  -9  -3  11    5.49    0.74
 -10  -3 -11    3.87    0.32
 -10  -3  11    5.05    0.45
   0  -4  11  109.87    4.18
   0  -4 -11  111.03    4.09
  -1  -4 -11    3.81    0.28
   1  -4  11    3.72    0.43
  -1  -4  11    3.88    0.41
   1  -4 -11    3.57    0.37
   2  -4  11   10.13    0.84
   2  -4  11   10.09    0.67
  -2  -4 -11   10.32    0.50
  -2   4 -11    9.51    0.73
   2  -4 -11   10.94    0.67
  -2  -4  11   10.44    0.63
  -3  -4 -11   30.50    1.25
   3  -4  11   32.60    1.46
   3  -4  11   31.47    1.45
   3   4 -11   31.37    1.48
   3  -4 -11   31.98    1.54
  -3   4 -11   31.21    1.44
   3  -4 -11   31.87    1.48
  -3  -4  11   32.07    1.39
   4  -4  11   14.37    0.95
   4  -4  11   14.90    0.87
   4   4 -11   14.24    0.94
  -4  -4 -11   14.33    0.66
   4  -4 -11   15.14    1.45
   4  -4 -11   14.06    0.96
  -4  -4  11   14.11    0.82
   4  -4 -11   14.18    0.98
  -4   4 -11   14.06    0.71
  -4   4 -11   15.31    0.92
   5  -4  11    8.18    0.68
   5   4 -11    9.07    0.77
  -5  -4 -11    8.68    0.52
   5  -4 -11   12.03    1.09
   5  -4 -11   10.54    1.09
   5  -4 -11    9.52    1.02
  -5  -4  11    9.74    0.71
  -5   4 -11   10.45    0.56
   6   4 -11    4.06    0.64
  -6  -4 -11    4.16    0.38
   6  -4 -11    3.49    0.53
  -6   4 -11    4.06    0.38
  -6   4 -11    4.65    0.67
  -6  -4  11    4.18    0.60
   6  -4 -11    4.77    0.84
  -7   4  11   11.04    1.06
  -7  -4 -11   12.92    0.65
   7  -4 -11   12.07    0.96
  -7  -4  11   12.51    0.97
  -7   4 -11   10.78    0.84
  -7   4 -11   11.08    0.59
  -8   4  11    9.72    0.98
  -8   4 -11   10.78    0.79
  -8   4 -11   10.14    0.53
  -8  -4  11   11.45    0.91
   8  -4 -11   11.61    0.86
  -9  -4 -11    0.80    0.23
  -9   4  11    1.45    0.48
  -9  -4 -11    0.52    0.23
   9  -4 -11    0.69    0.31
  -9  -4  11    0.39    0.41
   0  -5  11   23.62    1.43
   0   5 -11   25.69    1.17
   0  -5 -11   25.58    1.10
   0  -5  11   25.47    1.20
   1  -5  11   15.81    1.11
   1  -5  11   16.95    0.94
  -1  -5 -11   16.79    0.79
   1   5 -11   15.61    0.94
  -1  -5  11   20.05    0.96
   1  -5 -11   18.30    1.14
  -1   5 -11   18.97    0.92
   1  -5 -11   19.91    0.91
  -2  -5 -11   19.70    0.80
   2  -5  11   19.47    1.01
   2  -5  11   19.64    1.09
   2   5 -11   18.65    1.03
   2  -5 -11   17.93    0.97
  -2  -5  11   17.79    0.94
  -2   5 -11   17.24    0.95
   2  -5 -11   15.05    1.10
   3  -5  11    1.92    0.37
   3   5 -11    1.55    0.43
  -3  -5 -11    1.73    0.26
   3  -5  11    2.45    0.42
  -3   5 -11    1.07    0.32
   3  -5 -11    1.10    0.35
   3  -5 -11    0.88    0.40
   4   5 -11   17.48    0.99
  -4  -5 -11   16.70    0.78
   4  -5  11   16.95    1.07
   4  -5 -11   19.19    1.14
   4  -5 -11   17.80    1.56
  -4  -5  11   18.97    0.97
  -5  -5 -11    5.89    0.41
   5  -5  11    5.59    0.69
  -5   5 -11    6.16    0.67
   5  -5 -11    7.76    1.03
   5  -5 -11    7.05    0.74
   5  -5 -11    7.10    1.00
  -5  -5  11    6.51    0.64
  -6   5  11    6.14    0.86
  -6  -5 -11    6.93    0.46
   6  -5 -11    6.28    1.00
   6  -5 -11    7.48    0.75
  -6   5 -11    7.69    0.68
  -6  -5  11    7.37    0.74
  -7   5  11    0.44    0.40
  -7  -5 -11    0.77    0.22
  -7  -5  11    0.70    0.44
   7  -5 -11    1.71    0.47
  -7   5 -11    0.96    0.32
  -8  -5 -11    0.66    0.23
  -8   5  11    1.08    0.40
  -8  -5  11    1.57    0.44
   8  -5 -11    0.84    0.38
  -8   5 -11    0.76    0.31
  -9   5  11    0.63    0.43
  -9   5 -11    0.07    0.32
   9  -5 -11    0.10    0.27
   0  -6  11    3.84    0.62
   0   6 -11    3.25    0.52
   0  -6 -11    4.49    0.44
   0  -6  11    4.25    0.52
   1   6 -11   54.31    2.08
  -1  -6 -11   52.49    2.02
   1  -6  11   52.24    2.18
   1  -6  11   51.74    2.20
   1  -6 -11   49.97    2.20
  -1  -6  11   51.17    2.14
   1  -6 -11   49.81    2.11
  -1   6 -11   51.33    2.06
  -1  -6  11   43.33    2.67
   2  -6  11   33.58    1.58
   2  -6  11   34.12    1.58
   2   6 -11   33.44    1.48
  -2  -6 -11   31.34    1.36
   2  -6 -11   34.40    1.64
  -2   6 -11   32.66    1.47
  -2  -6  11   34.00    1.53
   2  -6 -11   36.04    1.59
   3  -6  11   14.94    0.90
  -3  -6 -11   14.73    0.67
   3  -6  11   13.23    0.93
  -3   6 -11   13.26    0.81
   3  -6 -11   13.35    0.96
   3  -6 -11   13.18    0.93
  -3  -6  11   10.89    0.90
   4  -6  11   12.58    0.95
  -4  -6 -11   11.95    0.64
   4  -6  11   14.33    0.85
   4  -6 -11   12.56    0.91
   4  -6 -11   12.38    0.98
  -4   6 -11   13.12    0.81
  -4  -6  11   12.06    0.82
  -5   6  11    3.76    0.55
   5  -6  11    3.94    0.54
  -5  -6 -11    4.38    0.39
   5  -6  11    3.31    0.74
   5  -6 -11    4.92    0.98
   5  -6 -11    4.64    0.67
  -5   6 -11    4.36    0.56
  -5  -6  11    4.32    0.61
  -6  -6 -11    0.76    0.24
  -6   6  11    1.12    0.40
  -6   6 -11    0.38    0.28
  -6  -6  11    0.27    0.37
   6  -6 -11    0.66    0.35
   6  -6 -11   -0.17    0.60
  -7   6  11    4.32    0.60
  -7  -6 -11    4.79    0.48
  -7  -6  11    3.89    0.60
  -7   6 -11    4.28    0.51
   7  -6 -11    4.95    0.62
  -8   6  11    6.36    0.60
  -8  -6  11    5.97    0.84
  -8   6 -11    5.53    0.51
   8  -6 -11    5.72    0.66
   0  -7  11    2.50    0.55
   0  -7 -11    3.48    0.47
   0  -7  11    2.83    0.54
   0   7  11    2.98    0.61
   0   7 -11    3.00    0.48
   1  -7  11    8.18    0.83
   1  -7  11    8.58    0.74
  -1  -7 -11    7.98    0.60
   1   7 -11    8.23    0.69
  -1  -7  11   10.19    0.76
   1  -7 -11   10.57    0.94
  -1  -7  11   11.33    1.00
  -1   7 -11    9.88    0.75
   1  -7 -11   10.34    0.74
  -2  -7 -11   25.72    1.11
   2  -7  11   23.31    1.26
   2  -7  11   23.75    1.29
   2  -7 -11   23.75    1.27
  -2  -7  11   24.68    1.25
  -2   7 -11   23.21    1.13
   2  -7 -11   24.87    1.32
   3  -7  11   30.21    1.41
   3  -7  11   29.17    1.49
  -3   7  11   28.44    1.40
  -3  -7 -11   30.95    1.26
   3  -7 -11   29.26    1.45
  -3  -7  11   28.76    1.41
  -3   7 -11   28.11    1.31
   3  -7 -11   29.35    1.50
   4  -7  11    7.39    0.65
   4  -7  11    6.16    0.85
  -4   7  11    6.39    0.69
  -4  -7 -11    7.25    0.54
   4  -7 -11    7.95    0.85
  -4   7 -11    8.22    0.61
  -4  -7  11    7.24    0.70
   4  -7 -11    8.44    0.74
  -5   7  11    1.11    0.36
   5  -7  11    1.24    0.30
  -5  -7 -11    1.15    0.29
  -5   7 -11    1.25    0.30
  -5  -7  11    1.32    0.42
   5  -7 -11    1.23    0.37
   5  -7 -11    1.54    0.58
  -6   7  11    2.26    0.39
   6  -7 -11    3.14    0.51
  -6  -7  11    1.93    0.48
  -6   7 -11    1.92    0.32
  -7   7  11    0.71    0.27
  -7  -7  11    1.70    0.52
  -7   7 -11    0.75    0.23
   0  -8 -11    4.39    0.59
   0   8 -11    4.01    0.52
   0  -8  11    4.64    0.64
   0  -8  11    5.06    0.75
   1  -8  11   12.55    0.90
  -1  -8 -11   11.36    0.79
   1  -8  11   11.41    0.89
   1  -8 -11   12.25    0.99
   1  -8 -11   12.75    0.87
  -1   8 -11   12.57    0.70
  -1  -8  11   13.90    0.90
  -1  -8  11   13.23    0.99
  -2  -8 -11   10.67    0.71
  -2   8  11    9.83    0.74
   2  -8  11   11.32    0.86
   2  -8  11   10.36    0.79
   2  -8 -11   10.63    0.85
  -2   8 -11   10.00    0.65
  -2  -8  11   10.41    0.80
   2  -8 -11   10.22    0.85
  -3   8  11    3.36    0.55
   3  -8  11    4.13    0.72
   3  -8  11    3.81    0.57
  -3  -8 -11    4.50    0.55
   3  -8 -11    3.86    0.67
  -3  -8  11    3.00    0.62
   3  -8 -11    3.83    0.61
  -3   8 -11    2.91    0.43
   4  -8  11   15.56    0.86
  -4   8  11   14.92    0.86
   4  -8  11   15.66    1.12
   4  -8 -11   15.65    1.12
   4  -8 -11   15.34    0.92
  -4  -8  11   14.63    0.99
  -4   8 -11   16.62    0.81
   5  -8  11    3.91    0.47
  -5   8  11    4.38    0.50
  -5  -8  11    3.64    0.56
   5  -8 -11    4.61    0.55
  -5   8 -11    5.05    0.44
   5  -8 -11    4.52    0.72
  -6   8  11    1.01    0.27
   6  -8 -11    1.56    0.30
  -6   8 -11    1.33    0.25
   0  -9  11    5.13    0.67
   0  -9 -11    4.60    0.64
   0  -9 -11    3.65    0.61
   0  -9  11    4.04    0.65
   1  -9  11    0.66    0.35
   1  -9  11    0.97    0.39
  -1  -9 -11    1.35    0.38
  -1  -9  11    1.27    0.42
  -1  -9  11    1.28    0.40
   1  -9 -11    1.03    0.39
   1  -9 -11    0.85    0.35
   2  -9  11    3.34    0.59
   2  -9  11    3.84    0.56
  -2  -9 -11    4.00    0.68
   2  -9 -11    3.33    0.63
  -2   9 -11    3.00    0.39
   2  -9 -11    3.46    0.57
  -2  -9  11    2.72    0.67
  -3   9  11   11.96    0.63
   3  -9  11    9.68    0.68
   3  -9  11   10.95    0.93
  -3   9 -11   11.62    0.59
   3  -9 -11   12.27    0.76
   3  -9 -11   10.03    0.90
  -3  -9  11   10.16    0.83
  -4   9  11    1.08    0.26
   4  -9  11    0.84    0.57
   4  -9  11    0.74    0.26
  -4  -9  11    0.83    0.45
  -4   9 -11    0.70    0.21
   4  -9 -11    0.85    0.30
   4  -9 -11    1.09    0.49
  -5   9  11    2.43    0.36
  -5   9 -11    2.79    0.32
   5  -9 -11    2.47    0.42
   0 -10  11   10.97    0.86
   0 -10  11   12.83    0.77
   0 -10 -11   11.50    0.87
   0 -10 -11   13.10    0.93
   1 -10  11    2.25    0.44
  -1 -10 -11    1.25    0.45
   1 -10  11    1.70    0.32
  -1 -10  11    1.44    0.42
   1 -10 -11    1.09    0.36
   1 -10 -11    1.01    0.39
   2 -10  11    1.04    0.43
   2 -10  11    1.12    0.28
   2 -10 -11    0.75    0.41
   2 -10 -11    1.09    0.31
  -2 -10  11    0.57    0.40
   3 -10  11    3.16    0.39
   3 -10 -11    3.28    0.44
   0   0  12 1000.00   33.12
   0   0 -12  886.99   33.05
   0   0  12  925.99   34.55
   0   0 -12  883.01   34.55
  -1   0  12    7.35    1.47
   1   0  12    7.79    1.32
   1   0 -12    7.89    1.40
  -1   0 -12    7.76    0.42
   2   0 -12   54.16    2.22
   2   0 -12   54.03    3.44
  -2   0  12   54.82    3.78
  -2   0  12   57.68    2.24
  -2   0 -12   59.19    2.13
   3   0 -12    1.56    1.23
  -3   0  12    1.02    0.23
   4   0 -12    1.92    0.51
  -4   0 -12    1.90    0.26
   5   0 -12    0.84    0.43
  -5   0 -12    1.17    0.27
  -5   0  12    1.08    0.30
  -5   0 -12    1.08    0.22
  -6   0 -12   92.38    3.44
   6   0 -12   85.57    4.10
  -6   0 -12   90.14    3.57
  -6   0  12   91.91    3.60
  -7   0  12   20.28    1.16
  -7   0 -12   20.45    0.97
  -7   0 -12   19.21    0.95
   7   0 -12   20.67    1.20
  -8   0 -12   24.58    1.09
  -8   0  12   24.76    1.31
  -8   0 -12   26.08    1.15
   8   0 -12   25.40    1.31
  -9   0  12    2.61    0.47
  -9   0 -12    2.76    0.44
  -9   0 -12    2.34    0.32
   9   0 -12    2.06    0.40
  -9   0  12    2.31    0.33
 -10   0 -12    0.74    0.16
 -10   0  12    0.51    0.18
  10   0 -12    0.56    0.32
   0  -1 -12  161.70    5.83
   0   1  12  154.80    7.17
   0   1 -12  161.47    5.85
   0  -1  12  166.43    5.90
   0  -1 -12  156.17    7.21
   0  -1  12  158.05    7.17
   1  -1  12  130.53    6.03
   1   1 -12  130.22    6.12
  -1   1  12  121.82    6.15
   1   1 -12  123.44    4.72
  -1  -1 -12  110.58    4.65
  -1  -1 -12  121.07    6.11
   1  -1 -12  134.96    6.12
  -1  -1  12  132.68    4.73
  -1  -1  12  129.57    6.19
  -1   1 -12  128.77    4.64
   1  -1 -12  131.63    4.70
   1   1  12  124.83    5.97
  -2   1  12   93.32    3.62
   2   1 -12   89.05    4.94
  -2  -1 -12   92.72    3.51
   2  -1  12   86.27    4.86
   2  -1  12   91.98    3.62
  -2   1  12   89.10    5.35
  -2  -1  12  104.58    3.63
   2  -1 -12   95.65    3.61
   2  -1 -12  100.37    5.10
  -2   1 -12   95.35    3.56
  -2  -1  12  107.59    5.58
  -3   1  12   27.49    3.60
  -3  -1 -12   30.37    1.21
  -3   1  12   30.75    1.36
  -3  -1  12   31.22    1.34
   3  -1 -12   29.68    2.91
   3  -1 -12   30.51    1.40
  -4  -1 -12   33.92    1.25
   4   1 -12   31.89    1.48
  -4   1  12   31.19    1.39
  -4   1 -12   28.50    1.23
   4  -1 -12   27.95    1.53
  -4   1 -12   28.03    1.26
  -4  -1  12   29.10    1.36
  -5  -1 -12   20.20    0.90
  -5  -1 -12   20.24    1.00
  -5   1  12   19.67    1.06
   5   1 -12   19.74    1.18
   5  -1 -12   19.59    1.21
  -5   1 -12   19.92    0.92
  -5   1 -12   19.53    0.90
  -6   1  12   27.51    1.35
  -6  -1 -12   25.70    1.22
   6   1 -12   27.17    1.42
  -6   1 -12   26.59    1.17
  -6  -1  12   26.45    1.59
  -6   1 -12   27.47    1.24
   6  -1 -12   26.79    1.42
  -7  -1 -12    2.16    0.38
   7   1 -12    2.27    0.45
  -7   1  12    2.02    0.44
  -7  -1 -12    2.21    0.33
  -7   1 -12    2.63    0.40
  -7   1 -12    2.50    0.37
   7  -1 -12    2.62    0.51
  -7  -1  12    2.40    0.44
   8   1 -12    7.39    0.70
  -8   1  12    5.98    0.80
  -8  -1 -12    6.47    0.49
  -8  -1 -12    6.46    0.52
  -8   1  12    6.57    0.59
   8  -1 -12    6.98    0.76
  -8   1 -12    6.84    0.48
  -8  -1  12    7.91    0.77
  -8   1 -12    7.50    0.56
  -9  -1 -12    8.03    0.55
  -9  -1 -12    7.90    0.48
  -9   1  12    7.49    0.52
   9   1 -12    8.80    0.61
  -9  -1  12    7.84    0.76
   9  -1 -12    7.79    0.68
  -9   1 -12    7.16    0.61
  -9   1 -12    7.59    0.45
  -9  -1  12    7.60    0.59
 -10   1  12    5.97    0.38
 -10  -1 -12    6.39    0.37
 -10   1 -12    6.24    0.36
 -10  -1  12    5.87    0.43
  10  -1 -12    6.02    0.49
   0  -2 -12   69.55    4.01
   0  -2 -12   69.81    2.64
   0  -2  12   67.36    3.98
   0  -2  12   74.12    2.73
  -1  -2 -12   22.82    2.19
  -1  -2 -12   25.07    0.98
   1   2 -12   23.48    2.33
   1  -2  12   24.39    2.35
   1  -2 -12   23.59    2.25
  -1  -2  12   23.20    1.07
  -1   2 -12   24.76    1.04
  -1  -2  12   23.77    2.48
   1  -2 -12   24.35    1.05
   2  -2  12   52.90    3.73
  -2  -2 -12   54.90    2.00
   2  -2  12   54.20    2.09
   2  -2 -12   48.35    2.07
  -2   2 -12   49.09    1.98
   2  -2 -12   49.47    3.52
   3  -2  12   32.24    1.47
  -3   2  12   32.07    1.45
  -3  -2 -12   30.33    1.27
  -3   2 -12   33.45    1.31
   3  -2 -12   31.55    3.32
   3  -2 -12   32.08    1.47
  -3  -2  12   32.14    1.40
   4   2 -12    4.13    0.70
  -4   2  12    5.53    0.64
  -4  -2 -12    5.54    0.38
   4  -2 -12    6.40    0.90
   4  -2 -12    6.06    0.74
  -4   2 -12    6.01    0.42
   4  -2 -12    6.09    0.90
  -4   2 -12    6.08    0.46
  -4   2 -12    7.65    1.15
  -4  -2  12    6.67    0.53
  -5   2  12   16.89    1.01
   5   2 -12   18.02    1.08
  -5  -2 -12   17.14    1.03
  -5  -2 -12   17.13    0.82
  -5   2 -12   18.40    0.85
   5  -2 -12   17.16    1.18
   5  -2 -12   19.48    1.13
  -5  -2  12   18.28    0.99
  -5   2 -12   16.15    1.19
  -5   2 -12   18.73    0.85
   6   2 -12   30.22    1.47
  -6   2  12   30.57    1.45
  -6  -2 -12   30.93    1.27
  -6  -2 -12   29.53    1.48
  -6   2 -12   26.72    1.34
   6  -2 -12   28.68    1.55
  -6  -2  12   29.03    1.47
  -6   2 -12   29.64    1.25
   7   2 -12   26.05    1.29
  -7   2  12   26.28    1.35
  -7   2  12   26.30    1.20
  -7  -2 -12   26.81    1.15
  -7  -2 -12   25.93    1.17
   7  -2 -12   25.13    1.41
  -7  -2  12   26.15    1.39
  -7   2 -12   25.03    1.12
  -7   2 -12   24.78    1.18
  -8   2  12    5.36    0.49
  -8  -2 -12    5.79    0.48
   8   2 -12    5.35    0.61
  -8  -2 -12    5.61    0.48
  -8   2 -12    5.52    0.61
  -8   2 -12    6.01    0.42
   8  -2 -12    5.38    0.72
  -8  -2  12    5.99    0.74
  -9  -2 -12    0.52    0.20
  -9   2  12    0.77    0.21
  -9  -2 -12    0.70    0.22
   9   2 -12    0.69    0.37
  -9   2 -12    0.64    0.17
   9  -2 -12    0.62    0.33
  -9  -2  12    0.86    0.38
 -10  -2 -12    2.77    0.27
 -10  -2  12    2.16    0.36
  10  -2 -12    2.58    0.40
 -10   2 -12    2.70    0.27
   0  -3 -12    8.28    0.49
  -1  -3 -12   16.56    0.69
   1  -3 -12   14.70    0.75
  -1  -3  12   14.49    0.78
   2  -3  12   61.76    2.49
  -2  -3 -12   61.31    2.35
  -2  -3  12   65.25    2.48
   2  -3 -12   61.69    2.48
   3  -3  12   11.50    0.80
   3   3 -12   11.76    0.87
   3  -3  12   11.76    0.79
  -3  -3 -12   11.89    0.58
  -3   3 -12   13.72    0.83
  -3   3 -12   12.80    0.88
   3  -3 -12   12.59    0.91
   3  -3 -12   12.03    0.81
  -3   3 -12   12.55    0.65
  -3  -3  12   12.83    0.72
   4  -3  12   28.35    1.32
  -4  -3 -12   28.60    1.20
   4   3 -12   28.20    1.43
  -4   3  12   28.80    1.34
   4  -3 -12   31.10    1.64
  -4  -3  12   30.43    1.36
   4  -3 -12   30.05    1.45
   4  -3 -12   29.43    1.49
  -4   3 -12   31.10    1.27
  -4   3 -12   30.12    1.22
  -4   3 -12   28.50    1.43
   5   3 -12   35.39    1.63
  -5   3  12   35.18    1.51
  -5  -3 -12   34.45    1.44
  -5   3 -12   36.26    1.43
  -5   3 -12   35.24    1.48
  -5   3 -12   35.13    1.64
   5  -3 -12   34.86    1.65
  -5  -3  12   36.31    1.61
   5  -3 -12   35.28    1.78
  -6  -3 -12    0.65    0.19
  -6   3 -12    0.56    0.29
  -6   3 -12    0.83    0.64
  -6   3 -12    0.45    0.26
  -6  -3  12    0.52    0.32
  -7   3  12    1.87    0.30
  -7  -3 -12    2.87    0.37
   7   3 -12    2.59    0.40
  -7  -3 -12    2.44    0.36
  -7   3 -12    3.50    0.51
  -7  -3  12    1.96    0.45
   7  -3 -12    2.32    0.50
  -7   3 -12    2.47    0.34
  -8   3  12    2.66    0.40
  -8  -3 -12    2.62    0.32
  -8  -3 -12    2.89    0.36
  -8   3  12    2.89    0.68
  -8   3 -12    3.03    0.40
   8  -3 -12    4.28    0.67
  -8  -3  12    3.04    0.52
  -9  -3 -12    0.46    0.19
  -9   3  12    0.90    0.68
  -9  -3 -12    0.59    0.21
  -9   3 -12    0.26    0.16
  -9  -3  12    0.51    0.39
   9  -3 -12    0.05    0.29
   0   4 -12    4.15    0.54
   0  -4  12    4.79    0.47
   0  -4 -12    4.71    0.36
   1   4 -12   66.74    2.56
   1  -4  12   63.73    2.61
  -1  -4 -12   63.95    2.46
   1  -4  12   67.90    2.61
   1  -4 -12   65.33    2.54
  -1   4 -12   61.72    2.54
  -1  -4  12   65.54    2.58
  -2  -4 -12    2.61    0.26
   2  -4  12    2.52    0.41
   2  -4  12    2.69    0.46
   2   4 -12    2.79    0.44
  -2   4 -12    3.09    0.53
  -2  -4  12    3.13    0.40
   2  -4 -12    4.82    0.71
   2  -4 -12    3.33    0.45
   3  -4  12   13.65    0.87
   3  -4  12   13.97    0.87
   3   4 -12   14.36    0.92
  -3  -4 -12   13.44    0.65
  -3  -4  12   13.95    0.79
   3  -4 -12   14.43    0.89
  -3   4 -12   15.35    0.88
   3  -4 -12   15.54    0.99
  -4  -4 -12    0.66    0.17
   4  -4  12    0.57    0.31
   4   4 -12    0.49    0.39
   4  -4  12    0.67    0.41
   4  -4 -12    1.16    0.40
   4  -4 -12    2.11    0.75
  -4   4 -12    1.70    0.40
  -4   4 -12    1.08    0.26
   4  -4 -12    1.54    0.45
  -4  -4  12    1.14    0.30
  -5  -4 -12    4.39    0.37
   5   4 -12    3.82    0.65
  -5   4 -12    4.85    0.42
   5  -4 -12    5.28    0.73
   5  -4 -12    4.20    0.73
  -5   4 -12    4.83    0.63
   5  -4 -12    4.29    0.69
  -5  -4  12    5.63    0.60
  -6  -4 -12   24.24    1.00
   6   4 -12   24.05    1.13
   6  -4 -12   21.01    1.22
   6  -4 -12   23.04    1.39
  -6  -4  12   23.45    1.26
  -6   4 -12   21.78    0.96
  -6   4 -12   21.45    1.17
  -7   4  12    5.35    0.88
  -7  -4 -12    5.18    0.41
  -7   4 -12    4.25    0.38
  -7  -4  12    4.52    0.76
  -7   4 -12    4.72    0.64
   7  -4 -12    4.30    0.74
  -8   4  12    1.79    0.50
  -8  -4 -12    2.09    0.30
  -8  -4 -12    1.54    0.25
  -8   4 -12    1.47    0.38
   8  -4 -12    1.38    0.38
  -8  -4  12    1.62    0.45
  -9   4  12   10.20    0.89
  -9  -4 -12    8.83    0.70
  -9  -4  12    8.86    0.84
   9  -4 -12    9.19    0.65
   0   5 -12    0.09    0.28
   0  -5  12    0.00    0.24
   0  -5 -12    0.05    0.16
   0  -5  12    0.42    0.42
  -1  -5 -12   86.11    3.23
   1  -5  12   87.10    3.38
   1   5 -12   88.41    3.30
   1  -5  12   86.45    3.38
  -1  -5  12   86.75    3.36
   1  -5 -12   85.86    3.31
   1  -5 -12   81.74    3.35
  -1   5 -12   86.44    3.29
  -1  -5  12   82.83    3.42
   2  -5  12    9.25    0.72
   2   5 -12    9.01    0.76
  -2  -5 -12    9.34    0.51
   2  -5  12    8.15    0.78
   2  -5 -12   11.13    0.87
  -2  -5  12   10.59    0.69
  -2   5 -12   10.24    0.67
  -2  -5  12    9.63    1.36
   2  -5 -12   11.18    0.73
   3  -5  12   65.85    2.65
  -3  -5 -12   62.39    2.49
   3   5 -12   66.38    2.62
   3  -5  12   63.22    2.71
  -3   5 -12   67.34    2.63
   3  -5 -12   68.20    2.73
  -3  -5  12   66.52    2.66
   3  -5 -12   68.14    2.76
   4  -5  12   22.67    1.09
   4  -5  12   21.80    1.23
   4  -5 -12   18.46    1.53
  -4   5 -12   21.43    1.08
   4  -5 -12   22.02    1.20
  -4  -5  12   19.99    1.10
  -5  -5 -12    4.43    0.39
   5  -5  12    4.73    0.56
   5  -5 -12    5.82    0.70
  -5   5 -12    6.46    0.63
   5  -5 -12    6.13    0.82
   5  -5 -12    6.10    1.05
  -5  -5  12    6.39    0.63
  -6  -5 -12    0.17    0.18
   6  -5 -12   -0.01    0.52
  -6   5 -12    0.32    0.32
  -6  -5  12   -0.04    0.32
   6  -5 -12   -0.43    0.35
  -7  -5 -12    1.46    0.24
  -7   5  12    1.87    0.46
  -7  -5  12    0.73    0.45
   7  -5 -12    2.45    0.52
  -8  -5 -12    2.80    0.40
  -8   5  12    1.61    0.40
  -8   5 -12    1.79    0.33
  -8  -5  12    2.32    0.47
   8  -5 -12    1.84    0.41
  -9   5  12    5.64    0.64
  -9   5 -12    6.57    0.61
   0  -6 -12   43.80    1.84
   0  -6  12   45.67    1.95
   0   6 -12   44.47    1.83
   0  -6  12   43.31    1.97
   1  -6  12   56.00    2.40
   1   6 -12   56.70    2.31
   1  -6  12   54.08    2.40
  -1  -6 -12   53.21    2.26
   1  -6 -12   59.26    2.42
   1  -6 -12   59.31    2.37
  -1  -6  12   60.44    2.41
  -1  -6  12   59.71    2.47
  -1   6 -12   60.01    2.31
  -2  -6 -12   23.79    1.02
   2   6 -12   22.19    1.23
   2  -6  12   22.92    1.21
  -2  -6  12   21.45    1.80
  -2   6 -12   21.96    1.09
   2  -6 -12   23.03    1.46
   2  -6 -12   22.87    1.43
   3   6 -12    3.19    0.44
  -3  -6 -12    2.29    0.32
   3  -6  12    2.21    0.43
   3  -6  12    1.93    0.40
  -3  -6  12    2.75    0.49
   3  -6 -12    2.29    0.48
  -3   6 -12    1.78    0.39
   3  -6 -12    1.71    0.38
  -4  -6 -12    9.85    0.53
   4  -6  12    8.92    0.89
   4  -6  12    9.88    0.71
  -4   6 -12    8.94    0.68
  -4  -6  12    9.35    0.72
   4  -6 -12    9.16    0.89
   4  -6 -12    9.46    0.81
   5  -6  12   14.64    0.80
  -5   6  12   13.84    0.96
  -5  -6 -12   13.74    0.69
   5  -6 -12   12.98    1.22
  -5  -6  12   13.10    0.90
  -5   6 -12   13.30    0.82
   5  -6 -12   12.26    0.89
  -6  -6 -12    7.44    0.51
  -6   6  12    6.71    0.73
  -6  -6  12    6.94    0.79
  -6   6 -12    7.61    0.60
   6  -6 -12   10.16    1.12
   6  -6 -12    7.75    0.67
  -7   6  12    4.50    0.61
  -7  -6 -12    4.65    0.50
   7  -6 -12    7.07    0.84
  -7   6 -12    6.07    0.51
  -7  -6  12    5.61    0.86
  -8   6  12    2.79    0.39
  -8   6 -12    3.57    0.44
   8  -6 -12    2.59    0.41
   0  -7 -12    6.75    0.60
   0   7 -12    5.70    0.57
   0  -7  12    6.16    0.68
   0  -7  12    5.66    0.74
  -1  -7 -12   39.90    1.78
   1   7 -12   42.64    1.75
   1  -7  12   44.45    1.95
   1  -7  12   42.11    1.89
  -1   7 -12   43.53    1.78
   1  -7 -12   42.88    1.89
  -1  -7  12   43.67    1.92
  -1  -7  12   44.29    1.96
   1  -7 -12   41.49    1.92
  -2  -7 -12   90.56    3.39
   2  -7  12   92.31    3.58
   2  -7  12   91.77    3.50
  -2   7 -12   86.68    3.40
   2  -7 -12   86.56    3.55
   2  -7 -12   87.84    3.52
  -2  -7  12   86.46    3.53
  -2  -7  12   87.35    3.52
   3  -7  12   15.84    0.94
   3  -7  12   15.70    1.06
  -3   7  12   15.11    0.95
  -3  -7 -12   16.63    0.82
   3  -7 -12   16.71    1.06
  -3   7 -12   16.48    0.87
   3  -7 -12   16.83    1.03
  -3  -7  12   16.67    0.99
   4  -7  12    6.77    0.90
  -4  -7 -12    7.17    0.56
  -4   7  12    5.86    0.69
   4  -7  12    6.89    0.63
   4  -7 -12    9.39    0.74
  -4   7 -12    8.84    0.61
  -4  -7  12    9.27    0.74
   5  -7  12   10.69    0.68
  -5   7  12   10.50    0.77
  -5   7 -12   10.66    0.67
  -5  -7  12   10.90    0.89
   5  -7 -12   11.11    0.78
   5  -7 -12   12.25    1.20
  -6   7  12    1.47    0.33
   6  -7 -12    1.80    0.34
  -6   7 -12    1.56    0.28
  -6  -7  12    1.62    0.47
  -7   7  12    1.49    0.31
  -7   7 -12    2.60    0.39
   0  -8 -12   27.76    1.47
   0  -8 -12   28.45    1.37
   0   8 -12   28.23    1.21
   0  -8  12   27.81    1.38
   0  -8  12   28.05    1.43
  -1  -8 -12    3.63    0.55
   1  -8  12    3.73    0.65
   1  -8  12    3.48    0.46
  -1   8 -12    2.93    0.44
  -1  -8  12    3.40    0.61
   1  -8 -12    2.81    0.49
   1  -8 -12    3.43    0.58
  -1  -8  12    3.01    0.50
  -2  -8 -12    1.89    0.35
   2  -8  12    1.87    0.43
   2  -8  12    1.82    0.38
  -2   8  12    2.13    0.39
  -2   8 -12    1.44    0.28
  -2  -8  12    1.74    0.41
   2  -8 -12    0.83    0.39
   2  -8 -12    1.74    0.41
  -3   8  12    6.70    0.61
   3  -8  12    6.87    0.80
   3  -8  12    6.13    0.59
  -3  -8 -12    6.65    0.62
   3  -8 -12    6.74    0.76
  -3  -8  12    6.83    0.70
   3  -8 -12    5.92    0.66
  -3   8 -12    6.89    0.52
   4  -8  12    0.27    0.29
  -4   8  12   -0.01    0.28
   4  -8  12   -0.32    0.49
  -4  -8 -12    0.21    0.38
  -4   8 -12    0.46    0.32
   4  -8 -12    0.50    0.34
  -4  -8  12    0.62    0.40
  -5   8  12    3.05    0.44
   5  -8 -12    2.62    0.72
  -5   8 -12    2.78    0.39
  -5  -8  12    2.86    0.52
   5  -8 -12    3.59    0.48
  -6   8  12    4.29    0.43
   6  -8 -12    4.04    0.49
  -6   8 -12    4.81    0.40
   0  -9  12    1.57    0.36
   0  -9 -12    1.35    0.48
   0  -9  12    1.53    0.41
  -1  -9 -12    1.41    0.37
   1  -9  12    1.30    0.58
   1  -9  12    0.47    0.29
  -1  -9  12    0.65    0.36
   1  -9 -12    0.94    0.37
   2  -9  12   10.03    0.69
  -2  -9 -12   10.36    0.84
   2  -9  12   10.40    0.87
  -2  -9  12   10.46    0.83
  -2   9 -12   11.45    0.58
   2  -9 -12   10.50    0.76
   2  -9 -12   10.81    0.83
   3  -9  12    4.77    0.49
  -3  -9 -12    4.86    0.83
   3  -9  12    4.95    0.78
  -3   9 -12    5.50    0.41
   3  -9 -12    4.90    0.52
  -3  -9  12    5.36    0.69
   3  -9 -12    4.46    0.75
   4  -9  12   12.39    0.67
  -4   9  12   12.06    0.62
  -4   9 -12   12.33    0.61
  -4  -9  12    9.86    0.94
   4  -9 -12   13.02    0.73
   4  -9 -12   12.01    1.05
  -5   9 -12    0.41    0.18
   5  -9 -12    0.60    0.24
   0 -10 -12    0.23    0.37
   0 -10  12    0.02    0.38
   0 -10 -12    0.46    0.39
   1 -10  12    0.03    0.24
   1 -10  12    0.31    0.41
   1 -10 -12    0.20    0.38
  -1 -10  12    0.10    0.39
   1 -10 -12    0.02    0.30
   2 -10  12    4.93    0.45
   2 -10 -12    3.74    0.68
   2 -10 -12    4.79    0.50
   3 -10 -12    0.99    0.25
   0   0 -13   -0.03    0.71
   0   0  13   -0.17    0.82
   0   0 -13    0.12    0.13
   1   0 -13   49.26    1.94
  -1   0  13   47.98    3.50
   1   0 -13   49.11    3.36
  -1   0  13   51.01    1.98
  -1   0 -13   48.89    1.87
   1   0  13   44.92    3.22
  -2   0  13    8.93    0.59
   2   0 -13    7.45    1.87
  -2   0 -13    8.14    0.44
  -2   0  13    7.05    2.28
  -3   0  13   27.67    1.26
  -3   0 -13   26.72    1.12
  -4   0 -13   -0.08    0.24
   4   0 -13    0.11    0.40
  -4   0 -13   -0.04    0.13
  -5   0 -13   13.54    0.71
  -5   0 -13   12.81    0.67
  -5   0  13   12.95    0.86
   5   0 -13   13.30    0.97
  -6   0  13    3.15    0.62
  -6   0 -13    2.58    0.39
  -6   0 -13    3.23    0.39
   6   0 -13    3.00    0.52
  -7   0 -13   46.70    1.89
  -7   0 -13   47.54    1.91
  -7   0  13   48.39    2.11
   7   0 -13   46.71    2.11
  -8   0 -13    6.51    0.46
  -8   0 -13    6.52    0.52
  -8   0  13    6.09    0.75
   8   0 -13    6.81    0.70
  -9   0  13    6.05    0.49
  -9   0 -13    6.08    0.39
   9   0 -13    5.91    0.59
  -9   0  13    4.56    0.81
  -9   0 -13    5.51    0.51
 -10   0  13    0.26    0.17
 -10   0 -13    0.16    0.14
  10   0 -13   -0.17    0.22
   0  -1  13    4.67    1.52
   0  -1 -13    4.46    0.35
   0  -1  13    5.73    0.48
   0   1 -13    5.55    1.77
   0  -1 -13    3.92    1.51
   1   1 -13   22.65    2.41
  -1  -1 -13   22.64    0.96
   1  -1  13   23.92    2.35
  -1   1  13   20.44    2.42
  -1  -1 -13   22.52    2.49
   1  -1  13   24.36    1.10
   1  -1 -13   23.97    1.04
  -1   1 -13   26.37    1.00
  -1  -1  13   22.89    1.07
  -1  -1  13   22.95    2.57
   1  -1 -13   22.29    2.36
  -2   1  13   38.86    1.67
  -2  -1 -13   38.65    1.52
  -2   1  13   38.24    3.88
   2  -1 -13   38.51    1.64
  -2   1 -13   40.53    1.53
   2  -1 -13   37.91    3.17
   3   1 -13   52.81    2.51
  -3  -1 -13   47.29    1.82
   3  -1 -13   42.80    2.07
  -3   1 -13   47.25    1.83
  -3  -1  13   46.47    1.95
   4   1 -13    5.22    0.74
  -4  -1 -13    4.40    0.33
  -4   1  13    4.32    0.53
  -4  -1 -13    4.34    0.53
  -4  -1  13    3.63    0.46
  -4   1 -13    3.20    0.34
   4  -1 -13    3.30    0.55
  -4   1 -13    2.57    0.41
   4  -1 -13    3.51    0.55
  -5   1  13    3.89    0.59
  -5  -1 -13    4.24    0.38
  -5  -1 -13    4.49    0.49
   5   1 -13    5.33    0.76
   5  -1 -13    5.26    0.79
  -6  -1 -13    9.83    0.65
   6   1 -13   11.80    0.93
  -6   1  13   10.41    0.87
  -6  -1 -13   11.00    0.64
   6  -1 -13   11.64    0.94
  -6   1 -13   11.89    0.67
  -6  -1  13   12.33    0.89
  -6   1 -13   11.47    0.64
   7   1 -13   -0.25    0.36
  -7   1  13    0.00    0.38
  -7  -1 -13    0.28    0.21
  -7  -1 -13    0.03    0.17
  -7   1 -13    0.35    0.23
   7  -1 -13    0.66    0.42
  -7  -1  13    0.25    0.34
  -7   1 -13    0.01    0.19
  -8  -1 -13    2.57    0.37
  -8   1  13    3.38    0.47
  -8   1  13    3.12    0.52
   8   1 -13    3.02    0.45
  -8  -1 -13    3.28    0.40
  -8   1 -13    3.18    0.36
  -8  -1  13    4.18    0.68
   8  -1 -13    3.06    0.50
  -8   1 -13    2.95    0.46
  -9  -1 -13    1.22    0.25
   9   1 -13    1.87    0.32
  -9   1  13    1.31    0.24
  -9  -1 -13    1.33    0.20
  -9  -1  13    1.13    0.27
   9  -1 -13    1.61    0.36
  -9   1 -13    1.66    0.26
  -9  -1  13    1.39    0.41
  -9   1 -13    1.23    0.34
 -10   1  13    1.51    0.21
 -10  -1 -13    1.54    0.24
 -10   1 -13    1.95    0.24
 -10  -1  13    2.24    0.30
   0  -2  13   29.25    1.20
   0  -2  13   22.00    3.73
   0  -2 -13   26.30    2.53
   1  -2  13   53.29    3.82
  -1  -2 -13   56.34    2.05
   1  -2  13   58.01    2.17
   1  -2 -13   46.82    3.52
  -2  -2 -13   23.36    1.02
   2  -2  13   23.04    1.17
  -2  -2  13   24.82    1.15
   2  -2 -13   27.40    3.28
  -2   2 -13   25.87    1.07
   2  -2 -13   26.22    1.17
   3   2 -13    5.41    0.70
  -3  -2 -13    5.76    0.37
  -3   2 -13    6.61    0.43
   3  -2 -13    6.09    0.64
  -3  -2  13    5.95    0.51
   3  -2 -13    5.12    0.74
  -3   2 -13    6.17    0.46
   4   2 -13    4.50    0.57
  -4  -2 -13    4.90    0.36
  -4   2  13    5.51    0.71
  -4  -2 -13    3.74    0.64
  -4   2 -13    5.21    0.41
  -4   2 -13    4.97    0.83
  -4   2 -13    5.22    0.44
   4  -2 -13    4.15    0.72
   4  -2 -13    5.77    0.91
   5   2 -13   11.61    0.93
  -5  -2 -13   11.15    0.62
  -5  -2 -13   11.59    0.76
  -5   2  13   11.81    0.93
   5  -2 -13   12.92    0.98
  -5   2 -13   12.80    0.66
  -5  -2  13   13.06    0.82
  -5   2 -13   12.57    0.67
  -5   2 -13   12.52    1.02
   5  -2 -13   13.39    1.04
  -6  -2 -13   17.26    0.82
  -6  -2 -13   15.87    0.86
  -6   2  13   15.98    1.10
  -6  -2  13   17.00    1.05
  -6   2 -13   16.82    0.85
  -7   2  13    3.19    0.50
  -7  -2 -13    3.23    0.38
   7   2 -13    3.83    0.64
  -7  -2 -13    3.48    0.43
   7  -2 -13    4.08    0.57
  -7   2 -13    3.10    0.49
  -7   2 -13    3.44    0.37
  -7  -2  13    2.79    0.49
  -8  -2 -13   10.12    0.58
  -8   2  13   10.23    0.59
  -8  -2  13    9.94    0.85
  -8   2 -13    8.78    1.08
   8  -2 -13    8.98    0.80
  -8   2 -13    9.54    0.53
  -9   2  13    6.67    0.44
  -9  -2 -13    6.65    0.43
  -9  -2 -13    6.81    0.50
   9  -2 -13    7.72    0.65
  -9  -2  13    7.86    0.77
  -9   2 -13    7.77    0.41
   0  -3  13   34.43    1.50
   0  -3 -13   35.10    1.42
   1  -3  13   15.93    0.84
  -1  -3 -13   16.33    0.71
  -1  -3  13   14.96    0.82
   1  -3 -13   15.28    0.78
   2  -3  13   45.03    1.89
   2  -3  13   47.16    1.91
  -2  -3 -13   45.22    1.76
   2   3 -13   44.22    1.92
   2  -3 -13   46.73    1.90
  -2   3 -13   42.53    1.88
  -2  -3  13   47.10    1.90
   2  -3 -13   45.38    1.93
   3  -3  13   19.40    1.00
   3  -3  13   18.66    1.07
   3   3 -13   16.02    1.06
  -3  -3 -13   18.19    0.84
   3  -3 -13   20.04    1.07
  -3  -3  13   20.82    1.00
   3  -3 -13   21.20    1.12
  -3   3 -13   19.70    0.88
  -3   3 -13   19.18    1.04
   3  -3 -13   20.47    1.48
   4   3 -13   16.41    1.12
   4  -3 -13   21.87    1.36
  -4   3 -13   22.27    1.13
  -4   3 -13   20.74    0.97
   4  -3 -13   20.84    1.15
  -4  -3  13   21.39    1.07
   4  -3 -13   18.97    1.21
  -4   3 -13   21.55    0.91
  -5  -3 -13    2.00    0.38
   5   3 -13    2.25    0.58
  -5   3  13    2.38    0.39
  -5   3 -13    2.59    0.49
  -5   3 -13    1.81    0.51
  -5   3 -13    2.63    0.35
  -6  -3 -13    7.43    0.47
   6   3 -13    6.79    0.72
  -6  -3 -13    7.09    0.63
  -6   3  13    7.70    0.58
  -6   3 -13    6.20    0.64
  -6   3 -13    6.61    0.76
   6  -3 -13    6.52    0.87
  -6   3 -13    6.95    0.47
  -6  -3  13    6.92    0.70
  -7  -3 -13    4.02    0.39
   7   3 -13    3.97    0.60
  -7   3  13    3.79    0.45
  -7  -3 -13    4.09    0.48
  -7   3 -13    3.97    0.37
  -7  -3  13    3.39    0.68
  -7   3 -13    3.71    0.50
   7  -3 -13    4.15    0.73
  -8   3  13    2.29    0.64
  -8  -3 -13    2.89    0.55
  -8  -3 -13    2.18    0.38
  -8   3 -13    3.02    0.29
   8  -3 -13    2.61    0.47
  -8  -3  13    2.46    0.49
  -9  -3 -13    2.66    0.39
  -9  -3 -13    3.15    0.32
  -9   3  13    3.21    0.87
  -9  -3  13    3.17    0.51
  -9   3 -13    3.46    0.31
   9  -3 -13    3.78    0.49
   0  -4  13   31.37    1.42
   0   4 -13   31.36    1.39
   0  -4  13   31.99    1.52
   0  -4 -13   32.38    1.33
   1   4 -13    9.81    0.73
  -1  -4 -13   10.96    0.56
   1  -4  13   11.14    0.73
   1  -4  13   11.61    0.84
  -1   4 -13   12.36    0.71
   1  -4 -13   11.02    0.65
  -1  -4  13    9.97    0.94
  -1  -4  13   10.62    0.69
   1  -4 -13    9.89    0.81
  -2  -4 -13   20.74    0.85
   2   4 -13   20.37    1.05
   2  -4  13   19.94    1.03
   2  -4  13   21.59    1.04
   2  -4 -13   18.95    1.08
  -2  -4  13   17.15    0.96
   2  -4 -13   17.76    0.99
  -2   4 -13   16.56    0.96
   3  -4  13   12.39    0.86
   3  -4  13   12.52    0.81
  -3  -4 -13   13.56    0.63
   3   4 -13   13.52    0.89
   3  -4 -13   13.36    0.93
  -3   4 -13   12.15    0.81
  -3  -4  13   12.37    0.77
   3  -4 -13   12.98    0.86
  -4  -4 -13    3.31    0.32
   4  -4  13    2.97    0.57
   4   4 -13    3.89    0.67
   4  -4  13    4.29    0.55
  -4   4 -13    3.38    0.43
  -4  -4  13    3.22    0.49
   4  -4 -13    3.97    0.71
  -4   4 -13    3.77    0.59
   4  -4 -13    2.83    0.53
   4  -4 -13    3.60    0.76
   5   4 -13   17.35    1.04
  -5  -4 -13   16.01    0.75
  -5  -4  13   16.09    0.96
  -5   4 -13   14.83    0.75
   5  -4 -13   16.94    1.23
  -6  -4 -13   12.42    0.63
   6   4 -13   11.30    0.78
  -6   4 -13   11.98    0.79
   6  -4 -13   10.79    1.05
   6  -4 -13   11.35    0.89
  -6   4 -13   11.22    0.59
  -6  -4  13   11.81    0.88
  -7   4  13    0.36    0.45
  -7  -4 -13    0.11    0.18
  -7  -4  13    0.29    0.38
  -7   4 -13    0.26    0.32
   7  -4 -13    0.02    0.40
  -8   4  13    3.33    0.55
  -8  -4 -13    3.01    0.38
  -8  -4 -13    3.49    0.40
  -8  -4  13    2.53    0.50
  -8   4 -13    3.31    0.45
   8  -4 -13    2.55    0.45
  -9   4  13    0.85    0.44
  -9  -4 -13   -0.04    0.18
   9  -4 -13    0.36    0.27
   0  -5  13    7.22    0.79
   0   5 -13    7.29    0.59
   0  -5  13    6.78    0.61
   0  -5 -13    7.24    0.82
   0  -5 -13    6.73    0.51
   1  -5  13    6.76    0.70
   1   5 -13    6.34    0.62
   1  -5  13    6.02    0.60
  -1  -5 -13    6.15    0.44
  -1   5 -13    6.02    0.55
   1  -5 -13    5.75    0.51
  -1  -5  13    6.85    0.58
  -1  -5  13    6.20    0.87
   2   5 -13   60.03    2.40
  -2  -5 -13   59.69    2.28
   2  -5  13   61.73    2.43
   2  -5  13   59.27    2.47
   2  -5 -13   58.76    2.45
   2  -5 -13   59.32    2.46
  -2   5 -13   55.70    2.36
  -2  -5  13   58.92    2.43
  -3  -5 -13   74.87    2.99
   3   5 -13   83.23    3.12
   3  -5  13   83.29    3.23
   3  -5  13   78.18    3.15
  -3  -5  13   75.58    3.16
  -3   5 -13   85.81    3.39
   3  -5 -13   76.70    3.27
   3  -5 -13   80.38    3.25
   4  -5  13    2.12    0.50
  -4  -5 -13    1.79    0.29
   4   5 -13    2.03    0.41
  -4  -5  13    1.53    0.34
   4  -5 -13    2.15    0.46
  -5  -5 -13    3.00    0.35
   5  -5 -13    3.78    0.72
  -5   5 -13    2.65    0.40
   5  -5 -13    3.20    0.49
   5  -5 -13    2.12    0.70
  -5  -5  13    3.10    0.55
  -6  -5 -13    0.13    0.18
  -6   5 -13    0.46    0.30
  -6  -5  13    0.41    0.35
   6  -5 -13    0.42    0.36
   6  -5 -13    0.64    0.53
  -7  -5 -13    2.25    0.37
  -7   5  13    2.71    0.48
   7  -5 -13    3.40    0.51
  -7   5 -13    1.92    0.33
  -8   5  13    0.03    0.33
  -8  -5 -13    0.82    0.23
  -8   5 -13    0.77    0.31
  -8  -5  13    0.92    0.44
   8  -5 -13    0.78    0.35
   0   6 -13    0.39    0.28
   0  -6  13    0.60    0.48
   0  -6 -13    0.81    0.45
   1  -6  13   41.97    1.85
   1  -6  13   41.26    1.89
  -1  -6 -13   41.00    1.88
   1   6 -13   43.21    1.78
  -1   6 -13   43.98    1.76
   1  -6 -13   38.76    2.03
   1  -6 -13   42.47    1.83
  -1  -6  13   41.45    1.86
   2  -6  13   14.55    0.93
   2   6 -13   16.11    0.89
  -2  -6 -13   15.39    0.77
   2  -6  13   14.72    0.97
  -2  -6  13   14.81    0.91
   2  -6 -13   14.67    0.94
   2  -6 -13   15.17    1.00
  -2   6 -13   15.43    0.84
   3   6 -13    0.63    0.39
   3  -6  13    0.44    0.35
  -3  -6 -13    0.13    0.18
   3  -6  13   -0.17    0.29
   3  -6 -13    0.25    0.33
   3  -6 -13    0.01    0.35
  -3  -6  13    0.51    0.28
  -3   6 -13    0.29    0.27
   4  -6  13    8.37    0.93
  -4  -6 -13    8.14    0.51
   4  -6  13    7.21    0.65
   4  -6 -13    9.09    0.90
  -4   6 -13    8.93    0.63
  -4  -6  13    8.21    0.71
   4  -6 -13    8.69    0.77
  -5  -6 -13    4.90    0.43
   5  -6 -13    5.44    0.82
  -5   6 -13    5.14    0.55
  -5  -6  13    5.56    0.67
   5  -6 -13    5.62    0.65
  -6   6  13    0.62    0.36
  -6  -6 -13    0.82    0.31
   6  -6 -13    1.81    0.62
  -6   6 -13    0.74    0.35
  -6  -6  13    0.74    0.39
   6  -6 -13    0.38    0.35
  -7   6  13    8.12    0.69
  -7  -6 -13    9.32    0.60
   7  -6 -13    9.71    0.90
  -7   6 -13    9.26    0.61
  -7  -6  13    8.40    0.92
  -8   6  13    4.62    0.51
  -8   6 -13    5.47    0.46
   8  -6 -13    4.85    0.62
   0  -7  13    1.40    0.40
   0  -7  13    1.32    0.36
   0  -7 -13    1.57    0.46
   0   7 -13    1.48    0.33
   0  -7 -13    1.13    0.31
   1  -7  13   73.76    2.96
   1  -7  13   76.02    3.06
   1   7 -13   74.88    2.85
  -1  -7 -13   73.17    2.90
   1  -7 -13   73.73    2.99
  -1  -7  13   74.09    3.02
   1  -7 -13   72.53    3.00
  -1  -7  13   73.98    2.99
  -1   7 -13   73.28    2.87
  -2  -7 -13    3.14    0.44
   2  -7  13    3.20    0.56
   2   7 -13    3.16    0.53
   2  -7  13    2.66    0.46
   2  -7 -13    2.08    0.45
   2  -7 -13    1.79    0.40
  -2  -7  13    1.81    0.40
  -2   7 -13    2.35    0.35
   3  -7  13   23.37    1.33
  -3  -7 -13   22.84    1.10
   3  -7  13   22.07    1.18
   3  -7 -13   26.00    1.37
  -3  -7  13   25.87    1.28
  -3   7 -13   24.75    1.15
   3  -7 -13   26.44    1.28
   4  -7  13    5.17    0.91
  -4   7  13    2.78    0.44
   4  -7  13    3.55    0.52
  -4  -7 -13    3.68    0.47
   4  -7 -13    4.25    0.78
  -4   7 -13    4.71    0.50
   4  -7 -13    5.34    0.61
  -4  -7  13    4.41    0.64
  -5  -7 -13    7.95    0.60
  -5   7  13    7.60    0.87
  -5   7 -13    9.37    0.80
   5  -7 -13    6.61    1.19
  -5  -7  13    7.52    0.85
  -6   7  13    5.22    0.53
   6  -7 -13    5.74    0.55
  -6   7 -13    5.38    0.47
  -6  -7  13    4.21    0.79
  -7   7  13    0.51    0.25
  -7   7 -13    1.08    0.24
   0  -8 -13    1.83    0.46
   0  -8  13    1.90    0.41
   0   8 -13    2.02    0.31
   0  -8 -13    1.80    0.38
   0  -8  13    2.09    0.41
   1  -8  13   17.77    0.99
  -1  -8 -13   17.65    0.97
   1  -8  13   18.08    1.10
  -1   8 -13   17.91    0.87
   1  -8 -13   17.82    1.05
   1  -8 -13   17.40    1.04
  -1  -8  13   16.89    1.02
  -1  -8  13   19.03    1.08
  -2  -8 -13    9.89    0.73
  -2   8  13    9.34    0.71
   2  -8  13   10.81    0.74
   2  -8  13   10.95    0.88
   2  -8 -13   10.57    0.84
   2  -8 -13   10.80    0.80
  -2  -8  13   10.44    0.83
  -2   8 -13   10.48    0.63
   3  -8  13    1.09    0.44
   3  -8  13    1.10    0.30
  -3   8 -13    0.69    0.25
   3  -8 -13    0.55    0.39
   3  -8 -13    0.71    0.32
  -3  -8  13    0.68    0.36
   4  -8  13    1.18    0.60
  -4  -8 -13    0.87    0.38
   4  -8  13    1.00    0.27
  -4   8  13    1.18    0.29
  -4  -8  13    0.63    0.37
  -4   8 -13    0.69    0.22
   4  -8 -13    0.75    0.48
   4  -8 -13    0.71    0.30
  -5   8  13    4.55    0.47
  -5  -8  13    5.19    0.79
  -5   8 -13    4.62    0.42
   5  -8 -13    4.69    0.50
  -6   8  13    1.40    0.25
   6  -8 -13    1.61    0.51
  -6   8 -13    1.67    0.24
   0  -9  13    8.28    0.68
   0  -9 -13    9.56    0.76
   0  -9  13    9.21    0.80
   0  -9 -13    9.54    0.80
   1  -9  13    1.53    0.32
  -1  -9 -13    1.27    0.39
   1  -9  13    0.98    0.39
  -1  -9  13    1.52    0.42
   1  -9 -13    1.89    0.40
   1  -9 -13    1.64    0.38
   2  -9  13   10.47    0.67
  -2  -9 -13    9.36    0.82
   2  -9  13   10.53    0.86
  -2  -9  13   10.15    0.81
  -2   9 -13   10.32    0.56
   2  -9 -13   10.33    0.71
   2  -9 -13   10.70    0.82
   3  -9  13    9.17    0.95
  -3  -9 -13    9.03    1.10
   3  -9  13    8.70    0.58
  -3  -9  13    7.74    0.78
   3  -9 -13    8.55    0.61
   3  -9 -13    7.65    0.86
  -3   9 -13    8.38    0.49
   4  -9 -13    1.76    0.30
  -4   9 -13    1.86    0.31
   5  -9 -13    5.08    0.47
  -5   9 -13    5.72    0.41
   0 -10  13    1.12    0.52
  -1 -10 -13    4.63    0.81
   1 -10 -13    4.22    0.52
   2 -10 -13    7.07    0.54
   0   0 -14   51.72    3.93
   0   0 -14   56.65    2.12
   1   0 -14    7.48    2.02
   1   0 -14    7.19    0.55
  -1   0 -14    7.10    0.43
  -1   0  14    7.46    2.32
  -2   0 -14  125.98    4.39
   2   0 -14  107.73    4.82
  -2   0  14  122.34    4.51
  -3   0  14    0.28    0.25
  -3   0 -14    0.33    0.22
  -3   0 -14    0.42    0.15
   3   0 -14    0.01    0.42
  -4   0 -14   10.57    0.62
  -4   0 -14   10.39    0.57
   4   0 -14   10.84    0.88
  -4   0  14   10.67    0.77
  -5   0  14    5.05    0.63
  -5   0 -14    4.56    0.45
   5   0 -14    5.18    0.75
  -5   0 -14    4.59    0.41
   6   0 -14  150.21    6.26
  -6   0 -14  168.38    5.90
  -6   0  14  158.96    6.06
   7   0 -14    3.34    0.54
  -7   0 -14    3.58    0.43
  -7   0 -14    2.88    0.39
  -7   0  14    3.47    0.69
  -8   0  14    7.04    0.82
  -8   0 -14    7.32    0.54
   8   0 -14    7.37    0.71
  -8   0 -14    7.48    0.47
  -9   0  14    5.71    0.46
   9   0 -14    5.72    0.58
  -9   0 -14    6.29    0.39
  -9   0 -14    6.43    0.53
   0  -1  14   45.94    3.66
   0  -1 -14   45.41    3.56
   0   1 -14   45.97    1.83
   0  -1 -14   45.78    1.89
   0   1 -14   46.15    3.82
   0  -1  14   46.30    1.89
  -1  -1 -14    7.71    0.43
   1   1 -14    7.05    2.12
   1  -1  14    8.01    0.64
  -1  -1  14    6.92    0.55
   1  -1 -14    7.68    0.52
   1  -1 -14    6.66    2.02
  -1   1 -14    7.59    0.48
  -2  -1 -14   15.30    0.66
  -2   1 -14   14.07    0.67
  -2  -1  14   13.10    0.77
   2  -1 -14   12.21    2.51
   2  -1 -14   13.82    0.82
  -3   1  14   12.10    0.83
  -3  -1 -14   12.35    0.62
   3   1 -14   12.06    0.90
  -3  -1  14   13.17    0.76
   3  -1 -14   12.90    1.03
  -3   1 -14   13.48    0.68
  -3   1 -14   14.40    0.66
   3  -1 -14   12.08    0.99
   3  -1 -14   12.79    0.95
  -4  -1  14   10.00    0.71
  -4   1 -14   10.93    0.59
  -4   1 -14   10.08    0.56
   4  -1 -14    9.35    0.94
   4  -1 -14    9.23    0.91
  -5  -1 -14   19.75    0.92
   5   1 -14   19.12    1.16
  -5   1  14   18.94    1.12
  -5  -1 -14   18.89    0.95
  -5   1 -14   20.60    0.93
   5  -1 -14   20.32    1.19
  -5   1 -14   21.24    0.94
  -5  -1  14   22.24    1.15
   6   1 -14   69.97    2.93
  -6  -1 -14   71.30    2.74
  -6  -1 -14   70.46    2.75
  -6   1  14   68.67    2.90
  -6   1 -14   74.99    2.76
  -6  -1  14   71.79    2.95
  -6   1 -14   68.91    2.70
   6  -1 -14   70.74    2.96
  -7  -1 -14   21.06    0.94
  -7   1  14   20.00    1.19
  -7  -1 -14   19.48    0.91
   7   1 -14   19.97    1.15
   7  -1 -14   18.35    1.16
  -7  -1  14   19.13    1.15
  -7   1 -14   17.88    0.88
  -7   1 -14   18.69    0.94
  -8  -1 -14    3.82    0.42
  -8   1  14    2.76    0.55
   8   1 -14    4.14    0.66
  -8   1  14    3.24    0.44
  -8  -1 -14    2.69    0.39
  -8  -1  14    3.88    0.69
  -8   1 -14    3.34    0.49
   8  -1 -14    3.72    0.62
  -8   1 -14    3.34    0.34
  -9  -1 -14    0.96    0.18
   9   1 -14    1.06    0.30
  -9   1  14    0.92    0.21
  -9  -1 -14    0.60    0.24
   9  -1 -14    0.94    0.32
  -9  -1  14    1.15    0.45
  -9  -1  14    1.02    0.25
  -9   1 -14    1.23    0.51
  -9   1 -14    0.94    0.17
   0  -2 -14    3.93    0.34
   0  -2  14    3.72    0.44
  -1  -2 -14   21.22    0.90
   1  -2  14   22.65    1.13
  -1  -2  14   19.47    1.00
   1  -2 -14   20.07    0.97
   2  -2  14  109.84    4.05
   2   2 -14  101.95    4.03
  -2  -2 -14  107.25    3.91
   2  -2 -14  100.58    4.01
  -2   2 -14  105.72    3.93
   2  -2 -14  107.02    4.04
  -2  -2  14  108.27    4.05
  -2   2 -14  103.95    3.91
  -3  -2 -14   54.27    2.12
   3   2 -14   54.97    2.25
  -3  -2 -14   55.71    2.07
   3  -2 -14   51.64    2.23
  -3   2 -14   52.62    2.08
   3  -2 -14   52.58    2.26
  -3   2 -14   52.19    2.06
  -3   2 -14   51.58    2.22
  -3  -2  14   54.52    2.21
   4   2 -14   27.29    1.32
  -4  -2 -14   25.97    1.18
  -4  -2 -14   26.55    1.10
  -4   2 -14   25.00    1.12
   4  -2 -14   25.29    1.33
   4  -2 -14   26.50    1.44
  -4   2 -14   25.17    1.10
  -4   2 -14   25.35    1.35
  -4  -2  14   25.40    1.25
   5   2 -14  109.36    4.35
  -5  -2 -14  106.90    4.36
  -5  -2 -14  111.92    4.15
  -5   2 -14  113.39    4.16
  -5   2 -14  112.09    4.28
   5  -2 -14  112.66    4.66
  -5   2 -14  111.79    4.12
   5  -2 -14  109.05    4.27
  -6  -2 -14    4.25    0.40
   6   2 -14    4.35    0.70
  -6   2 -14    5.12    0.43
  -6   2 -14    5.40    0.51
  -6  -2  14    5.52    0.69
   6  -2 -14    5.13    0.81
   7   2 -14    0.32    0.34
  -7  -2 -14   -0.05    0.18
  -7  -2 -14   -0.22    0.21
  -7   2  14    0.31    0.25
   7  -2 -14    0.48    0.40
  -7   2 -14    0.38    0.19
  -7   2 -14    0.11    0.28
  -7  -2  14    0.08    0.34
  -8  -2 -14   11.10    0.62
  -8   2  14   11.55    1.62
  -8  -2 -14   11.22    0.58
  -8   2  14   11.35    0.59
   8   2 -14   12.04    0.72
  -8   2 -14   10.93    0.59
  -8  -2  14   10.62    1.00
  -8   2 -14    9.71    0.78
   8  -2 -14    9.24    1.13
  -9  -2 -14    4.11    0.32
  -9  -2 -14    3.75    0.42
  -9  -2  14    3.06    0.50
   9  -2 -14    3.87    0.51
  -9   2 -14    3.85    0.30
   0   3 -14    3.98    0.52
   0  -3 -14    4.24    0.36
   0  -3  14    4.03    0.47
   1  -3  14    3.53    0.48
   1   3 -14    3.30    0.45
  -1  -3 -14    3.82    0.32
  -1   3 -14    3.58    0.53
  -1  -3  14    3.66    0.45
   1  -3 -14    5.28    0.62
   2  -3  14   30.59    1.43
   2   3 -14   29.87    1.43
  -2  -3 -14   29.91    1.26
   2  -3 -14   33.05    1.42
  -2  -3  14   31.55    1.41
  -2   3 -14   29.92    1.29
   2  -3 -14   32.10    1.45
  -2   3 -14   31.74    1.41
   3  -3  14    8.15    0.81
   3   3 -14    8.43    0.76
   3  -3 -14   12.08    0.83
   4   3 -14   91.06    3.41
  -4  -3 -14   91.51    3.24
  -4   3 -14   85.09    3.34
   4  -3 -14   78.50    3.49
  -4  -3  14   83.93    3.39
   4  -3 -14   85.61    3.40
   4  -3 -14   84.17    3.50
  -4   3 -14   85.89    3.20
  -5  -3 -14   21.33    0.87
  -5  -3 -14   18.38    0.94
   5   3 -14   20.35    1.11
  -5   3  14   19.99    0.95
  -5   3 -14   15.76    1.03
  -5   3 -14   16.90    0.82
  -5  -3  14   17.11    1.04
   5  -3 -14   16.18    1.06
   5  -3 -14   17.54    1.21
  -6   3  14    2.08    0.33
  -6  -3 -14    2.37    0.34
  -6  -3 -14    1.68    0.32
   6   3 -14    1.62    0.41
  -6   3 -14    1.46    0.41
  -6   3 -14    1.35    0.23
   6  -3 -14    1.77    0.51
  -7  -3 -14    2.97    0.42
  -7  -3 -14    3.99    0.40
   7   3 -14    4.45    0.60
  -7   3  14    3.37    0.46
   7  -3 -14    4.37    0.72
  -7  -3  14    3.89    0.66
  -7   3 -14    4.02    0.35
  -7   3 -14    4.07    0.71
  -8  -3 -14    6.18    0.47
  -8   3  14    6.84    1.01
  -8  -3 -14    6.42    0.44
  -8   3 -14    6.25    0.39
  -8  -3  14    6.31    0.78
   8  -3 -14    6.93    0.68
  -9  -3 -14    3.45    0.31
  -9   3  14    4.10    0.70
   9  -3 -14    3.59    0.49
   0  -4 -14    0.98    0.21
   0   4 -14    0.00    0.27
   0  -4 -14    0.51    0.35
   0  -4  14    0.43    0.38
   1  -4  14   29.48    1.36
  -1  -4 -14   27.92    1.32
   1   4 -14   30.33    1.33
  -1  -4 -14   29.66    1.21
   1  -4  14   29.75    1.35
   1  -4 -14   26.05    1.33
   1  -4 -14   27.85    1.28
  -1  -4  14   28.04    1.33
  -1   4 -14   27.60    1.28
   2  -4  14   20.87    1.05
   2  -4  14   20.20    1.07
   2   4 -14   20.73    1.06
  -2  -4 -14   20.20    0.89
  -2  -4  14   19.36    1.02
   2  -4 -14   19.79    1.04
   2  -4 -14   18.83    1.08
  -2   4 -14   18.68    0.99
   3  -4  14   18.06    0.99
   3  -4  14   17.87    1.09
  -3  -4 -14   17.63    0.83
   3   4 -14   18.44    1.04
   3  -4 -14   19.40    1.09
  -3  -4  14   19.07    1.01
   3  -4 -14   19.92    1.10
  -3   4 -14   18.95    0.99
   4   4 -14   17.15    1.04
  -4  -4 -14   17.43    0.84
   4  -4 -14   16.58    1.16
  -4  -4  14   18.14    1.01
   4  -4 -14   19.08    1.08
  -4   4 -14   18.44    0.98
   5   4 -14   34.49    1.55
  -5  -4 -14   34.37    1.41
   5  -4 -14   34.41    1.78
   5  -4 -14   34.09    1.61
  -5  -4  14   33.81    1.61
  -5   4 -14   35.27    1.38
  -5   4 -14   35.15    1.55
  -6  -4 -14    4.49    0.39
   6   4 -14    3.63    0.58
   6  -4 -14    4.09    0.64
  -6   4 -14    3.50    0.38
   6  -4 -14    3.80    0.52
  -6   4 -14    4.71    0.59
  -6  -4  14    4.47    0.64
  -7  -4 -14    9.12    0.59
  -7  -4 -14    9.21    0.53
  -7   4 -14    7.82    0.71
  -7  -4  14    8.42    0.86
   7  -4 -14    9.18    1.14
  -8  -4 -14    0.54    0.21
  -8   4  14    0.08    0.42
  -8  -4 -14    0.08    0.20
  -8   4 -14    0.11    0.35
  -8  -4  14    0.44    0.41
   8  -4 -14    0.51    0.33
  -9   4  14    0.88    0.43
  -9  -4 -14    0.64    0.18
   9  -4 -14    0.45    0.26
   0  -5 -14    0.68    0.38
   0  -5  14    0.17    0.26
   0  -5 -14    0.16    0.20
   0  -5  14    0.21    0.39
   0   5 -14   -0.19    0.25
   1  -5  14  134.84    5.15
  -1  -5 -14  132.90    5.32
   1  -5  14  133.64    5.10
   1   5 -14  140.29    5.07
  -1  -5 -14  135.94    5.02
   1  -5 -14  133.27    5.09
   1  -5 -14  131.87    5.07
  -1  -5  14  132.10    5.13
  -1   5 -14  137.35    5.05
  -2  -5 -14   25.05    1.10
   2  -5  14   25.60    1.30
   2   5 -14   25.00    1.24
   2  -5 -14   25.89    1.28
  -2  -5  14   25.68    1.26
   2  -5 -14   24.25    1.47
  -3  -5 -14    4.94    0.39
   3  -5  14    4.44    0.58
   3   5 -14    5.46    0.67
   3  -5  14    5.29    0.70
   3  -5 -14    3.10    0.64
   3  -5 -14    2.91    0.47
  -3  -5  14    2.66    0.51
  -3   5 -14    3.57    0.49
  -4  -5 -14    4.10    0.39
   4  -5  14    5.16    0.92
   4   5 -14    4.16    0.63
   4  -5 -14    5.03    0.69
  -4   5 -14    4.35    0.54
   4  -5 -14    4.67    0.81
  -4  -5  14    4.77    0.58
  -5  -5 -14   35.92    1.42
   5   5 -14   34.91    1.48
  -5   5 -14   34.95    1.53
   5  -5 -14   35.97    2.09
   5  -5 -14   33.41    1.88
  -5  -5  14   34.10    1.64
   5  -5 -14   33.51    1.60
  -6  -5 -14    1.01    0.22
   6  -5 -14    1.81    0.55
  -6   5 -14    0.65    0.29
  -6  -5  14    0.36    0.34
   6  -5 -14    0.77    0.37
  -7  -5 -14    3.48    0.37
  -7   5  14    3.90    0.64
  -7  -5  14    3.33    0.56
  -7   5 -14    3.35    0.50
   7  -5 -14    3.02    0.49
  -8  -5 -14    2.42    0.41
  -8   5  14    2.64    0.41
   8  -5 -14    2.92    0.42
  -8   5 -14    3.39    0.48
   0  -6 -14   12.64    0.90
   0  -6  14   12.41    0.90
   0  -6  14   12.72    0.85
   0  -6 -14   12.36    0.75
   0   6 -14   12.54    0.77
   1  -6  14   30.26    1.49
   1   6 -14   30.74    1.39
   1  -6  14   29.26    1.46
  -1  -6 -14   29.62    1.35
  -1   6 -14   32.29    1.48
  -1  -6  14   30.70    1.47
   1  -6 -14   29.98    1.45
   1  -6 -14   31.77    1.44
  -1  -6  14   30.68    1.48
  -2  -6 -14   41.53    1.69
   2  -6  14   41.62    1.79
   2   6 -14   40.33    1.77
   2  -6  14   42.89    1.90
   2  -6 -14   41.16    1.84
  -2  -6  14   39.15    1.83
   2  -6 -14   41.21    1.87
  -2   6 -14   39.85    1.73
   3  -6  14    9.89    0.84
   3  -6  14    9.56    0.71
   3   6 -14    9.03    0.72
  -3  -6 -14    8.70    0.55
  -3   6 -14    9.14    0.65
   3  -6 -14    8.13    0.76
   3  -6 -14    9.17    0.83
  -3  -6  14    9.20    0.74
  -4  -6 -14   22.44    0.99
   4  -6  14   22.10    1.08
   4  -6  14   19.57    1.37
   4  -6 -14   22.80    1.35
  -4   6 -14   22.33    1.09
   4  -6 -14   22.38    1.18
  -4  -6  14   22.04    1.18
  -5  -6 -14    1.22    0.23
  -5  -6  14    1.35    0.40
   5  -6 -14    0.65    0.70
  -5   6 -14    1.21    0.30
   5  -6 -14    1.17    0.36
  -6   6  14    3.56    0.61
  -6  -6 -14    3.55    0.42
   6  -6 -14    3.56    0.56
  -6   6 -14    3.02    0.47
  -6  -6  14    2.80    0.50
  -7   6  14    0.86    0.31
  -7  -6 -14    1.06    0.28
  -7   6 -14    1.73    0.30
  -7  -6  14    2.07    0.52
   7  -6 -14    2.49    0.51
   0  -7 -14    0.29    0.27
   0  -7  14    0.41    0.36
   0  -7  14    0.30    0.31
   0   7 -14    0.65    0.29
   0  -7 -14    0.33    0.39
   1  -7  14    8.40    0.70
   1   7 -14    6.37    0.60
   1  -7  14    7.61    0.73
  -1  -7 -14    7.18    0.59
  -1  -7 -14    6.36    0.88
   1  -7 -14    6.28    0.74
  -1  -7  14    7.36    0.72
   1  -7 -14    7.87    0.70
  -1   7 -14    7.80    0.59
  -2  -7 -14   41.88    1.79
   2   7 -14   39.52    1.72
   2  -7  14   41.69    1.95
   2  -7  14   40.52    1.84
   2  -7 -14   44.90    1.96
   2  -7 -14   46.15    1.92
  -2   7 -14   44.37    1.79
  -2  -7  14   44.23    1.94
   3  -7  14   41.68    1.91
  -3  -7 -14   42.21    1.72
   3  -7  14   40.64    1.76
   3  -7 -14   41.91    1.92
   3  -7 -14   40.52    1.82
  -3   7 -14   40.80    1.72
  -3  -7  14   40.69    1.85
  -4   7  14   18.81    1.02
   4  -7  14   18.50    1.65
  -4  -7 -14   20.35    0.92
   4  -7  14   20.10    0.94
   4  -7 -14   17.20    1.21
  -4   7 -14   16.64    0.91
  -4  -7  14   18.31    1.09
   4  -7 -14   17.35    1.00
  -5  -7 -14    0.99    0.30
  -5   7  14    0.94    0.32
  -5   7 -14    1.05    0.26
   5  -7 -14    1.27    0.79
  -5  -7  14    0.98    0.41
   5  -7 -14    0.78    0.28
  -6   7  14    1.80    0.31
  -6  -7  14    1.86    0.49
  -6   7 -14    2.64    0.37
   6  -7 -14    2.31    0.35
  -7   7  14    0.66    0.24
  -7   7 -14    0.93    0.23
   0  -8 -14   22.10    1.13
   0  -8 -14   20.11    1.15
   0  -8  14   22.21    1.20
   0   8 -14   20.26    0.97
   0  -8  14   20.09    1.08
   1  -8  14    7.67    0.76
  -1  -8 -14    8.38    0.88
  -1  -8 -14    7.74    0.68
   1  -8  14    8.51    0.67
  -1  -8  14    8.36    0.76
  -1   8 -14    8.16    0.56
   1  -8 -14    7.71    0.73
   1  -8 -14    6.45    0.72
  -2   8  14    5.47    0.59
   2  -8  14    4.93    0.54
   2  -8  14    4.84    0.72
  -2  -8 -14    4.70    0.59
  -2  -8  14    5.24    0.66
   2  -8 -14    5.69    0.71
   2  -8 -14    5.24    0.62
  -2   8 -14    5.00    0.46
   3  -8  14   11.25    1.00
   3  -8  14   12.88    0.75
  -3   8  14   11.35    0.72
  -3  -8 -14   12.86    0.80
   3  -8 -14   12.80    0.82
  -3   8 -14   12.26    0.68
   3  -8 -14   12.43    1.10
  -4  -8 -14    0.83    0.38
  -4   8  14    1.22    0.27
  -4  -8  14    1.03    0.41
  -4   8 -14    0.67    0.22
   4  -8 -14    0.83    0.52
   4  -8 -14    0.63    0.28
  -5   8  14    0.10    0.23
   5  -8 -14    0.20    0.25
  -5  -8  14    0.24    0.42
  -5   8 -14   -0.02    0.18
  -6   8  14   11.12    0.61
  -6   8 -14   13.54    0.62
   0  -9 -14    6.97    0.71
   0  -9 -14    6.07    0.69
   0  -9  14    6.18    0.73
  -1  -9 -14   16.16    1.01
  -1  -9 -14   15.26    0.92
   1  -9  14   14.95    1.00
   1  -9 -14   15.02    0.87
   1  -9 -14   13.89    0.93
  -1  -9  14   13.92    0.96
  -2  -9 -14   11.15    0.84
   2  -9  14   11.66    0.92
   2  -9 -14    9.16    0.83
   2  -9 -14   10.45    0.69
  -2   9 -14   10.12    0.56
  -2  -9  14   10.45    0.83
  -3  -9  14    0.72    0.40
  -3   9 -14    0.72    0.20
   3  -9 -14    0.18    0.46
   3  -9 -14    0.53    0.26
  -4   9 -14   10.10    0.52
   4  -9 -14   10.49    0.61
   0 -10 -14   12.44    0.77
  -1 -10 -14    1.79    0.45
   0   0 -15    0.71    1.47
   0   0 -15    0.16    0.19
   0   0  15   -0.24    0.48
  -1   0  15  116.30    4.37
  -1   0 -15  119.02    4.27
   1   0 -15  107.03    6.55
   1   0 -15  116.98    4.34
  -2   0  15   25.76    1.24
  -2   0 -15   26.01    1.11
  -2   0 -15   25.62    1.09
   2   0 -15   26.42    1.35
   3   0 -15   42.76    1.90
  -3   0  15   41.24    1.83
  -3   0 -15   42.80    1.69
  -3   0 -15   42.67    1.69
  -4   0 -15   36.23    1.49
  -4   0  15   36.03    1.68
   4   0 -15   38.02    1.71
  -4   0 -15   35.75    1.48
  -5   0  15  195.92    7.33
   5   0 -15  196.86    7.33
  -5   0 -15  192.24    7.12
   6   0 -15    3.84    0.58
  -6   0 -15    4.64    0.43
  -6   0 -15    4.60    0.43
  -6   0  15    4.35    0.69
  -7   0 -15    0.28    0.22
   7   0 -15    0.52    0.39
  -7   0  15    0.72    0.41
  -7   0 -15    0.68    0.20
   8   0 -15    0.08    0.34
  -8   0 -15    0.01    0.16
  -8   0  15   -0.07    0.45
  -8   0 -15    0.41    0.24
  -9   0 -15    3.83    0.31
  -9   0  15    3.84    0.38
   9   0 -15    4.26    0.50
   0  -1  15    7.64    0.62
   0  -1 -15    7.76    0.49
  -1  -1 -15    6.38    0.77
   1  -1  15    5.68    0.72
  -1  -1 -15    5.07    0.37
  -1   1 -15    4.84    0.42
  -1   1 -15    5.10    0.48
   1  -1 -15    3.34    0.55
   1  -1 -15    4.91    0.47
  -1  -1  15    4.83    0.51
  -2   1  15    3.71    0.69
   2   1 -15    4.12    0.55
  -2  -1 -15    4.26    0.35
  -2  -1 -15    4.31    0.47
   2  -1 -15    5.77    0.72
   2  -1 -15    4.98    0.66
  -2   1 -15    4.97    0.44
  -2   1 -15    4.91    0.38
   2  -1 -15    4.82    0.58
  -2  -1  15    4.59    0.50
  -3  -1 -15   21.62    0.94
  -3   1  15   22.59    1.15
  -3  -1 -15   21.26    0.97
   3   1 -15   20.97    1.17
  -3   1 -15   20.85    0.94
  -3   1 -15   20.74    1.27
   3  -1 -15   19.71    1.23
  -3   1 -15   21.29    0.94
  -3  -1  15   22.27    1.10
   3  -1 -15   20.03    1.17
  -4  -1 -15   12.62    0.71
  -4   1  15   13.37    0.91
   4   1 -15   14.06    0.96
  -4  -1 -15   13.24    0.68
   4  -1 -15   13.16    1.00
  -4   1 -15   14.26    0.70
  -4  -1  15   13.85    0.86
   4  -1 -15   13.11    0.99
  -4   1 -15   13.02    0.69
  -5  -1 -15   77.04    2.96
  -5   1  15   76.63    3.14
  -5  -1 -15   77.35    2.98
   5   1 -15   77.23    3.17
  -5   1 -15   83.12    2.96
   5  -1 -15   78.47    3.20
  -5  -1  15   75.31    3.48
  -6  -1 -15   35.44    1.43
  -6  -1 -15   35.63    1.46
  -6   1  15   36.59    1.67
   6   1 -15   35.92    1.68
   6  -1 -15   31.71    1.67
  -6  -1  15   33.74    1.67
  -6   1 -15   34.20    1.42
  -6   1 -15   33.07    1.46
  -7   1  15    7.28    0.94
  -7  -1 -15    9.15    0.56
  -7  -1 -15    8.38    0.53
   7   1 -15    7.94    0.80
  -7   1 -15    8.05    0.50
  -7   1 -15    7.66    0.57
   7  -1 -15    8.60    0.81
  -7  -1  15    7.40    0.82
  -8   1  15    8.98    0.58
   8   1 -15    9.04    0.72
  -8  -1 -15    8.65    0.51
  -8  -1 -15    8.22    0.62
  -8  -1  15   10.60    0.85
  -8   1 -15    8.67    0.51
   8  -1 -15   10.03    0.78
  -8   1 -15    9.38    0.66
  -9  -1 -15    5.44    0.36
  -9  -1 -15    4.91    0.49
  -9   1  15    5.94    0.40
   9   1 -15    5.99    0.50
   9  -1 -15    5.27    0.54
  -9  -1  15    5.55    0.44
  -9   1 -15    5.21    0.34
   0  -2 -15    4.69    0.39
   0  -2 -15    4.08    0.52
   0   2 -15    5.01    0.62
   0  -2  15    4.81    0.51
  -1  -2 -15   39.02    1.63
  -1  -2 -15   39.99    1.59
   1  -2  15   38.88    1.71
   1   2 -15   37.49    1.71
  -1   2 -15   41.00    1.61
  -1  -2  15   39.80    1.71
  -1   2 -15   39.44    1.71
   1  -2 -15   41.75    1.68
   1  -2 -15   40.61    1.68
  -2  -2 -15   24.35    1.00
   2   2 -15   23.73    1.19
  -2  -2 -15   23.86    1.06
   2  -2  15   27.42    1.23
   2  -2 -15   21.76    1.46
  -2   2 -15   23.90    1.04
   2  -2 -15   22.19    1.14
  -2   2 -15   22.61    1.05
   2  -2 -15   21.72    1.16
  -2  -2  15   23.21    1.14
  -2   2 -15   20.93    1.17
  -3  -2 -15   30.03    1.26
   3   2 -15   29.27    1.39
  -3  -2 -15   29.97    1.20
   3  -2 -15   29.35    1.45
  -3   2 -15   27.85    1.20
  -3   2 -15   28.23    1.37
  -3   2 -15   27.66    1.22
   3  -2 -15   30.20    1.40
   3  -2 -15   26.64    1.55
  -3  -2  15   27.67    1.35
  -4  -2 -15   41.17    1.70
   4   2 -15   42.84    1.89
  -4  -2 -15   41.56    1.68
   4  -2 -15   40.34    1.85
   4  -2 -15   42.28    1.96
  -4  -2  15   43.05    1.87
  -4   2 -15   43.35    1.86
  -4   2 -15   41.32    1.70
  -4   2 -15   41.98    1.66
  -5  -2 -15   26.17    1.17
   5   2 -15   25.82    1.38
  -5  -2 -15   27.02    1.15
  -5  -2  15   26.36    1.34
  -5   2 -15   27.14    1.13
   5  -2 -15   26.48    1.45
  -5   2 -15   27.23    1.19
  -5   2 -15   25.70    1.36
  -6  -2 -15    7.40    0.54
  -6  -2 -15    8.45    0.52
   6   2 -15    8.15    0.78
  -6  -2  15    7.45    0.77
  -6   2 -15    6.50    0.59
  -6   2 -15    7.58    0.49
   6  -2 -15    6.82    0.82
   7   2 -15   13.02    0.86
  -7  -2 -15   13.31    0.68
  -7  -2 -15   12.98    0.65
  -7   2  15   12.52    0.70
  -7   2 -15   11.39    0.62
   7  -2 -15   11.28    0.93
  -7  -2  15   12.37    0.93
  -7   2 -15   11.44    0.78
  -8   2  15    1.99    0.27
  -8  -2 -15    2.82    0.32
   8   2 -15    2.54    0.37
  -8   2  15    2.82    0.83
  -8  -2 -15    2.56    0.37
  -8   2 -15    3.32    0.29
   8  -2 -15    2.68    0.42
  -8  -2  15    2.86    0.49
  -9  -2 -15    0.84    0.16
  -9  -2 -15    0.38    0.29
  -9  -2  15    1.09    0.25
   9  -2 -15    1.14    0.31
  -9   2 -15    0.96    0.17
   0  -3  15    8.78    0.64
   0  -3 -15    8.78    0.53
   0  -3 -15    7.62    0.64
   0   3 -15    8.83    0.65
  -1  -3 -15   38.65    1.51
   1   3 -15   37.70    1.63
   1  -3  15   38.64    1.64
  -1  -3 -15   35.78    1.55
  -1   3 -15   36.31    1.60
   1  -3 -15   35.93    1.57
   1  -3 -15   35.88    1.59
  -1  -3  15   37.28    1.63
  -2  -3 -15    1.61    0.26
   2   3 -15    1.42    0.38
  -2  -3 -15    1.73    0.32
   2  -3  15    1.14    0.36
  -3  -3 -15    7.07    0.44
   3   3 -15    8.16    0.73
  -3  -3 -15    7.47    0.61
  -3  -3  15    6.85    0.61
   3  -3 -15    6.98    1.07
  -3   3 -15    7.15    0.50
   3  -3 -15    5.75    0.71
   3  -3 -15    6.71    0.72
  -3   3 -15    7.00    0.65
  -4  -3 -15   33.43    1.34
   4   3 -15   35.78    1.54
   4  -3 -15   28.39    1.72
   4  -3 -15   26.22    1.64
   4  -3 -15   27.81    1.46
  -5  -3 -15    2.11    0.33
   5   3 -15    2.51    0.48
  -5  -3 -15    2.11    0.35
  -5  -3  15    3.00    0.56
   5  -3 -15    3.01    0.57
  -5   3 -15    2.60    0.35
   5  -3 -15    3.01    0.50
  -5   3 -15    3.85    0.63
  -6   3  15   48.38    2.03
  -6  -3 -15   46.23    1.86
  -6  -3 -15   44.89    1.85
   6   3 -15   45.54    1.98
   6  -3 -15   46.98    2.12
  -6   3 -15   47.66    1.81
  -6   3 -15   46.55    2.00
   7   3 -15    0.52    0.38
  -7  -3 -15    0.68    0.20
  -7   3 -15    0.95    0.19
   7  -3 -15    1.33    0.42
  -7  -3  15    1.19    0.41
  -7   3 -15    1.39    0.44
  -8  -3 -15    2.60    0.33
  -8   3  15    2.53    0.60
  -8  -3 -15    2.48    0.37
  -8  -3  15    3.51    0.71
   8  -3 -15    3.09    0.42
  -8   3 -15    3.43    0.31
  -9  -3 -15    3.71    0.29
   9  -3 -15    3.37    0.46
   0  -4  15   11.76    0.78
   0  -4 -15   12.03    0.68
   0   4 -15   12.00    0.74
   0  -4 -15   13.43    0.81
  -1  -4 -15   11.34    0.61
   1  -4  15   11.89    0.77
   1   4 -15   11.53    0.77
  -1  -4 -15   10.44    0.74
  -1  -4  15   10.58    0.74
  -1   4 -15   10.16    0.71
   1  -4 -15    9.97    0.68
   1  -4 -15    9.63    0.75
   2   4 -15   22.09    1.14
   2  -4  15   22.49    1.19
  -2  -4 -15   22.00    1.09
  -2  -4 -15   22.23    1.00
   2  -4 -15   23.63    1.16
  -2   4 -15   22.88    1.10
  -2  -4  15   22.72    1.16
   2  -4 -15   22.56    1.17
  -3  -4 -15   53.44    2.17
   3  -4  15   52.37    2.36
  -3  -4 -15   57.79    2.48
   3  -4 -15   51.11    2.37
  -3   4 -15   61.72    2.59
  -3  -4  15   60.51    2.71
   3  -4 -15   53.88    2.33
   4   4 -15   26.47    1.73
  -4  -4 -15   24.59    1.10
   4  -4 -15   26.27    1.51
   4  -4 -15   26.26    1.62
  -4  -4  15   25.36    1.29
  -5  -4 -15   23.35    1.14
  -5  -4 -15   24.95    1.10
   5   4 -15   25.39    1.25
  -5   4 -15   25.57    1.24
   5  -4 -15   26.18    1.49
  -5  -4  15   25.81    1.33
   5  -4 -15   26.02    1.29
   6   4 -15   10.62    0.72
  -6  -4 -15   10.46    0.63
  -6  -4 -15   11.35    0.59
   6  -4 -15    7.81    0.93
  -6  -4  15    9.13    0.83
  -6   4 -15    9.33    0.73
  -7  -4 -15    0.92    0.36
  -7  -4 -15    0.92    0.23
  -7   4  15    0.61    0.43
  -7  -4  15    0.89    0.46
   7  -4 -15    1.00    0.41
  -7   4 -15    1.15    0.36
  -8   4  15    1.13    0.42
  -8  -4 -15    0.82    0.20
  -8  -4  15   -0.11    0.41
   8  -4 -15    0.41    0.31
  -8   4 -15    0.32    0.35
   0  -5 -15    2.87    0.45
   0  -5  15    2.05    0.38
   0  -5 -15    2.42    0.41
   0   5 -15    2.19    0.48
   1  -5  15   33.69    1.55
   1  -5  15   35.43    1.67
  -1  -5 -15   30.95    1.72
  -1  -5 -15   33.06    1.52
   1   5 -15   35.68    1.57
  -1   5 -15   35.85    1.51
  -2  -5 -15   27.33    1.12
   2  -5  15   25.62    1.31
   2  -5  15   26.74    1.22
   2   5 -15   26.93    1.22
  -2   5 -15   22.20    1.16
   2  -5 -15   22.29    1.26
  -2  -5  15   21.62    1.22
   2  -5 -15   22.73    1.23
  -3  -5 -15   -0.03    0.16
   3  -5  15   -0.10    0.38
  -3  -5  15    0.35    0.28
  -3   5 -15    0.24    0.26
   3  -5 -15   -0.17    0.32
   3  -5 -15    0.35    0.34
   4   5 -15   36.77    1.64
  -4  -5 -15   35.40    1.53
   4  -5 -15   40.55    1.90
  -4   5 -15   38.73    1.67
  -4  -5  15   38.74    1.75
   4  -5 -15   38.39    1.74
   5   5 -15    7.52    0.65
  -5  -5 -15    7.52    0.48
  -5  -5  15    6.25    0.67
  -5   5 -15    6.45    0.61
   5  -5 -15    6.22    0.68
   5  -5 -15    6.23    0.80
  -6  -5 -15    5.40    0.43
  -6   5 -15    4.72    0.60
  -6  -5  15    4.31    0.73
   6  -5 -15    4.67    0.66
   6  -5 -15    4.51    0.65
  -7   5  15    6.99    0.70
  -7  -5 -15    7.57    0.50
  -7  -5 -15    7.47    0.54
  -7   5 -15    7.26    0.59
   7  -5 -15    7.76    0.76
  -7  -5  15    7.14    0.84
  -8  -5 -15    0.72    0.23
  -8   5  15    0.80    0.33
  -8   5 -15    0.61    0.46
   8  -5 -15    0.70    0.33
   0  -6 -15    9.84    0.67
   0   6 -15    8.72    0.67
   0  -6  15    8.83    0.76
   0  -6  15    9.28    0.77
   0  -6 -15    7.93    0.76
   1  -6  15   76.79    3.18
  -1  -6 -15   76.79    3.08
  -1  -6 -15   79.07    3.07
   1  -6  15   77.36    3.10
   1   6 -15   76.78    3.05
  -1   6 -15   79.44    3.05
   1  -6 -15   78.41    3.14
   1  -6 -15   79.70    3.12
  -1  -6  15   81.22    3.20
   2  -6  15    5.47    0.70
   2  -6  15    5.88    0.60
  -2  -6 -15    6.09    0.50
   2   6 -15    5.46    0.60
  -2   6 -15    4.84    0.55
   2  -6 -15    5.83    0.67
  -2  -6  15    4.53    0.59
   2  -6 -15    4.94    0.64
   3   6 -15    7.27    0.66
   3  -6  15    7.94    0.85
  -3  -6 -15    7.32    0.53
   3  -6  15    6.97    0.63
  -3  -6  15    8.50    0.72
  -3   6 -15    7.64    0.61
   3  -6 -15    7.58    0.79
   3  -6 -15    7.24    0.71
  -4  -6 -15    6.73    0.51
   4  -6 -15    8.00    0.94
   4  -6 -15    7.35    0.69
  -4   6 -15    7.72    0.60
  -4  -6  15    8.47    0.73
  -5  -6 -15   29.85    1.23
  -5  -6  15   28.55    1.45
  -5   6 -15   28.41    1.30
   5  -6 -15   28.95    1.35
  -6   6  15    4.36    0.59
  -6  -6 -15    5.01    0.45
  -6  -6  15    4.61    0.76
  -6   6 -15    4.44    0.49
   6  -6 -15    4.92    0.58
  -7   6  15    1.28    0.30
  -7  -6  15    1.64    0.50
   0  -7 -15   25.33    1.29
   0  -7  15   26.22    1.37
   0  -7 -15   26.78    1.30
   0   7 -15   26.60    1.21
   1   7 -15   30.70    1.35
  -1  -7 -15   29.60    1.45
   1  -7  15   30.69    1.54
   1  -7  15   30.27    1.43
  -1  -7 -15   31.32    1.43
   1  -7 -15   34.49    1.54
  -1  -7  15   32.42    1.55
  -1   7 -15   31.19    1.37
   1  -7 -15   31.19    1.48
  -2  -7 -15   16.77    0.88
   2   7 -15   16.42    0.85
   2  -7  15   16.22    1.06
   2  -7  15   17.77    0.93
  -2  -7  15   15.47    0.99
  -2   7 -15   15.56    0.85
   2  -7 -15   15.48    0.97
   2  -7 -15   16.66    1.04
   3  -7  15   23.86    1.34
  -3  -7 -15   24.68    1.11
  -3   7 -15   22.49    1.09
  -3  -7  15   23.16    1.24
   3  -7 -15   22.58    1.19
   3  -7 -15   22.02    1.29
  -4  -7 -15    9.70    0.82
   4  -7 -15   12.40    1.23
   4  -7 -15   10.65    0.79
  -4   7 -15   10.19    0.71
  -4  -7  15   10.12    0.81
  -5   7  15   11.89    0.76
  -5  -7 -15   12.58    0.73
  -5   7 -15   12.73    0.71
   5  -7 -15   12.95    0.74
  -5  -7  15   13.69    0.95
  -6   7  15    0.57    0.25
  -6   7 -15    0.34    0.22
   0  -8  15    0.45    0.37
   0   8 -15    0.12    0.25
   0  -8 -15    0.05    0.37
   0  -8 -15   -0.05    0.29
   1  -8  15   12.57    0.92
  -1  -8 -15   11.57    0.81
  -1  -8 -15   11.89    0.91
   1  -8 -15   11.65    0.84
  -1   8 -15   11.41    0.72
  -1  -8  15   12.10    0.88
   1  -8 -15   13.16    0.84
   2  -8  15   11.26    0.94
  -2   8  15   10.59    0.70
  -2  -8 -15   11.05    0.77
  -2  -8  15   11.95    1.15
   2  -8 -15   12.02    1.17
  -2   8 -15   11.32    0.64
   2  -8 -15   11.12    0.77
   3  -8  15   -0.11    0.50
  -3  -8 -15    0.66    0.32
  -3   8  15    0.34    0.27
   3  -8 -15    0.27    0.28
  -3   8 -15    0.32    0.22
  -3  -8  15    0.32    0.35
   3  -8 -15    0.57    0.42
  -4  -8 -15    4.75    0.67
  -4   8  15    4.38    0.47
   4  -8 -15    5.21    0.50
  -4   8 -15    5.37    0.42
   4  -8 -15    5.09    0.71
  -4  -8  15    5.46    0.76
  -5   8  15    0.81    0.24
   5  -8 -15    1.21    0.27
  -5   8 -15    1.26    0.23
   0  -9 -15   -0.07    0.33
   0  -9  15    0.44    0.39
   0  -9 -15    0.14    0.36
  -1  -9 -15    0.37    0.40
   1  -9  15    0.29    0.41
  -1  -9 -15    0.85    0.37
   1  -9 -15   -0.02    0.35
   1  -9 -15    0.32    0.30
  -1  -9  15    0.21    0.37
  -2  -9 -15    4.45    0.70
   2  -9  15    4.10    0.59
   2  -9 -15    4.63    0.49
  -2  -9  15    4.39    0.70
  -2   9 -15    4.30    0.40
   2  -9 -15    3.74    0.71
   3  -9 -15    8.45    0.57
  -3   9 -15    8.70    0.48
   4  -9 -15    2.02    0.36
  -4   9 -15    1.20    0.21
   0   0 -16   42.43    1.74
   0   0 -16   43.48    1.76
  -1   0  16    0.03    0.36
   1   0 -16    0.08    0.43
   1   0 -16    0.13    0.31
   2   0 -16   34.59    1.54
  -2   0  16   34.00    1.55
   2   0 -16   33.43    1.61
  -2   0 -16   33.97    1.39
  -2   0 -16   32.64    1.38
  -3   0 -16   96.30    3.64
  -3   0 -16   97.25    3.67
   3   0 -16   99.53    3.83
  -4   0  16   13.78    0.94
   4   0 -16   13.27    0.98
  -4   0 -16   13.95    0.71
  -4   0 -16   13.58    0.70
  -5   0 -16   27.73    1.19
  -5   0 -16   27.43    1.19
   5   0 -16   26.82    1.51
  -5   0  16   26.76    1.41
   6   0 -16    3.20    0.52
  -6   0 -16    2.88    0.39
  -6   0  16    2.64    0.49
  -6   0 -16    2.22    0.35
  -7   0  16    1.27    0.47
  -7   0 -16    1.29    0.26
   7   0 -16    1.48    0.42
  -7   0 -16    1.57    0.24
  -8   0  16    6.74    0.52
   8   0 -16    7.78    0.66
  -8   0  16    7.47    0.99
  -8   0 -16    7.48    0.55
  -8   0 -16    7.56    0.45
  -9   0 -16    1.45    0.19
   9   0 -16    1.24    0.29
  -9   0  16    1.36    0.21
   0  -1 -16   43.69    1.77
   0  -1 -16   45.34    1.78
   0   1 -16   41.85    1.82
   0   1 -16   45.44    1.78
   0   1 -16   41.53    1.89
   0  -1  16   43.69    1.86
  -1  -1 -16   11.30    0.59
   1   1 -16   11.36    0.76
  -1  -1 -16   10.42    0.64
   1  -1 -16   10.21    0.71
   1  -1 -16   10.37    0.68
  -1   1 -16   10.46    0.63
  -1   1 -16   10.82    0.64
  -1   1 -16   10.03    0.88
   1  -1 -16   11.50    1.08
  -1  -1  16   10.13    0.72
   2   1 -16   30.13    1.36
  -2  -1 -16   29.50    1.17
  -2  -1 -16   29.19    1.19
   2  -1 -16   26.11    1.45
  -2   1 -16   27.04    1.17
  -2   1 -16   25.56    1.38
   2  -1 -16   26.75    1.32
  -2   1 -16   27.30    1.18
   2  -1 -16   26.94    1.34
  -2  -1  16   26.48    1.30
  -3  -1 -16    6.73    0.44
   3   1 -16    7.04    0.73
  -3  -1 -16    6.92    0.50
  -3   1  16    6.68    0.79
  -3  -1  16    6.84    0.63
  -3   1 -16    7.77    0.87
  -3   1 -16    7.15    0.48
  -3   1 -16    6.48    0.47
   3  -1 -16    6.62    0.87
   3  -1 -16    6.96    0.78
  -4   1  16   21.64    1.28
   4   1 -16   21.63    1.27
  -4  -1 -16   21.65    1.03
  -4  -1 -16   22.26    1.03
  -4  -1  16   25.21    1.25
  -4   1 -16   25.64    1.08
   4  -1 -16   23.81    1.32
  -4   1 -16   25.38    1.06
  -5  -1 -16   42.99    1.75
  -5  -1 -16   46.89    2.02
  -5   1  16   42.79    1.97
  -5  -1  16   41.89    1.96
  -5   1 -16   41.73    1.75
  -6   1  16   21.56    1.31
   6   1 -16   23.68    1.27
  -6  -1 -16   23.39    1.00
  -6  -1 -16   23.46    1.02
  -6   1 -16   21.24    1.03
   6  -1 -16   21.50    1.27
  -6  -1  16   20.73    1.24
  -6   1 -16   21.67    0.98
  -7  -1 -16   11.41    0.63
  -7  -1 -16   11.21    0.67
   7   1 -16   10.84    0.88
   7  -1 -16   13.09    0.92
  -7  -1  16   13.62    0.96
  -7   1 -16   13.12    0.64
  -7   1 -16   13.81    0.74
   8   1 -16    2.06    0.38
  -8  -1 -16    1.71    0.28
  -8   1  16    1.72    0.27
  -8  -1 -16    2.29    0.29
   8  -1 -16    2.13    0.40
  -8  -1  16    1.82    0.47
  -8   1 -16    1.79    0.35
  -8   1 -16    1.65    0.26
  -9   1  16    0.08    0.20
  -9  -1 -16   -0.01    0.13
  -9   1 -16   -0.02    0.13
  -9  -1  16   -0.18    0.18
   9  -1 -16   -0.01    0.25
   0   2 -16    1.78    0.43
   0  -2 -16    1.51    0.29
   0  -2  16    1.75    0.34
   0  -2 -16    1.20    0.23
  -1  -2 -16    0.51    0.25
   1  -2  16    0.21    0.31
   1   2 -16   -0.32    0.32
  -1  -2 -16    0.22    0.16
  -1  -2  16    0.42    0.26
  -1   2 -16    0.30    0.28
   1  -2 -16    0.40    0.22
  -1   2 -16    0.85    0.36
   1  -2 -16    0.97    0.31
  -2  -2 -16   28.47    1.20
   2   2 -16   28.61    1.34
  -2  -2 -16   30.07    1.18
  -2   2 -16   26.84    1.34
  -2   2 -16   25.79    1.22
   2  -2 -16   27.63    1.32
  -2  -2  16   26.56    1.31
   2  -2 -16   26.57    1.61
  -2   2 -16   27.70    1.17
   2  -2 -16   27.34    1.32
   3   2 -16   29.49    1.40
  -3  -2 -16   29.41    1.22
  -3  -2 -16   30.36    1.21
  -3   2 -16   27.75    1.19
  -3   2 -16   27.60    1.37
   3  -2 -16   28.02    1.54
  -3   2 -16   27.28    1.24
   3  -2 -16   27.23    1.48
  -3  -2  16   27.79    1.36
   3  -2 -16   28.41    1.39
   4   2 -16    4.87    0.70
  -4  -2  16    3.42    0.68
  -4   2 -16    5.18    0.41
  -4   2 -16    4.51    0.74
   4  -2 -16    4.04    0.67
  -4   2 -16    4.72    0.48
  -5  -2 -16   20.29    0.95
  -5  -2 -16   19.50    0.94
   5   2 -16   20.63    1.20
  -5   2 -16   21.07    1.00
  -5  -2  16   21.41    1.19
   5  -2 -16   20.10    1.22
  -5   2 -16   21.22    0.92
  -5   2 -16   21.40    1.53
  -6  -2 -16   16.24    0.78
   6   2 -16   16.00    1.01
  -6   2  16   16.47    0.83
  -6  -2 -16   16.73    0.79
  -6   2 -16   14.77    0.73
  -6  -2  16   15.57    1.06
  -6   2 -16   14.32    0.84
   6  -2 -16   14.28    1.06
  -7  -2 -16    8.21    0.54
  -7  -2 -16    8.09    0.51
  -7   2  16    7.68    0.66
   7   2 -16    8.93    0.73
  -7  -2  16    9.70    0.85
   7  -2 -16    8.87    0.81
  -7   2 -16    9.37    0.49
  -8   2  16    0.19    0.73
  -8   2  16    1.65    0.27
  -8  -2 -16    1.28    0.24
  -8  -2 -16    1.13    0.20
   8   2 -16    1.41    0.32
  -8  -2  16    1.15    0.43
   8  -2 -16    1.54    0.35
  -8   2 -16    1.41    0.20
  -9  -2 -16    1.46    0.24
  -9  -2  16    2.17    0.33
   9  -2 -16    2.13    0.31
  -9   2 -16    1.76    0.28
   0  -3 -16    0.41    0.20
   0   3 -16    0.68    0.32
   0  -3  16    0.29    0.26
   0  -3 -16    0.73    0.29
   1   3 -16   18.19    0.98
  -1  -3 -16   16.76    0.84
   1  -3  16   15.94    0.99
  -1  -3 -16   17.43    0.90
   1  -3 -16   19.30    0.95
  -1   3 -16   18.26    0.97
  -1  -3  16   18.71    0.99
   1  -3 -16   19.92    0.97
  -2  -3 -16   32.89    1.45
   2  -3  16   34.54    1.63
   2   3 -16   35.87    1.58
  -2  -3 -16   34.39    1.43
   2  -3 -16   35.98    1.59
  -2   3 -16   34.17    1.54
  -2   3 -16   34.64    1.44
  -2  -3  16   35.35    1.60
   2  -3 -16   35.25    1.57
  -3  -3 -16   34.71    1.33
   3   3 -16   31.83    1.69
  -3  -3 -16   34.83    1.36
  -3   3 -16   29.61    1.29
  -3   3 -16   31.67    1.44
   3  -3 -16   30.14    1.69
   3  -3 -16   29.67    1.56
  -3  -3  16   29.60    1.48
   3  -3 -16   31.36    1.75
  -4  -3 -16    8.60    0.59
   4   3 -16    7.91    0.79
  -4  -3 -16    8.64    0.52
  -4   3 -16    8.95    0.53
   4  -3 -16    9.31    0.79
   4  -3 -16    8.73    0.96
  -4  -3  16    8.38    0.69
  -4   3 -16    9.20    0.73
   5   3 -16    1.62    0.42
  -5  -3 -16    1.77    0.30
  -5  -3 -16    1.09    0.22
  -5   3 -16    2.31    0.41
  -5  -3  16    1.73    0.39
   5  -3 -16    1.89    0.47
   5  -3 -16    3.06    0.58
   6   3 -16    2.04    0.41
  -6  -3 -16    2.72    0.35
  -6  -3 -16    2.86    0.38
  -6   3 -16    1.95    0.32
  -6  -3  16    1.89    0.44
   6  -3 -16    2.16    0.50
  -6   3 -16    2.09    0.43
  -7  -3 -16    1.52    0.23
  -7  -3 -16    1.78    0.34
   7   3 -16    2.14    0.35
  -7   3 -16    1.23    0.43
  -7  -3  16    1.93    0.44
   7  -3 -16    2.23    0.50
  -8  -3 -16    6.39    0.45
  -8   3  16    5.75    0.91
  -8  -3 -16    5.81    0.38
  -8  -3  16    4.81    0.79
   8  -3 -16    5.84    0.60
  -8   3 -16    5.94    0.48
   0  -4 -16    1.92    0.37
   0   4 -16    1.91    0.36
   0  -4 -16    1.27    0.33
   0  -4  16    1.48    0.32
   1   4 -16   10.30    0.75
  -1  -4 -16   10.28    0.62
  -1  -4 -16   10.16    0.69
   1  -4  16    9.37    0.77
  -1   4 -16   11.13    0.70
  -1  -4  16   10.90    0.75
   1  -4 -16   10.39    0.74
   1  -4 -16   10.54    0.69
  -2  -4 -16   18.98    0.95
   2  -4  16   19.19    1.11
   2   4 -16   18.47    1.26
  -2  -4 -16   19.66    0.97
  -2   4 -16   19.07    1.08
  -2  -4  16   18.38    1.09
   2  -4 -16   18.81    1.05
   2  -4 -16   18.77    1.06
   3   4 -16   35.35    1.62
  -3  -4 -16   36.42    1.47
  -3  -4 -16   35.73    1.50
  -3   4 -16   34.05    1.55
  -3  -4  16   35.16    1.64
   3  -4 -16   35.29    1.63
   3  -4 -16   35.79    1.72
   4   4 -16   15.92    0.94
  -4  -4 -16   14.23    0.78
  -4  -4 -16   15.18    0.72
   4  -4 -16   12.81    1.16
  -4  -4  16   13.37    0.89
  -4   4 -16   12.79    0.84
   4  -4 -16   14.40    0.92
   4  -4 -16   14.35    1.29
   5   4 -16   25.31    1.21
  -5  -4 -16   25.68    1.07
  -5  -4 -16   24.60    1.09
   5  -4 -16   23.49    1.42
   5  -4 -16   23.75    1.23
  -5  -4  16   23.42    1.29
  -5   4 -16   22.60    1.18
   6   4 -16    5.88    0.61
  -6  -4 -16    5.30    0.59
  -6  -4 -16    6.23    0.44
   6  -4 -16    6.03    0.83
  -6   4 -16    6.33    0.61
  -7  -4 -16    0.06    0.19
  -7   4  16    0.08    0.39
  -7  -4 -16    0.18    0.19
  -7   4 -16    0.76    0.33
  -7  -4  16   -0.15    0.37
   7  -4 -16    0.75    0.38
  -8  -4 -16    1.33    0.21
  -8   4  16    1.34    0.41
  -8  -4 -16    1.45    0.27
   8  -4 -16    1.04    0.32
  -8   4 -16    1.20    0.39
  -8  -4  16    1.64    0.44
   0  -5 -16    2.11    0.42
   0   5 -16    1.87    0.36
   0  -5 -16    2.46    0.41
   0  -5  16    1.87    0.40
   1  -5  16   15.64    1.00
  -1  -5 -16   15.72    0.92
   1   5 -16   16.18    0.93
  -1  -5 -16   16.22    0.85
  -1   5 -16   15.67    0.88
   1  -5 -16   17.24    0.94
  -1  -5  16   15.90    0.97
   1  -5 -16   17.39    0.94
  -2  -5 -16    9.30    0.60
   2  -5  16   10.00    0.83
  -2  -5 -16    9.65    0.86
   2   5 -16   10.12    0.79
  -2  -5  16    9.68    0.76
  -2   5 -16    9.42    0.68
   2  -5 -16    8.77    0.76
   2  -5 -16    9.56    0.79
  -3  -5 -16   37.86    1.55
   3  -5  16   37.27    1.81
  -3  -5 -16   37.58    1.58
   3   5 -16   38.50    1.66
  -3  -5  16   37.00    1.73
   3  -5 -16   36.62    1.68
  -3   5 -16   37.06    1.63
   3  -5 -16   36.01    1.76
   4   5 -16    5.26    0.62
  -4  -5 -16    4.41    0.54
  -4  -5 -16    4.89    0.41
  -4   5 -16    5.49    0.56
  -4  -5  16    5.27    0.64
   4  -5 -16    3.91    0.61
   4  -5 -16    4.13    0.67
  -5  -5 -16    5.34    0.51
   5   5 -16    4.96    0.59
  -5  -5 -16    4.92    0.41
  -5  -5  16    3.75    0.66
   5  -5 -16    4.22    0.59
  -5   5 -16    3.30    0.50
   5  -5 -16    3.65    0.72
  -6  -5 -16   18.89    0.87
  -6  -5 -16   17.81    0.84
   6  -5 -16   17.71    1.19
  -6   5 -16   16.94    0.91
  -7   5  16    1.65    0.37
  -7  -5 -16    2.07    0.36
  -7  -5 -16    2.23    0.38
  -7   5 -16    2.09    0.33
   7  -5 -16    2.59    0.45
  -7  -5  16    2.09    0.48
  -8  -5 -16    3.08    0.36
   0   6 -16    0.70    0.30
   0  -6 -16    0.62    0.33
   0  -6 -16    0.40    0.26
   0  -6  16    0.88    0.35
   1   6 -16   41.08    1.70
  -1  -6 -16   41.94    1.73
   1  -6  16   42.07    1.85
  -1  -6 -16   42.10    1.72
   1  -6 -16   37.60    1.78
  -1  -6  16   38.61    1.82
   1  -6 -16   36.92    1.74
  -1   6 -16   36.96    1.68
  -2  -6 -16   13.98    0.77
   2   6 -16   13.50    0.82
   2  -6  16   13.62    0.96
  -2  -6 -16   12.12    0.84
   2  -6 -16   14.28    0.94
  -2  -6  16   12.90    0.90
   2  -6 -16   12.46    0.88
  -2   6 -16   13.44    0.79
  -3  -6 -16   11.02    0.97
   3   6 -16   10.11    0.73
   3  -6  16   10.63    0.99
  -3  -6 -16   10.25    0.65
  -3  -6  16   11.52    0.84
   3  -6 -16   11.23    0.80
  -3   6 -16   11.42    0.72
   3  -6 -16   11.03    0.91
  -4  -6 -16    2.32    0.38
  -4   6 -16    1.64    0.32
   4  -6 -16    1.25    0.36
   4  -6 -16    2.14    0.58
  -4  -6  16    1.57    0.39
  -5  -6 -16    0.48    0.22
  -5  -6  16    0.41    0.39
  -5   6 -16    0.80    0.29
   5  -6 -16    0.52    0.31
  -6   6  16    4.60    0.55
  -6  -6 -16    4.40    0.46
  -6   6 -16    4.21    0.46
  -7   6  16    6.60    0.53
   7  -6 -16    6.62    0.82
  -7   6 -16    6.43    0.48
   0  -7  16    1.78    0.41
   0  -7 -16    1.23    0.35
   0  -7 -16    2.55    0.42
   0   7 -16    2.21    0.34
   1   7 -16    2.35    0.35
   1  -7  16    2.61    0.47
  -1  -7 -16    2.66    0.49
  -1  -7 -16    2.61    0.41
   1  -7 -16    2.21    0.42
  -1   7 -16    2.43    0.34
  -1  -7  16    3.22    0.60
   1  -7 -16    2.42    0.40
   2  -7  16   30.58    1.57
   2   7 -16   30.41    1.38
  -2  -7 -16   32.10    1.42
  -2   7 -16   31.07    1.36
  -2  -7  16   31.22    1.53
   2  -7 -16   32.25    1.55
   2  -7 -16   31.73    1.46
  -3  -7 -16    0.02    0.26
  -3  -7  16    0.13    0.33
  -3   7 -16    0.14    0.23
   3  -7 -16   -0.02    0.39
   3  -7 -16    0.51    0.30
  -4   7  16   12.99    0.80
  -4  -7 -16   13.94    0.80
   4  -7 -16   15.28    1.20
  -4  -7  16   13.74    0.96
  -4   7 -16   14.18    0.75
   4  -7 -16   13.30    0.80
  -5   7  16    4.64    0.51
  -5  -7 -16    5.27    0.59
  -5  -7  16    6.26    0.76
   5  -7 -16    5.78    0.52
  -5   7 -16    6.09    0.47
  -6   7  16    1.70    0.29
  -6   7 -16    1.91    0.33
   0  -8 -16    0.15    0.33
   0   8 -16    0.49    0.24
   0  -8 -16    0.85    0.63
   1  -8  16    1.59    0.43
  -1  -8 -16    1.88    0.40
  -1  -8 -16    1.68    0.38
   1  -8 -16    2.19    0.44
  -1  -8  16    1.84    0.44
  -1   8 -16    1.69    0.28
   1  -8 -16    2.19    0.37
  -2   8  16   11.46    0.68
   2  -8  16   11.66    0.97
  -2  -8 -16   11.74    0.79
  -2  -8 -16   12.73    0.86
  -2   8 -16   10.72    0.63
  -2  -8  16   10.89    0.84
   2  -8 -16   11.48    0.87
   2  -8 -16   10.65    0.75
  -3   8  16    9.67    0.62
  -3  -8 -16    9.83    0.76
   3  -8  16   11.02    1.24
  -3  -8  16    9.95    0.84
  -3   8 -16   10.81    0.59
   3  -8 -16    8.93    0.89
   3  -8 -16   10.43    0.67
  -4   8  16    1.83    0.29
   4  -8 -16    1.53    0.29
  -4  -8  16    2.09    0.48
  -4   8 -16    1.98    0.33
  -5   8  16   -0.07    0.20
   5  -8 -16    0.06    0.27
  -5   8 -16   -0.03    0.18
   0  -9 -16    1.27    0.33
   0  -9 -16    0.67    0.40
   0  -9  16    0.80    0.44
   1  -9  16    1.57    0.49
  -1  -9 -16    2.75    0.43
  -1  -9  16    3.79    0.70
   1  -9 -16    3.79    0.66
   1  -9 -16    2.52    0.45
  -2  -9 -16    6.04    0.79
   2  -9 -16    5.74    0.50
  -2  -9  16    5.15    0.84
   3  -9 -16    2.81    0.38
  -3   9 -16    2.74    0.34
   0   0 -17    0.72    0.26
   0   0 -17    0.61    0.45
  -1   0 -17   25.68    1.13
  -1   0 -17   25.73    1.42
  -1   0 -17   24.71    1.14
   1   0 -17   25.50    1.28
   1   0 -17   27.46    1.37
   1   0 -17   26.09    1.20
   2   0 -17    2.68    0.47
   2   0 -17    2.81    0.49
  -2   0 -17    3.23    0.36
  -2   0 -17    3.99    0.42
  -3   0 -17   35.91    1.48
  -3   0  17   37.64    1.72
   3   0 -17   36.31    1.69
  -3   0 -17   35.38    1.49
   4   0 -17   36.98    1.68
  -4   0 -17   32.43    1.59
  -4   0 -17   35.29    1.45
  -4   0  17   37.08    1.71
  -5   0  17    7.01    0.81
  -5   0 -17    6.52    0.50
  -5   0 -17    7.02    0.47
   5   0 -17    7.05    0.77
  -6   0 -17    1.63    0.28
  -6   0 -17    1.43    0.24
   6   0 -17    1.53    0.43
  -6   0  17    1.97    0.51
  -7   0 -17   22.07    1.00
   7   0 -17   21.79    1.16
  -7   0 -17   21.45    0.93
  -7   0  17   18.30    1.66
  -8   0 -17    9.21    0.64
  -8   0  17    9.77    0.58
  -8   0 -17    9.82    0.50
   8   0 -17    9.53    0.69
   9   0 -17    6.49    0.52
  -9   0 -17    7.08    0.38
  -9   0  17    7.21    0.41
   0   1 -17   69.83    2.66
   0  -1  17   68.57    2.79
   0  -1 -17   70.41    2.69
   0   1 -17   67.06    2.77
   0  -1 -17   67.21    2.91
   0  -1 -17   68.87    2.66
   1   1 -17   41.86    1.81
  -1  -1 -17   43.90    1.76
   1   1 -17   41.83    1.88
  -1  -1 -17   43.21    1.75
  -1   1 -17   42.93    1.90
   1  -1 -17   45.44    1.86
   1  -1 -17   44.81    1.81
  -1  -1  17   41.69    1.88
   1  -1 -17   45.39    2.04
  -1   1 -17   43.77    1.75
  -1   1 -17   43.23    1.79
  -2  -1 -17    8.49    0.53
   2   1 -17    7.93    0.72
  -2  -1 -17    8.22    0.49
   2  -1 -17    7.39    0.70
  -2  -1  17    6.13    0.65
   2  -1 -17    6.35    0.86
  -2   1 -17    7.50    0.80
   2  -1 -17    7.66    0.80
  -2   1 -17    6.20    0.52
  -2   1 -17    6.53    0.51
  -3  -1 -17   48.90    1.90
   3   1 -17   49.36    2.07
  -3  -1 -17   50.05    1.88
  -3  -1  17   46.06    2.06
   3  -1 -17   46.27    2.02
  -3   1 -17   46.89    2.06
  -3   1 -17   45.46    1.90
   3  -1 -17   46.24    2.10
  -3   1 -17   47.50    1.87
  -4  -1 -17    7.16    0.50
  -4  -1 -17    7.67    0.50
   4   1 -17    7.30    0.77
   4  -1 -17    6.51    0.81
  -5  -1 -17   21.18    0.96
  -5  -1 -17   20.89    0.95
   5   1 -17   19.69    1.19
   5  -1 -17   20.99    1.20
  -5   1 -17   20.61    0.92
  -5  -1  17   20.32    1.22
  -5   1 -17   20.46    0.97
   6   1 -17   21.81    1.22
  -6  -1 -17   21.28    1.00
  -6  -1 -17   21.33    0.97
   6  -1 -17   22.09    1.24
  -6   1 -17   22.58    1.03
  -6   1 -17   21.84    0.95
  -6  -1  17   21.38    1.26
  -7  -1 -17    2.81    0.39
  -7  -1 -17    2.99    0.33
   7   1 -17    3.48    0.61
  -7   1  17    3.20    0.48
   7  -1 -17    3.29    0.48
  -7  -1  17    4.19    0.76
  -7   1 -17    3.36    0.32
  -8  -1 -17    0.18    0.15
  -8   1  17    0.28    0.21
   8   1 -17   -0.26    0.28
  -8  -1 -17    0.07    0.22
  -8  -1  17   -0.15    0.49
  -8   1 -17    0.29    0.15
   8  -1 -17    0.35    0.29
  -8   1 -17    1.25    0.40
  -9  -1 -17    1.74    0.24
   9  -1 -17    2.02    0.30
  -9   1 -17    1.98    0.31
  -9  -1  17    1.73    0.23
   0   2 -17    0.12    0.33
   0  -2  17    0.26    0.31
   0  -2 -17    0.29    0.19
   0  -2 -17    0.50    0.24
   1   2 -17   29.30    1.42
  -1  -2 -17   29.85    1.32
   1  -2  17   31.04    1.50
  -1  -2 -17   31.53    1.32
   1  -2 -17   31.17    1.40
   1  -2 -17   31.96    1.38
  -1   2 -17   31.31    1.44
  -1   2 -17   31.89    1.32
  -1  -2  17   29.84    1.44
  -2  -2 -17   16.47    0.88
   2   2 -17   16.91    1.02
  -2  -2 -17   16.74    0.85
  -2  -2  17   18.70    1.02
   2  -2 -17   20.18    1.03
   2  -2 -17   18.25    1.27
   2  -2 -17   19.23    1.05
  -2   2 -17   20.00    0.87
  -3  -2 -17   18.43    0.87
  -3  -2 -17   18.50    0.85
   3  -2 -17   17.91    1.06
  -3  -2  17   17.12    1.01
  -3   2 -17   17.38    0.86
  -3   2 -17   17.77    1.04
   3  -2 -17   18.74    1.20
  -3   2 -17   17.28    0.92
   3  -2 -17   17.69    1.19
  -4  -2 -17   33.53    1.32
  -4  -2 -17   34.75    1.34
   4   2 -17   34.65    1.62
   4  -2 -17   30.41    1.59
  -4   2 -17   31.33    1.49
  -4   2 -17   29.22    1.28
  -4   2 -17   29.06    1.37
  -4  -2  17   29.04    1.50
   4  -2 -17   29.00    1.46
   5   2 -17    0.56    0.39
  -5  -2 -17    0.56    0.21
  -5  -2 -17    0.44    0.19
  -5   2 -17    0.67    0.30
   5  -2 -17    1.44    0.46
  -5   2 -17    0.47    0.19
  -5   2 -17    0.60    0.43
  -6  -2 -17   19.53    0.93
   6   2 -17   20.52    1.16
  -6  -2 -17   20.93    0.97
  -6   2  17   20.35    0.98
  -6   2 -17   21.63    0.92
  -6   2 -17   21.22    1.07
  -6  -2  17   21.93    1.24
   6  -2 -17   21.70    1.22
   7   2 -17    7.50    0.69
  -7   2  17    7.42    0.50
  -7  -2 -17    7.71    0.51
  -7  -2 -17    7.22    0.47
   7  -2 -17    7.95    1.06
  -7   2 -17    7.60    0.46
  -8  -2 -17    1.15    0.24
  -8   2  17    2.32    0.83
  -8  -2 -17    1.03    0.18
   8   2 -17    1.04    0.30
  -8  -2  17    0.84    0.46
   8  -2 -17    0.75    0.30
  -8   2 -17    0.79    0.16
   0  -3  17    0.75    0.33
   0   3 -17    0.57    0.31
   0  -3 -17    0.54    0.23
   0  -3 -17    0.79    0.28
  -1  -3 -17  101.96    3.82
  -1  -3 -17  102.58    3.85
   1  -3  17  104.81    3.97
   1   3 -17  107.79    3.92
  -1   3 -17  100.18    3.89
   1  -3 -17   95.96    3.90
   1  -3 -17  101.19    3.88
  -1  -3  17   97.71    3.96
   2  -3  17   15.79    1.10
  -2  -3 -17   18.26    0.84
  -2  -3 -17   17.47    0.86
   2  -3 -17   16.32    0.98
  -2   3 -17   16.40    0.94
  -2  -3  17   15.89    0.97
   3   3 -17    2.39    0.43
  -3  -3 -17    1.96    0.30
  -3  -3 -17    2.74    0.34
  -3   3 -17    1.77    0.37
   3  -3 -17    2.61    0.72
  -3  -3  17    1.59    0.37
   3  -3 -17    2.76    0.83
   3  -3 -17    2.53    0.44
  -3   3 -17    2.83    0.42
  -4  -3 -17   17.98    0.94
   4   3 -17   18.90    1.13
  -4  -3 -17   19.03    0.93
  -4  -3  17   21.73    1.18
  -4   3 -17   22.31    1.11
   4  -3 -17   22.10    1.13
   4  -3 -17   20.93    1.31
  -4   3 -17   20.90    0.91
   5   3 -17    9.94    0.80
  -5  -3 -17    7.83    0.55
  -5  -3 -17    8.82    0.55
  -5  -3  17    9.16    0.80
  -5   3 -17    8.89    0.53
   5  -3 -17    8.44    0.85
  -5   3 -17   10.13    0.76
   5  -3 -17    9.88    0.96
  -6  -3 -17    5.20    0.42
   6   3 -17    5.90    0.64
  -6  -3 -17    6.02    0.43
  -6   3 -17    5.03    0.40
   6  -3 -17    5.65    0.76
  -6  -3  17    4.84    0.73
  -6   3 -17    5.47    0.65
  -7  -3 -17    9.46    0.52
   7   3 -17    9.19    0.67
  -7  -3 -17    9.86    0.56
  -7   3 -17    8.80    0.80
  -7   3 -17    9.05    0.50
   7  -3 -17   10.06    0.77
  -7  -3  17    9.88    0.88
  -8  -3 -17    1.10    0.19
  -8   3  17    2.09    0.51
  -8  -3 -17    1.12    0.23
  -8  -3  17    1.45    0.45
   8  -3 -17    0.98    0.32
   0  -4  17    0.45    0.34
   0  -4 -17    0.79    0.34
   0  -4 -17    0.29    0.29
   0   4 -17    0.64    0.30
   1   4 -17    3.33    0.56
  -1  -4 -17    2.54    0.39
  -1  -4 -17    2.69    0.48
   1  -4  17    2.42    0.55
   1  -4 -17    3.25    0.53
  -1   4 -17    2.96    0.51
  -1  -4  17    2.49    0.46
  -2  -4 -17    5.01    0.43
   2  -4  17    4.48    0.78
   2   4 -17    4.70    0.62
  -2  -4 -17    4.68    0.54
  -2  -4  17    4.34    0.59
  -2   4 -17    5.09    0.56
   2  -4 -17    5.73    0.60
   2  -4 -17    5.13    0.64
  -3  -4 -17    9.37    0.62
  -3  -4 -17    9.97    0.56
   3   4 -17    9.65    0.76
   3  -4 -17    7.27    0.81
  -3  -4  17    7.96    0.71
  -3   4 -17    7.29    0.67
   3  -4 -17    7.63    0.72
  -4  -4 -17    0.08    0.25
  -4  -4 -17    0.25    0.18
   4   4 -17   -0.09    0.33
  -4   4 -17    0.23    0.29
   4  -4 -17    0.13    0.60
   4  -4 -17    0.71    0.35
  -4  -4  17   -0.08    0.27
   4  -4 -17   -0.20    0.60
  -5  -4 -17   21.32    0.95
  -5  -4 -17   20.46    0.95
   5   4 -17   21.64    1.08
  -5  -4  17   19.74    1.17
  -5   4 -17   19.32    1.05
   5  -4 -17   21.74    1.32
   5  -4 -17   20.06    1.07
   6   4 -17    1.78    0.34
  -6  -4 -17    1.67    0.32
  -6  -4 -17    1.14    0.23
  -6   4 -17    0.69    0.32
   6  -4 -17    1.56    0.47
  -6  -4  17    0.56    0.40
  -7  -4 -17   15.89    0.77
  -7  -4 -17   15.60    0.73
  -7   4  17   16.67    1.01
  -7   4 -17   16.06    0.88
  -7  -4  17   15.70    1.04
   7  -4 -17   16.88    0.96
   8  -4 -17    6.36    0.57
  -8   4 -17    7.69    0.70
   0   5 -17   16.74    0.96
   0  -5  17   16.89    1.05
   0  -5 -17   17.16    0.96
   0  -5 -17   18.57    0.97
   1   5 -17   18.47    1.02
  -1  -5 -17   18.02    0.99
   1  -5  17   19.30    1.13
  -1  -5 -17   19.02    0.97
  -1   5 -17   19.47    1.01
  -1  -5  17   20.06    1.12
   1  -5 -17   19.37    1.03
   1  -5 -17   20.14    1.07
   2  -5  17   43.96    2.04
  -2  -5 -17   45.02    1.88
  -2  -5 -17   47.74    1.89
   2   5 -17   46.89    1.94
  -2  -5  17   45.96    2.03
   2  -5 -17   44.88    1.96
   2  -5 -17   44.88    2.03
  -2   5 -17   44.70    1.91
   3   5 -17    1.20    0.35
  -3  -5 -17    1.08    0.30
   3  -5  17    1.35    0.57
  -3  -5 -17    0.49    0.21
   3  -5 -17    0.67    0.41
   3  -5 -17    0.56    0.32
  -3   5 -17    0.62    0.30
  -3  -5  17    0.68    0.34
  -4  -5 -17    6.57    0.47
  -4  -5 -17    5.59    0.50
   4   5 -17    5.25    0.61
   4  -5 -17    5.44    1.07
  -4  -5  17    5.07    0.66
  -4   5 -17    4.46    0.54
   4  -5 -17    4.94    0.62
  -5  -5 -17   19.97    0.93
   5   5 -17   20.60    0.98
  -5  -5 -17   20.46    0.93
  -5   5 -17   19.71    1.00
   5  -5 -17   19.30    1.04
  -5  -5  17   20.84    1.17
   5  -5 -17   19.65    1.42
  -6  -5 -17    3.32    0.39
  -6  -5 -17    2.91    0.38
  -6   5 -17    3.77    0.47
  -7   5  17    1.91    0.37
  -7  -5 -17    2.77    0.34
  -7  -5 -17    1.63    0.27
   7  -5 -17    2.55    0.43
  -7  -5  17    2.06    0.50
  -7   5 -17    2.72    0.43
   0   6 -17    8.20    0.65
   0  -6  17    8.14    0.76
   0  -6 -17    7.93    0.67
   0  -6 -17    7.87    0.67
   1  -6  17   12.79    0.96
  -1  -6 -17   11.84    0.83
   1   6 -17   13.01    0.82
  -1  -6 -17   13.04    0.81
  -1  -6  17   14.37    0.95
   1  -6 -17   14.96    0.88
  -1   6 -17   13.91    0.82
   1  -6 -17   15.78    0.94
   2   6 -17    3.53    0.54
  -2  -6 -17    3.91    0.57
   2  -6  17    4.44    0.79
  -2  -6 -17    4.43    0.50
   2  -6 -17    4.74    0.60
   2  -6 -17    4.91    0.66
  -2   6 -17    4.08    0.51
  -2  -6  17    4.60    0.65
  -3  -6 -17    9.76    0.62
   3   6 -17    9.25    0.67
  -3  -6 -17   10.14    0.67
   3  -6  17   10.68    1.13
  -3  -6  17    8.52    0.78
   3  -6 -17    8.34    0.70
  -3   6 -17    8.42    0.63
  -4  -6 -17    1.12    0.32
  -4  -6 -17    0.98    0.25
  -4   6 -17    1.14    0.29
   4  -6 -17    1.18    0.67
   4  -6 -17    0.82    0.30
  -4  -6  17    0.58    0.36
  -5  -6 -17    1.76    0.32
  -5  -6 -17    2.00    0.40
  -5   6 -17    1.08    0.27
   5  -6 -17    1.01    0.30
  -5  -6  17    1.23    0.39
  -6  -6 -17    0.25    0.25
  -6   6  17   -0.25    0.26
  -6  -6 -17    0.18    0.36
  -6   6 -17    0.13    0.21
  -6  -6  17    0.38    0.43
   0  -7  17    1.87    0.43
   0  -7 -17    2.17    0.41
   0   7 -17    2.26    0.33
   0  -7 -17    1.76    0.37
   1  -7  17    8.72    0.84
  -1  -7 -17    8.88    0.70
   1   7 -17    7.92    0.60
  -1  -7 -17    8.59    0.77
   1  -7 -17    9.08    0.73
  -1   7 -17    9.06    0.63
  -1  -7  17   10.04    0.83
   1  -7 -17    9.71    0.81
   2  -7  17   11.19    0.96
  -2  -7 -17    9.91    0.71
  -2  -7 -17   10.85    0.70
   2   7 -17    9.67    0.65
  -2   7 -17    9.99    0.64
   2  -7 -17   10.36    0.74
   2  -7 -17    9.83    0.88
  -2  -7  17    9.89    0.83
   3  -7  17   12.78    1.34
  -3  -7 -17   13.47    0.84
  -3  -7 -17   12.40    0.77
   3  -7 -17   14.35    1.04
   3  -7 -17   13.01    0.82
  -3   7 -17   13.75    0.75
  -4  -7 -17    3.56    0.51
  -4  -7 -17    3.09    0.42
  -4   7  17    2.75    0.47
  -4   7 -17    3.16    0.41
  -4  -7  17    2.89    0.48
   4  -7 -17    3.10    0.73
   4  -7 -17    3.12    0.46
  -5   7  17    3.54    0.46
  -5  -7  17    5.07    0.82
   5  -7 -17    4.64    0.47
  -5   7 -17    5.14    0.42
  -6   7  17    3.67    0.42
  -6   7 -17    5.43    0.40
   0  -8 -17   11.04    0.75
   0  -8  17   10.42    0.89
   0   8 -17    9.85    0.59
   0  -8 -17   11.56    0.85
   1  -8  17    0.72    0.45
  -1  -8 -17    1.02    0.35
  -1  -8 -17    1.33    0.33
  -1  -8  17    0.92    0.40
   1  -8 -17    0.66    0.30
  -1   8 -17    0.64    0.23
   1  -8 -17    0.76    0.38
   2  -8  17    3.36    0.62
  -2  -8 -17    3.68    0.61
  -2   8  17    4.39    0.66
  -2  -8 -17    4.06    0.60
   2  -8 -17    3.87    0.73
  -2  -8  17    3.60    0.68
  -2   8 -17    4.12    0.41
   2  -8 -17    4.22    0.51
  -3   8  17    3.38    0.46
  -3  -8 -17    3.94    0.65
  -3  -8 -17    3.58    0.46
  -3   8 -17    3.61    0.38
   3  -8 -17    3.29    0.43
   3  -8 -17    2.72    0.58
  -3  -8  17    3.17    0.51
  -4   8  17    2.63    0.39
  -4   8 -17    2.31    0.32
   4  -8 -17    1.62    0.28
   0  -9 -17    8.55    0.62
  -1  -9 -17    7.57    0.87
   1  -9 -17    6.54    0.53
  -2  -9 -17    5.75    0.71
   2  -9 -17    5.60    0.46
   0   0 -18    2.25    0.33
   0   0 -18    2.88    0.55
   0   0 -18    1.69    0.34
  -1   0 -18   64.29    2.56
  -1   0 -18   64.90    2.52
  -1   0 -18   66.02    2.72
   1   0 -18   65.88    2.56
   1   0 -18   64.06    2.68
  -2   0 -18   72.98    3.08
   2   0 -18   74.73    2.91
  -2   0 -18   75.63    2.83
  -2   0 -18   75.05    2.87
  -2   0  18   72.37    3.05
  -3   0 -18    0.15    0.19
   3   0 -18    0.15    0.39
  -3   0  18    1.16    0.48
  -3   0 -18    0.48    0.20
   4   0 -18    8.00    0.99
  -4   0 -18    6.89    0.51
  -4   0  18    7.20    0.85
  -4   0 -18    6.88    0.51
  -5   0 -18   12.36    0.67
   5   0 -18   12.45    0.93
  -5   0  18   14.11    1.08
  -5   0 -18   13.75    0.74
  -6   0  18    5.67    0.97
   6   0 -18    5.55    0.72
  -6   0 -18    6.42    0.51
  -6   0 -18    5.92    0.43
  -7   0 -18    0.86    0.19
  -7   0 -18    0.68    0.25
   7   0 -18    0.95    0.37
  -8   0 -18    6.98    0.40
   8   0 -18    6.08    0.56
  -8   0  18    6.23    0.45
   0  -1 -18    1.54    0.61
   0  -1 -18    1.60    0.30
   0  -1 -18    2.00    0.32
   0   1 -18    2.05    0.34
   0   1 -18    1.27    0.40
  -1  -1 -18  143.30    5.25
   1   1 -18  139.12    5.27
  -1  -1 -18  147.38    5.30
   1   1 -18  144.36    5.37
   1  -1 -18  137.71    5.35
  -1  -1  18  139.26    5.40
  -1   1 -18  142.99    5.38
  -1   1 -18  136.91    5.30
   1  -1 -18  146.01    5.30
  -1   1 -18  141.99    5.24
  -2  -1 -18   45.19    1.83
  -2  -1 -18   42.92    1.84
   2   1 -18   41.77    1.97
  -2   1 -18   47.72    1.82
  -2  -1  18   45.09    2.00
   2  -1 -18   47.16    2.06
  -2   1 -18   44.95    1.87
   2  -1 -18   48.04    1.94
  -2   1 -18   47.61    2.00
  -3  -1 -18    1.21    0.38
   3   1 -18    1.66    0.40
  -3  -1 -18    1.37    0.26
  -3   1 -18    2.06    0.37
  -3   1 -18    2.01    0.52
  -3  -1  18    1.18    0.39
   3  -1 -18    0.73    0.43
  -3   1 -18    1.81    0.30
  -4  -1 -18   69.25    2.68
  -4  -1 -18   69.82    2.65
   4   1 -18   69.45    2.85
  -4  -1  18   70.99    2.90
  -4   1 -18   68.26    2.64
   4  -1 -18   70.28    2.96
  -4   1 -18   66.44    2.68
  -5  -1 -18   68.43    2.67
  -5  -1 -18   70.63    2.72
   5   1 -18   69.73    2.88
  -5  -1  18   70.36    2.93
   5  -1 -18   71.26    2.91
  -5   1 -18   69.58    2.67
  -5   1 -18   70.45    2.72
  -6  -1 -18    0.69    0.19
   6   1 -18    0.84    0.37
  -6  -1 -18    0.87    0.23
  -6   1 -18    0.80    0.20
   6  -1 -18    1.16    0.40
  -6   1 -18    0.95    0.29
  -6  -1  18    0.50    0.44
  -7  -1 -18    3.83    0.44
  -7  -1 -18    4.74    0.36
   7   1 -18    4.42    0.59
  -7   1  18    4.67    0.44
   7  -1 -18    3.07    0.47
  -7  -1  18    3.42    0.58
  -7   1 -18    3.11    0.55
  -7   1 -18    3.37    0.34
  -8  -1 -18    0.04    0.14
  -8  -1 -18    0.43    0.25
   8   1 -18   -0.01    0.27
  -8   1  18    0.25    0.26
  -8   1 -18    0.06    0.15
   8  -1 -18    0.46    0.28
   0   2 -18   92.97    3.59
   0  -2  18   88.73    3.62
   0  -2 -18   90.99    3.54
   0  -2 -18   95.54    3.52
   1  -2  18   15.30    1.28
  -1  -2 -18   14.08    0.77
  -1  -2 -18   15.08    0.78
   1   2 -18   15.07    0.91
  -1   2 -18   15.39    0.82
  -1   2 -18   14.77    0.92
   1  -2 -18   14.74    0.84
   1  -2 -18   14.70    1.29
   1  -2 -18   14.63    0.86
  -1  -2  18   15.19    0.95
  -2   2 -18    4.73    0.64
   2  -2 -18    4.26    0.66
  -2  -2  18    5.20    0.62
   2  -2 -18    5.47    0.70
  -2   2 -18    4.82    0.47
  -3  -2 -18   26.04    1.18
   3   2 -18   24.99    1.33
  -3  -2 -18   24.91    1.19
  -3  -2  18   28.11    1.42
   3  -2 -18   29.77    1.35
   3  -2 -18   29.66    1.53
  -3   2 -18   29.15    1.36
  -3   2 -18   28.29    1.17
   4   2 -18    1.17    0.40
  -4  -2 -18    1.44    0.24
  -4  -2 -18    1.06    0.22
   4  -2 -18    0.64    0.43
  -4  -2  18    1.46    0.39
  -4   2 -18    0.98    0.23
  -4   2 -18    1.36    0.41
   4  -2 -18    0.82    0.45
  -5  -2 -18    5.33    0.43
  -5   2  18    4.42    0.55
   5   2 -18    5.94    0.72
  -5  -2 -18    5.73    0.46
   5  -2 -18    4.43    0.62
  -5  -2  18    5.00    0.75
  -5   2 -18    4.68    0.40
  -5   2 -18    4.30    0.56
  -6  -2 -18    4.40    0.39
   6   2 -18    4.89    0.64
  -6  -2 -18    4.28    0.44
  -6  -2  18    5.08    0.75
   6  -2 -18    5.90    0.71
  -6   2 -18    4.74    0.37
  -7  -2 -18    5.88    0.40
   7   2 -18    5.96    0.60
  -7  -2 -18    5.25    0.46
  -7   2 -18    5.44    0.38
  -7  -2  18    5.65    0.81
   7  -2 -18    6.21    0.63
  -8  -2 -18    0.76    0.16
  -8  -2 -18    0.41    0.24
   8   2 -18    0.67    0.28
  -8   2 -18    0.49    0.17
   8  -2 -18    0.75    0.28
   0  -3  18   71.67    2.93
   0  -3 -18   71.90    2.84
   0   3 -18   70.34    2.89
   0  -3 -18   73.18    2.87
  -1  -3 -18   35.89    1.46
   1   3 -18   36.95    1.55
   1  -3  18   35.72    1.65
   1  -3 -18   32.81    1.48
  -1  -3  18   31.64    1.59
   1  -3 -18   31.75    1.60
  -1   3 -18   32.17    1.51
  -2  -3 -18   62.43    2.35
  -2  -3 -18   61.63    2.33
   2   3 -18   59.51    2.44
   2  -3 -18   58.08    2.41
  -2  -3  18   57.22    2.49
   2  -3 -18   57.66    2.50
  -2   3 -18   57.65    2.40
  -3  -3 -18    0.68    0.21
  -3  -3 -18    0.58    0.24
   3   3 -18   -0.10    0.33
   3  -3 -18    0.93    0.35
  -3   3 -18    0.27    0.31
   3  -3 -18    0.28    0.44
  -3  -3  18    0.67    0.33
  -4  -3 -18   23.23    1.02
   4   3 -18   24.25    1.22
  -4  -3 -18   23.90    1.03
  -4   3 -18   20.76    1.14
  -4  -3  18   22.86    1.25
   4  -3 -18   21.11    1.16
   4  -3 -18   21.12    1.33
  -4   3 -18   21.33    0.97
  -5  -3 -18    8.15    0.53
  -5  -3 -18    8.16    0.53
   5   3 -18    8.62    0.74
   5  -3 -18    9.17    0.90
  -5   3 -18    7.48    0.49
  -5   3 -18    7.79    0.70
  -6  -3 -18   15.99    0.78
  -6   3 -18   15.09    0.70
  -6   3 -18   15.54    0.93
  -6  -3  18   15.43    1.06
  -7  -3 -18    2.20    0.30
   7   3 -18    2.30    0.34
  -7  -3 -18    2.25    0.35
  -7   3 -18    2.62    0.45
  -7  -3  18    1.74    0.47
   7  -3 -18    2.62    0.41
  -8   3  18    0.09    0.44
  -8  -3 -18    0.04    0.14
   8  -3 -18    0.03    0.25
   0  -4 -18    9.75    0.68
   0  -4 -18   10.89    0.78
   0  -4  18    9.03    0.78
  -1  -4 -18    4.33    0.46
   1  -4  18    3.63    0.66
   1   4 -18    5.81    0.92
  -1  -4  18    2.39    0.43
   1  -4 -18    3.41    0.52
  -1   4 -18    2.81    0.51
   1  -4 -18    3.61    0.63
  -2  -4 -18   11.49    0.71
   2  -4  18   12.67    1.05
   2   4 -18   12.64    0.82
  -2  -4 -18   11.97    0.71
   2  -4 -18   12.91    0.92
   2  -4 -18   12.75    0.82
  -2  -4  18   13.05    0.89
  -2   4 -18   12.96    0.80
  -3  -4 -18   20.57    0.98
  -3  -4 -18   19.41    0.97
   3   4 -18   19.98    1.11
   3  -4 -18   20.07    1.25
  -3   4 -18   21.41    1.08
   3  -4 -18   22.04    1.12
  -3  -4  18   21.34    1.18
   4   4 -18    0.56    0.35
  -4  -4 -18    0.63    0.23
  -4  -4 -18    0.56    0.20
  -4  -4  18   -0.20    0.31
  -4   4 -18    0.22    0.30
   4  -4 -18    0.23    0.32
   4  -4 -18    0.36    0.58
  -5  -4 -18    0.48    0.20
  -5  -4 -18    0.40    0.21
   5   4 -18    0.64    0.32
   5  -4 -18    0.92    0.49
  -5  -4  18    0.70    0.36
   5  -4 -18    0.49    0.40
  -5   4 -18    0.47    0.29
   6   4 -18   14.92    0.83
  -6  -4 -18   15.61    0.74
  -6  -4 -18   15.28    0.78
  -6   4 -18   15.93    0.87
  -6  -4  18   16.55    1.07
   6  -4 -18   17.80    1.05
  -7  -4 -18    0.64    0.22
  -7   4  18    1.36    0.37
  -7  -4 -18    0.80    0.19
  -7   4 -18    0.56    0.30
   7  -4 -18    0.96    0.35
  -7  -4  18    0.29    0.43
   0  -5 -18   15.50    0.90
   0   5 -18   16.30    0.91
   0  -5 -18   15.73    0.89
   0  -5  18   14.38    1.01
  -1  -5 -18   13.78    0.84
   1   5 -18   14.42    0.88
   1  -5  18   15.13    1.04
  -1  -5 -18   15.28    0.86
  -1   5 -18   15.80    0.88
  -1  -5  18   15.71    1.00
   1  -5 -18   14.78    0.93
   1  -5 -18   14.80    0.87
  -2  -5 -18    9.61    0.66
   2  -5  18    9.38    0.97
   2   5 -18   10.32    0.74
  -2  -5 -18    9.74    0.65
   2  -5 -18    9.05    0.83
   2  -5 -18    9.88    0.74
  -2  -5  18   10.94    0.83
  -2   5 -18    9.59    0.70
  -3  -5 -18    5.09    0.48
   3   5 -18    5.42    0.60
  -3  -5 -18    4.62    0.50
   3  -5 -18    5.24    0.60
  -3  -5  18    4.99    0.65
   3  -5 -18    4.67    0.81
  -3   5 -18    4.47    0.53
  -4  -5 -18    8.81    0.59
   4   5 -18    9.81    0.69
  -4  -5 -18    9.34    0.59
   4  -5 -18    8.97    0.70
  -4  -5  18    9.62    0.80
  -4   5 -18    9.33    0.66
  -5  -5 -18   16.07    0.77
   5   5 -18   16.96    0.82
  -5  -5  18   16.93    1.25
   5  -5 -18   14.71    0.86
   5  -5 -18   15.26    1.28
  -5   5 -18   15.01    0.85
  -6  -5 -18    1.96    0.28
  -6  -5 -18    2.22    0.34
  -6   5  18    1.67    0.37
  -6  -5  18    2.53    0.49
   6  -5 -18    2.05    0.50
  -6   5 -18    1.55    0.29
  -7  -5 -18    1.43    0.22
  -7   5  18    1.52    0.33
   7  -5 -18    2.05    0.42
  -7   5 -18    1.91    0.31
   0  -6 -18   22.46    1.13
   0   6 -18   23.64    1.12
   0  -6 -18   22.29    1.18
   0  -6  18   23.74    1.28
   1  -6  18    0.36    0.39
  -1  -6 -18    0.52    0.28
   1   6 -18    0.94    0.30
  -1  -6 -18    0.88    0.30
   1  -6 -18    1.00    0.37
  -1   6 -18    1.24    0.30
  -1  -6  18    0.73    0.37
   1  -6 -18    0.76    0.32
  -2  -6 -18    9.34    0.70
   2  -6  18   10.23    1.06
  -2  -6 -18   10.04    0.69
   2   6 -18    9.36    0.69
  -2   6 -18   12.18    0.71
   2  -6 -18   10.96    0.75
  -2  -6  18   10.26    0.85
   2  -6 -18   11.73    0.90
  -3  -6 -18    4.66    0.51
  -3  -6 -18    4.85    0.55
  -3   6 -18    4.54    0.50
   3  -6 -18    4.15    0.56
  -3  -6  18    4.39    0.68
   3  -6 -18    5.60    0.87
  -4  -6 -18   16.53    0.83
  -4  -6 -18   16.62    0.83
   4  -6 -18   13.49    1.79
   4  -6 -18   16.77    0.90
  -4  -6  18   17.55    1.45
  -4   6 -18   17.09    0.87
  -5  -6 -18    0.92    0.26
  -5   6  18    1.04    0.32
  -5  -6 -18    1.38    0.28
   5  -6 -18    0.88    0.30
  -5   6 -18    0.88    0.24
  -5  -6  18    0.48    0.42
  -6   6  18    0.28    0.25
  -6  -6 -18    0.32    0.24
  -6   6 -18    0.30    0.21
   0  -7  18    1.06    0.42
   0  -7 -18    1.35    0.34
   0  -7 -18    0.90    0.36
   0   7 -18    0.57    0.38
  -1  -7 -18   18.89    0.94
  -1  -7 -18   19.60    1.01
   1   7 -18   18.26    0.87
   1  -7 -18   16.88    0.97
   1  -7 -18   17.03    1.06
  -1  -7  18   15.43    1.05
  -2  -7 -18    2.09    0.35
   2  -7  18    1.89    0.60
   2   7 -18    1.91    0.31
  -2  -7 -18    1.88    0.35
  -2   7 -18    1.67    0.29
   2  -7 -18    1.67    0.35
  -2  -7  18    1.77    0.51
   2  -7 -18    1.79    0.45
  -3  -7 -18    0.67    0.30
  -3  -7 -18    0.79    0.29
  -3   7  18    0.74    0.29
  -3   7 -18    1.01    0.26
  -3  -7  18    0.99    0.40
   3  -7 -18    0.70    0.29
   3  -7 -18    1.26    0.51
  -4  -7 -18    5.72    0.58
  -4  -7 -18    6.91    0.61
  -4   7  18    5.54    0.52
  -4  -7  18    6.56    0.79
  -4   7 -18    5.86    0.47
   4  -7 -18    6.08    0.51
  -5  -7 -18    6.04    0.56
  -5   7  18    4.42    0.45
  -5   7 -18    5.23    0.42
   0  -8 -18    1.67    0.42
   0   8 -18    1.53    0.26
   0  -8  18    1.26    0.46
   0  -8 -18    1.11    0.32
  -1  -8 -18    2.10    0.42
  -1  -8 -18    3.06    0.53
   1  -8  18    2.83    0.55
  -1   8 -18    2.98    0.38
  -1  -8  18    2.76    0.50
   1  -8 -18    2.62    0.47
   1  -8 -18    2.64    0.46
  -2  -8 -18    7.88    0.72
  -2  -8 -18    7.05    0.63
   2  -8 -18    8.16    0.57
  -2   8 -18    7.86    0.48
  -2  -8  18    6.79    0.84
   2  -8 -18    7.41    0.83
  -3  -8 -18    3.97    0.56
  -3  -8  18    4.12    0.81
  -3   8 -18    3.94    0.38
   3  -8 -18    3.66    0.43
  -4  -8 -18    0.33    0.50
  -4   8  18    0.98    0.23
   4  -8 -18    0.76    0.24
  -4   8 -18    0.54    0.20
  -1  -9 -18    1.03    0.30
   1  -9 -18    1.14    0.26
   0   0 -19   -0.03    0.44
   0   0 -19   -0.07    0.24
   0   0 -19   -0.21    0.34
  -1   0 -19    5.79    0.55
   1   0 -19    5.71    0.59
   1   0 -19    4.14    0.74
  -1   0 -19    4.67    0.56
  -1   0 -19    5.07    0.85
  -2   0 -19  114.95    4.21
   2   0 -19  111.54    4.38
  -2   0 -19  115.21    4.26
  -2   0 -19  111.65    4.40
   2   0 -19  109.82    4.26
  -3   0 -19   16.84    0.93
   3   0 -19   15.29    1.02
  -3   0 -19   15.49    0.82
  -4   0 -19    3.76    0.43
   4   0 -19    4.53    0.69
  -4   0 -19    4.14    0.40
  -4   0  19    4.84    0.93
  -5   0  19    0.29    0.57
   5   0 -19    0.14    0.34
  -5   0 -19    0.51    0.23
  -5   0 -19    0.26    0.18
  -6   0 -19    0.13    0.17
  -6   0 -19    0.63    0.25
   6   0 -19   -0.01    0.33
   7   0 -19   12.05    0.79
  -7   0 -19   10.67    0.69
  -7   0 -19   11.46    0.57
   8   0 -19    3.69    0.48
  -8   0 -19    4.34    0.31
  -8   0  19    4.61    0.39
   0  -1 -19    8.49    0.77
   0   1 -19    8.20    0.64
   0  -1 -19    8.25    0.66
   0   1 -19    8.71    0.75
   0  -1 -19    8.25    1.06
  -1  -1 -19    1.19    0.39
   1   1 -19    1.45    0.70
  -1  -1 -19    1.45    0.29
  -1  -1  19    1.56    0.49
  -1   1 -19    2.28    0.48
   1  -1 -19    2.07    0.43
   1  -1 -19    2.14    0.57
   2   1 -19   77.17    3.01
  -2  -1 -19   77.27    2.85
  -2  -1 -19   70.58    3.01
   2  -1 -19   73.13    3.06
  -2  -1  19   71.94    3.04
   2  -1 -19   74.98    2.93
  -2   1 -19   75.03    2.84
  -2   1 -19   73.53    2.91
  -3  -1 -19   60.76    2.42
  -3   1 -19   62.63    2.56
   3  -1 -19   62.70    2.49
  -3   1 -19   59.89    2.44
  -4  -1 -19   16.99    0.85
   4   1 -19   16.35    1.04
  -4  -1 -19   16.96    0.82
  -4   1 -19   17.45    1.13
  -4  -1  19   17.26    1.18
  -4   1 -19   17.30    0.81
   4  -1 -19   17.82    1.10
  -4   1 -19   16.03    0.88
  -5  -1 -19   48.76    1.99
  -5  -1 -19   49.02    1.94
   5   1 -19   48.17    2.14
   5  -1 -19   50.38    2.17
  -5   1 -19   49.39    2.01
  -5   1 -19   51.14    1.94
  -5  -1  19   49.63    2.23
   6   1 -19   13.10    0.89
  -6  -1 -19   12.61    0.65
  -6  -1 -19   13.92    0.72
  -6   1 -19   12.86    0.64
   6  -1 -19   12.98    0.89
  -6  -1  19   12.14    1.12
  -7  -1 -19    6.31    0.51
   7   1 -19    6.19    0.60
  -7  -1 -19    6.64    0.41
  -7   1  19    5.83    0.48
   7  -1 -19    7.30    0.65
  -7   1 -19    7.19    0.41
  -7  -1  19    5.18    1.00
  -8  -1 -19    3.02    0.28
   8   1 -19    2.66    0.34
  -8  -1  19    2.48    0.34
  -8   1 -19    2.59    0.27
   8  -1 -19    2.95    0.45
   0  -2 -19   28.59    1.26
   0  -2 -19   29.10    1.33
   0  -2  19   26.55    1.45
   0   2 -19   27.25    1.35
  -1  -2 -19    5.49    0.50
  -1  -2 -19    5.88    0.57
   1   2 -19    5.48    0.62
  -1  -2  19    4.73    0.70
  -1   2 -19    5.71    0.68
   1  -2 -19    6.02    0.57
   1  -2 -19    5.88    0.64
   1  -2 -19    4.17    0.75
  -1   2 -19    5.39    0.65
  -2  -2 -19   57.55    2.18
   2   2 -19   57.90    2.33
  -2  -2 -19   59.05    2.22
   2  -2 -19   56.24    2.26
  -2   2 -19   52.92    2.28
   2  -2 -19   50.38    2.91
   2  -2 -19   54.27    2.43
  -2  -2  19   51.88    2.36
  -2   2 -19   53.62    2.14
  -3  -2 -19    5.64    0.49
  -3  -2 -19    5.43    0.48
   3   2 -19    5.86    0.69
  -3   2 -19    6.70    0.70
   3  -2 -19    7.64    0.92
  -3   2 -19    7.76    0.50
   3  -2 -19    7.95    0.70
  -3  -2  19    7.38    0.76
  -4  -2 -19    6.24    0.50
  -4  -2 -19    6.65    0.49
   4   2 -19    6.73    0.73
  -4   2 -19    8.38    0.48
   4  -2 -19    7.47    0.86
   4  -2 -19    8.30    0.85
  -4   2 -19    7.49    0.74
  -5  -2 -19    0.90    0.22
   5   2 -19    0.98    0.38
  -5  -2 -19    0.64    0.20
  -5   2 -19    0.55    0.20
  -5  -2  19    0.28    0.40
   5  -2 -19    0.95    0.41
  -5   2 -19    0.25    0.39
  -6  -2 -19    3.65    0.41
   6   2 -19    4.18    0.67
  -6   2 -19    4.00    0.47
  -6  -2  19    4.68    0.75
  -7  -2 -19    0.27    0.15
  -7  -2 -19    0.00    0.21
   7   2 -19   -0.06    0.29
  -7   2 -19   -0.07    0.16
   7  -2 -19   -0.10    0.29
  -7  -2  19    0.41    0.49
  -8  -2 -19    3.96    0.32
   8  -2 -19    5.06    0.48
   0   3 -19    8.10    0.69
   0  -3  19    9.24    0.85
   0  -3 -19    8.15    0.62
   0  -3 -19    8.45    0.64
   1  -3  19   13.15    1.06
  -1  -3 -19   12.47    0.75
  -1  -3 -19   13.38    1.05
  -1  -3  19   13.68    0.92
   1  -3 -19   13.11    0.84
   2   3 -19   23.19    1.18
  -2  -3 -19   23.08    1.05
  -2  -3 -19   23.89    1.08
  -2   3 -19   21.28    1.14
   2  -3 -19   21.48    1.26
   2  -3 -19   23.13    1.15
  -2  -3  19   21.88    1.24
  -3  -3 -19   16.41    0.83
  -3  -3 -19   17.62    0.86
   3   3 -19   18.49    1.02
   3  -3 -19   16.13    0.97
   3  -3 -19   16.04    1.38
   3  -3 -19   16.57    1.25
  -3  -3  19   16.68    1.08
  -3   3 -19   16.69    0.96
  -4  -3 -19   -0.14    0.19
   4   3 -19   -0.08    0.32
  -4  -3 -19    0.11    0.18
  -4  -3  19   -0.37    0.32
  -4   3 -19    0.08    0.30
  -4   3 -19    0.13    0.24
   4  -3 -19   -0.29    0.47
   4  -3 -19    0.13    0.35
   5   3 -19   14.63    0.89
  -5  -3 -19   13.68    0.68
  -5  -3 -19   13.85    0.72
   5  -3 -19   13.88    1.00
  -5   3 -19   12.40    0.78
  -5   3 -19   13.05    0.84
  -5  -3  19   13.39    0.99
  -6  -3 -19   11.15    0.64
   6   3 -19   10.92    0.73
  -6  -3 -19   11.07    0.57
  -6   3 -19   10.91    0.77
  -6  -3  19   10.77    0.92
   6  -3 -19   10.45    0.85
  -7  -3 -19    1.97    0.28
  -7   3  19    2.30    0.47
   7   3 -19    2.09    0.32
  -7  -3 -19    1.86    0.28
   7  -3 -19    2.46    0.38
  -7  -3  19    2.54    0.52
   0   4 -19   20.28    1.09
   0  -4 -19   22.65    1.10
   0  -4  19   19.40    1.19
   0  -4 -19   20.65    1.04
   1  -4  19   72.02    2.98
  -1  -4 -19   73.02    2.80
   1   4 -19   69.59    2.85
  -1  -4 -19   73.58    2.84
  -1   4 -19   70.47    2.85
   1  -4 -19   69.26    2.82
  -1  -4  19   72.46    2.97
   1  -4 -19   71.47    2.90
  -2  -4 -19    4.23    0.48
   2   4 -19    4.21    0.60
  -2  -4 -19    4.52    0.49
  -2   4 -19    4.63    0.57
   2  -4 -19    4.58    0.57
   2  -4 -19    4.69    0.71
  -2  -4  19    4.77    0.68
   3   4 -19    1.68    0.38
  -3  -4 -19    1.29    0.27
  -3  -4 -19    1.87    0.37
   3  -4 -19    0.36    0.49
   4   4 -19    6.05    0.63
  -4  -4 -19    5.79    0.45
  -4  -4 -19    5.43    0.47
   4  -4 -19    4.56    0.59
  -4  -4  19    5.56    0.73
   4  -4 -19    4.84    0.70
  -4   4 -19    5.11    0.57
   5   4 -19    2.64    0.43
  -5  -4 -19    3.12    0.37
  -5  -4 -19    2.84    0.39
   5  -4 -19    2.82    0.55
  -5   4 -19    2.88    0.40
  -6  -4 -19    3.70    0.35
  -6  -4 -19    3.94    0.42
   6   4 -19    3.75    0.49
  -6   4 -19    3.55    0.50
   6  -4 -19    4.35    0.69
  -6  -4  19    4.20    0.77
  -7   4  19    1.43    0.34
  -7  -4 -19    0.83    0.18
  -7   4 -19    0.93    0.39
   7  -4 -19    1.26    0.35
   0   5 -19   13.59    0.84
   0  -5 -19   13.95    0.81
   0  -5  19   12.98    0.99
   0  -5 -19   14.32    0.87
  -1  -5 -19    9.36    0.65
   1   5 -19    8.37    0.65
  -1  -5 -19    8.77    0.63
   1  -5  19    9.00    0.91
  -1   5 -19    6.90    0.64
   1  -5 -19    7.62    0.73
   1  -5 -19    6.31    0.64
  -1  -5  19    7.85    0.81
   2   5 -19   31.16    1.44
  -2  -5 -19   31.87    1.42
  -2  -5 -19   31.07    1.38
   2  -5  19   31.05    1.71
   2  -5 -19   32.16    1.46
  -2   5 -19   30.94    1.42
  -2  -5  19   32.56    1.57
   2  -5 -19   32.93    1.58
  -3  -5 -19    5.97    0.51
  -3  -5 -19    5.99    0.52
   3   5 -19    6.33    0.61
  -3   5 -19    5.86    0.56
   3  -5 -19    5.98    0.59
  -3  -5  19    5.74    0.73
   3  -5 -19    4.30    0.90
  -4  -5 -19    1.09    0.25
   4   5 -19    1.69    0.36
  -4  -5 -19    1.02    0.25
  -4  -5  19    1.13    0.40
   4  -5 -19    0.99    0.42
  -4   5 -19    1.41    0.32
   5   5 -19    5.44    0.52
  -5  -5 -19    5.18    0.42
  -5  -5 -19    5.44    0.47
   5  -5 -19    5.19    0.72
  -5  -5  19    4.14    0.77
  -5   5 -19    4.95    0.50
   5  -5 -19    4.19    0.59
  -6  -5 -19    7.06    0.52
  -6  -5 -19    6.48    0.44
  -6   5  19    6.99    0.61
   6  -5 -19    6.38    0.78
  -6   5 -19    6.53    0.52
  -6  -5  19    6.58    0.85
   0  -6  19    7.33    0.84
   0   6 -19    7.63    0.61
   0  -6 -19    7.98    0.71
   0  -6 -19    7.60    0.62
   1  -6  19    7.07    0.89
  -1  -6 -19    7.71    0.64
  -1  -6 -19    7.53    0.58
   1   6 -19    7.36    0.59
   1  -6 -19    6.43    0.63
   1  -6 -19    6.60    0.74
  -1   6 -19    5.71    0.57
  -1  -6  19    5.89    0.78
   2  -6  19    8.81    1.34
  -2  -6 -19   10.36    0.68
  -2  -6 -19    9.20    0.86
   2   6 -19   10.55    0.77
   2  -6 -19    8.04    0.67
  -2  -6  19    8.23    0.82
  -2   6 -19    8.17    0.62
   2  -6 -19    8.22    0.86
   3   6 -19   12.91    0.74
  -3  -6 -19   13.35    0.74
  -3   6 -19   11.75    0.75
   3  -6 -19   13.95    0.81
  -3  -6  19   12.50    1.23
   3  -6 -19   12.62    1.11
  -4  -6 -19    2.55    0.48
  -4  -6 -19    3.58    0.44
   4  -6 -19    3.62    0.46
  -4   6 -19    4.64    0.45
  -4  -6  19    4.08    0.74
  -5   6  19    4.68    0.51
  -5  -6 -19    4.65    0.44
  -5  -6 -19    3.64    0.52
  -5  -6  19    5.69    0.84
  -5   6 -19    4.82    0.44
   5  -6 -19    4.99    0.49
  -6  -6 -19    3.03    0.39
  -6   6  19    2.67    0.41
  -6   6 -19    3.00    0.38
   0  -7 -19    5.62    0.56
   0  -7  19    5.68    0.82
   0   7 -19    4.72    0.48
   0  -7 -19    4.75    0.66
  -1  -7 -19    1.64    0.38
   1   7 -19    1.68    0.28
   1  -7  19    1.30    0.53
  -1  -7 -19    1.66    0.33
  -1   7 -19    1.53    0.29
   1  -7 -19    1.34    0.32
  -1  -7  19    1.74    0.46
   1  -7 -19    1.42    0.42
  -2  -7 -19    5.53    0.62
  -2  -7 -19    6.52    0.55
   2   7 -19    4.98    0.50
   2  -7  19    6.71    1.24
  -2  -7  19    5.21    0.77
   2  -7 -19    4.87    0.85
   2  -7 -19    5.57    0.55
  -2   7 -19    5.36    0.48
  -3  -7 -19    1.20    0.33
  -3  -7 -19    1.22    0.29
  -3   7  19    1.26    0.30
  -3   7 -19    1.15    0.25
  -3  -7  19    2.09    0.47
   3  -7 -19    1.00    0.29
   3  -7 -19    1.52    0.60
  -4  -7 -19    2.58    0.36
  -4  -7 -19    1.95    0.42
  -4   7  19    2.74    0.42
   4  -7 -19    2.69    0.41
  -4   7 -19    2.90    0.36
  -4  -7  19    2.71    0.51
  -5  -7 -19    2.16    0.32
  -5   7 -19    1.63    0.24
   0  -8 -19    5.57    0.51
   0  -8 -19    3.93    0.71
   0  -8  19    6.36    0.89
  -1  -8 -19    2.44    0.44
  -1  -8 -19    1.81    0.32
  -1  -8  19    2.09    0.48
   1  -8 -19    1.78    0.31
  -1   8 -19    2.00    0.35
   1  -8 -19    1.39    0.46
  -2  -8 -19    8.24    0.64
   2  -8 -19    8.81    0.58
  -2   8 -19    9.45    0.51
  -3  -8 -19   -0.04    0.29
  -3   8 -19    0.38    0.19
   3  -8 -19    0.12    0.21
   0   0 -20    0.08    0.43
   0   0 -20    0.03    0.25
  -1   0 -20    1.94    0.31
   1   0 -20    1.77    0.48
  -1   0 -20    1.36    0.51
   1   0 -20    1.41    0.36
  -2   0 -20    7.51    0.60
  -2   0 -20    7.33    0.63
  -2   0 -20    5.66    0.91
  -3   0 -20   18.18    0.87
   3   0 -20   18.97    1.09
  -3   0 -20   18.60    0.94
  -4   0 -20    9.39    0.57
   4   0 -20    9.76    0.83
  -4   0 -20   10.33    0.66
   5   0 -20   13.50    0.86
  -5   0 -20   11.73    0.72
  -5   0 -20   11.90    0.64
  -6   0 -20    2.82    0.48
   6   0 -20    2.19    0.61
  -6   0 -20    2.09    0.36
  -7   0  20    0.21    0.23
   7   0 -20   -0.09    0.28
  -7   0 -20    0.12    0.15
  -7   0 -20   -0.13    0.35
  -8   0 -20    1.65    0.25
   8   0 -20    2.26    0.39
   0  -1 -20    1.51    0.58
   0   1 -20    1.75    0.43
   0  -1 -20    0.89    0.38
   0   1 -20    1.07    0.32
   0  -1 -20    0.93    0.28
   1   1 -20   21.84    1.18
  -1  -1 -20   20.76    1.08
  -1  -1 -20   21.03    1.01
  -1   1 -20   21.98    1.18
  -1   1 -20   21.99    1.01
   1  -1 -20   21.71    1.06
   1  -1 -20   20.79    1.26
  -2  -1 -20   18.75    0.94
   2   1 -20   18.02    1.09
  -2  -1 -20   18.52    0.89
  -2   1 -20   18.58    0.91
   3   1 -20   26.36    1.35
  -3  -1 -20   27.64    1.22
  -3  -1 -20   27.01    1.16
  -3   1 -20   25.22    1.27
  -3   1 -20   26.16    1.15
  -3  -1  20   26.30    1.50
  -3   1 -20   27.60    1.39
   3  -1 -20   27.20    1.41
  -4  -1 -20    5.07    0.42
  -4  -1 -20    4.23    0.46
   4   1 -20    4.64    0.65
  -4   1 -20    3.85    0.57
   4  -1 -20    4.11    0.71
  -4   1 -20    4.70    0.59
  -4  -1  20    3.87    0.64
  -4   1 -20    4.57    0.40
  -5  -1 -20   16.38    0.76
  -5  -1 -20   16.78    0.81
   5   1 -20   16.51    0.97
  -5   1 -20   15.97    0.75
  -5   1 -20   14.97    0.92
   5  -1 -20   14.16    0.98
  -5  -1  20   14.22    1.22
  -6  -1 -20    4.71    0.45
  -6   1  20    4.39    0.47
  -6  -1 -20    4.54    0.38
   6   1 -20    4.63    0.61
   6  -1 -20    3.52    0.62
  -6   1 -20    4.06    0.38
  -6  -1  20    4.41    0.70
  -7  -1 -20   16.79    0.72
   7   1 -20   16.10    0.87
  -7  -1 -20   14.60    0.82
  -7   1 -20   16.64    0.71
   7  -1 -20   16.40    0.89
  -8  -1 -20    1.98    0.26
  -8   1 -20    1.33    0.19
   0  -2 -20   22.77    1.14
  -1  -2 -20   16.34    0.90
   1   2 -20   16.25    1.06
  -1  -2 -20   15.30    0.84
   1  -2 -20   17.73    0.91
  -1   2 -20   18.89    1.34
   1  -2 -20   15.54    1.01
   1  -2 -20   19.15    1.33
  -1  -2  20   15.83    1.10
  -2  -2 -20   23.07    1.11
   2   2 -20   20.91    1.24
  -2  -2 -20   24.09    1.17
  -2   2 -20   26.16    1.12
   2  -2 -20   27.71    1.24
  -2  -2  20   26.39    1.39
  -2   2 -20   26.71    1.30
   2  -2 -20   27.53    1.49
   2  -2 -20   24.79    1.95
  -3  -2 -20   21.67    1.00
  -3  -2 -20   21.26    0.95
   3   2 -20   22.40    1.14
  -3  -2  20   19.32    1.22
  -3   2 -20   18.85    1.09
  -3   2 -20   19.02    0.92
   3  -2 -20   18.72    1.26
   3  -2 -20   19.65    1.07
  -4  -2 -20    2.96    0.42
  -4  -2 -20    3.21    0.38
   4   2 -20    3.38    0.60
  -4  -2  20    4.22    0.80
  -4   2 -20    3.75    0.66
   4  -2 -20    3.32    0.53
  -4   2 -20    3.60    0.38
  -5  -2 -20   11.10    0.61
  -5  -2 -20   11.43    0.66
   5   2 -20   11.07    0.80
   5  -2 -20   12.49    0.91
  -5  -2  20   11.44    1.01
  -5   2 -20   11.46    0.58
  -5   2 -20   10.52    1.04
  -6  -2 -20    0.03    0.16
   6   2 -20   -0.19    0.28
  -6  -2 -20    0.09    0.20
   6  -2 -20    0.01    0.32
  -6   2 -20    0.39    0.17
  -6  -2  20   -0.22    0.51
  -7  -2 -20    2.86    0.29
  -7  -2 -20    2.66    0.44
   7   2 -20    1.96    0.33
  -7   2 -20    2.53    0.33
   7  -2 -20    2.29    0.37
   0  -3 -20   13.17    0.83
   0   3 -20   13.61    0.85
   0  -3  20   12.99    1.05
   0  -3 -20   13.51    0.77
   1   3 -20    1.42    0.36
  -1  -3 -20    1.51    0.30
  -1  -3 -20    1.30    0.29
   1  -3 -20    1.64    0.39
  -1   3 -20    1.63    0.38
   1  -3 -20    1.52    0.33
  -1  -3  20    1.15    0.44
  -2  -3 -20   14.80    0.83
   2   3 -20   14.32    0.92
  -2  -3 -20   14.57    0.79
   2  -3 -20   15.31    1.33
   2  -3 -20   16.18    1.11
   2  -3 -20   15.39    0.89
  -2  -3  20   15.90    1.04
  -3  -3 -20    0.55    0.22
  -3  -3 -20    0.46    0.21
   3   3 -20    0.21    0.31
  -3  -3  20    0.37    0.37
  -3   3 -20    0.49    0.30
   3  -3 -20    0.00    0.50
   3  -3 -20    0.12    0.31
  -4  -3 -20   -0.04    0.20
   4   3 -20   -0.03    0.30
  -4  -3 -20    0.18    0.19
   4  -3 -20    0.67    0.47
  -4  -3  20    0.38    0.39
  -4   3 -20   -0.02    0.29
   4  -3 -20    0.12    0.36
  -5  -3 -20    2.45    0.39
   5   3 -20    1.98    0.54
   5  -3 -20    2.16    0.50
  -5  -3  20    2.28    0.53
  -5   3 -20    1.64    0.36
  -6  -3 -20   14.95    0.78
  -6  -3 -20   14.95    0.71
   6   3 -20   14.86    0.83
   6  -3 -20   16.32    0.95
  -6  -3  20   14.87    1.05
  -6   3 -20   15.05    0.89
  -7  -3 -20    0.99    0.18
  -7   3  20    0.91    0.41
   7  -3 -20    1.40    0.32
   0  -4 -20    8.30    0.63
   0  -4  20    9.19    0.89
   0  -4 -20    8.84    0.69
   0   4 -20    8.90    0.70
  -1  -4 -20    2.18    0.33
  -1  -4 -20    2.20    0.36
   1  -4  20    2.34    0.58
   1   4 -20    1.77    0.36
  -1   4 -20    1.80    0.36
   1  -4 -20    2.18    0.41
   1  -4 -20    3.14    0.49
  -1  -4  20    1.81    0.45
   2   4 -20   30.01    1.38
  -2  -4 -20   30.83    1.33
  -2  -4 -20   29.39    1.27
  -2  -4  20   28.05    1.48
  -2   4 -20   27.58    1.34
   2  -4 -20   26.55    1.48
   2  -4 -20   28.38    1.34
   3   4 -20    2.43    0.39
  -3  -4 -20    1.83    0.28
  -3  -4 -20    2.93    0.43
   3  -4 -20    2.63    0.69
   3  -4 -20    2.32    0.37
  -3  -4  20    2.33    0.49
  -3   4 -20    3.13    0.49
  -4  -4 -20    5.76    0.46
  -4  -4 -20    6.06    0.51
   4   4 -20    6.07    0.61
  -4   4 -20    6.55    0.59
   4  -4 -20    7.34    1.03
  -4  -4  20    6.95    0.81
  -5  -4 -20    2.36    0.39
  -5  -4 -20    2.34    0.34
   5   4 -20    2.14    0.36
  -5   4 -20    1.78    0.33
  -5  -4  20    2.10    0.48
   5  -4 -20    1.90    0.50
  -6  -4 -20    5.00    0.37
  -6  -4 -20    4.99    0.47
   6   4 -20    4.23    0.50
  -6  -4  20    6.21    0.82
   6  -4 -20    5.98    0.66
  -6   4 -20    6.03    0.54
  -7  -4 -20    0.44    0.20
  -7   4 -20    0.49    0.33
   7  -4 -20    0.03    0.30
   0   5 -20    1.87    0.35
   0  -5  20    2.13    0.51
   0  -5 -20    1.87    0.33
   0  -5 -20    2.46    0.41
  -1  -5 -20    4.72    0.57
  -1  -5 -20    4.91    0.51
   1   5 -20    4.18    0.55
   1  -5  20    6.05    0.96
  -1   5 -20    6.11    0.58
   1  -5 -20    5.07    0.68
   1  -5 -20    5.68    0.57
  -1  -5  20    5.99    0.76
  -2  -5 -20    7.17    0.61
   2   5 -20    7.25    0.64
  -2  -5 -20    7.53    0.56
  -2  -5  20    7.21    0.82
   2  -5 -20    8.20    0.88
   2  -5 -20    7.14    0.63
  -2   5 -20    7.98    0.62
   3   5 -20    4.72    0.63
  -3  -5 -20    4.79    0.50
   3  -5 -20    4.05    0.72
   3  -5 -20    3.83    0.53
  -3   5 -20    4.13    0.51
  -3  -5  20    4.10    0.73
  -4  -5 -20    2.63    0.42
  -4  -5 -20    2.80    0.37
   4   5 -20    2.52    0.35
  -4  -5  20    1.45    0.46
   4  -5 -20    1.55    0.33
  -4   5 -20    2.19    0.33
  -5  -5 -20    1.24    0.27
  -5  -5 -20    1.48    0.24
   5  -5 -20    0.95    0.60
  -5   5 -20    1.21    0.27
  -6  -5 -20    4.68    0.38
  -6   5  20    4.97    0.51
   6  -5 -20    4.86    0.74
  -6   5 -20    4.86    0.45
   0  -6  20    4.54    0.83
   0   6 -20    4.84    0.56
   0  -6 -20    3.89    0.62
   1   6 -20    5.69    0.75
  -1  -6 -20    7.00    0.66
  -1  -6 -20    7.28    0.57
   1  -6  20    6.57    1.04
   1  -6 -20    8.06    0.77
  -1  -6  20    7.13    1.01
   2   6 -20    8.38    0.58
  -2  -6 -20    7.70    0.57
   2  -6 -20    8.38    0.64
  -2   6 -20    8.16    0.60
  -2  -6  20    7.87    0.84
   2  -6 -20    7.35    0.88
  -3  -6 -20    3.51    0.49
   3   6 -20    2.51    0.33
  -3  -6 -20    2.89    0.42
   3  -6 -20    3.14    0.69
  -3   6 -20    3.57    0.44
   3  -6 -20    3.76    0.47
  -3  -6  20    3.84    0.75
  -4  -6 -20    9.99    0.68
  -4  -6 -20   10.05    0.60
   4  -6 -20   10.41    0.63
  -4  -6  20   10.33    0.93
  -4   6 -20   11.25    0.62
  -5   6  20    4.10    0.45
  -5  -6 -20    3.26    0.38
  -5   6 -20    3.61    0.40
   0  -7  20    2.62    0.57
   0   7 -20    2.61    0.40
   0  -7 -20    3.33    0.48
   0  -7 -20    3.82    0.69
   1  -7  20    6.77    1.15
  -1  -7 -20    6.77    0.56
   1   7 -20    5.63    0.50
  -1  -7 -20    6.95    0.71
  -1   7  20    6.60    0.59
   1  -7 -20    9.09    0.60
  -1   7 -20    8.09    0.53
   1  -7 -20    9.13    0.82
  -1  -7  20    8.07    0.89
  -2  -7 -20    7.81    0.55
  -2   7  20    7.26    0.57
  -2  -7 -20    8.28    0.70
   2  -7 -20    7.58    0.92
  -2  -7  20    7.36    0.89
  -2   7 -20    8.20    0.51
   2  -7 -20    8.39    0.59
  -3  -7 -20    4.10    0.60
  -3  -7 -20    3.53    0.44
  -3   7  20    4.08    0.44
  -3  -7  20    3.22    0.56
  -3   7 -20    3.94    0.39
   3  -7 -20    3.50    0.42
  -4   7  20    1.01    0.24
  -4  -7 -20    1.24    0.27
  -4   7 -20    1.27    0.23
   4  -7 -20    1.25    0.31
   0  -8 -20    5.33    0.48
  -1  -8 -20    7.93    0.59
  -1   8 -20    7.74    0.47
   1  -8 -20    9.35    0.55
  -2  -8 -20    0.11    0.27
  -2   8 -20    0.03    0.22
   2  -8 -20    0.42    0.22
   0   0 -21   -0.06    0.26
   0   0 -21   -0.14    0.41
  -1   0 -21    1.76    0.30
   1   0 -21    1.19    0.37
   1   0 -21    1.98    0.47
  -1   0 -21    0.96    0.50
  -1   0 -21    1.57    0.44
   2   0 -21    0.52    0.36
  -2   0 -21   -0.23    0.50
  -2   0 -21    0.29    0.21
  -2   0 -21    0.14    0.32
  -3   0 -21    3.08    0.53
   3   0 -21    2.53    0.45
  -3   0 -21    3.45    0.38
  -4   0 -21   39.68    1.61
  -4   0 -21   40.24    1.70
   4   0 -21   40.76    1.82
  -5   0 -21    8.10    0.69
  -5   0 -21    7.52    0.48
   5   0 -21    6.97    0.68
   6   0 -21    6.66    0.64
  -6   0 -21    7.33    0.70
  -6   0 -21    7.89    0.45
   7   0 -21    2.79    0.46
  -7   0 -21    3.78    0.30
  -7   0  21    3.47    0.45
   0  -1 -21    9.20    0.80
   0   1 -21    8.34    0.69
   0  -1 -21    8.68    0.96
   0  -1 -21    9.93    0.65
   0   1 -21    9.59    0.80
  -1  -1 -21    4.26    0.47
   1   1 -21    4.49    0.64
  -1  -1 -21    4.72    0.60
   1  -1 -21    4.81    0.65
   1  -1 -21    4.28    0.55
  -1   1 -21    3.83    0.66
  -1   1 -21    4.14    0.49
   2   1 -21   35.54    1.69
  -2  -1 -21   38.01    1.55
  -2  -1 -21   38.15    1.62
   2  -1 -21   38.39    1.63
  -2   1 -21   36.85    1.53
  -2   1 -21   36.19    1.71
   2  -1 -21   36.78    1.77
   3   1 -21   20.41    1.15
  -3  -1 -21   21.11    0.98
  -3  -1 -21   21.16    1.05
   3  -1 -21   21.27    1.22
  -3   1 -21   21.76    1.24
  -3   1 -21   22.24    0.98
   4   1 -21    9.39    0.74
  -4  -1 -21    8.94    0.53
  -4  -1 -21    9.24    0.63
   4  -1 -21    8.57    0.80
  -4   1 -21    8.34    0.52
  -4   1 -21    9.27    0.92
  -5  -1 -21    3.46    0.35
  -5  -1 -21    3.15    0.48
   5   1 -21    4.20    0.57
  -5   1 -21    3.36    0.34
   5  -1 -21    4.19    0.60
  -6  -1 -21   13.87    0.80
  -6  -1 -21   15.25    0.69
   6   1 -21   14.68    0.86
  -6   1 -21   13.94    0.66
   6  -1 -21   14.54    0.88
   7   1 -21    0.30    0.26
  -7  -1 -21    0.39    0.15
  -7   1 -21    0.63    0.17
   7  -1 -21    0.47    0.28
   0   2 -21    5.27    0.63
   0  -2 -21    4.58    0.61
   0  -2 -21    4.45    0.50
  -1  -2 -21    4.58    0.55
  -1  -2 -21    4.93    0.49
   1   2 -21    5.32    0.61
   1  -2 -21    4.17    0.76
  -1   2 -21    5.18    0.62
   1  -2 -21    5.68    0.73
   1  -2 -21    3.64    0.52
   2   2 -21    8.09    0.73
  -2  -2 -21    8.71    0.57
  -2  -2 -21    9.19    0.65
   2  -2 -21    8.02    0.67
   2  -2 -21    7.91    0.98
  -2   2 -21    9.21    0.75
  -2   2 -21    7.85    0.61
  -2  -2  21    9.33    1.00
  -3  -2 -21    2.61    0.44
  -3  -2 -21    2.66    0.38
   3   2 -21    2.83    0.45
   3  -2 -21    3.38    0.55
  -3   2 -21    3.39    0.47
   3  -2 -21    3.44    0.46
  -3   2 -21    3.60    0.42
   4   2 -21    9.64    0.73
  -4  -2 -21    8.85    0.54
  -4  -2 -21    9.78    0.61
   4  -2 -21    8.08    0.80
  -4   2 -21    7.82    0.51
  -4   2 -21    7.36    0.75
  -4  -2  21    9.13    1.05
  -5  -2 -21    7.41    0.57
  -5   2 -21    7.04    0.45
  -5   2 -21    7.01    0.77
   5  -2 -21    6.62    0.74
  -5  -2  21    7.41    0.99
   6   2 -21    8.93    0.64
  -6  -2 -21    8.09    0.48
  -6  -2 -21    8.03    0.59
  -6  -2  21    9.11    1.19
   6  -2 -21    8.45    0.68
  -6   2 -21    9.20    0.48
  -7   2  21    1.35    0.51
   7   2 -21    1.01    0.28
  -7  -2 -21    1.08    0.18
   7  -2 -21    1.10    0.29
   0  -3 -21    0.17    0.30
   0  -3 -21    0.24    0.24
   0   3 -21    0.30    0.30
   1   3 -21    7.08    0.67
  -1  -3 -21    7.39    0.66
  -1  -3 -21    6.99    0.57
  -1  -3  21    9.98    0.96
  -1   3 -21    8.87    0.71
   1  -3 -21    8.52    0.81
   1  -3 -21    9.21    0.64
  -2  -3 -21    2.63    0.40
  -2  -3 -21    3.08    0.47
   2   3 -21    2.38    0.41
   2  -3 -21    3.38    0.68
   2  -3 -21    2.34    0.38
  -2   3 -21    2.00    0.38
  -2  -3  21    2.79    0.54
   2  -3 -21    2.65    0.61
  -3  -3 -21    6.43    0.54
  -3  -3 -21    6.46    0.49
   3   3 -21    7.10    0.66
   3  -3 -21    5.21    0.93
  -3   3 -21    6.06    0.62
  -3  -3  21    6.18    0.85
   3  -3 -21    5.77    0.60
  -4  -3 -21    7.68    0.50
   4   3 -21    7.05    0.66
  -4  -3 -21    7.97    0.58
   4  -3 -21    8.63    1.29
  -4   3 -21    7.94    0.90
  -5  -3 -21   11.29    0.59
  -5  -3 -21   12.25    0.68
   5   3 -21   11.74    0.74
  -5  -3  21   11.45    1.03
  -5   3 -21   10.82    0.75
   5  -3 -21   10.17    0.87
  -6  -3 -21    0.32    0.24
   6   3 -21    0.37    0.27
  -6  -3 -21    0.06    0.16
   6  -3 -21    0.21    0.33
  -6  -3  21    0.59    0.57
  -6   3 -21    0.60    0.36
  -7   3  21    3.41    0.45
  -7  -3 -21    3.80    0.32
   7  -3 -21    4.21    0.48
   0   4 -21    0.51    0.30
   0  -4 -21    0.65    0.33
   0  -4  21    0.84    0.53
   0  -4 -21    1.03    0.27
   1   4 -21    3.21    0.53
  -1  -4 -21    2.81    0.43
  -1  -4 -21    3.83    0.54
  -1  -4  21    2.68    0.57
   1  -4 -21    3.08    0.50
  -1   4 -21    3.02    0.43
   1  -4 -21    2.35    0.36
  -2  -4 -21    3.32    0.49
  -2  -4 -21    2.85    0.41
   2   4 -21    2.76    0.42
   2  -4 -21    3.21    0.50
   2  -4 -21    2.40    0.56
  -2   4 -21    2.66    0.41
  -2  -4  21    2.94    0.55
  -3  -4 -21   14.36    0.71
  -3  -4 -21   14.84    0.79
   3   4 -21   13.56    0.82
   3  -4 -21   11.66    0.77
  -3   4 -21   12.06    0.79
  -3  -4  21   12.59    1.02
  -4  -4 -21    2.82    0.36
   4   4 -21    4.14    0.54
   4  -4 -21    4.32    0.66
  -4  -4  21    3.28    0.56
   4  -4 -21    3.23    0.41
  -4   4 -21    3.27    0.46
  -5  -4 -21   11.08    0.59
  -5  -4 -21   10.76    0.67
   5   4 -21   10.38    0.68
  -5  -4  21   11.45    1.01
   5  -4 -21   12.53    0.92
  -5   4 -21   12.09    0.70
  -6  -4 -21    0.78    0.37
  -6  -4 -21    0.89    0.19
  -6   4 -21    1.16    0.31
   6  -4 -21    1.38    0.38
   0  -5 -21   27.16    1.35
   0  -5  21   27.96    1.56
   0   5 -21   27.71    1.27
   0  -5 -21   25.66    1.23
   1   5 -21    2.30    0.37
  -1  -5 -21    2.67    0.52
  -1  -5 -21    2.71    0.43
  -1   5 -21    1.75    0.33
   1  -5 -21    2.41    0.47
   1  -5 -21    2.80    0.48
  -1  -5  21    2.75    0.55
  -2  -5 -21    3.12    0.51
  -2  -5 -21    2.40    0.44
  -2   5 -21    2.70    0.46
   2  -5 -21    2.96    0.48
  -2  -5  21    2.14    0.56
   2  -5 -21    2.60    0.66
  -3  -5 -21    2.89    0.48
   3   5 -21    3.12    0.49
  -3  -5 -21    3.14    0.39
   3  -5 -21    3.21    0.47
  -3   5 -21    3.43    0.47
  -3  -5  21    2.74    0.54
   4   5 -21   11.47    0.66
  -4  -5 -21   10.42    0.70
  -4  -5 -21   11.02    0.61
   4  -5 -21   11.35    0.68
  -4  -5  21   11.22    1.01
  -4   5 -21   12.04    0.68
  -5  -5 -21    1.85    0.32
  -5  -5 -21    2.24    0.34
  -5   5 -21    2.62    0.40
  -5  -5  21    2.36    0.57
   0  -6  21   -0.23    0.54
   0  -6 -21   -0.20    0.24
   0   6 -21    0.43    0.23
   0  -6 -21   -0.14    0.35
  -1  -6 -21    7.17    0.70
  -1  -6 -21    7.23    0.55
   1   6 -21    6.38    0.55
  -1   6 -21    5.92    0.51
   1  -6 -21    6.60    0.56
  -1  -6  21    5.55    0.91
   1  -6 -21    6.33    0.81
  -2  -6 -21   12.33    0.79
   2   6 -21   12.75    0.70
  -2  -6 -21   12.86    0.70
   2  -6 -21   12.47    1.11
   2  -6 -21   12.23    0.73
  -2   6 -21   12.14    0.71
  -2  -6  21   12.35    1.05
  -3  -6 -21    9.66    0.68
   3   6 -21    8.90    0.58
  -3  -6 -21    9.80    0.58
   3  -6 -21    9.51    0.61
  -3  -6  21    9.56    0.96
  -3   6 -21    9.23    0.59
  -4  -6 -21    1.42    0.25
  -4  -6 -21    1.93    0.34
  -4  -6  21    2.54    0.74
  -4   6 -21    2.08    0.36
   4  -6 -21    1.72    0.30
   0   7 -21    1.59    0.26
   0  -7 -21    1.46    0.29
   0  -7 -21    1.66    0.44
  -1  -7 -21    3.56    0.68
  -1  -7 -21    3.23    0.43
   1   7 -21    2.67    0.40
   1  -7 -21    4.34    0.58
  -1  -7  21    6.03    1.06
  -1   7 -21    4.06    0.39
   1  -7 -21    4.50    0.46
  -2  -7 -21    6.36    0.49
  -2  -7 -21    6.38    0.67
  -2   7  21    5.89    0.50
   2  -7 -21    5.90    0.49
  -2   7 -21    6.25    0.45
  -3  -7 -21    0.15    0.22
  -3   7 -21    0.17    0.19
   3  -7 -21    0.49    0.23
   0   0 -22    1.58    0.47
   0   0 -22    1.72    0.33
  -1   0 -22    1.67    0.50
  -1   0 -22    1.48    0.29
   1   0 -22    2.55    0.42
   1   0 -22    0.94    0.41
   2   0 -22    0.78    0.38
  -2   0 -22    0.88    0.52
  -2   0 -22    0.32    0.43
  -2   0 -22    0.45    0.23
   3   0 -22    0.07    0.33
  -3   0 -22    0.19    0.37
  -3   0 -22    0.26    0.20
   4   0 -22    3.76    0.61
  -4   0 -22    3.51    0.37
  -4   0 -22    2.38    0.43
   5   0 -22   30.63    1.45
  -5   0 -22   32.61    1.28
  -5   0 -22   30.45    1.46
  -6   0 -22    3.13    0.30
   6   0 -22    3.01    0.49
  -6   0  22    4.16    0.65
   7   0 -22    1.20    0.28
  -7   0 -22    1.29    0.19
   0  -1 -22   31.81    1.60
   0  -1 -22   29.99    1.35
   0   1 -22   31.40    1.50
  -1  -1 -22   10.82    0.64
  -1  -1 -22    9.88    0.83
   1   1 -22    9.89    0.80
  -1   1 -22    9.58    0.82
   1  -1 -22   10.24    0.94
  -1   1 -22    9.14    0.65
   1  -1 -22   10.14    0.70
  -2  -1 -22    8.45    0.57
   2   1 -22    8.03    0.74
  -2  -1 -22    8.16    0.71
   2  -1 -22    9.59    0.74
   2  -1 -22    9.24    0.86
  -2   1 -22    9.06    0.83
  -2   1 -22    9.45    0.59
   3   1 -22    0.13    0.32
  -3  -1 -22    0.16    0.20
  -3  -1 -22    0.10    0.29
   3  -1 -22    0.52    0.36
  -3   1 -22    0.40    0.21
  -3   1 -22    0.51    0.43
  -4  -1 -22    1.63    0.34
   4   1 -22    1.53    0.36
  -4  -1 -22    1.86    0.32
  -4   1 -22    1.25    0.52
   4  -1 -22    1.26    0.37
  -4   1 -22    1.19    0.23
  -5  -1 -22    0.35    0.17
  -5  -1 -22    0.45    0.29
   5   1 -22    0.46    0.29
   5  -1 -22    1.37    0.35
  -6  -1 -22    4.64    0.62
  -6  -1 -22    6.27    0.39
   6   1 -22    5.59    0.56
   6  -1 -22    6.63    0.57
  -6   1 -22    6.22    0.39
   7   1 -22   10.49    0.62
  -7  -1 -22   10.90    0.52
   7  -1 -22   11.38    0.64
  -7   1 -22   10.08    0.54
   0   2 -22    1.31    0.36
   0  -2 -22    1.31    0.28
   0  -2 -22    0.82    0.40
  -1  -2 -22    0.04    0.31
   1   2 -22    0.26    0.33
  -1  -2 -22    0.38    0.22
  -1   2 -22    0.58    0.33
   1  -2 -22   -0.11    0.55
   1  -2 -22    0.22    0.27
   2   2 -22    2.43    0.43
  -2  -2 -22    3.12    0.40
  -2  -2 -22    2.16    0.37
   2  -2 -22    1.76    0.51
   2  -2 -22    1.90    0.36
  -2   2 -22    2.42    0.43
   3   2 -22    6.03    0.63
  -3  -2 -22    5.39    0.58
  -3  -2 -22    5.96    0.49
  -3   2 -22    6.91    0.55
  -3   2 -22    7.12    0.72
   3  -2 -22    8.60    0.83
   3  -2 -22    7.04    1.00
  -3  -2  22    6.85    1.28
   4   2 -22    6.52    0.63
  -4  -2 -22    7.37    0.58
  -4  -2 -22    6.92    0.46
  -4  -2  22    5.80    0.83
  -4   2 -22    6.04    0.48
   4  -2 -22    5.27    0.94
  -4   2 -22    6.18    0.71
  -5  -2 -22    6.72    0.57
  -5  -2 -22    7.60    0.46
   5   2 -22    6.79    0.60
  -5   2 -22    7.35    0.49
  -5   2 -22    7.65    0.85
   5  -2 -22    7.49    0.68
  -6  -2 -22    6.85    0.59
   6   2 -22    7.02    0.57
  -6  -2 -22    7.38    0.43
   6  -2 -22    8.06    0.63
   0  -3 -22   12.28    0.87
   0   3 -22   11.52    0.78
   0  -3 -22   12.02    0.71
   1   3 -22    5.61    0.61
  -1  -3 -22    5.92    0.50
  -1  -3 -22    6.34    0.63
  -1   3 -22    4.37    0.58
   1  -3 -22    4.84    0.52
   1  -3 -22    4.73    0.85
   2   3 -22    1.52    0.35
  -2  -3 -22    1.17    0.31
  -2  -3 -22    1.33    0.26
  -2  -3  22    0.05    0.55
   2  -3 -22    0.68    0.59
  -2   3 -22    0.76    0.32
   2  -3 -22    0.58    0.29
   3   3 -22    2.48    0.40
  -3  -3 -22    3.43    0.49
  -3  -3 -22    2.70    0.37
  -3   3 -22    2.73    0.40
   3  -3 -22    2.96    0.60
  -4  -3 -22    1.09    0.23
  -4  -3 -22    1.18    0.31
   4   3 -22    0.63    0.32
  -4   3 -22    1.46    0.35
  -4  -3  22    1.27    0.61
   4  -3 -22    0.94    0.46
   5   3 -22    0.08    0.26
  -5  -3 -22   -0.10    0.25
  -5  -3 -22    0.03    0.16
   5  -3 -22    0.40    0.35
  -5   3 -22    0.29    0.32
  -5  -3  22   -0.70    0.57
   6   3 -22    6.31    0.50
  -6  -3 -22    6.53    0.40
  -6   3 -22    5.95    0.65
   6  -3 -22    5.63    0.61
   0   4 -22    0.51    0.29
   0  -4 -22    0.37    0.26
   0  -4 -22    0.79    0.36
   1   4 -22    3.57    0.54
  -1  -4 -22    3.53    0.55
  -1  -4 -22    3.23    0.44
   1  -4 -22    4.13    0.79
   1  -4 -22    3.50    0.49
  -1  -4  22    2.63    0.65
  -1   4 -22    2.87    0.49
   2   4 -22    0.93    0.32
  -2  -4 -22    0.53    0.30
  -2  -4 -22    0.72    0.24
   2  -4 -22    0.65    0.28
   2  -4 -22    0.81    0.61
  -2   4 -22    1.02    0.31
   3   4 -22    0.49    0.30
  -3  -4 -22    0.48    0.22
  -3  -4  22    0.55    0.52
  -3   4 -22    0.32    0.27
   3  -4 -22    0.53    0.28
   4   4 -22   10.48    0.68
  -4  -4 -22   10.57    0.69
  -4  -4 -22   10.80    0.59
  -4  -4  22   10.10    1.07
   4  -4 -22   11.05    1.07
  -4   4 -22   10.64    0.69
  -5  -4 -22    0.58    0.18
  -5  -4 -22    0.71    0.28
   5   4 -22    1.03    0.27
  -5   4 -22    0.62    0.27
   5  -4 -22    0.49    0.45
  -6  -4 -22    3.25    0.33
  -6   4  22    3.41    0.49
  -6   4 -22    2.92    0.49
   6  -4 -22    3.43    0.55
   0  -5 -22    7.13    0.57
   0  -5  22    7.19    1.08
   0   5 -22    6.25    0.64
   0  -5 -22    7.86    0.82
  -1  -5 -22    5.42    0.65
   1   5 -22    5.05    0.54
  -1  -5 -22    4.82    0.48
  -1  -5  22    5.94    1.09
   1  -5 -22    4.62    0.53
   1  -5 -22    5.10    0.85
  -1   5 -22    4.22    0.51
  -2  -5 -22    1.73    0.28
   2   5 -22    1.68    0.32
  -2  -5 -22    1.72    0.35
  -2  -5  22    1.90    0.58
   2  -5 -22    0.98    0.28
  -2   5 -22    1.45    0.29
   2  -5 -22    2.06    0.64
  -3  -5 -22    1.16    0.23
   3   5 -22    1.31    0.29
  -3  -5 -22    1.16    0.31
  -3   5 -22    1.31    0.28
   3  -5 -22    1.43    0.30
  -3  -5  22    1.58    0.55
  -4  -5 -22    0.25    0.29
  -4  -5 -22    0.36    0.19
   4   5 -22    0.36    0.25
  -4   5 -22    0.44    0.23
  -4  -5  22    0.46    0.53
  -5  -5 -22    5.14    0.38
  -5   5 -22    5.28    0.45
   0  -6 -22    1.06    0.41
   0   6 -22    0.72    0.25
   0  -6 -22    0.80    0.26
  -1  -6 -22    0.02    0.22
  -1  -6 -22    0.09    0.34
   1   6 -22    0.41    0.24
   1  -6 -22    0.28    0.24
  -1   6 -22    0.32    0.23
  -1  -6  22    1.31    0.63
   1  -6 -22   -0.25    0.46
  -2  -6 -22   10.77    0.78
  -2  -6 -22   10.46    0.61
   2   6 -22   10.03    0.61
  -2   6 -22   10.84    0.61
  -2  -6  22   11.61    1.14
   2  -6 -22   10.66    0.64
  -3  -6 -22    4.90    0.42
  -3  -6 -22    4.49    0.60
   3  -6 -22    4.60    0.45
  -3   6 -22    5.14    0.43
  -4   6  22    0.95    0.25
  -4  -6 -22    0.90    0.21
  -4   6 -22    0.92    0.23
   0   7 -22    0.09    0.20
   0  -7 -22    0.70    0.24
  -1  -7 -22    2.92    0.40
  -1   7 -22    2.85    0.36
   1  -7 -22    2.53    0.38
  -2  -7 -22    4.41    0.42
  -2   7 -22    5.17    0.40
   2  -7 -22    4.78    0.42
   0   0 -23   -0.18    0.30
   0   0 -23    0.62    0.40
  -1   0 -23    0.17    0.24
  -1   0 -23    0.39    0.45
   1   0 -23    0.11    0.38
  -2   0 -23   23.15    1.04
   2   0 -23   22.69    1.23
  -2   0 -23   23.75    1.32
  -3   0 -23    3.95    0.39
   3   0 -23    3.41    0.60
   4   0 -23    1.73    0.37
  -4   0 -23    2.11    0.33
  -5   0 -23    0.96    0.20
   5   0 -23    0.91    0.30
   6   0 -23    3.89    0.47
  -6   0 -23    4.46    0.34
   0  -1 -23   13.21    0.73
   0   1 -23   12.17    0.88
   0  -1 -23   11.63    1.03
   1   1 -23   16.73    1.02
  -1  -1 -23   15.28    1.45
  -1  -1 -23   16.83    0.86
  -1  -1 -23   18.42    1.57
   1  -1 -23   18.42    0.92
   1  -1 -23   17.69    1.12
  -1   1 -23   16.83    1.04
  -1   1 -23   18.25    0.98
   2   1 -23   11.08    0.80
  -2  -1 -23   10.91    0.88
  -2  -1 -23   10.77    0.64
   2  -1 -23   10.03    0.88
  -2   1 -23   11.45    0.65
  -2   1 -23   11.13    0.86
  -3  -1 -23    0.53    0.21
  -3  -1 -23    0.71    0.38
   3   1 -23    0.68    0.33
   3  -1 -23    0.49    0.38
  -3   1 -23    0.74    0.25
  -3   1 -23    0.84    0.46
   4   1 -23    0.67    0.33
  -4  -1 -23    0.43    0.36
  -4  -1 -23    0.65    0.22
  -4   1 -23    0.21    0.53
   4  -1 -23    0.45    0.32
  -4   1 -23    0.62    0.21
  -5  -1 -23    4.70    0.37
   5   1 -23    5.13    0.52
  -5  -1 -23    3.96    0.70
  -5   1 -23    3.91    0.36
   5  -1 -23    4.73    0.57
   6   1 -23    1.52    0.30
  -6  -1 -23    2.21    0.29
  -6  -1  23    2.10    0.32
   6  -1 -23    1.63    0.31
   0   2 -23    2.73    0.43
   0  -2 -23    2.13    0.54
   0  -2 -23    2.59    0.35
  -1  -2 -23   -0.34    0.37
   1   2 -23   -0.14    0.30
  -1  -2 -23    0.14    0.22
   1  -2 -23    0.48    0.53
  -1   2 -23    0.02    0.31
   1  -2 -23    0.34    0.27
  -2  -2 -23   17.62    1.03
   2   2 -23   17.49    1.00
  -2  -2 -23   17.21    0.87
  -2   2 -23   18.36    1.02
   2  -2 -23   18.62    1.22
   2  -2 -23   18.30    0.93
  -3  -2 -23    9.88    0.75
   3   2 -23    9.36    0.71
  -3  -2 -23   10.26    0.57
  -3   2 -23    8.53    0.77
   3  -2 -23    8.01    0.84
  -4  -2 -23   11.73    0.77
  -4  -2 -23   11.37    0.60
   4   2 -23   11.00    0.74
   4  -2 -23   11.53    0.85
  -4   2 -23   10.72    0.82
   5   2 -23    1.85    0.32
  -5  -2 -23    2.83    0.57
  -5  -2 -23    2.18    0.31
   5  -2 -23    2.30    0.40
  -5   2 -23    2.53    0.48
  -6  -2 -23    3.16    0.30
   6   2 -23    2.50    0.33
   6  -2 -23    2.80    0.47
   0  -3 -23    0.54    0.26
   0  -3 -23    0.98    0.45
   0   3 -23    0.42    0.30
  -1  -3 -23   13.25    0.71
   1   3 -23   12.95    0.81
  -1  -3 -23   13.18    0.87
   1  -3 -23   11.18    0.72
  -1   3 -23   10.78    0.76
   2   3 -23   15.03    0.89
  -2  -3 -23   15.55    0.79
  -2  -3 -23   15.21    0.93
  -2   3 -23   16.55    1.00
   2  -3 -23   15.72    1.23
   3   3 -23    5.16    0.58
  -3  -3 -23    5.86    0.47
  -3  -3 -23    5.48    0.62
   3  -3 -23    5.71    0.59
  -3   3 -23    6.03    0.59
   3  -3 -23    6.49    0.91
  -4  -3 -23    1.28    0.32
   4   3 -23    1.49    0.31
  -4  -3 -23    1.17    0.22
  -4   3 -23    1.74    0.35
   4  -3 -23    2.31    0.47
   5   3 -23    2.49    0.35
  -5  -3 -23    3.55    0.32
  -5  -3 -23    2.73    0.55
  -5   3 -23    3.28    0.41
   5  -3 -23    4.54    0.60
  -6  -3 -23    1.75    0.24
   6   3 -23    1.20    0.26
  -6   3 -23    1.12    0.42
   6  -3 -23    0.64    0.32
   0  -4 -23    0.96    0.43
  -1  -4 -23    2.17    0.39
   1   4 -23    2.11    0.50
  -1  -4 -23    1.75    0.42
   1  -4 -23    2.15    0.34
  -1   4 -23    1.88    0.36
   1  -4 -23    2.66    0.60
  -2  -4 -23    6.19    0.47
  -2  -4 -23    6.79    0.66
   2   4 -23    6.32    0.57
  -2  -4  23    6.89    1.20
  -2   4 -23    6.60    0.56
   2  -4 -23    5.76    0.52
  -3  -4 -23   13.19    0.68
   3   4 -23   13.02    0.75
  -3  -4 -23   13.07    0.82
  -3   4 -23   13.81    0.77
   3  -4 -23   13.16    0.73
  -4  -4 -23    0.22    0.31
  -4  -4 -23    0.23    0.18
   4   4 -23    0.03    0.23
   4  -4 -23    0.35    0.52
  -4   4 -23    0.12    0.25
  -5  -4 -23    0.57    0.17
  -5   4 -23    0.85    0.27
   5  -4 -23    1.08    0.43
   0   5 -23    0.52    0.26
   0  -5 -23    0.37    0.24
   0  -5 -23    0.46    0.42
   1   5 -23    6.51    0.53
  -1  -5 -23    7.24    0.50
  -1  -5 -23    7.65    0.73
  -1   5 -23    5.63    0.51
   1  -5 -23    5.89    0.73
   1  -5 -23    5.86    0.52
   2   5 -23    4.63    0.47
  -2  -5 -23    3.83    0.61
  -2  -5 -23    4.66    0.41
  -2  -5  23    3.00    0.75
  -2   5 -23    4.07    0.44
   2  -5 -23    4.29    0.46
  -3  -5 -23    0.47    0.31
  -3  -5 -23    0.82    0.21
   3   5 -23    0.84    0.26
   3  -5 -23    0.65    0.27
  -3   5 -23    0.78    0.24
  -4  -5 -23    2.92    0.32
  -4   5 -23    2.60    0.38
   0  -6 -23    2.24    0.53
   0   6 -23    2.41    0.31
   0  -6 -23    2.83    0.39
  -1  -6 -23    0.98    0.24
  -1  -6 -23    1.23    0.42
   1   6 -23    1.04    0.24
   1  -6 -23    0.47    0.23
  -1   6 -23    0.60    0.22
   2   6 -23    3.72    0.40
  -2  -6 -23    2.79    0.37
  -2   6 -23    3.46    0.39
   2  -6 -23    3.94    0.42
  -3  -6 -23    4.98    0.40
   3  -6 -23    5.57    0.48
  -3   6 -23    5.60    0.43
   0   0 -24   14.26    0.95
  -1   0 -24    2.23    0.33
   1   0 -24    2.72    0.45
  -1   0 -24    2.82    0.70
  -2   0 -24   15.41    1.06
   2   0 -24   13.12    0.91
  -2   0 -24   14.04    0.85
   3   0 -24    6.91    0.70
  -3   0 -24    7.87    0.49
   4   0 -24    4.89    0.55
  -4   0 -24    5.57    0.40
   5   0 -24    1.95    0.34
  -5   0 -24    2.58    0.30
  -6   0 -24    7.72    0.43
   6   0 -24    7.81    0.54
   0   1 -24    0.94    0.35
   0  -1 -24    0.76    0.28
  -1  -1 -24   17.00    1.77
   1   1 -24   16.12    0.94
  -1  -1 -24   14.98    0.77
   1  -1 -24   13.13    0.95
   1  -1 -24   13.09    1.37
  -1   1 -24   15.84    0.95
  -2  -1 -24    1.23    0.25
   2   1 -24    1.73    0.37
  -2   1 -24    1.86    0.45
   2  -1 -24    1.81    0.48
  -3  -1 -24    2.02    0.59
  -3  -1 -24    1.48    0.26
   3   1 -24    1.47    0.35
   3  -1 -24    2.55    0.42
  -3   1 -24    1.66    0.45
  -3   1 -24    1.76    0.29
   4   1 -24    1.08    0.30
  -4  -1 -24    0.54    0.63
  -4  -1 -24    1.00    0.20
   4  -1 -24    1.17    0.34
  -4   1 -24    1.24    0.25
  -5  -1 -24    0.79    0.18
   5   1 -24    1.00    0.27
   5  -1 -24    0.85    0.30
   6   1 -24    1.20    0.25
  -6  -1 -24    0.94    0.17
   6  -1 -24    1.11    0.28
   0   2 -24    4.87    0.61
   0  -2 -24    5.19    0.50
  -1  -2 -24   21.70    0.97
  -1  -2 -24   19.60    1.26
   1   2 -24   22.11    1.09
   1  -2 -24   20.79    1.32
  -1   2 -24   17.74    1.32
  -2  -2 -24    2.44    0.49
  -2   2 -24    2.06    0.38
   2  -2 -24    3.40    0.55
   2  -2 -24    2.27    0.42
  -3  -2 -24    5.48    0.73
  -3  -2 -24    5.09    0.41
   3   2 -24    4.70    0.53
   3  -2 -24    4.02    0.67
  -3   2 -24    4.51    0.61
  -4  -2 -24    1.00    0.21
  -4  -2 -24    0.39    0.40
   4   2 -24    1.07    0.30
   4  -2 -24    1.28    0.39
  -4   2 -24    1.77    0.40
  -5  -2 -24    2.79    0.30
   5   2 -24    2.52    0.42
  -5   2 -24    3.15    0.50
   5  -2 -24    3.42    0.51
   0  -3 -24    1.14    0.27
   0   3 -24    1.26    0.35
   0  -3 -24    1.54    0.58
   1   3 -24    1.23    0.34
  -1  -3 -24    1.19    0.26
  -1  -3 -24    2.08    0.48
   1  -3 -24    1.45    0.31
  -1   3 -24    1.39    0.33
   2   3 -24    0.77    0.28
  -2  -3 -24    0.63    0.22
  -2  -3 -24    1.11    0.40
   2  -3 -24    1.50    0.31
  -2   3 -24    1.00    0.30
   3   3 -24    0.60    0.27
  -3  -3 -24    0.49    0.35
  -3  -3 -24    0.43    0.19
  -3   3 -24    0.21    0.29
   3  -3 -24    0.79    0.49
  -4  -3 -24    0.01    0.35
   4   3 -24    0.27    0.25
  -4  -3 -24    0.69    0.19
   4  -3 -24    0.25    0.40
  -4   3 -24    0.13    0.29
   5   3 -24    3.99    0.43
  -5  -3 -24    4.31    0.32
  -5   3 -24    4.49    0.57
   0  -4 -24    0.16    0.23
   0   4 -24    0.10    0.25
   0  -4 -24    0.46    0.52
   1   4 -24    5.00    0.53
  -1  -4 -24    5.15    0.77
  -1  -4 -24    5.55    0.47
  -1   4 -24    5.40    0.52
   1  -4 -24    5.43    0.49
  -2  -4 -24    2.84    0.46
  -2  -4 -24    3.69    0.38
   2   4 -24    3.87    0.47
   2  -4 -24    3.61    0.45
  -2   4 -24    4.86    0.48
  -3  -4 -24    4.81    0.65
   3   4 -24    4.67    0.46
  -3  -4 -24    4.17    0.37
  -3   4 -24    4.04    0.47
   4   4 -24   10.44    0.59
  -4  -4 -24    9.42    0.51
  -4   4 -24    9.69    0.61
   4  -4 -24    9.13    0.94
   0   5 -24    2.31    0.40
   0  -5 -24    1.61    0.58
   0  -5 -24    1.70    0.28
   1   5 -24    1.47    0.29
  -1  -5 -24    1.58    0.27
  -1  -5 -24    1.98    0.49
   1  -5 -24    2.53    0.39
  -1   5 -24    1.29    0.26
   2   5 -24    1.63    0.28
  -2  -5 -24    1.36    0.24
  -2  -5 -24    1.90    0.44
  -2   5 -24    1.24    0.26
   2  -5 -24    1.45    0.28
  -3  -5 -24    7.69    0.45
   3   5 -24    6.88    0.49
  -3   5 -24    7.05    0.50
   0  -6 -24    7.44    0.49
   0   6 -24    7.02    0.47
  -1  -6 -24    2.53    0.35
   1   6 -24    1.54    0.25
  -1   6 -24    1.82    0.26
   1  -6 -24    2.06    0.36
   0   0 -25    0.62    0.37
  -1   0 -25   12.16    0.78
  -1   0 -25   13.83    0.92
   1   0 -25   12.57    0.86
  -2   0 -25    0.70    0.24
  -2   0 -25    0.13    0.47
   2   0 -25    0.34    0.31
   3   0 -25    0.10    0.29
  -3   0 -25    0.24    0.21
  -4   0 -25    2.74    0.34
   4   0 -25    2.08    0.35
  -5   0 -25    1.49    0.23
   5   0 -25    1.26    0.29
   0   1 -25   10.19    0.76
   0  -1 -25    9.86    0.64
   0  -1 -25   11.10    0.91
  -1  -1 -25   14.59    0.75
   1   1 -25   14.68    0.89
   1  -1 -25   15.23    0.99
  -1   1 -25   14.39    0.92
   2   1 -25    5.10    0.56
  -2  -1 -25    3.90    0.40
   2  -1 -25    4.62    0.66
  -2   1 -25    4.81    0.68
  -3  -1 -25    0.05    0.18
   3   1 -25   -0.12    0.25
   3  -1 -25    0.42    0.32
  -3   1 -25    1.17    0.44
  -4  -1 -25    0.63    0.18
   4   1 -25    0.40    0.25
   4  -1 -25    0.66    0.31
  -5  -1 -25    1.13    0.19
   5   1 -25    1.04    0.27
   5  -1 -25    1.96    0.33
   0   2 -25    0.69    0.30
   0  -2 -25    0.64    0.26
   1   2 -25    4.72    0.54
  -1  -2 -25    4.30    0.42
   1  -2 -25    3.18    0.60
  -1   2 -25    3.19    0.43
   1  -2 -25    3.51    0.49
   2   2 -25    9.54    0.67
  -2  -2 -25    9.19    0.55
   2  -2 -25    9.39    0.84
  -2   2 -25    8.90    0.70
   3   2 -25    2.49    0.44
  -3  -2 -25    2.28    0.32
  -3  -2 -25    1.93    0.84
   3  -2 -25    2.00    0.42
  -3   2 -25    2.35    0.40
   4   2 -25    1.81    0.30
  -4  -2 -25    1.28    0.20
  -4   2 -25    2.05    0.47
   4  -2 -25    1.39    0.36
  -5  -2 -25    9.44    0.47
   5   2 -25    8.97    0.57
   0  -3 -25    0.00    0.22
   0   3 -25   -0.05    0.26
  -1  -3 -25    6.47    1.15
   1   3 -25    4.67    0.51
  -1  -3 -25    4.78    0.41
   1  -3 -25    4.40    0.46
  -1   3 -25    4.15    0.51
   2   3 -25    2.09    0.33
  -2  -3 -25    2.06    0.33
  -2  -3 -25    2.35    0.55
  -2   3 -25    2.77    0.47
  -3  -3 -25    0.66    0.19
   3   3 -25    0.88    0.27
  -3   3 -25    1.23    0.30
   3  -3 -25    0.89    0.48
  -4  -3 -25   -0.06    0.15
   4   3 -25    0.05    0.22
  -4   3 -25    0.23    0.30
   4  -3 -25    0.55    0.39
   0   4 -25    5.06    0.49
   0  -4 -25    5.04    0.45
   1   4 -25    1.25    0.28
  -1  -4 -25    1.35    0.25
  -1   4 -25    1.44    0.29
   1  -4 -25    1.62    0.27
   2   4 -25    5.80    0.49
  -2  -4 -25    6.13    0.43
  -2   4 -25    5.99    0.50
   2  -4 -25    5.54    0.53
  -3  -4 -25    2.69    0.30
   3   4 -25    2.50    0.31
  -3   4 -25    2.51    0.41
   0   5 -25    3.19    0.39
   0  -5 -25    2.49    0.36
   1   5 -25    0.19    0.21
  -1  -5 -25    0.20    0.20
   1  -5 -25   -0.34    0.21
  -1   5 -25    0.38    0.22
   2   5 -25    4.75    0.41
  -2  -5 -25    4.50    0.38
   2  -5 -25    5.02    0.50
  -2   5 -25    4.45    0.40
   0   0 -26   34.55    1.56
   1   0 -26   -0.39    0.31
  -1   0 -26    0.44    0.39
   2   0 -26    6.41    0.62
  -2   0 -26    5.68    0.88
   3   0 -26    3.35    0.48
   4   0 -26    6.90    0.54
   0   1 -26    0.34    0.31
   0  -1 -26    0.96    0.46
   1   1 -26    5.83    0.58
  -1  -1 -26    5.59    0.49
   1  -1 -26    4.87    0.72
  -1   1 -26    5.65    0.61
   2   1 -26    3.66    0.51
  -2  -1 -26    4.38    0.42
   2  -1 -26    4.93    0.61
  -2   1 -26    3.58    0.62
   3   1 -26    2.35    0.34
  -3  -1 -26    2.05    0.33
   3  -1 -26    2.84    0.41
  -3   1 -26    2.16    0.59
  -4  -1 -26    3.60    0.36
   4   1 -26    4.06    0.44
   4  -1 -26    3.26    0.48
   0  -2 -26    2.56    0.44
   0   2 -26    3.48    0.50
  -1  -2 -26   13.66    0.70
   1   2 -26   13.97    0.79
  -1   2 -26   13.85    0.80
   1  -2 -26   12.94    1.04
   2   2 -26    4.97    0.50
  -2  -2 -26    4.96    0.40
   2  -2 -26    4.91    0.72
  -2   2 -26    4.32    0.55
  -3  -2 -26    0.47    0.18
   3   2 -26    0.31    0.25
  -3   2 -26    0.12    0.32
   3  -2 -26    0.91    0.38
   4   2 -26    0.94    0.25
  -4  -2 -26    0.74    0.18
   4  -2 -26    0.76    0.38
  -4   2 -26    1.31    0.39
   0   3 -26    1.94    0.32
   0  -3 -26    2.70    0.40
   1   3 -26    1.21    0.27
  -1  -3 -26    1.05    0.24
  -1   3 -26    0.87    0.28
   1  -3 -26    1.57    0.33
  -2  -3 -26    1.32    0.23
   2   3 -26    1.16    0.27
  -2   3 -26    1.27    0.30
   3   3 -26    4.33    0.44
  -3  -3 -26    3.92    0.35
   3  -3 -26    4.88    0.59
  -3   3 -26    4.73    0.50
   0  -4 -26    0.49    0.22
   0   4 -26    0.52    0.23
   1   4 -26    7.51    0.51
  -1  -4 -26    8.16    0.50
  -1   4 -26    7.75    0.54
  -2  -4 -26    0.28    0.19
   2   4 -26    0.17    0.21
  -2   4 -26    0.36    0.23
   0   0 -27    0.00    0.33
  -1   0 -27   13.92    0.91
   1   0 -27   15.56    0.85
   2   0 -27    4.90    0.55
   3   0 -27    0.13    0.25
   0   1 -27    4.15    0.54
   0  -1 -27    4.43    0.59
   1   1 -27    4.64    0.52
   1  -1 -27    4.33    0.65
  -1   1 -27    4.83    0.58
   2   1 -27    0.57    0.27
   2  -1 -27    0.19    0.32
  -2   1 -27    1.34    0.44
   3   1 -27    4.75    0.45
   3  -1 -27    5.35    0.54
  -3   1 -27    4.16    0.53
   0   2 -27    8.26    0.60
  -1  -2 -27    6.85    0.64
   1   2 -27    7.13    0.53
  -1   2 -27    5.92    0.56
  -2  -2 -27    1.45    0.41
   2   2 -27    2.38    0.40
  -2   2 -27    2.00    0.34
   2  -2 -27    2.35    0.47
   3   2 -27    0.97    0.24
   3  -2 -27    1.32    0.38
  -3   2 -27    1.00    0.34
   0   3 -27    0.92    0.25
   1   3 -27    0.99    0.24
  -1   3 -27    0.42    0.25
   2   3 -27    1.39    0.27
  -2   3 -27    1.79    0.32
   0   0 -28   24.66    1.18
  -1   0 -28    1.36    0.41
   0  -1 -28    1.64    0.48
   0   1 -28    0.79    0.28
   1   1 -28    0.63    0.27
   1  -1 -28    0.49    0.37
  -1   1 -28    0.55    0.29
   2   1 -28    6.21    0.52
   2  -1 -28    7.03    0.61
  -2   1 -28    6.37    0.64
   0   2 -28    0.25    0.24
   1   2 -28    4.16    0.44
  -1   2 -28    4.51    0.48
   0   0   0    0.00    0.00
;
_shelx_hkl_checksum              63684
loop_
_space_group_symop_operation_xyz
'x, y, z'
'-x+1/2, -y, z+1/2'
'-x, y+1/2, -z+1/2'
'x+1/2, -y+1/2, -z'
loop_
_atom_site_label
_atom_site_type_symbol
_atom_site_fract_x
_atom_site_fract_y
_atom_site_fract_z
_atom_site_U_iso_or_equiv
_atom_site_adp_type
_atom_site_occupancy
_atom_site_site_symmetry_order
_atom_site_calc_flag
_atom_site_refinement_flags_posn
_atom_site_refinement_flags_adp
S1 S 0.42851(6) 0.31236(6) 0.71222(2) 0.04455(16) Uani 1 1 d . .
H1 H 0.586(3) 0.463(3) 0.7234(10) 0.044(6) Uiso 1 1 d . .
C1 C 0.6959(3) 0.6018(4) 0.35311(11) 0.0696(8) Uani 1 1 d . .
H1A H 0.7140 0.6428 0.3169 0.104 Uiso 1 1 calc R U
H1B H 0.6018 0.6267 0.3656 0.104 Uiso 1 1 calc R U
H1C H 0.7025 0.5031 0.3501 0.104 Uiso 1 1 calc R U
O1 O 0.3460(2) 0.39359(18) 0.75037(7) 0.0571(4) Uani 1 1 d . .
N1 N 0.7998(3) 0.6508(3) 0.39328(8) 0.0650(7) Uani 1 1 d . .
N2 N 0.5895(2) 0.3769(2) 0.71613(7) 0.0433(4) Uani 1 1 d . .
O2 O 0.43891(19) 0.16658(16) 0.71974(8) 0.0588(4) Uani 1 1 d . .
C2 C 0.9400(3) 0.6773(4) 0.37155(11) 0.0723(8) Uani 1 1 d . .
H2A H 0.9337 0.7006 0.3323 0.108 Uiso 1 1 calc R U
H2B H 0.9980 0.5963 0.3760 0.108 Uiso 1 1 calc R U
H2C H 0.9823 0.7527 0.3919 0.108 Uiso 1 1 calc R U
C5 C 0.8639(2) 0.6529(3) 0.54709(9) 0.0493(5) Uani 1 1 d . .
H5 H 0.9319 0.6872 0.5720 0.059 Uiso 1 1 calc R U
C4 C 0.8822(3) 0.6742(3) 0.48981(9) 0.0530(6) Uani 1 1 d . .
H4 H 0.9629 0.7206 0.4771 0.064 Uiso 1 1 calc R U
C3 C 0.7815(2) 0.6271(2) 0.45077(9) 0.0445(5) Uani 1 1 d . .
C6 C 0.6625(2) 0.5597(3) 0.47235(9) 0.0459(5) Uani 1 1 d . .
H6 H 0.5920 0.5289 0.4478 0.055 Uiso 1 1 calc R U
C7 C 0.6469(2) 0.5375(2) 0.52951(10) 0.0443(5) Uani 1 1 d . .
H7 H 0.5664 0.4911 0.5424 0.053 Uiso 1 1 calc R U
C9 C 0.7300(2) 0.5490(2) 0.63079(9) 0.0419(5) Uani 1 1 d . .
H9 H 0.6275 0.5530 0.6388 0.050 Uiso 1 1 calc R U
C8 C 0.7475(2) 0.5823(2) 0.56839(8) 0.0394(4) Uani 1 1 d . .
C10 C 0.7996(3) 0.6552(3) 0.66808(10) 0.0567(6) Uani 1 1 d . .
H10 H 0.7657 0.7451 0.6651 0.068 Uiso 1 1 calc R U
C11 C 0.9026(4) 0.6343(4) 0.70426(12) 0.0797(9) Uani 1 1 d . .
H11A H 0.9403 0.5462 0.7089 0.096 Uiso 1 1 calc R U
H11B H 0.9382 0.7076 0.7254 0.096 Uiso 1 1 calc R U
C12 C 0.7781(2) 0.4026(2) 0.64466(9) 0.0400(5) Uani 1 1 d . .
C13 C 0.7081(2) 0.3224(2) 0.68475(8) 0.0397(4) Uani 1 1 d . .
C14 C 0.7544(3) 0.1899(3) 0.69702(9) 0.0526(6) Uani 1 1 d . .
H14 H 0.7055 0.1365 0.7233 0.063 Uiso 1 1 calc R U
C15 C 0.8733(3) 0.1370(3) 0.67012(12) 0.0631(7) Uani 1 1 d . .
H15 H 0.9036 0.0476 0.6779 0.076 Uiso 1 1 calc R U
C16 C 0.9469(3) 0.2167(3) 0.63177(13) 0.0637(7) Uani 1 1 d . .
H16 H 1.0286 0.1824 0.6145 0.076 Uiso 1 1 calc R U
C17 C 0.8989(2) 0.3470(3) 0.61927(11) 0.0537(6) Uani 1 1 d . .
H17 H 0.9486 0.3997 0.5930 0.064 Uiso 1 1 calc R U
C18 C 0.2974(3) 0.4664(3) 0.63170(11) 0.0542(6) Uani 1 1 d . .
H18 H 0.2849 0.5317 0.6601 0.065 Uiso 1 1 calc R U
C19 C 0.2483(3) 0.4923(3) 0.57805(12) 0.0620(6) Uani 1 1 d . .
H19 H 0.2036 0.5760 0.5704 0.074 Uiso 1 1 calc R U
C20 C 0.2637(3) 0.3964(3) 0.53524(12) 0.0628(7) Uani 1 1 d . .
C21 C 0.3324(3) 0.2743(3) 0.54754(12) 0.0643(7) Uani 1 1 d . .
H21 H 0.3449 0.2092 0.5191 0.077 Uiso 1 1 calc R U
C22 C 0.3835(3) 0.2458(3) 0.60135(11) 0.0562(6) Uani 1 1 d . .
H22 H 0.4292 0.1626 0.6090 0.067 Uiso 1 1 calc R U
C23 C 0.3653(2) 0.3435(2) 0.64327(10) 0.0446(5) Uani 1 1 d . .
C24 C 0.2073(4) 0.4256(5) 0.47676(15) 0.0993(13) Uani 1 1 d . .
H24A H 0.2665 0.4935 0.4588 0.149 Uiso 1 1 calc R U
H24B H 0.1113 0.4598 0.4794 0.149 Uiso 1 1 calc R U
H24C H 0.2081 0.3420 0.4550 0.149 Uiso 1 1 calc R U
loop_
_atom_site_aniso_label
_atom_site_aniso_U_11
_atom_site_aniso_U_22
_atom_site_aniso_U_33
_atom_site_aniso_U_23
_atom_site_aniso_U_13
_atom_site_aniso_U_12
S1 0.0500(3) 0.0381(3) 0.0456(3) 0.0024(2) 0.0163(2) -0.0039(2)
C1 0.0772(18) 0.086(2) 0.0462(14) 0.0019(13) -0.0070(13) -0.0128(16)
O1 0.0647(10) 0.0521(10) 0.0544(9) -0.0024(7) 0.0275(8) -0.0008(8)
N1 0.0725(14) 0.0844(17) 0.0380(10) 0.0004(10) 0.0019(9) -0.0280(13)
N2 0.0532(10) 0.0395(10) 0.0372(9) 0.0001(8) 0.0089(8) -0.0032(8)
O2 0.0654(10) 0.0414(9) 0.0697(11) 0.0100(8) 0.0188(9) -0.0037(8)
C2 0.0813(18) 0.089(2) 0.0464(13) 0.0057(14) 0.0137(13) -0.0263(19)
C5 0.0447(10) 0.0585(15) 0.0447(12) 0.0044(10) -0.0009(9) -0.0137(11)
C4 0.0532(12) 0.0641(15) 0.0417(11) 0.0053(11) 0.0053(9) -0.0226(12)
C3 0.0506(12) 0.0413(12) 0.0416(11) 0.0011(9) 0.0051(9) -0.0058(10)
C6 0.0419(11) 0.0485(13) 0.0473(12) -0.0029(10) -0.0014(9) -0.0061(10)
C7 0.0356(10) 0.0449(12) 0.0525(13) 0.0018(10) 0.0082(9) -0.0060(9)
C9 0.0395(10) 0.0430(12) 0.0433(11) 0.0078(9) 0.0119(9) 0.0042(9)
C8 0.0373(10) 0.0387(11) 0.0422(11) 0.0045(8) 0.0076(8) 0.0026(9)
C10 0.0769(16) 0.0523(15) 0.0409(11) -0.0016(10) 0.0172(12) 0.0010(12)
C11 0.100(2) 0.078(2) 0.0614(17) -0.0114(15) -0.0073(17) -0.0095(19)
C12 0.0372(10) 0.0430(12) 0.0398(10) 0.0031(9) 0.0007(8) 0.0023(9)
C13 0.0413(10) 0.0442(12) 0.0338(9) 0.0028(9) -0.0006(8) 0.0007(10)
C14 0.0606(13) 0.0478(13) 0.0496(12) 0.0123(10) 0.0006(10) 0.0025(13)
C15 0.0644(15) 0.0511(14) 0.0738(17) 0.0104(13) -0.0027(13) 0.0181(13)
C16 0.0497(13) 0.0625(17) 0.0789(18) 0.0013(13) 0.0089(12) 0.0175(13)
C17 0.0434(11) 0.0577(15) 0.0600(14) 0.0107(11) 0.0121(10) 0.0088(11)
C18 0.0524(13) 0.0502(14) 0.0600(15) -0.0073(11) 0.0031(11) 0.0033(11)
C19 0.0498(12) 0.0660(17) 0.0702(17) 0.0041(13) 0.0001(12) 0.0056(13)
C20 0.0421(12) 0.086(2) 0.0604(15) -0.0018(14) -0.0019(11) -0.0109(14)
C21 0.0639(15) 0.0697(19) 0.0593(15) -0.0178(13) 0.0031(12) -0.0111(14)
C22 0.0592(14) 0.0471(13) 0.0622(15) -0.0097(12) 0.0101(12) -0.0027(12)
C23 0.0385(10) 0.0438(13) 0.0516(12) -0.0036(9) 0.0089(9) -0.0064(10)
C24 0.079(2) 0.149(4) 0.070(2) -0.001(2) -0.0176(17) 0.000(2)
loop_
_atom_type_symbol
_atom_type_description
_atom_type_scat_dispersion_real
_atom_type_scat_dispersion_imag
_atom_type_scat_source
C C 0.0181 0.0091 'International Tables Vol C Tables 4.2.6.8 and 6.1.1.4'
H H 0.0000 0.0000 'International Tables Vol C Tables 4.2.6.8 and 6.1.1.4'
N N 0.0311 0.0180 'International Tables Vol C Tables 4.2.6.8 and 6.1.1.4'
O O 0.0492 0.0322 'International Tables Vol C Tables 4.2.6.8 and 6.1.1.4'
S S 0.3331 0.5567 'International Tables Vol C Tables 4.2.6.8 and 6.1.1.4'
loop_
_geom_angle_atom_site_label_1
_geom_angle_atom_site_label_2
_geom_angle_atom_site_label_3
_geom_angle
O1 S1 O2 120.25(10)
O1 S1 N2 104.66(11)
O2 S1 N2 107.95(11)
O1 S1 C23 108.12(11)
O2 S1 C23 107.92(11)
N2 S1 C23 107.28(10)
N1 C1 H1A 109.5
N1 C1 H1B 109.5
H1A C1 H1B 109.5
N1 C1 H1C 109.5
H1A C1 H1C 109.5
H1B C1 H1C 109.5
C3 N1 C2 119.6(2)
C3 N1 C1 120.6(2)
C2 N1 C1 116.1(2)
C13 N2 S1 122.89(16)
C13 N2 H1 119.7(17)
S1 N2 H1 110.4(17)
N1 C2 H2A 109.5
N1 C2 H2B 109.5
H2A C2 H2B 109.5
N1 C2 H2C 109.5
H2A C2 H2C 109.5
H2B C2 H2C 109.5
C8 C5 C4 122.0(2)
C8 C5 H5 119.0
C4 C5 H5 119.0
C5 C4 C3 121.2(2)
C5 C4 H4 119.4
C3 C4 H4 119.4
C6 C3 N1 122.4(2)
C6 C3 C4 116.8(2)
N1 C3 C4 120.8(2)
C7 C6 C3 121.3(2)
C7 C6 H6 119.4
C3 C6 H6 119.4
C6 C7 C8 122.1(2)
C6 C7 H7 118.9
C8 C7 H7 118.9
C10 C9 C8 112.31(18)
C10 C9 C12 112.40(19)
C8 C9 C12 112.02(17)
C10 C9 H9 106.5
C8 C9 H9 106.5
C12 C9 H9 106.5
C5 C8 C7 116.60(19)
C5 C8 C9 123.0(2)
C7 C8 C9 120.40(19)
C11 C10 C9 126.9(3)
C11 C10 H10 116.6
C9 C10 H10 116.6
C10 C11 H11A 120.0
C10 C11 H11B 120.0
H11A C11 H11B 120.0
C17 C12 C13 117.6(2)
C17 C12 C9 120.54(19)
C13 C12 C9 121.83(18)
C14 C13 C12 120.9(2)
C14 C13 N2 118.27(19)
C12 C13 N2 120.8(2)
C15 C14 C13 119.9(2)
C15 C14 H14 120.1
C13 C14 H14 120.1
C16 C15 C14 120.0(2)
C16 C15 H15 120.0
C14 C15 H15 120.0
C17 C16 C15 119.6(2)
C17 C16 H16 120.2
C15 C16 H16 120.2
C16 C17 C12 122.0(2)
C16 C17 H17 119.0
C12 C17 H17 119.0
C19 C18 C23 119.7(2)
C19 C18 H18 120.1
C23 C18 H18 120.1
C18 C19 C20 121.4(3)
C18 C19 H19 119.3
C20 C19 H19 119.3
C21 C20 C19 118.0(3)
C21 C20 C24 121.2(3)
C19 C20 C24 120.7(3)
C20 C21 C22 121.7(3)
C20 C21 H21 119.1
C22 C21 H21 119.1
C23 C22 C21 118.7(3)
C23 C22 H22 120.6
C21 C22 H22 120.6
C18 C23 C22 120.4(2)
C18 C23 S1 119.15(18)
C22 C23 S1 120.47(19)
C20 C24 H24A 109.5
C20 C24 H24B 109.5
H24A C24 H24B 109.5
C20 C24 H24C 109.5
H24A C24 H24C 109.5
H24B C24 H24C 109.5
loop_
_geom_bond_atom_site_label_1
_geom_bond_atom_site_label_2
_geom_bond_distance
S1 O1 1.4257(16)
S1 O2 1.4260(17)
S1 N2 1.636(2)
S1 C23 1.764(2)
C1 N1 1.442(3)
C1 H1A 0.9600
C1 H1B 0.9600
C1 H1C 0.9600
N1 C3 1.392(3)
N1 C2 1.434(4)
N2 C13 1.437(3)
N2 H1 0.85(3)
C2 H2A 0.9600
C2 H2B 0.9600
C2 H2C 0.9600
C5 C8 1.382(3)
C5 C4 1.384(3)
C5 H5 0.9300
C4 C3 1.397(3)
C4 H4 0.9300
C3 C6 1.389(3)
C6 C7 1.379(3)
C6 H6 0.9300
C7 C8 1.387(3)
C7 H7 0.9300
C9 C10 1.504(3)
C9 C8 1.522(3)
C9 C12 1.523(3)
C9 H9 0.9800
C10 C11 1.306(4)
C10 H10 0.9300
C11 H11A 0.9300
C11 H11B 0.9300
C12 C17 1.390(3)
C12 C13 1.392(3)
C13 C14 1.385(3)
C14 C15 1.382(4)
C14 H14 0.9300
C15 C16 1.377(4)
C15 H15 0.9300
C16 C17 1.371(4)
C16 H16 0.9300
C17 H17 0.9300
C18 C19 1.375(4)
C18 C23 1.377(4)
C18 H18 0.9300
C19 C20 1.383(4)
C19 H19 0.9300
C20 C21 1.377(4)
C20 C24 1.510(4)
C21 C22 1.390(4)
C21 H21 0.9300
C22 C23 1.382(3)
C22 H22 0.9300
C24 H24A 0.9600
C24 H24B 0.9600
C24 H24C 0.9600
