#------------------------------------------------------------------------------
#$Date: 2017-12-19 14:13:16 +0200 (Tue, 19 Dec 2017) $
#$Revision: 204354 $
#$URL: file:///home/coder/svn-repositories/cod/cif/1/54/84/1548484.cif $
#------------------------------------------------------------------------------
#
# This file is available in the Crystallography Open Database (COD),
# http://www.crystallography.net/
#
# All data on this site have been placed in the public domain by the
# contributors.
#
data_1548484
loop_
_publ_author_name
'Ahmed Fetoh'
'Goulven Cosquer'
'Masakazu Morimoto'
'Masahiro Irie'
'Ola El-Gammal'
'Gaber Abu El-Reash'
'Brian K. Breedlove'
'Masahiro Yamashita'
_publ_section_title
;
 Photo-activation of Single Molecule Magnet Behavior in a Manganese-based
 Complex
;
_journal_name_full               'Scientific Reports'
_journal_page_first              23785
_journal_paper_doi               10.1038/srep23785
_journal_volume                  6
_journal_year                    2016
_chemical_formula_sum            'C49 H36 F6 Mn2 N4 O10 S2'
_chemical_formula_weight         1128.82
_space_group_crystal_system      orthorhombic
_space_group_IT_number           33
_space_group_name_Hall           'P -2n 2a'
_space_group_name_H-M_alt        'P 21 c n'
_symmetry_space_group_name_Hall  'P -2n 2a'
_symmetry_space_group_name_H-M   'P 21 c n'
_atom_sites_solution_hydrogens   geom
_cell_angle_alpha                90
_cell_angle_beta                 90
_cell_angle_gamma                90
_cell_formula_units_Z            4
_cell_length_a                   6.613(5)
_cell_length_b                   25.081(19)
_cell_length_c                   30.74(2)
_cell_measurement_temperature    293(2)
_cell_volume                     5099(6)
_computing_cell_refinement       'CrystalClear (Rigaku Inc., 2008)'
_computing_data_collection       'CrystalClear (Rigaku Inc., 2008)'
_computing_data_reduction        'CrystalClear (Rigaku Inc., 2008)'
_computing_structure_refinement  'SHELXL-2013 (Sheldrick, 2013)'
_computing_structure_solution    'SIR 92'
_diffrn_ambient_temperature      93.1500
_diffrn_measured_fraction_theta_full 0.979
_diffrn_measured_fraction_theta_max 0.884
_diffrn_measurement_device_type
;
Saturn724+ (4x4 bin mode)
;
_diffrn_measurement_method       dtprofit.ref
_diffrn_radiation_type           MoK\a
_diffrn_radiation_wavelength     0.710747
_diffrn_reflns_av_R_equivalents  0.3046
_diffrn_reflns_av_unetI/netI     0.5173
_diffrn_reflns_Laue_measured_fraction_full 0.979
_diffrn_reflns_Laue_measured_fraction_max 0.884
_diffrn_reflns_limit_h_max       5
_diffrn_reflns_limit_h_min       -8
_diffrn_reflns_limit_k_max       32
_diffrn_reflns_limit_k_min       -30
_diffrn_reflns_limit_l_max       17
_diffrn_reflns_limit_l_min       -38
_diffrn_reflns_number            13217
_diffrn_reflns_point_group_measured_fraction_full 0.781
_diffrn_reflns_point_group_measured_fraction_max 0.686
_diffrn_reflns_theta_full        25.242
_diffrn_reflns_theta_max         27.113
_diffrn_reflns_theta_min         4.011
_diffrn_source                   'Rotating Anode'
_exptl_absorpt_coefficient_mu    0.659
_exptl_absorpt_correction_type   multi-scan
_exptl_crystal_colour            Yellow
_exptl_crystal_density_diffrn    1.471
_exptl_crystal_description       Needle
_exptl_crystal_F_000             2296
_exptl_crystal_size_max          0.2
_exptl_crystal_size_mid          0.03
_exptl_crystal_size_min          0.01
_refine_diff_density_max         2.203
_refine_diff_density_min         -0.971
_refine_diff_density_rms         0.201
_refine_ls_abs_structure_details
;
 Flack x determined using 160 quotients [(I+)-(I-)]/[(I+)+(I-)]
 (Parsons and Flack (2004), Acta Cryst. A60, s61).
;
_refine_ls_abs_structure_Flack   0.21(14)
_refine_ls_extinction_coef       .
_refine_ls_extinction_method     none
_refine_ls_goodness_of_fit_ref   1.188
_refine_ls_hydrogen_treatment    constr
_refine_ls_matrix_type           full
_refine_ls_number_parameters     288
_refine_ls_number_reflns         7725
_refine_ls_number_restraints     1
_refine_ls_restrained_S_all      1.188
_refine_ls_R_factor_all          0.4995
_refine_ls_R_factor_gt           0.3013
_refine_ls_shift/su_max          0.000
_refine_ls_shift/su_mean         0.000
_refine_ls_structure_factor_coef Fsqd
_refine_ls_weighting_details
'w=1/[\s^2^(Fo^2^)+(0.2000P)^2^] where P=(Fo^2^+2Fc^2^)/3'
_refine_ls_weighting_scheme      calc
_refine_ls_wR_factor_gt          0.5092
_refine_ls_wR_factor_ref         0.6549
_reflns_Friedel_coverage         0.426
_reflns_Friedel_fraction_full    0.541
_reflns_Friedel_fraction_max     0.450
_reflns_number_gt                1643
_reflns_number_total             7725
_reflns_threshold_expression     'I > 2\s(I)'
_cod_data_source_file            Sc-Rep-2016-6-23785-2.cif
_cod_data_source_block           2
_cod_depositor_comments
;
The following automatic conversions were performed:

'_space_group_crystal_system' value 'Orthorhombic' changed to
'orthorhombic' according to the built-in table from CIF Core
dictionary named 'cif_core.dic' version 2.4.1 from 2010-06-29.

'_exptl_absorpt_correction_type' value 'Multi-scan' changed to
'multi-scan' according to the built-in table from CIF Core dictionary
named 'cif_core.dic' version 2.4.1 from 2010-06-29.

Automatic conversion script
Id: cif_fix_values 5376 2017-05-30 11:51:03Z andrius 
;
_cod_original_cell_volume        5098(6)
_cod_database_code               1548484
_shelx_space_group_comment
;
The symmetry employed for this shelxl refinement is uniquely defined
by the following loop, which should always be used as a source of
symmetry information in preference to the above space-group names.
They are only intended as comments.
;
_shelxl_version_number           2013-4
_shelx_res_file
;
TITL a
CELL  0.71073   6.6128  25.0811  30.7368   90.000   90.000   90.000
ZERR     4.00   0.0047   0.0186   0.0219    0.000    0.000    0.000
LATT  -1
SYMM  1/2 + X, - Y, - Z
SYMM    X, 1/2 - Y, 1/2 + Z
SYMM  1/2 + X, 1/2 + Y, 1/2 - Z
SFAC  C    H    N    O    F    S    MN
UNIT  196  144  16   40   24   8    8
MERG   2
FMAP   2
PLAN   50
ACTA
L.S.  50
WGHT    0.200000
FVAR       1.28996
C1    1    0.602259    0.045868    0.915253    11.00000    0.07195
C2    1    0.433324    0.070747    0.937463    11.00000    0.08227
AFIX  43
H2    2    0.312128    0.081322    0.924769    11.00000   -1.20000
AFIX   0
C3    1    0.488278    0.076325    0.984041    11.00000    0.14855
AFIX  43
H3    2    0.403431    0.090256    1.005325    11.00000   -1.20000
AFIX   0
C4    1    0.694416    0.056929    0.992065    11.00000    0.05802
AFIX  43
H4    2    0.735090    0.059630    1.020945    11.00000   -1.20000
AFIX   0
C5    1    0.831165    0.036662    0.966446    11.00000    0.07512
AFIX  43
H5    2    0.955239    0.025472    0.977381    11.00000   -1.20000
AFIX   0
C6    1    0.782417    0.031655    0.917500    11.00000    0.03140
C7    1    0.938175    0.010398    0.895210    11.00000    0.06118
AFIX  43
H7    2    1.052652   -0.001132    0.910055    11.00000   -1.20000
AFIX   0
C8    1    1.085400   -0.003558    0.819221    11.00000    0.19310
AFIX  23
H8A   2    1.147964    0.030307    0.812073    11.00000   -1.20000
H8B   2    1.186552   -0.025511    0.833415    11.00000   -1.20000
AFIX   0
C9    1    1.025453   -0.028174    0.781371    11.00000    0.12254
AFIX  23
H9C   2    0.996859   -0.065509    0.786840    11.00000   -1.20000
H9D   2    1.132163   -0.025956    0.759794    11.00000   -1.20000
AFIX   0
C10   1    0.818943    0.004061    0.726340    11.00000    0.11984
AFIX  43
H10   2    0.917761   -0.007103    0.706834    11.00000   -1.20000
AFIX   0
C11   1    0.646221    0.026634    0.710030    11.00000   10.00100
C12   1    0.638925    0.036253    0.660789    11.00000    0.03592
AFIX  43
H12   2    0.740305    0.024920    0.641968    11.00000   -1.20000
AFIX   0
C13   1    0.476313    0.062010    0.647421    11.00000    0.04339
AFIX  43
H13   2    0.491183    0.076774    0.619851    11.00000   -1.20000
AFIX   0
C14   1    0.285513    0.071926    0.665886    11.00000    0.05801
AFIX  43
H14   2    0.163419    0.078577    0.651885    11.00000   -1.20000
AFIX   0
C15   1    0.324702    0.069318    0.710344    11.00000   10.05000
AFIX  43
H15   2    0.224036    0.079609    0.729733    11.00000   -1.20000
AFIX   0
C16   1    0.501290    0.052602    0.726065    11.00000    0.05228
C17   1    0.034793   -0.290682    1.251201    11.00000   10.00100
C18   1    0.191758   -0.291568    1.273191    11.00000    0.05176
AFIX  43
H18   2    0.289313   -0.316462    1.265296    11.00000   -1.20000
AFIX   0
C19   1    0.234794   -0.260179    1.307238    11.00000    0.07463
AFIX  43
H19   2    0.355241   -0.265148    1.322322    11.00000   -1.20000
AFIX   0
C20   1    0.084160   -0.214908    1.322121    11.00000    0.08193
AFIX  43
H20   2    0.110299   -0.189447    1.343386    11.00000   -1.20000
AFIX   0
C21   1   -0.112458   -0.219663    1.295848    11.00000    0.10573
AFIX  43
H21   2   -0.233348   -0.204010    1.304560    11.00000   -1.20000
AFIX   0
C22   1   -0.092974   -0.251031    1.255834    11.00000    0.08227
C23   1   -0.290676   -0.246398    1.226116    11.00000    0.05607
AFIX  43
H23   2   -0.379126   -0.219672    1.234935    11.00000   -1.20000
AFIX   0
C24   1   -0.537393   -0.257662    1.171012    11.00000    0.11118
AFIX  23
H24A  2   -0.640872   -0.245970    1.191242    11.00000   -1.20000
H24B  2   -0.516615   -0.230659    1.148866    11.00000   -1.20000
AFIX   0
C25   1   -0.582087   -0.308578    1.152696    11.00000    0.08638
AFIX  23
H25A  2   -0.662932   -0.328284    1.173549    11.00000   -1.20000
H25B  2   -0.665212   -0.303045    1.127089    11.00000   -1.20000
AFIX   0
C26   1   -0.380138   -0.379435    1.113824    11.00000    0.08273
AFIX  43
H26   2   -0.507979   -0.390795    1.105274    11.00000   -1.20000
AFIX   0
C27   1   -0.249580   -0.412218    1.091456    11.00000    0.06998
C28   1   -0.319792   -0.455411    1.058806    11.00000    0.06528
AFIX  43
H28   2   -0.452071   -0.459123    1.048988    11.00000   -1.20000
AFIX   0
C29   1   -0.170821   -0.485829    1.046835    11.00000    0.03134
AFIX  43
H29   2   -0.200602   -0.506810    1.022724    11.00000   -1.20000
AFIX   0
C30   1    0.016916   -0.493175    1.062097    11.00000    0.03998
AFIX  43
H30   2    0.107630   -0.518982    1.052550    11.00000   -1.20000
AFIX   0
C31   1    0.051490   -0.457993    1.092684    11.00000    0.08226
AFIX  43
H31   2    0.183737   -0.457464    1.102969    11.00000   -1.20000
AFIX   0
C32   1   -0.075593   -0.421710    1.112091    11.00000    0.08432
C33   1    0.002103   -0.237094    1.118734    11.00000    0.04352
C34   1    0.159534   -0.228577    1.081596    11.00000    0.07060
C35   1    0.196856   -0.261153    1.047461    11.00000    0.03721
AFIX  43
H35   2    0.130168   -0.293513    1.043939    11.00000   -1.20000
AFIX   0
C36   1    0.347937   -0.242420    1.016562    11.00000    0.06143
C37   1    0.434295   -0.198302    1.031277    11.00000   10.00100
C38   1    0.632686   -0.167933    1.008453    11.00000    0.06569
AFIX  33
H38A  2    0.666052   -0.136572    1.024857    11.00000   -1.50000
H38B  2    0.599648   -0.158029    0.979133    11.00000   -1.50000
H38C  2    0.746310   -0.191756    1.008258    11.00000   -1.50000
AFIX   0
C39   1    0.425314   -0.277649    0.978585    11.00000    0.06720
C40   1    0.461329   -0.331988    0.988406    11.00000    0.06856
C41   1    0.564348   -0.355633    0.937815    11.00000    0.07985
C42   1    0.616929   -0.296341    0.911983    11.00000    0.08406
C43   1    0.465394   -0.255938    0.937816    11.00000    0.02552
C44   1    0.085989   -0.188646    0.945279    11.00000    0.03047
AFIX  33
H44A  2    0.009311   -0.156512    0.941303    11.00000   -1.50000
H44B  2    0.119452   -0.192678    0.975492    11.00000   -1.50000
H44C  2    0.007179   -0.218660    0.935889    11.00000   -1.50000
AFIX   0
C45   1    0.294698   -0.185374    0.916462    11.00000    0.08594
C46   1    0.450011   -0.213372    0.914815    11.00000   10.00477
C47   1    0.575297   -0.182164    0.884365    11.00000    0.05168
AFIX  43
H47   2    0.702116   -0.194962    0.876491    11.00000   -1.20000
AFIX   0
C48   1    0.516318   -0.139897    0.869252    11.00000    0.02688
C49   1    0.590878   -0.099256    0.835349    11.00000    0.07769
N1    3    0.928697    0.005293    0.847751    11.00000    0.04345
N2    3    0.850518   -0.002295    0.766064    11.00000    0.08319
N3    3   -0.415193   -0.341015    1.140584    11.00000    0.06398
N4    3   -0.351055   -0.271924    1.192871    11.00000    0.02863
O1    4    0.535369    0.047800    0.866624    11.00000    0.05393
O2    4    0.479267    0.044489    0.775643    11.00000    0.05675
O3    4    0.051347   -0.316261    1.212356    11.00000    0.05633
O4    4   -0.043944   -0.388521    1.148804    11.00000    0.14009
O5    4   -0.048115   -0.283244    1.118549    11.00000    0.10076
O6    4    0.021331   -0.193712    1.144079    11.00000    0.09796
O7    4    0.559666   -0.053064    0.828824    11.00000    0.03987
O8    4    0.739660   -0.125663    0.814075    11.00000    0.07617
O9    4    0.801032    0.107270    0.813369    11.00000    0.07846
O10   4   -0.320377   -0.380873    1.222631    11.00000    0.10095
F1    5    0.645692   -0.333006    1.012945    11.00000    0.10097
F2    5    0.343801   -0.363441    1.002950    11.00000    0.07541
F3    5    0.717643   -0.386040    0.940874    11.00000    0.08563
F4    5    0.400609   -0.374528    0.924568    11.00000    0.12977
F5    5    0.796434   -0.293694    0.917524    11.00000    0.07689
F6    5    0.527281   -0.308278    0.872371    11.00000    0.08232
S1    6    0.316228   -0.175678    1.076595    11.00000    0.06460
S2    6    0.280265   -0.122169    0.889344    11.00000    0.06355
MN01  7    0.678269    0.020413    0.815917    11.00000    0.07081
MN02  7   -0.161033   -0.332398    1.173024    11.00000    0.07456
HKLF    4
REM  a
REM R1 =  0.3013 for    1643 Fo > 4sig(Fo)  and  0.4995 for all    7725 data
REM    288 parameters refined using      1 restraints
END
WGHT      0.2000      0.0000
REM Highest difference peak  2.203,  deepest hole -0.971,  1-sigma level  0.201
Q1    1   1.3176 -0.0673  0.6907  11.00000  0.05    2.20
Q2    1  -0.1728 -0.3572  1.1726  11.00000  0.05    1.91
Q3    1   0.6810  0.0416  0.8151  11.00000  0.05    1.86
Q4    1   0.6722  0.0006  0.8143  11.00000  0.05    1.85
Q5    1  -0.1589 -0.3104  1.1723  11.00000  0.05    1.79
Q6    1   1.2095  0.1280  0.8288  11.00000  0.05    1.57
Q7    1   0.3304 -0.1518  1.0772  11.00000  0.05    1.12
Q8    1   0.2888 -0.1004  0.8903  11.00000  0.05    1.11
Q9    1   0.3100 -0.1914  1.0764  11.00000  0.05    1.02
Q10   1   0.2931 -0.1453  0.8901  11.00000  0.05    1.01
Q11   1  -0.0612 -0.2682  1.1181  11.00000  0.05    0.75
Q12   1   0.7385 -0.3713  0.9460  11.00000  0.05    0.74
Q13   1   0.5255 -0.3267  0.8729  11.00000  0.05    0.72
Q14   1   0.3979  0.0507  0.9342  11.00000  0.05    0.69
Q15   1  -0.3296 -0.2980  1.1946  11.00000  0.05    0.68
Q16   1   0.4521  0.0202  0.7779  11.00000  0.05    0.67
Q17   1   0.8100 -0.0198  0.7674  11.00000  0.05    0.66
Q18   1   0.8594  0.0815  0.7839  11.00000  0.05    0.66
Q19   1   0.0657 -0.2429  1.3209  11.00000  0.05    0.65
Q20   1  -0.6093 -0.3293  1.1494  11.00000  0.05    0.65
Q21   1   0.5472 -0.0761  0.8315  11.00000  0.05    0.65
Q22   1   0.8434  0.0697  0.6908  11.00000  0.05    0.64
Q23   1  -0.3175 -0.4061  1.2191  11.00000  0.05    0.63
Q24   1  -0.3082 -0.2506  1.1895  11.00000  0.05    0.63
Q25   1   0.6818  0.1606  0.8125  11.00000  0.05    0.62
Q26   1  -0.1973 -0.2173  1.0742  11.00000  0.05    0.62
Q27   1   0.0487 -0.2875  1.2088  11.00000  0.05    0.61
Q28   1   0.1674 -0.2392  1.0480  11.00000  0.05    0.61
Q29   1   0.0637 -0.2608  1.2504  11.00000  0.05    0.61
Q30   1   0.9082 -0.3735  0.9376  11.00000  0.05    0.61
Q31   1   0.7635 -0.2698  0.9102  11.00000  0.05    0.61
Q32   1   0.8861 -0.0137  0.9038  11.00000  0.05    0.61
Q33   1   0.1057 -0.2625  0.9246  11.00000  0.05    0.59
Q34   1   0.9904 -0.0568  0.7770  11.00000  0.05    0.59
Q35   1   0.8340  0.1285  0.8152  11.00000  0.05    0.59
Q36   1   0.8832 -0.0163  0.8535  11.00000  0.05    0.58
Q37   1   0.3820 -0.3920  0.9227  11.00000  0.05    0.58
Q38   1   0.5842 -0.3229  0.9201  11.00000  0.05    0.57
Q39   1   0.1714  0.0525  0.7607  11.00000  0.05    0.57
Q40   1   0.2503 -0.1598  0.9286  11.00000  0.05    0.56
Q41   1   1.1792 -0.0873  0.8155  11.00000  0.05    0.56
Q42   1   1.1515 -0.0831  0.8242  11.00000  0.05    0.56
Q43   1   0.3234 -0.3854  1.0037  11.00000  0.05    0.55
Q44   1   0.3366  0.0869  0.7084  11.00000  0.05    0.55
Q45   1   0.5493  0.0733  0.8629  11.00000  0.05    0.55
Q46   1   0.0151 -0.1313  1.1747  11.00000  0.05    0.54
Q47   1   0.0830 -0.3480  1.2214  11.00000  0.05    0.54
Q48   1   0.3459 -0.2061  1.3139  11.00000  0.05    0.54
Q49   1   0.7887  0.0602  0.9253  11.00000  0.05    0.54
Q50   1   1.1937  0.0192  0.9309  11.00000  0.05    0.53
;
_shelx_res_checksum              84638
_shelx_hkl_file
;
   0   0  -7 785.833 1110.93   1
   0   0   7 899.082 1002.47   1
   0   0  -870126.30 3639.79   1
   0   0   873687.90 3627.96   1
   0   0  -9 2745.90 1590.61   1
   0   0   9-331.024 784.527   1
   0   0 -1027562.40 2368.63   1
   0   0 -11 1288.73 1372.50   1
   0   0 -1236344.80 2500.93   1
   0   0 -13-114.492 793.691   1
   0   0 -14-125.687 794.552   1
   0   0 -15 1962.82 1166.06   1
   0   0 -1614045.80 1982.19   1
   0   0 -17-679.786 783.515   1
   0   0 -18 3295.22 1403.20   1
   0   0 -19-15.4288 843.862   1
   0   0 -2032404.9015908.30   1
   0   0 -21 84.0571 919.992   1
   0   0 -22 6062.62 2281.70   1
   0   0 -23 138.785  896.68   1
   0   0 -24 2007.10 1061.25   1
   0   0 -25 800.001 893.229   1
   0   0 -26 2019.11 1257.17   1
   0   0 -27 155.383 890.608   1
   0   0 -28 694.742 999.367   1
   0   0 -29 1026.52 1235.15   1
   0   0 -30 9684.88 4570.21   1
   0   0 -31 2704.47 1903.13   1
   0   0 -32 2921.76 2321.51   1
   0   0 -33-638.135 1272.12   1
   0   0 -34 94.3739 1489.98   1
   0   1  -6 34.6927 681.717   1
   0  -1   6 212.136 624.461   1
   0  -1  -6 482.825 612.493   1
   0   1   6 428.839 676.879   1
   0   1  -7 1871.48 888.167   1
   0  -1   7 1858.19 996.385   1
   0  -1  -7 1834.04 996.282   1
   0   1   7 1651.71 889.556   1
   0   1  -854267.20 3154.44   1
   0  -1   847203.50 2604.09   1
   0  -1  -852715.70 2957.87   1
   0   1   845080.80 2454.75   1
   0   1  -9 950.173 1340.63   1
   0  -1  -9-141.924 1003.14   1
   0  -1   9 425.085 807.294   1
   0   1   9-550.944 847.018   1
   0   1 -10 485.196 963.799   1
   0  -1 -10 1638.97 1043.40   1
   0   1  10 2493.79 1240.53   1
   0   1 -1131161.90 2419.23   1
   0  -1 -1131672.60 2253.35   1
   0   1 -12 2271.62 1063.21   1
   0  -1 -12 3005.85 1046.37   1
   0   1 -13 6754.34 1968.31   1
   0  -1 -1314934.00 1696.20   1
   0   1 -1414185.50 1820.22   1
   0  -1 -1415638.80 1730.93   1
   0   1 -15-445.756 823.869   1
   0  -1 -15 2640.44 1038.34   1
   0   1 -16-493.781 876.962   1
   0  -1 -16 1506.29 1101.93   1
   0   1 -17 3138.60 1766.35   1
   0  -1 -17 1662.88 1112.17   1
   0   1 -18 272.363 917.885   1
   0  -1 -18 534.435 818.388   1
   0   1 -1924617.60 2973.50   1
   0  -1 -1933030.80 3619.02   1
   0   1 -20-378.102 1002.81   1
   0  -1 -20-198.882 870.484   1
   0   1 -21-352.668 953.613   1
   0  -1 -21 1772.36 945.669   1
   0   1 -22-590.018 900.643   1
   0  -1 -22 1203.28 1315.35   1
   0   1 -23 283.556 819.451   1
   0  -1 -23 221.142 966.382   1
   0   1 -24  965.37 923.569   1
   0  -1 -24 3481.67 1974.65   1
   0   1 -25 2117.95 956.079   1
   0  -1 -25 127.614 873.798   1
   0   1 -26 1417.98 1444.31   1
   0  -1 -26 2007.92 1025.21   1
   0   1 -2710351.00 3531.70   1
   0  -1 -2720289.30 2001.20   1
   0   1 -28-417.582 958.258   1
   0  -1 -28 702.854 1014.64   1
   0   1 -29-326.344 1064.94   1
   0  -1 -29 3039.04 1479.69   1
   0   1 -30 9051.52 4380.46   1
   0  -1 -30 3634.79 2424.33   1
   0   1 -31 1062.31 1232.97   1
   0  -1 -31 2437.50 1536.81   1
   0   1 -32 2808.55 2118.60   1
   0  -1 -32 234.019 1425.07   1
   0   1 -33-547.077 1169.94   1
   0  -1 -33 1656.03 1600.43   1
   0   1 -34 1726.77 1545.36   1
   0  -1 -34 1065.52 1649.02   1
   0   1 -35 934.644 2128.63   1
   0   2  -6 2236.46 912.884   1
   0  -2   6 3558.76 1149.23   1
   0  -2  -6 2912.07 1266.52   1
   0   2   6 3227.26 1189.47   1
   0   2  -712487.10 3174.66   1
   0  -2   711836.50 2842.28   1
   0  -2  -716310.10 1550.62   1
   0   2   715950.30 1600.55   1
   0   2  -812070.10 3179.79   1
   0  -2   8 7918.99 2105.01   1
   0  -2  -813745.30 2844.22   1
   0   2   812230.60 2913.26   1
   0   2  -9 3860.65 1419.27   1
   0  -2  -9 4487.06 1859.08   1
   0   2   9 3584.26 1355.05   1
   0   2 -10-124.851 860.722   1
   0  -2 -10 2043.54 1338.11   1
   0   2  10-486.287 798.045   1
   0   2 -1120239.10 1925.24   1
   0  -2 -1118273.20 1718.69   1
   0   2 -12 736.376 994.682   1
   0  -2 -12 2339.96 1370.17   1
   0   2 -1314243.10 1944.18   1
   0  -2 -1313763.80 1391.93   1
   0   2 -14 465.953 950.209   1
   0  -2 -14-398.812  700.34   1
   0   2 -1517278.90 2511.64   1
   0  -2 -1524341.80 2735.48   1
   0   2 -16 1882.99 1141.43   1
   0  -2 -16 2893.69 1255.84   1
   0   2 -1723951.80 2884.82   1
   0  -2 -1734018.80 3747.76   1
   0   2 -18 4399.68 1910.77   1
   0  -2 -18 6110.91 1465.42   1
   0   2 -19 3304.34 1675.91   1
   0  -2 -19 5857.64 1507.43   1
   0   2 -20 1348.41 1142.63   1
   0  -2 -20 7087.39 2351.09   1
   0   2 -21 663.784 1041.38   1
   0  -2 -21 2317.85 1589.69   1
   0   2 -22 4431.98 1797.25   1
   0  -2 -2214289.10 4234.74   1
   0   2 -23 1274.85 1080.17   1
   0  -2 -23-244.197 1018.48   1
   0   2 -2415367.90 9639.49   1
   0  -2 -2415253.20 5039.41   1
   0   2 -25 2020.10 1393.56   1
   0  -2 -25 902.995 1507.38   1
   0   2 -26 449.617 958.646   1
   0  -2 -26 1886.44 1098.37   1
   0   2 -27 1560.67 1119.79   1
   0  -2 -27 1065.92 1049.88   1
   0   2 -28 1424.43 1594.65   1
   0  -2 -28 1239.11 1610.67   1
   0   2 -29-129.923 1103.53   1
   0  -2 -29 931.899 1254.58   1
   0   2 -30 1591.67 1568.48   1
   0  -2 -30 2316.71 2299.97   1
   0   2 -31 125.175 1044.20   1
   0   2 -32 3747.48 2386.66   1
   0  -2 -32 4219.70 3005.65   1
   0   2 -33 3835.71 2273.19   1
   0  -2 -33 2412.71 1772.33   1
   0   2 -34-675.951 1348.79   1
   0   2 -35 578.585 1333.92   1
   0   2 -36 816.649 1445.64   1
   0   3  -585978.10 4079.98   1
   0  -3   590974.40 4260.71   1
   0  -3  -592546.90 4299.35   1
   0   3   590540.70 4299.77   1
   0   3  -6 6453.54 1843.80   1
   0  -3   6 6165.98 1644.92   1
   0  -3  -6 1624.01 828.993   1
   0   3   6 4923.28 1501.80   1
   0   3  -721756.10 1819.95   1
   0  -3   722873.00 1707.70   1
   0  -3  -726744.70 1999.42   1
   0   3   724577.60 1859.27   1
   0   3  -811162.40 2765.84   1
   0  -3  -8 7300.89 1997.80   1
   0   3   8 7902.82 2001.44   1
   0   3  -9 2017.23 1301.02   1
   0  -3  -9 813.292 1301.88   1
   0   3   9-273.953 756.335   1
   0   3 -10 726.711 983.048   1
   0  -3 -10 729.576 887.197   1
   0   3  10 337.001 1050.63   1
   0   3 -1116654.10 1860.65   1
   0  -3 -1124182.60 2084.10   1
   0   3 -12 4917.67 1700.38   1
   0  -3 -12 2526.94 952.366   1
   0   3 -13 574.154 1010.57   1
   0  -3 -13 42.1027 769.385   1
   0   3 -14 956.661 1019.15   1
   0  -3 -14 15.6695 654.666   1
   0   3 -15 2877.32 1951.20   1
   0  -3 -15 2110.32 1112.73   1
   0   3 -16 4097.28 1959.69   1
   0  -3 -16 7676.16 1381.34   1
   0   3 -17 7934.80 1756.36   1
   0  -3 -1714385.90 1973.51   1
   0   3 -18 360.448 1144.44   1
   0  -3 -18 1423.14 906.171   1
   0   3 -19 2214.02 1575.90   1
   0  -3 -19 4963.25 1573.56   1
   0   3 -2011111.60 3247.64   1
   0  -3 -2013347.10 3392.07   1
   0   3 -21 2299.05 1653.57   1
   0  -3 -21 516.078 1078.22   1
   0   3 -22 4105.73 2037.37   1
   0  -3 -22 5335.27 2400.72   1
   0   3 -2310337.10 2681.35   1
   0  -3 -2319054.20 2833.00   1
   0   3 -24 3520.43 2155.31   1
   0  -3 -24 9736.20 3461.26   1
   0   3 -25 6116.94 2048.85   1
   0  -3 -2518342.2013502.50   1
   0   3 -26-422.636 1021.09   1
   0  -3 -26 1625.71 1360.19   1
   0   3 -27 1341.33 1179.50   1
   0  -3 -27 2718.08 1837.69   1
   0   3 -28 3725.84 2008.19   1
   0  -3 -28 1616.93 1762.27   1
   0   3 -29 1457.36 1234.96   1
   0  -3 -29 2321.56 2029.56   1
   0   3 -30-38.8396 1016.25   1
   0   3 -31 2045.01 1173.56   1
   0  -3 -31 903.709 1590.59   1
   0   3 -32 190.202 973.163   1
   0  -3 -32 284.234 1678.04   1
   0   3 -33 773.521 1173.86   1
   0   3 -34 3818.81 2049.42   1
   0   3 -35-431.006 1026.77   1
   0   3 -36 1960.26 2140.39   1
   0   3 -37 5221.09 2876.93   1
   0   4  -414843.00 1560.17   1
   0  -4   417820.60 1308.81   1
   0  -4  -419030.90 1275.57   1
   0   4  -5 5900.19 1745.38   1
   0  -4   5 3138.22 1115.99   1
   0  -4  -5 4642.42 1361.44   1
   0   4   5 3914.97 1443.81   1
   0   4  -610858.50 2703.78   1
   0  -4   610243.50 2619.98   1
   0  -4  -612648.10 3014.48   1
   0   4   613263.30 2599.90   1
   0   4  -722058.50 1981.39   1
   0  -4  -723948.40 2011.01   1
   0   4   722376.10 1820.51   1
   0   4  -8 6801.63 2019.02   1
   0  -4  -8 8281.58 2254.67   1
   0   4   8 5310.15 1597.63   1
   0   4  -9 4868.06 1619.48   1
   0  -4  -9 6916.15 2060.96   1
   0   4   9 3460.05 1178.25   1
   0   4 -10 2932.22 1080.45   1
   0  -4 -10 3356.15 1404.81   1
   0   4  10 958.453 662.358   1
   0   4 -11-454.311 983.774   1
   0  -4 -11 1896.94 1181.52   1
   0   4  11-419.971 633.154   1
   0   4 -12 448.445 1035.00   1
   0  -4 -12 2497.40 1409.64   1
   0   4 -13 1089.40 1130.68   1
   0  -4 -13 303.651 774.507   1
   0   4 -14 5726.88 2246.94   1
   0  -4 -14 8142.72 1316.82   1
   0   4 -15 1245.94 1061.73   1
   0  -4 -15 3502.29 1395.90   1
   0   4 -16-393.635 1177.21   1
   0  -4 -16 297.603 672.913   1
   0   4 -17 1906.80 1318.01   1
   0  -4 -17 1090.03 841.813   1
   0   4 -18 5761.54 1815.43   1
   0  -4 -1811321.30 1815.21   1
   0   4 -19 1885.93 1358.79   1
   0  -4 -19 5095.72 1989.85   1
   0   4 -20-71.9094 1090.86   1
   0  -4 -20 658.622 1004.03   1
   0   4 -21 1083.98 1087.57   1
   0  -4 -21-1439.03 1030.60   1
   0   4 -22 3079.20 1808.24   1
   0  -4 -22 3728.34 1788.82   1
   0   4 -23 991.577 1137.34   1
   0  -4 -23 5803.76 2443.13   1
   0   4 -24 23.3487 1056.71   1
   0  -4 -24 277.423 1290.71   1
   0   4 -25 1127.89 1161.68   1
   0  -4 -25 1618.13 1391.63   1
   0   4 -26 3166.86 1778.04   1
   0  -4 -26-1260.96 1329.39   1
   0   4 -27 2511.40 1376.41   1
   0  -4 -27 1580.91 1448.30   1
   0   4 -28-429.525 1060.08   1
   0  -4 -28 1597.34 1425.29   1
   0   4 -29 406.454 998.047   1
   0   4 -30 1081.08 1010.44   1
   0  -4 -30 3183.03 2351.83   1
   0   4 -31 2100.15 1493.21   1
   0  -4 -31 3044.03 1974.07   1
   0   4 -32 1659.11 1298.89   1
   0   4 -33 869.423 1283.58   1
   0   4 -34 934.969 1178.96   1
   0   4 -35 2046.07 1835.13   1
   0   4 -36 4548.39 2511.62   1
   0   4 -37-205.081 1216.37   1
   0   4 -38 880.087 1320.74   1
   0   5   0 369.834 277.921   1
   0  -5   0 281.317 436.321   1
   0   5   1 3266.98 1219.83   1
   0  -5  -1 4892.56 1331.54   1
   0   5  -1 4039.11 1183.35   1
   0  -5   1 2706.60 906.425   1
   0   5   215245.20 1273.89   1
   0  -5  -213769.20 2748.11   1
   0   5  -211415.00 2593.57   1
   0  -5   211880.00 2716.91   1
   0  -5  -3 718.439 403.612   1
   0   5  -3 165.585  822.37   1
   0  -5   3 256.987  601.99   1
   0  -5  -4145499.0 6530.48   1
   0   5  -4142049.0 6491.58   1
   0  -5   4152059.024977.40   1
   0   5  -5 7405.09 1979.67   1
   0  -5   5 9229.63 2250.03   1
   0  -5  -512381.60 2968.78   1
   0   5  -6 2001.72 866.565   1
   0  -5  -6 1590.67 861.402   1
   0   5  -714171.40 1496.31   1
   0  -5  -717983.00 1677.08   1
   0   5   717503.40 1655.53   1
   0   5  -816467.40 1562.86   1
   0  -5  -819985.20 1817.59   1
   0   5   819476.60 1602.66   1
   0   5  -9 2212.47 1022.58   1
   0  -5  -9 24.6578 759.748   1
   0   5   9 471.406 597.303   1
   0   5 -10 3728.05 1212.05   1
   0  -5 -10 6425.51 1765.83   1
   0   5  10 6562.17 1702.60   1
   0   5 -11 455.052 991.247   1
   0  -5 -11-413.996 807.438   1
   0   5 -12 3358.81 1645.61   1
   0  -5 -12 5408.53 1766.61   1
   0   5 -1318775.70 2173.14   1
   0  -5 -1324808.30 1995.00   1
   0  -5 -1452607.00 1822.56   1
   0   5 -15 1913.14 1726.89   1
   0  -5 -15 1425.23 864.095   1
   0   5 -16 980.764 1221.49   1
   0  -5 -16 1016.60 1044.45   1
   0   5 -17 2217.13 1720.63   1
   0  -5 -17 741.361 797.563   1
   0   5 -18 822.878 1138.33   1
   0  -5 -18 2956.74 1457.52   1
   0   5 -19 4079.02 1784.29   1
   0  -5 -19 4389.36 1640.78   1
   0   5 -20 4656.14 2209.58   1
   0  -5 -20 3141.32 1595.75   1
   0   5 -21 4068.64 1526.25   1
   0  -5 -21 5717.19 2436.25   1
   0   5 -22 3450.58 1615.27   1
   0  -5 -2211397.20 2875.72   1
   0   5 -23 1121.04 1206.03   1
   0  -5 -23 1131.35 1347.39   1
   0   5 -24 18.2749 1012.14   1
   0  -5 -24 706.478 1494.41   1
   0   5 -25 602.321 1050.61   1
   0  -5 -25 754.271 1471.04   1
   0   5 -26-186.577 981.534   1
   0  -5 -26 2569.19 2204.68   1
   0   5 -2713802.50 5253.29   1
   0  -5 -2725575.0020368.50   1
   0   5 -28 1016.71 1078.90   1
   0   5 -29 548.162 1007.18   1
   0  -5 -29 1599.06 1475.90   1
   0   5 -30 3766.10 1840.25   1
   0  -5 -3018545.4014939.20   1
   0   5 -31 2173.37 1520.97   1
   0   5 -32 703.243 1200.89   1
   0   5 -33 1407.56 1264.18   1
   0   5 -34 469.802 1019.35   1
   0   5 -35  602.32 1069.43   1
   0   5 -36 342.541 1164.83   1
   0   5 -37 2191.45 1794.92   1
   0   5 -38-410.141 1292.41   1
   0   6   031267.60 2400.01   1
   0  -6   034974.90 1957.26   1
   0   6   159425.30 3348.68   1
   0  -6  -157465.90 2834.18   1
   0   6  -157663.00 2855.80   1
   0  -6   156564.10 2845.26   1
   0   6   2 32.5207 305.753   1
   0  -6  -2 1079.17 602.213   1
   0   6  -2 94.3128 547.167   1
   0  -6   2-112.466 587.476   1
   0   6   3 5592.14 1330.69   1
   0  -6  -3 7079.76 1841.96   1
   0   6  -3 6484.13 1692.34   1
   0  -6   3 8068.32 2021.26   1
   0  -6  -4  307.65 290.652   1
   0   6  -4 181.956 692.899   1
   0  -6  -525961.60 1922.16   1
   0   6  -6 7861.21 2184.56   1
   0  -6  -610349.00 2616.68   1
   0   6  -7 3584.54 1116.41   1
   0  -6  -7 1514.72 829.719   1
   0   6  -8 2295.08 1363.37   1
   0  -6  -8 1593.83 878.235   1
   0   6   8 3070.00 1155.00   1
   0   6  -9 4870.51 1647.40   1
   0  -6  -9 2763.42 1264.02   1
   0   6   9 5530.45 1606.81   1
   0   6 -10-1228.13 1054.89   1
   0  -6 -10 1052.32 816.947   1
   0   6  10-893.266 693.097   1
   0   6 -1118614.00 2207.19   1
   0  -6 -1124610.10 1985.43   1
   0   6 -12 5866.51 2231.36   1
   0  -6 -12 7446.27 1296.13   1
   0   6 -13 2538.07 1763.20   1
   0  -6 -13 5899.90 1560.95   1
   0   6 -14 2264.43 1430.33   1
   0  -6 -14-166.064 837.264   1
   0   6 -1511244.00 2281.06   1
   0  -6 -1519298.30 2599.54   1
   0   6 -16  101.67 1225.41   1
   0  -6 -16 94.6383 865.017   1
   0   6 -17 535.523 1159.05   1
   0  -6 -17 2766.81 1587.51   1
   0   6 -18  643.76 1121.36   1
   0  -6 -18 1365.59 988.933   1
   0   6 -19 317.583 1087.69   1
   0  -6 -19-385.042 1148.73   1
   0   6 -20 7866.77 2577.92   1
   0  -6 -2014826.70 4360.36   1
   0   6 -21 5750.44 2416.16   1
   0  -6 -21 5829.93 2472.50   1
   0   6 -22 4424.97 1630.82   1
   0  -6 -22 5618.96 1942.46   1
   0   6 -23 366.595 932.198   1
   0  -6 -23 2168.59 1872.63   1
   0   6 -24 294.514 1045.40   1
   0  -6 -24 446.879 1363.26   1
   0   6 -25 591.436 1073.60   1
   0  -6 -25 1167.79 1522.99   1
   0   6 -26-1026.15 932.218   1
   0  -6 -26 1246.31 1479.31   1
   0   6 -27 1864.92 1161.32   1
   0   6 -28-617.302 931.816   1
   0  -6 -28 3932.89 1953.47   1
   0   6 -29 2551.08 1566.88   1
   0  -6 -29 2329.00 2052.52   1
   0   6 -30 1305.85 1155.33   1
   0   6 -31 387.977 1117.77   1
   0   6 -32 1358.28 1295.57   1
   0   6 -33 1442.51 1147.52   1
   0   6 -34 42.3094 976.627   1
   0   6 -35 1907.98 1419.64   1
   0   6 -36 1382.33 1328.14   1
   0   6 -37 3552.45 2135.10   1
   0   6 -38 2125.23 2066.30   1
   0   7   0 1616.40  759.86   1
   0  -7   0  120.90 515.515   1
   0   7   1 82.4053 483.094   1
   0   7  -1 469.704 592.565   1
   0  -7  -1 635.568 490.291   1
   0  -7   1 89.4443  550.08   1
   0  -7  -238453.50 3544.34   1
   0   7   3119474.0 5594.03   1
   0  -7  -3136950.0 6225.35   1
   0   7  -3124581.0 5757.31   1
   0  -7  -4 1033.99 455.539   1
   0   7  -4 4594.35 1570.88   1
   0  -7  -5-474.083 290.237   1
   0   7  -5 2045.97 1109.38   1
   0  -7  -614751.90 1063.14   1
   0   7  -613828.70 2753.42   1
   0  -7  -613669.90 2775.29   1
   0   7  -7 2283.38 1311.33   1
   0  -7  -7 4551.02 1745.79   1
   0   7  -8 2848.11 1095.55   1
   0  -7  -8 4080.00 1522.40   1
   0   7  -9 360.362 965.456   1
   0  -7  -9-103.641 701.192   1
   0   7 -1041047.50 2964.30   1
   0  -7 -1047687.80 2925.34   1
   0   7 -11 8790.69 1623.57   1
   0  -7 -1110140.10 1469.38   1
   0   7 -12 2515.53 1752.81   1
   0  -7 -12 5537.52 1641.89   1
   0   7 -1338770.80 4625.66   1
   0  -7 -1346032.60 1707.27   1
   0   7 -14 3189.96 1899.69   1
   0  -7 -14-541.348 943.899   1
   0   7 -15 71.3337 1200.11   1
   0  -7 -15 1436.74 1420.43   1
   0   7 -16-583.856 1139.04   1
   0  -7 -16 3218.26 1502.66   1
   0   7 -17  481.88 1068.34   1
   0  -7 -17 1548.37 1124.08   1
   0   7 -18 6385.66 2007.72   1
   0  -7 -1812052.70 3332.83   1
   0   7 -19 2594.27 1385.87   1
   0  -7 -19 487.447 1101.01   1
   0   7 -20 305.762 1129.77   1
   0  -7 -20 456.155 1044.80   1
   0   7 -21 2239.72 1593.76   1
   0  -7 -21 3094.31 1831.81   1
   0   7 -22 1742.96 1464.18   1
   0  -7 -22 2423.67 1422.31   1
   0   7 -23 1296.07 1562.59   1
   0  -7 -23 3141.63 1491.83   1
   0   7 -24 2067.93 1423.76   1
   0  -7 -24 451.066 1315.18   1
   0   7 -25 2023.20 1206.12   1
   0  -7 -25 2143.83 1605.35   1
   0   7 -26 6385.67 2826.84   1
   0   7 -27 1017.08 1086.04   1
   0  -7 -27 3422.53 1941.69   1
   0   7 -28-311.162 932.531   1
   0  -7 -28 537.431 1556.27   1
   0   7 -29 1702.49 1107.73   1
   0   7 -30 1894.90 1239.60   1
   0   7 -31 838.071 1170.05   1
   0   7 -32 914.536 1155.11   1
   0   7 -33 91.5639 860.015   1
   0   7 -34 1257.66 1423.34   1
   0   7 -35 5016.74 1737.54   1
   0   7 -36 3248.14 2131.21   1
   0   7 -37 1349.11 1385.61   1
   0   7 -38 1256.80 1248.14   1
   0   8   0 502.075 702.267   1
   0   8   1 5362.69 1726.22   1
   0   8  -1 4413.78 1569.10   1
   0   8   2 5529.49 1737.01   1
   0  -8  -2 6188.42 1994.71   1
   0   8   3  877.24 623.111   1
   0  -8  -3 2909.81 843.664   1
   0   8  -3 970.099 891.699   1
   0  -8  -4 1361.72 561.831   1
   0   8  -4 2665.76 1128.99   1
   0  -8  -5-168.981 329.882   1
   0   8  -5 947.551 782.622   1
   0  -8  -6 154.239 173.835   1
   0   8  -6 2195.44 1784.10   1
   0  -8  -6 822.163 780.202   1
   0   8  -7 6752.66 1944.56   1
   0  -8  -7 7858.99 1365.57   1
   0   8  -8 1616.59 945.149   1
   0  -8  -8 2231.76 1356.39   1
   0   8  -9-342.496 1011.89   1
   0  -8  -9 2113.25 1086.02   1
   0   8 -10-292.546 1018.97   1
   0  -8 -10 116.758 773.983   1
   0   8 -11 3290.13 1775.46   1
   0  -8 -11 922.897 806.434   1
   0   8 -12 2073.17 1751.45   1
   0  -8 -12 126.864 1277.41   1
   0   8 -13-1325.36 1172.19   1
   0  -8 -13 1156.93 1285.82   1
   0   8 -1412094.90 2512.09   1
   0  -8 -1416768.40 2364.73   1
   0   8 -15 30.1271 1266.34   1
   0  -8 -15-1226.99 987.796   1
   0   8 -16 8727.01 1710.52   1
   0  -8 -1615405.40 2402.04   1
   0   8 -17 -665.56 1109.02   1
   0  -8 -17 1075.20 1094.90   1
   0   8 -18 3178.98 1695.85   1
   0  -8 -18 3588.40 1715.11   1
   0   8 -19 4357.42 2161.64   1
   0  -8 -19 2123.98 1310.96   1
   0   8 -20 978.885 1099.46   1
   0  -8 -20 9123.91 2976.55   1
   0   8 -21 1294.50 1089.54   1
   0  -8 -21 44.4132 1016.06   1
   0   8 -22 1882.52 1248.32   1
   0  -8 -22 8247.81 2822.89   1
   0   8 -23 77.4118 983.303   1
   0  -8 -23 2904.11 1893.65   1
   0   8 -24 6847.58 2469.83   1
   0  -8 -2432561.8023643.40   1
   0   8 -25 5919.39 2341.61   1
   0   8 -26 3362.38 1822.98   1
   0  -8 -2613020.00 5290.11   1
   0   8 -27 1556.30 1550.95   1
   0  -8 -27 3748.35 1953.29   1
   0   8 -28 -380.36 1000.25   1
   0   8 -29 514.156 1175.94   1
   0   8 -30 1642.54 1338.09   1
   0   8 -31 1233.49 1264.17   1
   0   8 -32 725.979 989.721   1
   0   8 -33 1583.49 1413.69   1
   0   8 -34-379.699 961.064   1
   0   8 -35 2944.71 2117.72   1
   0   8 -36 1756.91 1331.35   1
   0   8 -37-83.6784 1176.70   1
   0   9   0  334.65 585.266   1
   0   9   1 2665.32 1209.40   1
   0   9  -1 2373.67 1061.39   1
   0   9   2 7356.57 2100.69   1
   0   9   372535.20 3789.28   1
   0   9  -372107.30 3885.07   1
   0   9   4 217.827 464.636   1
   0   9  -4 250.667 744.489   1
   0   9  -6 810.909 883.847   1
   0   9  -718736.60 2054.89   1
   0  -9  -723930.30 1938.35   1
   0   9  -8 145.041 1039.24   1
   0  -9  -8 857.596 762.696   1
   0   9  -9-1409.56 1095.80   1
   0  -9  -9-208.559 725.001   1
   0   9 -10 2847.62 1749.31   1
   0  -9 -10 1194.06 728.202   1
   0   9 -11 8224.93 1862.22   1
   0  -9 -11 6980.69 1310.30   1
   0   9 -12 3919.11 2053.68   1
   0  -9 -12 8777.80 1901.74   1
   0  -9 -13 3310.81 1342.50   1
   0   9 -14-342.636 1255.19   1
   0  -9 -14 2139.82 1394.70   1
   0   9 -1511854.10 2247.47   1
   0  -9 -1517706.20 2589.30   1
   0   9 -16 2957.42 1808.59   1
   0  -9 -16 3578.74 1736.39   1
   0   9 -17 8376.98 2634.75   1
   0  -9 -1712392.20 3350.02   1
   0   9 -18 2664.77 1382.31   1
   0  -9 -18 6252.21 2281.75   1
   0   9 -19-488.273 1037.93   1
   0  -9 -19 1218.97 1132.55   1
   0   9 -20 1891.15 1502.67   1
   0  -9 -20 6107.86 1808.66   1
   0   9 -21 389.855 1003.52   1
   0  -9 -21-900.354 1113.26   1
   0   9 -22-237.991 974.646   1
   0  -9 -22 589.667 1105.73   1
   0   9 -23 91.4207 979.254   1
   0  -9 -23-702.615 1192.93   1
   0   9 -24 1822.46 1210.02   1
   0  -9 -25 5762.66 2802.54   1
   0   9 -26 469.576 1021.19   1
   0  -9 -26 2751.78 1738.96   1
   0   9 -27 300.984 1140.61   1
   0   9 -28 5083.02 2527.93   1
   0   9 -29 2038.92 1763.05   1
   0   9 -30-549.383 1115.89   1
   0   9 -31 349.243 965.725   1
   0   9 -32-133.812 910.048   1
   0   9 -33 678.582 1044.99   1
   0   9 -34 919.404 1058.56   1
   0   9 -35-445.942 932.647   1
   0   9 -36-581.473 1030.41   1
   0   9 -37-43.1315 1218.69   1
   0  10   0-355.882 531.281   1
   0  10   2-171.044 400.824   1
   0  10  -2 1014.72 683.483   1
   0  10   3 247.829 473.336   1
   0  10  -3 -538.78 723.681   1
   0  10   4 7618.42 833.095   1
   0  10  -5 1823.66 1194.23   1
   0  10  -743454.50 2965.42   1
   0 -10  -744039.80 2876.64   1
   0  10  -8 1883.71 1104.22   1
   0 -10  -8 998.696 774.183   1
   0  10  -913842.50 2267.63   1
   0 -10  -916483.80 2233.56   1
   0  10 -10 59.3984 1179.83   1
   0 -10 -10 546.883 803.558   1
   0  10 -11 2658.16 1404.68   1
   0 -10 -11 4382.07 1849.24   1
   0  10 -12 2263.92 1307.52   1
   0 -10 -12 1203.90 897.655   1
   0  10 -13 7135.43 1679.64   1
   0 -10 -13 9364.70 1887.89   1
   0  10 -14 1030.72 1119.28   1
   0 -10 -14 486.812 1012.10   1
   0  10 -15 3380.70 1414.50   1
   0 -10 -15 1236.32 1040.03   1
   0  10 -16 3751.73 1809.58   1
   0 -10 -16 2754.47 1714.58   1
   0  10 -17 -538.71 1091.08   1
   0 -10 -17-120.912 1110.15   1
   0  10 -18 1289.39 1567.84   1
   0 -10 -18 1861.43 1243.50   1
   0  10 -19 317.287 957.534   1
   0 -10 -19 2370.72 1378.48   1
   0  10 -20 -997.25 977.635   1
   0 -10 -20 145.166 999.479   1
   0  10 -21 5247.44 2429.35   1
   0 -10 -21 9949.40 3642.62   1
   0  10 -22-415.584 1070.07   1
   0 -10 -22 852.699 1127.09   1
   0  10 -23 2492.13 1543.35   1
   0  10 -24-811.407 1051.60   1
   0 -10 -24 992.666 1325.27   1
   0  10 -25 3025.01 2095.36   1
   0 -10 -25-890.499 1323.89   1
   0  10 -26 2611.84 1776.76   1
   0  10 -27 108.521 1150.05   1
   0  10 -28 1878.63 1748.71   1
   0  10 -29 3038.78 2269.59   1
   0  10 -30 833.001 1087.65   1
   0  10 -31-216.838 929.057   1
   0  10 -32 2020.00 1220.44   1
   0  10 -33 3374.84 2101.91   1
   0  10 -34 1794.48 1652.82   1
   0  10 -35 2639.09 1410.15   1
   0  10 -36 2966.66 2025.41   1
   0  11   0 468.454 489.215   1
   0  11   1 1021.77 603.271   1
   0  11  -1 426.032 538.425   1
   0  11   2 3855.27 1583.64   1
   0  11  -2 3676.83 1568.04   1
   0  11  -4 8811.03 1240.58   1
   0  11  -5 385.798 876.386   1
   0  11  -6-124.936 971.908   1
   0  11  -7 1281.94 1028.49   1
   0  11  -8 1876.13 1161.39   1
   0 -11  -8 3757.44 1728.55   1
   0  11  -9 2752.26 1347.72   1
   0 -11  -9 1335.28 794.008   1
   0  11 -10  918.27 1641.19   1
   0 -11 -10  760.82 1130.81   1
   0  11 -11 433.345 1092.65   1
   0 -11 -11 334.132 826.766   1
   0  11 -12 956.423 1154.54   1
   0 -11 -12-426.444  884.70   1
   0  11 -13 508.126 1128.21   1
   0 -11 -13 35.7366 921.752   1
   0  11 -14 4554.01 1513.46   1
   0 -11 -14 5629.44 1456.95   1
   0  11 -15 2440.25 1754.08   1
   0 -11 -15 508.097 1005.26   1
   0  11 -16 854.599 1016.81   1
   0 -11 -16-708.089  964.75   1
   0  11 -17 1528.59 1073.08   1
   0 -11 -17 1005.26 1087.69   1
   0  11 -18 2086.24 1318.95   1
   0 -11 -18 1285.81 1150.50   1
   0  11 -19 1557.14 1747.10   1
   0 -11 -19 1979.42 1351.49   1
   0  11 -20 7400.81 3077.59   1
   0 -11 -2018839.2011858.20   1
   0  11 -21-383.231 1149.86   1
   0  11 -22 1606.55 1131.14   1
   0  11 -23 4163.58 2048.11   1
   0 -11 -2311663.80 4469.30   1
   0  11 -24-1350.11 1201.02   1
   0 -11 -24 233.959 1250.01   1
   0  11 -25 1165.29 1754.68   1
   0  11 -26 2742.28 1551.51   1
   0  11 -27-179.011 1265.08   1
   0  11 -28-1720.48 1235.53   1
   0  11 -29-702.612 1087.86   1
   0  11 -30 2469.62 1224.47   1
   0  11 -31 747.475 907.424   1
   0  11 -32 1389.75 1547.90   1
   0  11 -33-332.853 1043.27   1
   0  11 -34 1451.47 1588.61   1
   0  11 -35 1465.95 1624.68   1
   0  12   0 3167.35 1237.49   1
   0  12   1 1036.00 668.146   1
   0  12  -1 977.279  995.92   1
   0  12   2-166.868 474.006   1
   0  12  -2 87.7433 360.729   1
   0  12   3 284.832  360.21   1
   0  12  -3 14.1985 395.908   1
   0  12   4 2158.36 846.952   1
   0  12  -4 6915.03 1581.99   1
   0  12  -5 3578.98 1544.73   1
   0  12  -7 3367.08 1756.43   1
   0  12  -8-30.3713 1099.39   1
   0 -12  -8 1398.64 939.021   1
   0  12  -9 3990.77 1872.13   1
   0 -12  -9 1704.93 985.659   1
   0  12 -10 1842.80 1642.36   1
   0 -12 -10 939.985 887.941   1
   0  12 -11 1119.56 1191.41   1
   0 -12 -11-212.695 857.678   1
   0  12 -12 3267.95 1669.15   1
   0  12 -13 1789.84 1605.44   1
   0 -12 -13 1677.67 1406.87   1
   0  12 -14 540.952 1565.05   1
   0 -12 -14 2432.82 1520.51   1
   0  12 -15 5517.22 1982.73   1
   0 -12 -15 5149.83 1955.80   1
   0  12 -16 2825.76 2182.20   1
   0 -12 -16 4352.02 2261.18   1
   0  12 -1712529.00 3947.41   1
   0 -12 -1721701.30 6099.77   1
   0  12 -18 905.774 1223.57   1
   0 -12 -18 5380.50 2341.74   1
   0  12 -19 2127.35 1300.29   1
   0 -12 -19 2069.29 1276.91   1
   0  12 -20 1977.86 1312.43   1
   0 -12 -20 3707.06 2106.83   1
   0  12 -21 3510.16 1826.36   1
   0  12 -22 3409.61 1947.27   1
   0 -12 -22 1514.37 1288.27   1
   0  12 -23 4146.15 2425.99   1
   0 -12 -23 3714.60 2157.05   1
   0  12 -24 1624.04 1337.54   1
   0  12 -25 699.433 1319.22   1
   0  12 -26 891.821 1368.25   1
   0  12 -27 1182.51 1388.64   1
   0  12 -28 278.896 1235.99   1
   0  12 -29-213.929 996.779   1
   0  12 -30 1701.03 1460.86   1
   0  12 -31 5206.83 2422.77   1
   0  12 -32 1767.58 1728.77   1
   0  12 -33 4082.56 2383.58   1
   0  12 -34 3400.91 1680.25   1
   0  13   0 553.269 550.582   1
   0  13  -1 4441.38 1907.12   1
   0  13   3 672.932 584.402   1
   0  13  -3 70.7592 528.363   1
   0  13  -4 2306.93 1040.06   1
   0  13  -5 4818.97 1986.59   1
   0  13  -6 2996.49 1755.16   1
   0  13  -7 1137.28 909.994   1
   0  13  -8 1947.37 1550.95   1
   0 -13  -8 126.064  864.86   1
   0  13  -9 2096.23 1553.36   1
   0 -13  -9 627.813 929.404   1
   0 -13 -1013033.80 2107.06   1
   0  13 -11 577.642 1079.74   1
   0 -13 -11 927.881 953.133   1
   0  13 -12 3425.48 1959.74   1
   0 -13 -12 3394.41 1487.46   1
   0  13 -13 7148.66 2159.12   1
   0  13 -14 3393.46 2180.47   1
   0 -13 -14 281.036 960.878   1
   0  13 -15 1607.04 1130.19   1
   0 -13 -15 1579.87 1399.93   1
   0  13 -16 1384.53 1249.42   1
   0 -13 -16 192.855 1079.71   1
   0  13 -17-121.049 1158.19   1
   0 -13 -17 3512.60 1315.22   1
   0  13 -18 4897.44 2222.22   1
   0 -13 -18-466.037 1050.59   1
   0  13 -19 2600.18 1421.04   1
   0 -13 -19 1412.52 1267.67   1
   0  13 -20 1210.62 1295.39   1
   0  13 -21-1472.80 1194.77   1
   0 -13 -21 2648.97 1597.18   1
   0  13 -22 4468.98 2486.82   1
   0 -13 -22 7745.21 3088.44   1
   0  13 -23 2264.81 1980.29   1
   0  13 -24 1951.78 1472.24   1
   0  13 -25 1140.92 1417.71   1
   0  13 -26 875.272 1317.54   1
   0  13 -27 1605.74 1248.04   1
   0  13 -28 636.055 1180.69   1
   0  13 -29 216.854 925.076   1
   0  13 -30 240.958 902.718   1
   0  13 -31 2474.22 1813.24   1
   0  13 -32 865.674 1233.31   1
   0  13 -33 1418.03 1274.83   1
   0  13 -34 970.784 1118.69   1
   0  14   0 8473.86 3173.98   1
   0  14   1 -8.0722 565.507   1
   0  14  -1  189.78 418.254   1
   0  14   2 1034.97 622.487   1
   0  14  -2  983.84 526.612   1
   0  14   3 106.345 183.371   1
   0  14  -3 67.6797 651.336   1
   0  14   4 996.358 667.062   1
   0  14  -4-361.113  777.00   1
   0  14  -5 1053.67 1164.54   1
   0  14  -6-408.022 822.457   1
   0  14  -7 2081.85 1463.10   1
   0  14  -8 2866.89 1531.88   1
   0  14  -9 7064.86 2167.28   1
   0 -14  -9 5218.10 1760.65   1
   0  14 -10-797.204 1039.70   1
   0 -14 -10 2912.86 2269.08   1
   0  14 -11 1841.83 1589.07   1
   0 -14 -11 4262.93 1343.05   1
   0  14 -12-354.423 1084.49   1
   0 -14 -12 2159.37 1496.31   1
   0  14 -13 2255.43 1613.84   1
   0 -14 -13 1937.70 983.591   1
   0  14 -14 222.476 1108.25   1
   0 -14 -14 211.355 1010.53   1
   0  14 -15 2252.87 1310.04   1
   0 -14 -15 4681.23 1686.51   1
   0  14 -16-304.942 1107.48   1
   0 -14 -16 1556.08 1676.90   1
   0  14 -17 4919.83 2282.85   1
   0 -14 -17 487.012 1542.35   1
   0  14 -18 186.703 1164.20   1
   0  14 -19 1676.28 1192.77   1
   0 -14 -19 1171.43 1731.74   1
   0  14 -20 6685.12 2990.54   1
   0 -14 -20 4661.97 2575.20   1
   0  14 -21 1474.23 1390.78   1
   0 -14 -21 3361.34 1688.44   1
   0  14 -2214134.80 5266.44   1
   0  14 -23-559.886 1350.16   1
   0  14 -24-627.585 1353.41   1
   0  14 -25 4310.19 2662.97   1
   0  14 -26-49.9813 1319.38   1
   0  14 -27-843.013 1132.45   1
   0  14 -28-373.816 1100.48   1
   0  14 -29 2240.13 1320.39   1
   0  14 -30 1110.84 1561.30   1
   0  14 -31 377.815 1177.37   1
   0  14 -32 704.629 1346.43   1
   0  14 -33 1050.33 1138.24   1
   0  15   0-229.856 617.704   1
   0  15   1 -50.521 563.792   1
   0  15  -1-187.652 685.641   1
   0  15   2 1408.51 606.848   1
   0  15  -2-750.136 719.533   1
   0  15   3-155.811 371.546   1
   0  15  -3 242.108 693.625   1
   0  15   4-144.643 424.374   1
   0  15  -4 494.189 748.418   1
   0  15  -5 708.625 1198.68   1
   0  15  -6-699.247 819.665   1
   0  15  -7 4161.02 1540.88   1
   0  15  -8 2742.73 1603.81   1
   0  15  -9 2298.39 1256.46   1
   0 -15  -9 2840.46 1810.76   1
   0  15 -10 3144.25 1936.49   1
   0 -15 -10 1511.78 1668.69   1
   0  15 -11 946.896 1108.12   1
   0 -15 -11 868.176 1101.16   1
   0  15 -12 3588.24 1680.05   1
   0 -15 -12 8288.49 2880.62   1
   0  15 -13 264.342 1103.23   1
   0 -15 -13-340.453 952.896   1
   0  15 -15 5213.76 2167.25   1
   0 -15 -15 3875.09 1551.44   1
   0  15 -16 3163.75 2058.81   1
   0 -15 -16 6363.67 2474.97   1
   0  15 -17 1597.05 1143.04   1
   0  15 -18 1230.45 1765.99   1
   0  15 -19 4127.14 2237.55   1
   0 -15 -19 2779.14 2284.53   1
   0  15 -20 1197.73 1276.54   1
   0 -15 -20 273.338 1252.87   1
   0  15 -21 2798.30 1597.11   1
   0  15 -22 1299.71 1458.95   1
   0  15 -23 4178.01 2395.88   1
   0  15 -24 3343.53 2113.70   1
   0  15 -25-116.806 1280.38   1
   0  15 -26  953.37 1811.50   1
   0  15 -27 6858.17 5251.33   1
   0  15 -28 3167.50 1871.12   1
   0  15 -29-364.514 1081.56   1
   0  15 -30 922.389 1373.99   1
   0  15 -31 57.0665 1301.26   1
   0  15 -32 285.427 1263.31   1
   0  16   1 1021.90 1262.64   1
   0  16   2 899.926  775.71   1
   0  16  -2 358.219 387.286   1
   0  16   3 373.532  443.38   1
   0  16  -3 466.078 953.853   1
   0  16   4 2435.56 1129.86   1
   0  16  -4 545.767 418.616   1
   0  16  -6 1139.85  686.59   1
   0  16  -8 408.632 958.292   1
   0  16  -9 2351.04 1842.45   1
   0 -16  -9 4670.19 2465.46   1
   0  16 -10 -605.31 1046.62   1
   0 -16 -10-1759.81 1138.78   1
   0  16 -11-124.862 1078.52   1
   0 -16 -11 -625.70 1050.57   1
   0  16 -12 1014.97 1173.77   1
   0 -16 -12 -316.62 978.608   1
   0  16 -13 922.544 1143.50   1
   0  16 -14 2381.31 1763.41   1
   0 -16 -14-605.056 995.479   1
   0  16 -15 1144.91 1177.37   1
   0 -16 -15 6552.12 2839.34   1
   0  16 -16 562.852 1153.46   1
   0  16 -17 4755.79 2083.34   1
   0 -16 -17 4977.44 2088.27   1
   0  16 -18  822.34 1670.33   1
   0 -16 -18 790.024 1174.99   1
   0  16 -19 894.097 1234.36   1
   0 -16 -19-186.074 1193.08   1
   0  16 -20-87.6225 1289.86   1
   0  16 -21 769.823 1401.14   1
   0  16 -22 4764.30 2935.80   1
   0  16 -23 62.2519 1443.78   1
   0  16 -24 794.925 1473.33   1
   0  16 -25 3319.57 2491.71   1
   0  16 -26-1803.23 1229.66   1
   0  16 -27 3073.42 2320.19   1
   0  16 -28-391.555 1187.72   1
   0  16 -29 17.9985 1222.05   1
   0  16 -30 1741.85 1574.01   1
   0  16 -31-1370.39 1313.95   1
   0  17   0 1269.48 757.464   1
   0  17   1 402.227 370.687   1
   0  17  -1 269.313 571.532   1
   0  17   2 1327.18 998.647   1
   0  17  -2-51.3739 696.369   1
   0  17   3-217.311 478.308   1
   0  17  -3-258.705 771.582   1
   0  17   4-52.2942 487.159   1
   0  17  -4 402.886 739.789   1
   0  17  -5 4518.28 2713.01   1
   0  17  -6 1056.49 637.578   1
   0  17  -7 435.706 1012.76   1
   0  17  -9 5046.36 2276.57   1
   0 -17  -9 3076.67 1656.30   1
   0  17 -10 404.626 1073.64   1
   0 -17 -10 1180.99 1845.22   1
   0  17 -11-542.959 1072.36   1
   0 -17 -11 1276.81 1249.15   1
   0  17 -12 2404.92 1320.04   1
   0 -17 -12 1858.89 1698.15   1
   0  17 -13 1421.87 1220.01   1
   0 -17 -13 69.7288 1047.78   1
   0  17 -14 515.579 1178.90   1
   0 -17 -14 3516.57 1999.99   1
   0  17 -15-63.0495 1142.14   1
   0  17 -16 1512.69 1263.84   1
   0 -17 -16-1189.21 1192.12   1
   0  17 -17 1489.99 1327.23   1
   0 -17 -17 536.736 1053.29   1
   0  17 -18 483.484 1254.86   1
   0 -17 -18-898.861 1292.51   1
   0  17 -19 580.115 1196.52   1
   0  17 -20 1186.85 1388.80   1
   0  17 -21 1935.24 2037.19   1
   0  17 -22 2839.23 1728.43   1
   0  17 -23  298.02 1500.19   1
   0  17 -24 4648.80 3058.34   1
   0  17 -25  912.06 1436.69   1
   0  17 -2619076.0013411.20   1
   0  17 -27 3387.91 2508.17   1
   0  17 -28 2350.72 2153.64   1
   0  17 -29-43.0477 1287.37   1
   0  17 -30 1474.52 2032.48   1
   0  18   0 822.093 938.748   1
   0  18   1 251.773 436.197   1
   0  18  -1 606.932 652.162   1
   0  18   2 106.733 489.559   1
   0  18  -2 584.403 731.055   1
   0  18   3 1509.29 752.845   1
   0  18  -3-65.7088 883.526   1
   0  18   4 519.242 569.862   1
   0  18  -4  338.82 766.887   1
   0  18  -5-574.426 936.385   1
   0  18  -6 756.969  441.20   1
   0  18  -7 683.426 586.632   1
   0  18  -8-401.943 993.912   1
   0  18  -9 3075.71 2252.27   1
   0  18 -10 1553.17 1609.16   1
   0 -18 -10 2973.61 1545.91   1
   0  18 -11 3375.17 1903.31   1
   0 -18 -11 181.905 1181.11   1
   0  18 -12 275.518 1139.63   1
   0 -18 -12 3311.67 1479.10   1
   0  18 -13-1100.48 1191.18   1
   0 -18 -13 2638.63 2199.89   1
   0  18 -14 2010.08 1240.07   1
   0  18 -15-30.5225 1165.50   1
   0 -18 -15 104.152 1048.21   1
   0  18 -16 1956.57 1376.35   1
   0 -18 -16-193.121 1107.75   1
   0  18 -17 2082.96 2279.83   1
   0 -18 -17 7499.99 3233.11   1
   0  18 -18 3415.49 2279.80   1
   0  18 -19-160.954 1297.04   1
   0  18 -20 3041.76 1636.70   1
   0  18 -21 1538.21 1434.30   1
   0  18 -22 811.302 1478.08   1
   0  18 -23 2020.83 1836.68   1
   0  18 -24 5694.16 3189.85   1
   0  18 -25 1830.72 1625.63   1
   0  18 -26-333.668 1339.37   1
   0  18 -27 1650.84 1445.78   1
   0  18 -28 1114.86 1289.80   1
   0  18 -29 -702.18 1227.59   1
   0  19   0 -928.80 649.832   1
   0  19   1  130.02 715.318   1
   0  19  -1 143.878 427.959   1
   0  19   2-17.9235 560.782   1
   0  19  -2-621.245 879.604   1
   0  19  -3 239.539 762.248   1
   0  19   4 289.533 512.036   1
   0  19  -4 294.864 341.504   1
   0  19  -5 484.269 664.103   1
   0  19  -6 1442.70 1151.09   1
   0  19  -7 425.114 506.395   1
   0  19  -8 813.968 791.724   1
   0  19  -9 483.052 794.899   1
   0  19 -10 3755.05 1795.19   1
   0 -19 -10 4651.07 2254.77   1
   0  19 -11 2078.64 1326.57   1
   0 -19 -11 3765.71 2052.17   1
   0  19 -12 234.318 1240.56   1
   0 -19 -12-683.978 1199.66   1
   0  19 -13 3176.01 1978.29   1
   0  19 -14-592.405 1317.56   1
   0 -19 -14 3604.95 1997.83   1
   0  19 -15 2352.12 2418.21   1
   0 -19 -15 506.283 1148.10   1
   0  19 -16 910.351 1371.79   1
   0  19 -17-120.281 1278.18   1
   0  19 -18 3458.10 2569.44   1
   0  19 -19-76.0824 1321.06   1
   0  19 -20 2633.24 1595.66   1
   0  19 -21 1210.75 2195.68   1
   0  19 -22 2198.72 2043.06   1
   0  19 -23 795.467 1760.84   1
   0  19 -24-483.708 1592.54   1
   0  19 -25 1879.84 1637.78   1
   0  19 -26 3666.67 2795.13   1
   0  19 -27 2704.30 1944.90   1
   0  19 -28 1144.79 1253.98   1
   0  20   0 2865.47 1766.87   1
   0  20   1-75.1828 616.571   1
   0  20  -1-88.2815 723.501   1
   0  20   2 350.926 486.456   1
   0  20  -2-347.113 751.671   1
   0  20   3-242.236 538.762   1
   0  20  -3 883.543 961.006   1
   0  20   4 1631.54 1050.01   1
   0  20  -4  170.25 1096.61   1
   0  20  -5 448.502 827.145   1
   0  20  -6 930.227 959.724   1
   0  20  -7  956.59  818.68   1
   0  20  -8 1262.03 1241.19   1
   0  20  -9  912.97 1033.97   1
   0  20 -10 533.006 459.373   1
   0 -20 -10 8131.26 3712.05   1
   0  20 -11-532.204 1255.86   1
   0 -20 -11 1756.35 1548.73   1
   0  20 -12 -217.54 1224.69   1
   0  20 -13 4637.24 2855.81   1
   0 -20 -13-497.794 1146.32   1
   0  20 -14 1717.59 2389.21   1
   0 -20 -14 607.849 1238.99   1
   0  20 -15 666.466 1358.03   1
   0  20 -16 2099.23 1610.65   1
   0  20 -17 471.391 1378.04   1
   0  20 -18 632.315 1375.67   1
   0  20 -19 1153.08 1933.67   1
   0  20 -20 970.076 1443.00   1
   0  20 -21 1091.54 1478.34   1
   0  20 -22 3117.54 2340.01   1
   0  20 -23 4580.76 3007.22   1
   0  20 -24 3201.64 1832.59   1
   0  20 -25 1330.67 1448.27   1
   0  20 -26 2892.96 1981.41   1
   0  20 -27-399.645 1230.40   1
   0  21   0 967.612 675.178   1
   0  21   1 389.753 409.286   1
   0  21  -1 416.491 476.149   1
   0  21   2-190.952 524.846   1
   0  21  -2 234.174 389.413   1
   0  21   3 1245.01 865.899   1
   0  21  -3 902.929 1052.69   1
   0  21   4 106.485 435.668   1
   0  21  -4 280.872 954.232   1
   0  21  -5 1165.51 1235.95   1
   0  21  -6 926.774 1345.91   1
   0  21  -8 1984.88 1526.44   1
   0  21  -9 188.249  761.15   1
   0  21 -10 237.651 952.917   1
   0  21 -11 2299.38 1370.62   1
   0 -21 -11 921.868 1517.72   1
   0  21 -12 744.006 594.983   1
   0 -21 -12 1944.78 2134.74   1
   0  21 -13-464.631 1287.63   1
   0 -21 -13-1051.13 1351.88   1
   0  21 -14-575.033 1416.32   1
   0  21 -15 332.787 1326.68   1
   0  21 -16 1320.21 1381.30   1
   0  21 -17 1789.91 1384.80   1
   0  21 -18 1897.38 1401.17   1
   0  21 -19 27.2794 1189.23   1
   0  21 -20-721.089 1141.23   1
   0  21 -21 799.011 1340.20   1
   0  21 -22  662.50 1287.78   1
   0  21 -23 3926.73 2629.81   1
   0  21 -24 16.4833 1365.24   1
   0  21 -25 3837.40 2467.63   1
   0  22   0 229.728 363.412   1
   0  22   1 836.148 680.259   1
   0  22  -1 672.199 497.742   1
   0  22   2 589.008 360.788   1
   0  22  -2 -191.74 622.513   1
   0  22   3-131.421 402.102   1
   0  22  -3-1120.86 717.487   1
   0  22   4 366.054 452.509   1
   0  22  -4 249.835 399.565   1
   0  22  -5 -633.46 865.998   1
   0  22  -6-137.393 897.683   1
   0  22  -7 1150.99  744.06   1
   0  22  -8 983.821 982.194   1
   0  22  -9 1003.08 1307.10   1
   0  22 -10 295.007 890.473   1
   0 -22 -10-641.831 1492.16   1
   0  22 -11-15.1816 1183.23   1
   0 -22 -11 2393.84 2101.72   1
   0  22 -12 193.619 763.748   1
   0 -22 -12 132.819 1315.99   1
   0  22 -13-761.506 1204.01   1
   0  22 -14-440.548 1243.06   1
   0  22 -16 2307.67 1397.28   1
   0  22 -17 3541.71 2444.41   1
   0  22 -18-407.136 1156.22   1
   0  22 -19 3654.30 2213.84   1
   0  22 -20-742.367 1092.84   1
   0  22 -21 280.599 1177.45   1
   0  22 -22 188.538 1259.42   1
   0  22 -23 1435.30 1597.06   1
   0  22 -24 1034.58 2126.86   1
   0  23   0 650.265 633.809   1
   0  23   1-131.034 454.307   1
   0  23  -1-362.192 499.169   1
   0  23   2 797.232  572.36   1
   0  23  -2 1430.71 872.532   1
   0  23   3 472.492 413.273   1
   0  23  -3-84.6705 548.417   1
   0  23  -4-416.234 592.928   1
   0  23  -5 404.395 741.678   1
   0  23  -6 94.7745 540.924   1
   0  23  -7 1007.04 882.903   1
   0  23  -8-156.614 852.373   1
   0  23  -9 1351.89 1142.25   1
   0  23 -10 0.21427 948.584   1
   0 -23 -10 469.379 1400.44   1
   0  23 -11 1078.48 1330.92   1
   0 -23 -11 848.184 1335.84   1
   0  23 -12 474.576 699.273   1
   0  23 -13 882.738 1103.33   1
   0  23 -14 1736.73 1296.58   1
   0  23 -15 540.626 681.238   1
   0  23 -16-1206.80 1224.81   1
   0  23 -17 4963.98 2607.93   1
   0  23 -18 231.846 1225.99   1
   0  23 -19-268.653 1194.85   1
   0  23 -20 3095.12 2310.49   1
   0  23 -21-988.942 1352.47   1
   0  23 -22 2042.92 1674.36   1
   0  23 -23 771.552 1387.79   1
   0  24   0-57.8613 479.756   1
   0  24   1 1129.64 662.272   1
   0  24  -1 96.9828 287.886   1
   0  24   2 1065.72 615.723   1
   0  24  -2 311.607 597.571   1
   0  24   3 1441.59 954.939   1
   0  24  -3 1543.87 858.209   1
   0  24  -4 1525.35 854.941   1
   0  24  -5 780.509 524.973   1
   0  24  -6 599.623 1094.02   1
   0  24  -7-395.503 704.369   1
   0  24  -8 -176.91 392.118   1
   0  24  -9 438.424 1011.68   1
   0  24 -10-2260.52 882.682   1
   0  24 -11-246.581 573.177   1
   0  24 -12 447.665 875.638   1
   0  24 -13 727.389 921.606   1
   0  24 -14 1757.51 1221.21   1
   0  24 -15 2853.63 1606.45   1
   0  24 -16 1423.11 1763.21   1
   0  24 -17-455.468 1329.48   1
   0  24 -18 867.604 1326.62   1
   0  24 -19 1676.94 1356.61   1
   0  24 -20 1138.47 1367.34   1
   0  24 -21 2123.21 1645.99   1
   0  25   0  14.044 546.701   1
   0  25   1 749.631 752.137   1
   0  25  -1 627.058 439.603   1
   0  25   2 266.662 569.816   1
   0  25  -2 195.721 371.882   1
   0  25   3-69.9911 473.213   1
   0  25  -3 208.241 572.143   1
   0  25  -4 259.081 625.687   1
   0  25  -5 255.075 540.966   1
   0  25  -6 59.2415 1003.54   1
   0  25  -7-158.115 716.041   1
   0  25  -8 812.044 777.986   1
   0  25  -9 917.769  968.61   1
   0  25 -10 1278.35 807.755   1
   0  25 -11-75.7891 913.456   1
   0  25 -12 159.385 466.625   1
   0  25 -13 208.602  859.46   1
   0  25 -14-789.079 1061.60   1
   0  25 -15 73.2394 612.208   1
   0  25 -16 137.356 612.289   1
   0  25 -17 593.824 1124.28   1
   0  25 -18 1335.14 1045.69   1
   0  25 -19 779.855 929.607   1
   0  25 -20 1050.62 923.483   1
   0  26   0 956.144 831.764   1
   0  26   1  366.62  508.31   1
   0  26  -1-806.839 559.887   1
   0  26   2  633.22 513.162   1
   0  26  -2  211.11 725.611   1
   0  26  -3 947.579 1005.49   1
   0  26  -4 -6.1822 651.728   1
   0  26  -5  930.65 637.751   1
   0  26  -6-1199.98 680.705   1
   0  26  -7 30.0559 351.221   1
   0  26  -8  399.92 873.514   1
   0  26  -9 206.111 557.597   1
   0  26 -10 -492.10 778.618   1
   0  26 -11-658.484 796.054   1
   0  26 -13 1153.55 969.026   1
   0  26 -14-1309.82 865.393   1
   0  26 -15-632.251 907.332   1
   0  26 -16 633.678 951.915   1
   0  26 -17 930.705 904.109   1
   0  26 -18 893.508 1295.03   1
   0  27   0-333.258 483.095   1
   0  27   1 325.839 514.217   1
   0  27  -1 121.653 152.117   1
   0  27   2 562.792 498.694   1
   0  27  -2 553.257 425.676   1
   0  27  -3 247.029 303.055   1
   0  27  -4 253.657  488.33   1
   0  27  -5 96.8923 705.815   1
   0  27  -6 1476.22 1189.31   1
   0  27  -7  113.07 392.665   1
   0  27  -8 1722.03 1079.91   1
   0  27  -9 1194.60 813.105   1
   0  27 -10-335.225 986.561   1
   0  27 -11 808.973  931.25   1
   0  27 -12 37.1411 350.045   1
   0  27 -13 958.553 672.695   1
   0  27 -14 1569.99 1391.68   1
   0  27 -15 1312.86 1172.30   1
   0  27 -16-120.977 970.194   1
   0  28   0-524.162 519.284   1
   0  28   1 959.704 897.646   1
   0  28  -1 396.036 555.443   1
   0  28   2 442.288 546.002   1
   0  28  -2 1235.53 988.066   1
   0  28  -3 771.498 690.099   1
   0  28  -4-82.6072 573.371   1
   0  28  -5 12.3907 412.692   1
   0  28  -6 1040.23 713.494   1
   0  28  -7 948.131 962.504   1
   0  28  -8 432.901 916.064   1
   0  28  -9  700.90 722.957   1
   0  28 -10  743.86 735.968   1
   0  28 -11 1456.90 1157.20   1
   0  28 -12  134.87 509.902   1
   0  28 -13 1023.39 729.625   1
   0  28 -14 1567.62 1455.04   1
   0  29   0 198.011 474.811   1
   0  29   1 462.991 471.489   1
   0  29  -1 483.765  456.96   1
   0  29  -2-103.871 516.674   1
   0  29  -3 748.365 847.726   1
   0  29  -4 805.959 614.419   1
   0  29  -5 555.458 770.189   1
   0  29  -6 1298.98 698.701   1
   0  29  -7-0.16682 634.587   1
   0  29  -8 1075.88 713.156   1
   0  29  -9-219.888 473.468   1
   0  29 -10-139.303 718.873   1
   0  29 -11-1509.12 781.111   1
   0  30   0 1564.80 1046.84   1
   0  30  -1 1170.23 608.354   1
   0  30  -2 956.336 576.092   1
   0  30  -3 370.955 270.795   1
   0  30  -4  520.79  460.35   1
   0  30  -5 106.118 347.786   1
   0  30  -6 832.857  778.32   1
   0  30  -7 1241.39 765.975   1
   0  30  -8-421.923 624.562   1
   0  30  -9 622.747 766.903   1
   0  30 -10-370.869 658.667   1
   0  31   0-9.19566 416.284   1
   0  31  -1 873.685 554.016   1
   0  31  -2 0.40516 490.509   1
   0  31  -3 149.203 648.505   1
   0  31  -4-212.382 521.594   1
   0  31  -5-419.698 495.831   1
   0  31  -6-469.433 494.776   1
   0  32  -3 709.519 617.061   1
   0  32  -4 439.815 552.047   1
   1   0  -436434.10 1768.71   1
  -1   0   435974.90 1737.91   1
  -1   0  -435719.30 2352.11   1
   1   0   435440.90 2346.35   1
   1   0  -5 133.956 381.144   1
  -1   0   5 15.6192 277.857   1
  -1   0  -5 441.746 1082.24   1
   1   0   5 1627.42 1136.10   1
   1   0  -643633.90 2196.39   1
  -1   0   639383.50 1913.18   1
  -1   0  -644335.30 2926.58   1
   1   0   635207.40 2287.28   1
   1   0  -7 309.207 360.311   1
  -1   0   7 1281.84 614.317   1
  -1   0  -7 1981.12 1229.22   1
   1   0  -8 673.832 566.561   1
  -1   0   8 962.877  613.58   1
  -1   0  -8 352.394 1256.38   1
   1   0  -9-493.996 418.339   1
  -1   0   9 288.613 396.554   1
  -1   0  -9 520.749 1094.41   1
   1   0 -1035376.90 1975.10   1
  -1   0  1031535.90 1687.53   1
   1   0 -11-24.8856 469.022   1
  -1   0  11 478.539  423.66   1
  -1   0 -11 311.809 1136.90   1
   1   0 -12 307.878  499.57   1
  -1   0 -12  470.35 1285.16   1
   1   0 -13 1065.34 526.259   1
  -1   0 -13 259.538 1250.42   1
   1   0 -1417961.90 1290.11   1
   1   0 -15-359.838 505.063   1
  -1   0 -15-113.766 1393.13   1
   1   0 -1627319.80 2910.85   1
  -1   0 -1623642.40 3279.79   1
   1   0 -17 336.587 608.579   1
  -1   0 -17 741.883 1522.44   1
   1   0 -1817449.00 2103.13   1
  -1   0 -18 7907.64 2241.14   1
   1   0 -19-534.545 650.064   1
  -1   0 -19 2115.16 1613.00   1
   1   0 -2026411.7012949.90   1
  -1   0 -2021767.30 5321.60   1
   1   0 -21-14.9072 751.364   1
  -1   0 -21 1170.97 1311.63   1
   1   0 -22 8947.78 2805.16   1
  -1   0 -22 4060.49 2255.95   1
   1   0 -23  962.18  974.31   1
  -1   0 -23 2300.19 1553.45   1
   1   0 -24 3775.05 1964.69   1
  -1   0 -24 3695.22 1723.69   1
   1   0 -25-170.332 952.286   1
  -1   0 -25 -859.74 1336.73   1
   1   0 -26 455.315 1049.23   1
  -1   0 -26 4376.92 2227.82   1
   1   0 -27-274.292 1016.73   1
  -1   0 -27-1024.45 1243.55   1
   1   0 -28 6179.11 2791.01   1
  -1   0 -28 1297.59 1356.56   1
  -1   0 -29 2209.52 1397.98   1
   1   0 -30  810.73 1200.73   1
  -1   0 -30-94.6337 1022.08   1
   1   0 -31 1983.70 1870.56   1
  -1   0 -31 2176.93 1362.44   1
  -1   0 -32 944.243 1333.93   1
  -1   0 -33-670.695 1241.08   1
  -1   0 -34 3223.41 1972.06   1
  -1   0 -35 400.646 1198.35   1
  -1   0 -36 7588.94 3548.56   1
  -1   0 -37 2781.85 1745.37   1
  -1   0 -38 1962.20 1848.68   1
   1  -1  -4 420.362 278.312   1
   1   1  -4 588.861 388.693   1
  -1  -1   4 1310.51 692.214   1
  -1   1   4 1475.95 597.323   1
  -1   1  -4 2176.24 974.863   1
   1  -1   4-1308.85 1001.68   1
  -1  -1  -4 832.969 1399.50   1
   1   1   4 587.986 958.135   1
   1   1  -519989.80 1921.30   1
   1  -1  -521132.00 1330.34   1
  -1  -1   523967.50 1330.85   1
  -1   1   524227.00 1207.74   1
  -1   1  -520935.20 1596.33   1
   1  -1   521453.60 1929.04   1
  -1  -1  -524933.50 2204.46   1
   1   1   522564.80 2025.51   1
   1   1  -613278.00 2402.39   1
   1  -1  -614768.80 978.733   1
  -1  -1   615163.60 1145.42   1
  -1   1   615081.30 874.029   1
  -1   1  -617407.70 2023.77   1
   1  -1   612185.80 3186.56   1
  -1  -1  -611914.70 3180.89   1
   1   1   614429.70 1853.06   1
   1   1  -726668.90 1738.53   1
   1  -1  -725871.50 1380.93   1
  -1  -1   724438.40 1425.83   1
  -1   1   728142.60 1461.49   1
  -1   1  -722769.90 2025.05   1
  -1  -1  -728433.80 2424.22   1
   1   1  -8 1256.55 1033.83   1
   1  -1  -8 1298.31  629.89   1
  -1  -1   8 502.261 463.835   1
  -1   1   8 1160.85 552.626   1
  -1   1  -8-1706.30 1129.84   1
  -1  -1  -8 376.222 1191.86   1
   1   1  -9 7620.92 1890.23   1
   1  -1  -9 7666.86 1774.82   1
  -1  -1   9 6174.32 1512.91   1
  -1   1   9 2909.75 812.493   1
  -1   1  -9 4013.86 1776.42   1
  -1  -1  -9 2614.42 1330.42   1
   1   1 -10 7802.12 2008.00   1
   1  -1 -10 8701.39 2004.82   1
  -1  -1  10 8028.75 1937.67   1
  -1   1  10 8211.31 1920.66   1
  -1   1 -10 3468.74 1285.77   1
  -1  -1 -10 6315.75 1766.76   1
   1   1 -11 1714.83  799.43   1
   1  -1 -11 1699.04 614.041   1
  -1   1  11 885.193 425.289   1
  -1   1 -11 2395.33 1731.90   1
  -1  -1 -11 1673.32 1279.62   1
   1   1 -12 2875.38 1081.85   1
   1  -1 -12 2003.64 802.994   1
  -1   1  12 1298.14 514.074   1
  -1   1 -12 1115.31 1261.65   1
  -1  -1 -12-63.5846 1205.42   1
   1   1 -1312646.50 1368.64   1
   1  -1 -1311916.30 1242.60   1
  -1   1 -1312599.00 1902.42   1
  -1  -1 -13 7922.64 1958.89   1
   1   1 -14 2435.07 719.043   1
   1  -1 -14 7119.53 1734.62   1
  -1   1 -14 4220.29 2123.34   1
   1   1 -15 174.244 525.493   1
   1  -1 -15 778.378 527.351   1
  -1   1 -15 477.454 1410.79   1
  -1  -1 -15-773.074 1411.05   1
   1   1 -16 826.637 512.369   1
   1  -1 -16-193.001 540.423   1
  -1   1 -16 436.956 1429.14   1
  -1  -1 -16 1413.53 1510.88   1
   1   1 -17 1237.98 625.061   1
   1  -1 -17 2829.56 1011.28   1
  -1   1 -17 1127.61 1468.96   1
  -1  -1 -17 4212.91 2346.71   1
   1   1 -18 7071.60 1348.11   1
   1  -1 -18 7540.78 1262.40   1
  -1   1 -18 4800.81 2046.42   1
  -1  -1 -18 4482.54 2411.57   1
   1   1 -19  425.29 658.401   1
   1  -1 -19-5.36152  636.77   1
  -1   1 -19 1927.39 1940.12   1
  -1  -1 -19 545.402 1565.62   1
   1   1 -20 1867.43 1313.77   1
   1  -1 -20 1884.75 1194.23   1
  -1   1 -20 1012.78 1397.46   1
  -1  -1 -20 4029.92 2237.72   1
   1   1 -2116288.00 4700.07   1
   1  -1 -2115474.00 4321.98   1
  -1   1 -21 6436.16 2536.11   1
  -1  -1 -2113287.80 4237.04   1
   1   1 -22 59.1733 800.886   1
   1  -1 -22 794.416 1043.53   1
  -1   1 -22 3078.49 2068.18   1
  -1  -1 -22 1559.72 1561.76   1
   1   1 -23 3594.52 1603.88   1
   1  -1 -23 2646.24 1382.11   1
  -1   1 -23 2068.41 1954.99   1
  -1  -1 -23 5058.65 2048.06   1
   1   1 -24 134.394 878.936   1
   1  -1 -24-8.80653 865.625   1
  -1   1 -24-26.3939 1263.72   1
  -1  -1 -24-1322.48 1361.92   1
   1   1 -25 1625.30 1356.16   1
   1  -1 -25-1423.95 936.773   1
  -1   1 -25-1470.90 1154.83   1
  -1  -1 -25-862.879 1204.04   1
   1   1 -26 9000.89 3357.06   1
   1  -1 -2613581.30 4621.45   1
  -1   1 -2612956.60 4705.29   1
  -1  -1 -26 7619.44 3058.40   1
   1   1 -27 185.642 933.036   1
   1  -1 -27 1717.68 1242.42   1
  -1   1 -27 939.086 1221.25   1
  -1  -1 -27-624.421 1294.91   1
   1   1 -28 5962.09 2536.99   1
  -1   1 -28 3870.32 2295.19   1
  -1  -1 -28 4562.97 2293.94   1
   1   1 -29-716.736 924.762   1
   1  -1 -29 2755.60 1683.98   1
  -1   1 -29 134.163 1079.43   1
  -1  -1 -29 3401.76 2482.29   1
   1  -1 -30 2918.37 1735.67   1
  -1   1 -30 3253.02 1886.64   1
  -1  -1 -30 519.852 1249.57   1
   1   1 -31 1747.59 1320.18   1
  -1   1 -31 1751.98 1292.20   1
  -1  -1 -31-1324.73 1147.59   1
   1   1 -32 3037.99 2501.69   1
  -1   1 -32 187.725 1309.14   1
  -1  -1 -32 -47.466 1153.73   1
  -1   1 -33 59.5009 1197.23   1
  -1  -1 -33 1701.38 1526.38   1
  -1   1 -34 3216.62 1935.02   1
  -1  -1 -34 6522.02 3137.56   1
  -1   1 -35 1237.10 1741.42   1
  -1  -1 -35-817.514 1227.67   1
  -1   1 -36 1856.66 1645.26   1
  -1  -1 -36 2065.44 1830.35   1
  -1   1 -37 1042.86 1906.52   1
  -1  -1 -37 1278.18 1608.00   1
  -1   1 -38 3860.41 2046.67   1
   1   2  -361932.70 2951.20   1
  -1  -2   358692.60 2770.71   1
  -1   2  -359121.10 3061.11   1
  -1  -2  -350669.90 3050.95   1
   1   2  -487446.00 4082.86   1
  -1  -2   487058.80 3992.59   1
  -1   2  -492315.90 4473.96   1
   1  -2   497149.60 4858.38   1
  -1  -2  -491322.60 4622.46   1
   1  -2  -515657.20 1308.36   1
   1   2  -5 8400.34 2938.75   1
  -1  -2   514325.50 1038.65   1
  -1   2  -518185.50 1773.77   1
   1  -2   517082.80 1953.33   1
  -1  -2  -514692.80 1876.18   1
   1   2   517464.40 2033.91   1
   1   2  -628168.80 1869.93   1
   1  -2  -624741.80 1261.17   1
  -1  -2   628491.90 1592.77   1
  -1   2  -624684.70 1917.34   1
   1  -2   626437.20 2200.99   1
  -1  -2  -623654.00 1974.22   1
   1   2   621675.10 2341.06   1
   1   2  -730737.00 2113.89   1
   1  -2  -728598.60 1431.47   1
  -1  -2   729269.90 1713.93   1
  -1   2   726810.90 1367.56   1
  -1   2  -727080.60 2191.88   1
  -1  -2  -725310.20 2271.28   1
   1   2  -8 5850.49 1837.32   1
   1  -2  -8 7763.14 1749.08   1
  -1  -2   8 7473.04 1833.48   1
  -1   2   8 4950.73 1154.70   1
  -1   2  -8 6340.90 1999.97   1
  -1  -2  -8 4295.00 1498.64   1
   1   2  -9 1695.05 1136.22   1
   1  -2  -9 5542.52 1321.28   1
  -1  -2   9 4075.45 1230.98   1
  -1   2  -9 1739.13 1092.71   1
  -1   2   9 2963.40 838.741   1
  -1  -2  -9 3173.87 1371.35   1
   1   2 -1019330.70 1740.78   1
   1  -2 -1018484.00 1111.00   1
  -1   2 -1019131.20 2010.08   1
  -1   2  1020328.40 1277.69   1
  -1  -2 -1015218.40 2294.91   1
   1   2 -11 6718.52 1875.93   1
   1  -2 -11 5304.37 1309.42   1
  -1   2 -11 5902.86 2068.19   1
  -1   2  11 5755.93 1387.80   1
  -1  -2 -11 5250.80 2097.87   1
   1   2 -1224395.10 1731.26   1
   1  -2 -1225626.00 1598.62   1
  -1   2 -1220970.70 2380.38   1
  -1   2  1223858.60 1577.86   1
  -1  -2 -1219292.60 2157.81   1
   1   2 -13 1935.77 847.133   1
   1  -2 -13 2977.92 1072.01   1
  -1   2 -13 2153.48 1346.17   1
  -1   2  13 2042.48 828.032   1
  -1  -2 -13 2562.35 1986.58   1
   1   2 -14 1157.93 794.908   1
   1  -2 -14-151.818 530.551   1
  -1   2 -14-138.249 1319.22   1
  -1  -2 -14 881.601 1345.72   1
   1   2 -1521306.10 2464.73   1
   1  -2 -1519783.30 2302.95   1
  -1   2 -1516981.60 2906.81   1
  -1  -2 -1513258.40 2261.30   1
   1   2 -16 3247.30 1346.23   1
   1  -2 -16 2086.40 1022.37   1
  -1   2 -16 2434.31 1548.89   1
  -1  -2 -16 4045.77 2218.59   1
   1   2 -17 1754.70 944.511   1
   1  -2 -17 3845.10 1351.93   1
  -1   2 -17 1923.61 1443.02   1
  -1  -2 -17 5079.02 2607.50   1
   1   2 -1815867.40 2055.96   1
   1  -2 -1815901.80 2074.08   1
  -1   2 -1812062.20 2498.11   1
  -1  -2 -1816583.70 3052.20   1
   1   2 -19 599.582 666.315   1
   1  -2 -19-457.655 606.509   1
  -1   2 -19 1560.28 1938.74   1
  -1  -2 -19 529.326 1422.41   1
   1   2 -20 3861.07 1488.65   1
   1  -2 -20 7594.45 2004.96   1
  -1   2 -20 2972.16 1922.82   1
  -1  -2 -20 2508.80 2162.97   1
   1   2 -21 8188.19 2659.33   1
   1  -2 -21 7351.48 2311.73   1
  -1   2 -21 2235.91 1407.65   1
  -1  -2 -21 6215.37 2577.18   1
   1   2 -22 4623.18 1593.92   1
   1  -2 -22 2775.55 1416.60   1
  -1   2 -22 2652.21 1956.82   1
  -1  -2 -22 3796.95 2023.21   1
   1   2 -23 2131.96 1559.33   1
   1  -2 -23 1552.47 932.486   1
  -1   2 -23 1458.22 1365.80   1
  -1  -2 -23 913.369 1354.06   1
   1   2 -24 1569.46 1264.68   1
   1  -2 -24 2339.79 1241.08   1
  -1   2 -24 4727.72 2219.40   1
  -1  -2 -24 965.872 1196.13   1
   1   2 -25 2786.87 1247.91   1
   1  -2 -25 1077.76 931.725   1
  -1   2 -25-238.284 1193.95   1
  -1  -2 -25 2332.46 1784.68   1
   1   2 -26 3373.23 1673.56   1
   1  -2 -26 6448.18 2568.40   1
  -1   2 -26 3828.65 2322.43   1
  -1  -2 -26 2967.46 2188.75   1
   1   2 -27 1030.84 1207.10   1
   1  -2 -27 1299.59 1411.80   1
  -1   2 -27 527.928 1146.79   1
  -1  -2 -27 5006.82 2840.53   1
   1   2 -28-1358.78 806.884   1
   1  -2 -28-332.202 1121.55   1
  -1   2 -28 2064.65 1690.14   1
  -1  -2 -28  613.16 1356.15   1
   1   2 -29 3332.16 1709.19   1
   1  -2 -29 2571.39 1673.30   1
  -1   2 -29 694.356 1083.24   1
  -1  -2 -29 3986.86 2666.20   1
  -1   2 -30 2235.17 1655.27   1
  -1  -2 -30 3197.18 2024.95   1
   1   2 -31 3451.12 1634.34   1
  -1   2 -31 4126.00 2096.59   1
  -1  -2 -31 2871.11 1918.25   1
   1   2 -32 4850.79 3424.31   1
  -1   2 -32 2175.89 1719.27   1
  -1  -2 -32 4963.97 3237.70   1
   1   2 -33-606.005 1333.94   1
  -1   2 -33 906.919 1265.36   1
  -1  -2 -33 648.877 1475.01   1
  -1   2 -34-482.103 1089.37   1
  -1  -2 -34 5064.84 3344.56   1
  -1   2 -35 1821.46 1476.89   1
  -1  -2 -35 3711.13 1870.04   1
  -1   2 -36 4586.69 2219.02   1
  -1  -2 -36-1056.92 1560.44   1
  -1   2 -37 3124.48 2048.78   1
  -1   2 -38 1818.83 1682.47   1
   1   3  -2 3522.01 1403.51   1
  -1  -3   2 1454.31 808.552   1
  -1   3  -2 1190.77 689.658   1
   1  -3   2 3839.74 1262.50   1
   1  -3  -2 3355.50 859.839   1
  -1  -3  -2 2884.84 1187.21   1
   1   3  -3 2160.96 1277.11   1
  -1  -3   3 4276.36 1385.34   1
  -1   3  -3 4263.48 1332.35   1
   1  -3   3 1816.35 866.893   1
  -1  -3  -3 5161.15 1871.04   1
   1   3   3 3196.99 1227.56   1
   1   3  -4 305.891 287.025   1
  -1  -3   4 106.371 437.374   1
  -1   3  -4-664.802  861.20   1
   1  -3   4 1505.90 999.919   1
  -1  -3  -4 951.237 1118.03   1
   1   3   4 -127.34 946.868   1
  -1  -3   526241.60 1648.47   1
  -1   3  -524728.70 1809.55   1
   1  -3   523292.10 1751.83   1
  -1  -3  -524035.40 2478.79   1
   1   3   518566.00 1865.02   1
   1   3  -6 2344.82 1056.71   1
  -1  -3   6 3321.98 1032.15   1
   1  -3  -6 2513.54 622.863   1
  -1   3   6 2717.88 712.464   1
  -1  -3  -6 5020.27 2089.78   1
   1   3   6 1384.17 1306.39   1
  -1  -3   723166.20 1518.26   1
   1  -3  -718615.50 955.864   1
  -1   3  -717314.90 1916.34   1
  -1   3   722293.10 1201.73   1
  -1  -3  -722324.00 2238.25   1
   1   3  -8 7303.44 1999.21   1
   1  -3  -812309.10 2683.77   1
  -1   3  -813667.80 2657.97   1
  -1   3   812642.70 2789.37   1
  -1  -3  -8 5712.95 2024.85   1
   1   3  -9 822.004 731.921   1
   1  -3  -9 3333.42 846.754   1
  -1   3  -9 2017.29 1138.04   1
  -1   3   9 2599.16 820.991   1
  -1  -3  -9 4163.39 1923.62   1
   1   3 -1034332.80 2335.77   1
   1  -3 -1032770.80 1767.49   1
  -1   3 -1029824.70 2559.88   1
  -1   3  1031961.60 1777.92   1
  -1  -3 -1029410.60 2470.63   1
   1   3 -11 908.653 925.752   1
   1  -3 -11 3106.08 890.234   1
  -1   3 -11 3088.72 1306.31   1
  -1   3  11 2291.10 818.019   1
  -1  -3 -11 2404.26 1385.88   1
   1   3 -12-257.333 619.602   1
   1  -3 -12-521.201 351.293   1
  -1   3 -12 216.619 1201.54   1
  -1   3  12-405.778 536.428   1
  -1  -3 -12-1007.53 1392.31   1
   1   3 -13 3354.56 1109.22   1
   1  -3 -13 3246.77 1028.06   1
  -1   3 -13 2764.69 1838.96   1
  -1   3  13 2478.18 915.951   1
  -1  -3 -13 1172.47 1309.59   1
   1   3 -14 6273.98 1183.07   1
   1  -3 -14 9666.92 1419.17   1
  -1   3 -14 4327.05 1847.51   1
  -1  -3 -14 7119.32 1994.46   1
   1   3 -15 4588.07 1733.34   1
   1  -3 -15 1085.81 778.475   1
  -1   3 -15 2005.10 1526.82   1
  -1  -3 -15 7119.85 2442.89   1
   1   3 -16 6970.47 1500.09   1
  -1   3 -16 3482.89 1718.15   1
  -1  -3 -16 7143.29 1982.23   1
   1   3 -17 2177.52 843.821   1
   1  -3 -17 4143.12 1366.55   1
  -1   3 -17 4618.25 1814.02   1
  -1  -3 -17 116.769 1355.71   1
   1   3 -18 2918.99 1389.72   1
   1  -3 -18 1283.23  845.09   1
  -1  -3 -18 3649.82 1675.64   1
   1   3 -1911642.90 2960.62   1
   1  -3 -1911578.50 2776.59   1
  -1   3 -19 6178.65 2245.65   1
  -1  -3 -19 5521.79 2302.83   1
   1   3 -20-191.212 764.397   1
   1  -3 -20 259.083 605.814   1
  -1   3 -20 2805.98 1566.04   1
  -1  -3 -20 1261.22 1397.33   1
   1   3 -21 683.108  867.44   1
   1  -3 -21 5929.27 1918.33   1
  -1   3 -21 3884.10 1931.80   1
  -1  -3 -21-183.403 1328.10   1
   1   3 -22-532.746  745.85   1
   1  -3 -22 1050.37 796.901   1
  -1   3 -22 3535.85 1724.90   1
  -1  -3 -22 2493.51 1501.70   1
   1   3 -23 4055.29 1233.41   1
   1  -3 -23 5226.32 1309.41   1
  -1   3 -23 1888.92 1261.49   1
  -1  -3 -23 7568.56 2490.34   1
   1   3 -24 1405.15 958.003   1
   1  -3 -24 2471.75 1244.85   1
  -1   3 -24 664.069 1100.40   1
  -1  -3 -24 3528.26 2235.38   1
   1   3 -25 4837.89 1880.38   1
  -1   3 -25 83.6767 1063.05   1
  -1  -3 -25 2668.89 2577.19   1
   1   3 -26 402.714 791.028   1
  -1   3 -26 4213.78 2006.71   1
  -1  -3 -26 2171.48 1489.68   1
   1   3 -27 2748.58 1489.42   1
   1  -3 -27 1637.55 1397.60   1
  -1   3 -27-234.999 1043.23   1
  -1  -3 -27 3005.37 1716.91   1
   1   3 -28 630.863 938.786   1
   1  -3 -28 4921.02 2457.85   1
  -1   3 -28 2755.30 1451.18   1
  -1  -3 -28 3199.30 2201.14   1
   1   3 -29 4040.52 2088.46   1
  -1   3 -29-588.353 1124.28   1
  -1  -3 -29-1780.80 1432.47   1
   1   3 -30 2017.81 1218.06   1
  -1   3 -30-793.796 1177.42   1
  -1  -3 -30 -871.70 1357.81   1
   1   3 -31-8.73329 1577.60   1
  -1   3 -31 4440.07 2826.54   1
  -1  -3 -31 536.428 1327.75   1
   1   3 -32 1556.53 1258.60   1
  -1   3 -32 985.603 1317.01   1
  -1  -3 -32 4716.78 1910.93   1
   1   3 -33 287.658 1216.66   1
  -1   3 -33 3336.44 1914.24   1
  -1  -3 -33 1824.96 1617.94   1
  -1   3 -34-855.741 1096.35   1
  -1  -3 -34 5756.78 4255.79   1
  -1   3 -35 542.013 1150.35   1
  -1  -3 -35 2944.54 1862.49   1
  -1   3 -36 1730.99 1970.25   1
  -1  -3 -36 5554.41 3222.14   1
  -1   3 -37 1230.46 1822.52   1
  -1   3 -38 1838.59 1719.15   1
  -1  -4   0 580.953 518.283   1
  -1   4   0 1310.76 764.257   1
   1  -4   0 223.489 432.871   1
  -1  -4  -1 1025.55 615.546   1
   1   4  -1 1934.25 712.244   1
  -1  -4   1 1429.73 866.638   1
  -1   4   1  887.71 485.339   1
  -1   4  -1 391.231 697.096   1
   1  -4  -1 1122.78  553.57   1
   1  -4   1 1267.07 872.238   1
   1   4  -229176.70 2938.09   1
  -1  -4   227977.90 2970.02   1
  -1   4   230449.40 1754.34   1
  -1   4  -227538.10 1730.91   1
   1  -4   227437.80 1709.83   1
   1  -4  -227584.50 1390.04   1
  -1  -4  -227408.60 2112.69   1
   1   4  -3 2504.57 1256.12   1
  -1  -4   3 5376.59 1480.97   1
  -1   4  -3 9073.36 2260.27   1
   1  -4  -3 2998.95 754.922   1
   1  -4   3 8184.36 2246.34   1
  -1  -4  -310368.50 2895.01   1
   1   4  -420898.20 3101.48   1
  -1  -4   425250.10 1611.42   1
  -1   4  -426318.60 2067.46   1
   1  -4   425355.90 1807.47   1
  -1  -4  -426962.00 2300.14   1
   1   4  -5 3140.62 1692.99   1
  -1  -4   5 5341.57 1384.32   1
  -1   4  -5 7380.51 2031.26   1
  -1  -4  -5 9479.21 2623.51   1
   1   4   5 4917.46 1780.75   1
  -1   4  -618081.30 1735.09   1
  -1  -4  -615866.30 2111.50   1
   1   4  -745406.80 2550.66   1
  -1   4  -746703.10 3002.14   1
  -1  -4  -747574.50 3093.95   1
  -1   4   747193.40 2203.54   1
   1   4  -8 1886.59 759.416   1
  -1   4  -8 4767.33 1834.48   1
  -1  -4  -8 626.452 1679.07   1
   1   4  -9 3772.78 1328.92   1
   1  -4  -9 7411.87 1667.89   1
  -1   4  -9 3794.31 1749.04   1
  -1  -4  -9 4145.94 1542.65   1
  -1   4   9 5061.06 1217.05   1
   1   4 -10 1212.71 741.729   1
   1  -4 -10 466.444 461.429   1
  -1   4 -10-644.533 1202.57   1
  -1  -4 -10 1684.94 1238.39   1
  -1   4  10 290.868 383.183   1
   1   4 -11 8338.81 1441.92   1
   1  -4 -1111064.90 857.985   1
  -1   4 -11 8696.36 1861.57   1
  -1  -4 -11 8271.00 1839.55   1
  -1   4  1110994.50 1039.80   1
   1   4 -12 6501.13 1829.58   1
   1  -4 -1211017.10 926.406   1
  -1   4 -1211449.70 2148.94   1
  -1  -4 -1210254.50 1805.40   1
  -1   4  1212332.60 1149.36   1
   1   4 -13 5562.84 1685.34   1
   1  -4 -13 8533.92 909.748   1
  -1   4 -13 7991.41 1877.82   1
  -1  -4 -13 7231.03 2277.79   1
  -1   4  13 7221.80 1738.22   1
   1  -4 -1413509.50 1654.22   1
  -1   4 -1413401.30 2647.04   1
  -1  -4 -1416202.30 2749.55   1
  -1   4  1417516.50 1978.01   1
   1   4 -15-114.124 746.804   1
   1  -4 -15 700.945 483.412   1
  -1   4 -15 1602.67 1462.93   1
  -1  -4 -15-648.692 1305.25   1
   1   4 -16 3563.93 1652.34   1
   1  -4 -16 3813.33 1392.22   1
  -1   4 -16-130.414 1259.34   1
  -1  -4 -16 2098.65 1991.81   1
   1   4 -17-904.144 801.586   1
   1  -4 -17 2812.04 1078.36   1
  -1   4 -17 2726.73 1486.29   1
  -1  -4 -17 971.196 1326.53   1
   1   4 -18 120.369 803.527   1
   1  -4 -18 1380.35 816.434   1
  -1   4 -18 844.943 1288.93   1
  -1  -4 -18 906.692 1352.47   1
   1   4 -19 2018.03 1326.10   1
   1  -4 -19 9684.80 2379.54   1
  -1   4 -19 4655.35 1518.50   1
  -1  -4 -19 6548.65 2779.03   1
   1   4 -20 522.993 1181.66   1
   1  -4 -20 385.204 611.401   1
  -1   4 -20-144.814 1132.06   1
  -1  -4 -20 131.883 1278.19   1
   1   4 -21 3912.92 1457.95   1
   1  -4 -2114031.10 3961.85   1
  -1   4 -2110567.20 3338.82   1
  -1  -4 -2112235.40 3890.82   1
   1   4 -22-932.714 797.065   1
   1  -4 -22 2661.08 1415.61   1
  -1   4 -22 2591.79 1870.50   1
  -1  -4 -22-708.338 1190.31   1
   1   4 -23 3271.91 2369.13   1
   1  -4 -23 4521.90 1830.80   1
  -1   4 -23 1712.03 1276.65   1
  -1  -4 -23 590.491 1170.56   1
   1   4 -24-499.435  713.64   1
   1  -4 -24 789.346 785.524   1
  -1   4 -24 3326.49 2630.65   1
  -1  -4 -24 5002.05 2289.51   1
   1   4 -25 2363.05 862.846   1
  -1   4 -25 40.8448 1072.72   1
  -1  -4 -25-674.894 1271.11   1
   1   4 -26 1864.35 1186.38   1
   1  -4 -26 3009.13 1932.41   1
  -1   4 -26 1612.33 1224.58   1
  -1  -4 -26 333.957 1157.70   1
   1   4 -27 2107.51 1322.55   1
   1  -4 -27 3239.62 1761.09   1
  -1   4 -27 2279.73 1387.83   1
  -1  -4 -27  917.88 1364.19   1
   1   4 -28 2470.67 1498.90   1
  -1   4 -28 4125.40 2035.08   1
  -1  -4 -28 3681.50 2193.87   1
   1   4 -29-1078.13 991.221   1
  -1   4 -29 1666.15 1720.71   1
  -1  -4 -29 1032.62 1465.28   1
   1   4 -30 7522.89 2908.29   1
  -1   4 -30 2323.82 1845.28   1
  -1  -4 -30 1044.88 1465.25   1
   1   4 -31-410.194 947.383   1
  -1   4 -31 3423.85 2136.90   1
  -1  -4 -31-1084.20 1369.66   1
   1   4 -32 2539.57 1481.20   1
  -1   4 -32 654.236 1144.35   1
  -1  -4 -32 1317.30 1472.70   1
   1   4 -33 2401.51 1487.67   1
  -1   4 -33 3561.37 1639.70   1
  -1  -4 -33 3752.87 2027.38   1
   1   4 -34 2628.28 2172.27   1
  -1   4 -34-23.3935 1013.19   1
  -1  -4 -34 732.615 1639.85   1
  -1   4 -35 2246.07 1614.44   1
  -1  -4 -35 2730.86 2435.83   1
  -1   4 -36-159.884 1095.04   1
  -1   4 -37 949.829 1242.21   1
  -1   4 -38 1398.09 1556.69   1
   1   5   0199961.032796.90   1
  -1  -5   0261089.042816.80   1
  -1   5   0212790.034885.70   1
   1  -5   0233791.038334.00   1
  -1  -5  -121017.30 3373.25   1
   1   5  -125858.00 2477.63   1
  -1   5   123053.40 1365.84   1
  -1   5  -124143.40 1601.45   1
   1  -5  -124505.80 1413.38   1
   1  -5   126874.00 1697.82   1
  -1  -5  -2 1888.45 833.714   1
   1   5  -2 464.234 423.497   1
  -1  -5   2 896.386 542.649   1
  -1   5   2 1259.31 603.615   1
  -1   5  -2 226.915 590.575   1
   1  -5  -2 460.878 414.031   1
   1  -5   2 2680.54 1126.52   1
   1   5  -3 2489.51 1060.33   1
  -1   5   3 4250.52 1124.20   1
   1  -5  -3 1776.20 689.691   1
  -1   5  -3 4739.04 1488.30   1
   1  -5   3 3134.75 1034.94   1
  -1  -5  -3 5101.11 1956.89   1
   1   5  -4 1077.20 827.302   1
  -1   5  -4 1406.86 813.307   1
   1  -5   4 2122.27 1328.54   1
  -1  -5  -4 829.343 1128.11   1
   1   5  -527826.10 3382.18   1
   1  -5  -524126.30 1144.16   1
  -1   5  -528764.40 1974.40   1
  -1  -5  -521316.40 2083.49   1
  -1   5  -695408.80 4653.35   1
  -1  -5  -6102342.0 5238.31   1
   1  -5  -715679.20  933.15   1
  -1   5  -714322.40 2061.96   1
  -1  -5  -716709.30 2407.21   1
  -1   5  -843257.30 2670.82   1
   1  -5  -841653.70 1934.50   1
  -1  -5  -844601.40 2895.05   1
   1   5  -9 5639.62 1632.07   1
  -1   5  -9 5622.41 2044.51   1
   1  -5  -9 9455.15 748.315   1
  -1  -5  -9 6475.18 2215.20   1
  -1   5   9 8884.24 834.547   1
   1   5 -10 1591.16 1172.51   1
  -1   5 -10 3813.20 2193.76   1
   1  -5 -10 3251.92  910.65   1
  -1  -5 -10 3755.54 1990.54   1
  -1   5  10 2180.17  777.02   1
   1   5 -11 1255.59 1219.84   1
  -1   5 -11 2347.76 1786.03   1
   1  -5 -11 3629.38 994.528   1
  -1  -5 -11 3489.00 1389.13   1
  -1   5  11 2656.78 891.852   1
   1   5 -12 3580.78 1622.35   1
  -1   5 -12 325.913 1236.87   1
   1  -5 -12 3010.32 861.716   1
  -1  -5 -12 2664.32 1683.35   1
  -1   5  12 4084.92 1175.21   1
   1   5 -13 1704.27 1278.31   1
  -1   5 -13 2816.66 2038.99   1
   1  -5 -13 2386.05 918.001   1
  -1  -5 -13 1914.34 1284.21   1
  -1   5  13 1912.63 840.251   1
  -1   5 -1420929.50 3075.36   1
   1  -5 -1424519.50 2587.96   1
  -1  -5 -1428586.10 3650.81   1
  -1   5  1427828.30 2911.59   1
   1   5 -1510632.00 1954.65   1
  -1   5 -1512996.30 2703.81   1
   1  -5 -1511515.30 1475.86   1
  -1  -5 -15 9059.87 2007.75   1
  -1   5  1510338.20 1356.58   1
   1   5 -16 3875.71 1596.24   1
  -1   5 -16 4666.91 1858.11   1
   1  -5 -16 4487.60 1416.30   1
  -1  -5 -16 7290.80 2424.09   1
   1   5 -17 2422.47 1420.28   1
   1  -5 -17 3321.03 1196.21   1
  -1   5 -17 2132.25 1386.92   1
  -1  -5 -17 619.629 1283.25   1
   1   5 -18 2024.17 1437.29   1
  -1   5 -18 1670.02 1247.42   1
   1  -5 -18 1655.16 972.804   1
  -1  -5 -18 1858.34 1951.81   1
   1   5 -19 1930.64 1415.65   1
  -1  -5 -19 6111.39 2310.18   1
   1   5 -20 629.146 877.984   1
  -1   5 -20 4069.25 2081.47   1
   1  -5 -20 1694.00 877.769   1
  -1  -5 -20-515.554 1298.28   1
   1   5 -21 -485.23 843.977   1
   1  -5 -21 581.077 700.577   1
  -1   5 -21 2785.91 1815.86   1
  -1  -5 -21 1647.70 1680.76   1
   1   5 -22 3656.05 1227.10   1
  -1   5 -22 4737.76 1782.31   1
  -1  -5 -22 3071.74 1518.43   1
   1   5 -23 856.785  866.08   1
  -1   5 -23 290.503 1142.31   1
  -1  -5 -23-1279.62 1133.76   1
   1   5 -24 720.998 917.833   1
   1  -5 -24-55.2321 704.778   1
  -1   5 -24 1561.77 1168.25   1
  -1  -5 -24 2404.25 1738.85   1
   1   5 -25 2847.45 1302.00   1
   1  -5 -25 1743.61 891.227   1
  -1   5 -25 4784.14 1966.23   1
  -1  -5 -25 4404.60 2308.31   1
   1   5 -26 2049.34 1122.66   1
   1  -5 -26 4637.26 1880.92   1
  -1   5 -26 3748.50 1668.61   1
  -1  -5 -26 401.749 1202.18   1
   1   5 -27-941.766 903.103   1
  -1   5 -27 1968.54 1353.30   1
  -1  -5 -27 1923.15 1435.23   1
   1   5 -28 1569.49 1130.06   1
  -1   5 -28 57.9665 1130.53   1
  -1  -5 -28 165.499 1436.70   1
   1   5 -29  557.12  922.06   1
  -1   5 -29 3769.05 2385.21   1
  -1  -5 -29 5226.70 2727.96   1
   1   5 -30 231.887  929.32   1
  -1   5 -30 32.0372 1222.37   1
  -1  -5 -30-269.551 1432.27   1
   1   5 -31 2654.89 1830.58   1
  -1   5 -31 1134.37 1339.51   1
  -1  -5 -31-2794.22 1418.86   1
   1   5 -32-770.293 911.749   1
  -1   5 -32 220.029 1093.24   1
  -1  -5 -32 1397.04 1764.55   1
   1   5 -33 3290.60 2208.21   1
  -1   5 -33 563.177 1041.19   1
  -1  -5 -33 5175.99 2985.34   1
   1   5 -34 2117.59 1954.73   1
  -1   5 -34 1277.77 1502.30   1
  -1  -5 -34 1611.55 2012.79   1
   1   5 -35-508.701 1153.04   1
  -1   5 -35 1690.53 1480.63   1
  -1   5 -36 722.134 1213.97   1
  -1   5 -37 1607.76 1455.05   1
   1   6   0 46.5326  284.80   1
  -1   6   0 1017.26 480.655   1
   1  -6   0 1598.60 781.823   1
  -1   6   124919.70 1484.22   1
   1  -6  -122430.00 1360.24   1
   1  -6   121717.70 1436.52   1
   1   6  -2-1318.08 541.244   1
  -1   6  -2 1495.01 877.346   1
   1  -6  -2-26.3304  326.41   1
   1  -6   2-109.788 606.056   1
   1   6  -3 3416.30 1508.73   1
  -1   6   3 6206.23 1458.24   1
   1  -6  -3 7042.18 1644.41   1
  -1   6  -3 8325.17 2195.38   1
   1  -6   3 8497.53 2344.88   1
  -1   6   443420.90 2583.96   1
   1   6  -439127.20 3703.87   1
   1  -6  -436955.00 1786.47   1
  -1   6  -436629.70 2259.07   1
  -1  -6  -436061.60 2586.46   1
   1   6  -5 3151.54 1392.43   1
   1  -6  -5 3137.62 769.639   1
  -1   6  -5 6981.52 1972.79   1
  -1  -6  -5 4512.71 1866.66   1
   1  -6  -611280.70 2443.68   1
  -1   6  -616294.50 1825.44   1
  -1  -6  -6 9758.50 2860.67   1
   1  -6  -613261.80 2262.18   1
   1  -6  -714118.10 1406.42   1
   1   6  -713549.80 2652.17   1
  -1   6  -713144.60 2751.33   1
   1  -6  -7 9812.93 2159.48   1
  -1  -6  -7 9344.43 2630.97   1
   1  -6  -833428.80 1968.09   1
  -1   6  -829614.50 2522.97   1
   1  -6  -832419.30 1791.62   1
  -1  -6  -830896.40 2475.57   1
   1   6  -9 1888.20 917.074   1
  -1   6  -9 1755.70 1140.87   1
   1  -6  -9 3379.21 949.556   1
  -1  -6  -9 2756.40 1355.07   1
   1   6 -10-1048.85 885.752   1
  -1   6 -10 897.224 1257.79   1
   1  -6 -10 765.154 558.515   1
  -1  -6 -10 329.987 1108.07   1
  -1   6  10 1139.73 598.481   1
   1   6 -1131915.30 2565.40   1
  -1   6 -1125653.30 2828.65   1
   1  -6 -1130791.30 1733.23   1
  -1  -6 -1127681.50 2526.30   1
  -1   6  1129775.90 1806.11   1
   1   6 -12 641.968 911.304   1
  -1   6 -12 3964.53 2115.39   1
   1  -6 -12 1027.27 487.561   1
  -1  -6 -12 1874.77 1176.54   1
  -1   6  12  970.85 536.256   1
   1   6 -13 2420.44 1135.75   1
  -1   6 -13 5522.06 1879.57   1
   1  -6 -13 3251.28 1121.58   1
  -1  -6 -13 2520.80 1784.85   1
  -1   6  13 3187.90 1105.16   1
   1   6 -14 1940.65 1543.20   1
  -1   6 -14 6353.69 2006.00   1
   1  -6 -14 5780.85  953.86   1
  -1  -6 -14 2128.11 1328.45   1
  -1   6  14 4475.85 1442.38   1
  -1   6 -15 4081.11 1748.27   1
  -1  -6 -15 4775.95 2114.34   1
  -1   6  15 7250.14 1191.59   1
   1   6 -16 3080.93 1685.26   1
  -1   6 -16 1973.10 1310.80   1
   1  -6 -16 4578.23 865.517   1
  -1  -6 -16 6057.48 1907.51   1
   1   6 -17 818.143 1000.06   1
  -1   6 -17 2656.66 1898.16   1
   1  -6 -17 2346.28 966.805   1
  -1  -6 -17 4559.56 2223.23   1
   1   6 -18 1173.68 1127.99   1
  -1   6 -18 1241.72 1244.25   1
   1  -6 -18 1624.40 1002.10   1
  -1  -6 -18-207.137 1300.39   1
   1   6 -1916303.20 3986.59   1
  -1   6 -1920793.90 5052.29   1
   1  -6 -1924379.90 5465.98   1
  -1  -6 -1919305.90 4871.20   1
   1   6 -20 3722.26 1845.33   1
  -1   6 -20 5761.36 2435.27   1
   1  -6 -2010945.60 3229.02   1
  -1  -6 -20 5466.79 2360.97   1
   1   6 -21 508.929 891.459   1
  -1   6 -21 2965.59 1521.56   1
   1  -6 -21 4649.00 1416.51   1
  -1  -6 -21 1665.80 1409.19   1
   1   6 -22 623.435 972.076   1
  -1   6 -22 -567.79 1115.44   1
   1  -6 -22 3361.27 1555.85   1
  -1  -6 -22 822.618 1226.28   1
   1   6 -23 3232.79 2316.62   1
  -1   6 -23 4147.73 2116.55   1
   1  -6 -23 1789.38 1061.22   1
  -1  -6 -23 1193.03 1259.42   1
   1   6 -24 3744.38 1729.68   1
  -1   6 -24 5670.83 2489.17   1
   1  -6 -2415675.0011459.60   1
  -1  -6 -24 9859.30 3256.42   1
   1   6 -25 1440.50 1067.89   1
  -1   6 -25 5331.73 2642.71   1
   1  -6 -25 4072.97 1954.51   1
  -1  -6 -25 3266.65 1537.42   1
   1   6 -26 2443.73 1568.91   1
  -1   6 -26 2219.73 1333.22   1
  -1  -6 -26 3334.28 2055.87   1
   1   6 -27 2083.67 1576.25   1
  -1   6 -27 1510.33 1233.18   1
  -1  -6 -27  179.58 1349.84   1
   1   6 -28 1715.06 1131.39   1
  -1   6 -28 3154.93 1638.90   1
  -1  -6 -28 9243.31 3996.23   1
   1   6 -29 130.604 852.654   1
  -1   6 -29 474.943 1299.61   1
  -1  -6 -29 4576.91 2664.02   1
   1   6 -30 4487.50 2025.90   1
  -1   6 -30 1438.22 1305.86   1
  -1  -6 -30 4781.28 2660.08   1
   1   6 -31-390.707 907.059   1
  -1   6 -31-322.716 1214.16   1
   1   6 -32 1659.23 1124.97   1
  -1   6 -32 1172.02 1146.22   1
  -1  -6 -32-142.252 1637.69   1
   1   6 -33-1131.11 1012.24   1
  -1   6 -33-356.209 953.723   1
  -1  -6 -33 3464.51 2168.20   1
   1   6 -34 621.777 1106.30   1
  -1   6 -34-617.725 1066.61   1
   1   6 -35 2886.01 1927.46   1
  -1   6 -35 2084.23 1501.27   1
   1   6 -36 606.779 1384.01   1
  -1   6 -36 2088.17 1524.44   1
  -1   6 -37 1121.32 1317.04   1
   1   7   055040.20 3421.01   1
  -1   7   055772.20 2742.03   1
   1  -7   059559.30 2886.49   1
   1   7   174310.40 3613.75   1
  -1   7   163196.30 2995.44   1
  -1   7  -167569.80 3245.67   1
   1  -7  -166280.80 3144.91   1
   1  -7   176385.00 3642.44   1
   1   7  -242868.20 4572.96   1
  -1   7   242079.20 2088.04   1
  -1   7  -246415.20 2453.92   1
   1  -7  -240481.20 2043.27   1
   1  -7   241383.60 2163.16   1
  -1   7   313756.80 2750.35   1
   1  -7  -314801.30 1048.99   1
  -1   7  -312809.30 2924.03   1
  -1   7   4 1367.94 640.917   1
   1   7  -4 1493.77 819.022   1
   1  -7  -4 994.927  625.58   1
  -1   7  -4 1811.17 1020.22   1
  -1   7   5 381.234 299.561   1
   1   7  -5-92.5004 690.152   1
   1  -7  -5 407.049 325.687   1
  -1   7  -5 1170.65 1091.21   1
  -1  -7  -5 4.92858 1120.34   1
   1   7  -6 4135.87 1566.67   1
   1  -7  -6 7140.97 1592.27   1
  -1   7  -6 8575.43 1581.96   1
  -1  -7  -6 3486.76 1360.69   1
   1  -7  -714442.10 1564.28   1
  -1   7  -714055.00 2054.14   1
  -1  -7  -712004.90 1851.28   1
   1  -7  -716531.90 1115.31   1
   1  -7  -828948.30 2418.00   1
  -1   7  -827038.00 2644.24   1
   1  -7  -826072.20 1512.92   1
  -1  -7  -827444.20 2664.10   1
   1  -7  -913243.90 1344.52   1
  -1   7  -916597.50 2456.06   1
   1  -7  -913138.80 1144.85   1
   1   7 -10 1453.93 1652.85   1
  -1   7 -10 2274.44 1411.36   1
   1  -7 -10 125.141 362.414   1
  -1  -7 -10-415.216 1121.28   1
  -1   7 -1119175.60 2406.99   1
   1  -7 -1120817.20 1342.15   1
  -1  -7 -1117096.40 2199.75   1
   1   7 -12-664.208 1012.02   1
  -1   7 -12 884.891 1383.71   1
   1  -7 -12 1546.90 773.787   1
  -1  -7 -12-35.6192 1154.68   1
  -1   7  12 483.803 506.878   1
   1   7 -13 1050.53 996.172   1
  -1   7 -13 305.804 1317.40   1
   1  -7 -13 724.298 380.876   1
  -1  -7 -13-1415.38 1105.04   1
  -1   7  13 41.5982 335.164   1
   1   7 -14 5679.47 1656.41   1
  -1   7 -14 6383.09 1902.76   1
   1  -7 -14 6911.08 1068.52   1
  -1  -7 -14 7051.26 2008.45   1
   1   7 -15 2606.45 1658.46   1
  -1   7 -15 2770.23 1910.85   1
   1  -7 -15 5550.79 1046.28   1
  -1  -7 -15 5045.79 2216.96   1
  -1   7  15 4061.68 1277.65   1
   1   7 -16 2915.39 2080.64   1
  -1   7 -16 1302.69 1267.97   1
   1  -7 -16 2063.77 917.258   1
  -1  -7 -16 2897.27 1880.78   1
   1   7 -17 2560.13 1714.02   1
  -1   7 -17  735.77 1212.20   1
   1  -7 -17 1731.54 1049.50   1
  -1  -7 -17 2528.03 1513.37   1
   1   7 -1810200.20 2879.22   1
  -1   7 -1811083.50 3188.17   1
   1  -7 -1822040.10 4986.34   1
  -1  -7 -1810563.30 3018.34   1
   1   7 -19 1866.14 1456.59   1
  -1   7 -19 831.035 1242.23   1
   1  -7 -19 1028.64 1093.04   1
  -1  -7 -19 494.483 1316.22   1
   1   7 -20 255.143 1009.21   1
  -1   7 -20 929.025 1163.05   1
   1  -7 -20 1085.29 774.727   1
  -1  -7 -20 4063.85 2078.04   1
   1   7 -21 6938.07 2116.06   1
  -1   7 -2111230.70 3108.79   1
   1  -7 -2114740.20 3173.25   1
  -1  -7 -2110317.40 2760.20   1
   1   7 -22 41.9515 962.973   1
  -1   7 -22 2339.28 1286.60   1
   1  -7 -22 5791.29 2441.62   1
  -1  -7 -22 4597.91 2516.52   1
   1   7 -23 1232.22 1042.55   1
  -1   7 -23  829.78 1176.49   1
   1  -7 -23 4534.44 2074.84   1
  -1  -7 -23 1645.30 1342.09   1
   1   7 -24 2128.15 1413.85   1
  -1   7 -24 1353.88 1291.05   1
   1  -7 -24 3332.99 1807.01   1
  -1  -7 -24 698.867 1247.95   1
   1   7 -25 628.156 1027.44   1
  -1   7 -25 1341.46 1246.60   1
  -1  -7 -25 2278.85 1842.34   1
   1   7 -26 2974.78 1992.56   1
  -1   7 -26 4932.11 2424.56   1
  -1  -7 -26 3993.00 1931.51   1
   1   7 -27 114.711 896.128   1
  -1   7 -27 482.749 1248.16   1
  -1  -7 -27 3396.41 1815.13   1
   1   7 -28-1259.99 863.373   1
  -1   7 -28 1297.37 1376.23   1
  -1  -7 -28 1475.37 1603.22   1
   1   7 -29 2331.82 1088.62   1
  -1   7 -29 1183.40 1380.07   1
  -1  -7 -29 1280.45 1680.39   1
   1   7 -30-191.562 882.979   1
  -1   7 -30 2684.18 2204.88   1
   1   7 -31 83.2567 909.083   1
  -1   7 -31 3770.46 2483.62   1
  -1  -7 -31 2045.58 2477.84   1
   1   7 -32 1426.95 1085.52   1
  -1   7 -32 2710.01 1671.32   1
  -1  -7 -32 3332.69 2042.09   1
   1   7 -33 2162.17 1715.95   1
  -1   7 -33 3278.47 2333.31   1
   1   7 -34 629.897 1042.52   1
  -1   7 -34 1819.63 2140.45   1
   1   7 -35 579.206 1151.80   1
  -1   7 -35 2362.14 1862.05   1
   1   7 -36 1934.01 1491.64   1
  -1   7 -36 113.405 1001.88   1
  -1   7 -37 2512.03 1594.26   1
   1   8   0-1047.66  516.58   1
  -1   8   0  373.89 415.938   1
   1  -8   0-361.338 382.975   1
   1   8   1 70.8109 497.976   1
   1   8  -1 64.2513 242.739   1
  -1   8   1 1198.57 609.054   1
  -1   8  -1 1426.69 605.081   1
   1  -8  -1 1431.85 752.434   1
   1  -8   1 1178.69 717.242   1
   1   8  -2 8774.63 2453.89   1
  -1   8   2 7241.15 1691.49   1
  -1   8  -211923.30 2737.68   1
   1  -8  -210846.90 2421.44   1
   1   8  -3-938.152 707.148   1
  -1   8   3 81.8405 210.777   1
   1  -8  -3 147.625 330.478   1
  -1   8  -3-477.272 538.266   1
  -1   8   412911.40 1502.61   1
   1  -8  -417045.50 1140.97   1
  -1   8  -413180.50 1299.57   1
  -1   8   5 1921.36 773.745   1
   1   8  -5 1559.98 967.451   1
   1  -8  -5 1607.90 436.907   1
  -1   8  -5 3193.16 1297.30   1
  -1  -8  -5 -2.3209 1140.66   1
  -1   8  -614226.00 1620.25   1
  -1  -8  -612967.40 2101.43   1
   1   8  -7 870.297 811.199   1
   1  -8  -7 2641.95 744.741   1
  -1   8  -7 846.787 1015.47   1
  -1  -8  -7 1849.71 1176.01   1
   1  -8  -7 2241.53 812.635   1
   1  -8  -816554.20 1709.09   1
  -1   8  -818655.80 2348.25   1
   1  -8  -818741.30 1302.96   1
  -1  -8  -818141.20 2385.27   1
   1  -8  -938077.40 2613.37   1
  -1   8  -929393.40 2562.94   1
   1  -8  -936124.30 2050.04   1
  -1  -8  -935907.20 2802.37   1
  -1   8 -10 8574.45 1752.11   1
  -1  -8 -1012951.10 2094.31   1
   1   8 -11 3012.31 1731.68   1
  -1   8 -11 763.222 1353.48   1
   1  -8 -11 3721.95 1287.27   1
  -1  -8 -11 2185.78 1239.26   1
   1   8 -12 6462.99 1631.79   1
  -1   8 -12 6145.86 2258.59   1
   1  -8 -12 4923.90 1590.71   1
  -1  -8 -12 8299.16 2084.66   1
   1   8 -13 2181.90 1635.95   1
  -1   8 -13-442.022 1256.71   1
   1  -8 -13-58.8152 434.664   1
  -1  -8 -13 221.345 1063.24   1
   1   8 -14 4810.76 1645.71   1
  -1   8 -14 1795.88 1271.00   1
  -1  -8 -14 833.179 1094.25   1
  -1   8  14 1848.46  869.79   1
   1   8 -15-441.587 1110.49   1
  -1   8 -15 867.219 1159.66   1
   1  -8 -15 1512.87  999.56   1
  -1  -8 -15-182.793 1187.20   1
  -1   8  15 1003.68 688.915   1
   1   8 -16 2258.03 1540.48   1
  -1   8 -16 3866.81 1892.88   1
   1  -8 -16 2528.82 1058.29   1
  -1  -8 -16 820.996 1200.42   1
   1   8 -17 3088.20 1618.84   1
  -1   8 -17 3637.73 1889.85   1
   1  -8 -17 5557.37 1683.42   1
  -1  -8 -17 2949.64 2310.64   1
   1   8 -18 1014.98 1092.04   1
  -1   8 -18 4503.74 2044.95   1
   1  -8 -18 3260.80 1697.46   1
  -1  -8 -18 2684.79 1638.81   1
   1   8 -19 8034.24 2874.16   1
  -1   8 -19 7529.91 2744.13   1
   1  -8 -19 8861.51 2789.87   1
  -1  -8 -19 2644.59 1681.40   1
   1   8 -20-1060.51 1065.95   1
  -1   8 -20 3858.28 1801.21   1
   1  -8 -20 1107.90 1026.00   1
  -1  -8 -20 1709.11 2055.61   1
   1   8 -21 -119.81 995.343   1
  -1   8 -21 2007.34 1330.67   1
   1  -8 -21 4441.27 1847.04   1
  -1  -8 -21 2297.75 1570.30   1
   1   8 -22 4272.14 2113.90   1
  -1   8 -22 2271.77 1754.82   1
   1  -8 -22 6253.72 2563.75   1
  -1  -8 -22 4395.20 2302.24   1
   1   8 -23 1298.73 1464.68   1
  -1   8 -23 509.458 1151.32   1
   1  -8 -23 5556.21 2292.77   1
  -1  -8 -23 2121.38 1777.25   1
   1   8 -24 4736.82 2010.50   1
  -1   8 -2410030.80 3801.68   1
  -1  -8 -24 6244.63 2626.51   1
   1   8 -25 1329.27 864.181   1
  -1   8 -25 7318.93 2886.60   1
  -1  -8 -25 2015.17 1458.75   1
   1   8 -26 -94.531 884.429   1
  -1   8 -26 3052.32 1697.44   1
  -1  -8 -26 2388.41 1944.17   1
   1   8 -27 2103.10 1180.34   1
  -1   8 -27 32.0239 1308.97   1
  -1  -8 -27 974.132 1469.49   1
   1   8 -28 2237.45 1626.34   1
  -1   8 -28 1762.10 1434.21   1
  -1  -8 -28 4855.45 2274.09   1
   1   8 -29 1158.97 1059.66   1
  -1   8 -29-296.858 1248.72   1
   1   8 -30 1641.76 1142.07   1
  -1   8 -30 4650.15 3066.10   1
  -1  -8 -30 215.489 1862.96   1
   1   8 -31 1208.82 1149.03   1
  -1   8 -31 2782.05 1358.06   1
  -1  -8 -31-1161.59 1969.03   1
   1   8 -32 852.264 962.249   1
  -1   8 -32 1120.25 1106.41   1
   1   8 -33 893.343 1134.57   1
  -1   8 -33 1112.70 1492.47   1
   1   8 -34 579.935 1026.24   1
  -1   8 -34 609.175 1212.75   1
   1   8 -35 2033.11 1510.59   1
  -1   8 -35 1065.06 1114.51   1
   1   8 -36 126.229 967.143   1
  -1   8 -36 715.734 1227.52   1
   1   8 -37 1356.07 1376.78   1
   1   9   023268.40 3356.67   1
  -1   9   027904.60 1701.01   1
   1   9  -1 2596.97 1340.58   1
  -1   9   1 4901.85 1293.66   1
  -1   9  -1 7477.28 1048.86   1
   1  -9  -1 4651.28 1164.77   1
   1   9  -2 5050.24 2498.81   1
  -1   9   2 5739.20 1389.94   1
  -1   9  -2 7059.56 1832.25   1
   1  -9  -2 6835.13 1611.68   1
  -1   9   322438.30 1572.11   1
  -1   9  -319726.00 1504.45   1
   1  -9  -319188.10 1201.58   1
  -1   9   4 4120.12 1212.37   1
   1   9  -4 2387.45 1502.50   1
   1  -9  -4 4992.37 1238.49   1
  -1   9  -4 7924.18 1361.57   1
  -1   9   5 597.022 244.794   1
   1   9  -5 1121.14 835.246   1
   1  -9  -5 573.672  406.15   1
   1   9  -6 2991.91 1786.82   1
   1  -9  -6 2898.38  825.20   1
  -1   9  -6 3706.33 1659.39   1
  -1  -9  -6 1574.31 1188.35   1
   1   9  -7-24.8482 833.813   1
   1  -9  -7 618.146 411.568   1
  -1   9  -7 648.573 1353.42   1
  -1  -9  -7 2407.04 1641.73   1
   1  -9  -8 83.2378 121.258   1
   1   9  -8-1316.49 904.676   1
  -1   9  -8 -825.84 1127.44   1
  -1  -9  -8 394.794 1102.60   1
   1  -9  -8 2389.07 1000.68   1
   1  -9  -922306.80 2828.03   1
  -1   9  -922238.30 3084.22   1
   1  -9  -924142.40 2560.53   1
  -1  -9  -925692.10 3339.04   1
  -1   9 -1014047.80 2631.19   1
   1  -9 -1018754.50 2101.90   1
  -1  -9 -1020093.40 3058.49   1
  -1   9 -11 6395.13 1969.98   1
   1  -9 -1111026.40 1434.71   1
  -1  -9 -11 3456.23 1773.11   1
   1  -9 -12 1736.34 588.744   1
   1   9 -12 177.009 1018.98   1
  -1   9 -12 4522.63 2189.03   1
   1  -9 -12 1541.20 798.617   1
  -1  -9 -12 3712.77 1856.53   1
   1   9 -13 6597.70 1612.76   1
  -1   9 -13 7174.07 2262.91   1
  -1   9 -14 3293.63 1504.76   1
  -1  -9 -14 6042.40 1983.34   1
   1   9 -15 2212.23 1507.56   1
  -1   9 -15  865.27 1232.50   1
   1  -9 -15 1535.98  898.57   1
  -1  -9 -15 956.287 1145.64   1
   1   9 -16-701.507 941.064   1
  -1   9 -16 1089.60 1248.97   1
   1  -9 -16 1390.68 810.577   1
  -1  -9 -16 1938.00 1335.45   1
   1   9 -17 1750.43 1137.15   1
  -1   9 -17 671.911 1148.27   1
   1  -9 -17-486.565 773.539   1
  -1  -9 -17 2346.03 1514.23   1
   1   9 -18 3119.16 1747.08   1
  -1   9 -18 2178.10 1741.21   1
   1  -9 -18 5566.48 2158.76   1
  -1  -9 -18 1189.43 1334.09   1
   1   9 -19 3007.69 1736.97   1
  -1   9 -19 5374.54 1867.94   1
   1  -9 -1910985.00 3559.63   1
  -1  -9 -19 5767.99 2517.98   1
   1   9 -20 822.467 1007.31   1
  -1   9 -20 1799.92 1403.46   1
   1  -9 -20 1702.90 1556.31   1
  -1  -9 -20 5615.18 2299.25   1
   1   9 -21 953.236 1361.62   1
  -1   9 -21 1762.70 1357.79   1
   1  -9 -21 3624.01 1991.62   1
  -1  -9 -21 3249.59 2922.21   1
   1   9 -22 2735.85 2374.37   1
  -1   9 -22 2641.40 2255.97   1
  -1  -9 -22 2111.45 1412.94   1
   1   9 -23 2622.04 2289.55   1
  -1   9 -23-617.375 1206.39   1
  -1  -9 -23 555.935 1425.64   1
   1   9 -24 1609.85 1417.06   1
  -1   9 -24 1812.21 1356.54   1
  -1  -9 -24 279.883 1396.15   1
   1   9 -25 3553.55 1787.77   1
  -1   9 -25 6006.71 2772.89   1
  -1  -9 -25 3381.55 2184.47   1
   1   9 -26 1046.27 1050.12   1
  -1   9 -26 1380.81 1447.80   1
  -1  -9 -26-546.738 1345.35   1
   1   9 -27 1116.55 961.022   1
  -1   9 -27 1438.73 1433.68   1
  -1  -9 -27 1279.73 1681.00   1
   1   9 -28 1276.92 1025.07   1
  -1   9 -28 49.3023 1263.23   1
   1   9 -29  563.89 996.283   1
  -1   9 -29 2930.77 1534.42   1
  -1  -9 -29 1549.08 2066.44   1
   1   9 -30 546.609 1046.83   1
  -1   9 -30 3472.08 2641.58   1
  -1  -9 -30 4318.18 2969.06   1
   1   9 -31-271.753 992.669   1
  -1   9 -31 5970.83 2605.62   1
   1   9 -32-996.434  843.59   1
  -1   9 -32 1541.79 1173.87   1
   1   9 -33 3426.88 1972.97   1
  -1   9 -33 612.816 1139.60   1
   1   9 -34 3896.76 1737.39   1
  -1   9 -34 1949.15 1486.81   1
   1   9 -35 236.619 998.083   1
  -1   9 -35 1145.27 1195.96   1
   1   9 -36-43.8372 970.518   1
   1   9 -37 1785.55 1811.41   1
   1  10   0-427.958 580.978   1
  -1  10   0 801.047 488.103   1
   1  10   1 975.776 657.445   1
   1  10  -1 367.868 478.037   1
  -1  10   1 404.122 416.381   1
  -1  10  -1 235.022 482.628   1
   1  10   2 2948.07 1065.58   1
   1  10  -2 2140.89 1127.18   1
  -1  10   2 2328.70 877.051   1
  -1  10  -2 2939.53 1149.09   1
   1  10  -3 2632.26 1007.34   1
  -1  10   3 2699.90 1048.29   1
  -1  10  -3 2150.31 957.756   1
   1 -10  -3 4605.68 1173.10   1
  -1  10   4 3447.68 1002.76   1
   1  10  -4 2942.50 1524.42   1
  -1  10  -4 3512.57 1194.90   1
   1 -10  -4 4372.83 1106.42   1
  -1  10   5 1702.96  697.25   1
   1 -10  -5 2157.92 658.609   1
  -1  10  -5 2979.46 1241.26   1
   1  10  -6 1067.53 1243.73   1
  -1  10  -6 155.228 896.012   1
  -1 -10  -6 2115.98 2056.03   1
   1  10  -7 2958.05 2547.98   1
   1 -10  -7 5514.54 1290.89   1
  -1  10  -7 8169.59 1612.67   1
  -1 -10  -7 7672.71 1676.15   1
   1  10  -8 883.119 954.326   1
   1 -10  -8 1193.75 472.165   1
  -1  10  -8-185.265 1011.42   1
  -1 -10  -8 1786.32 1231.74   1
   1 -10  -8 737.949 664.701   1
   1 -10  -9 1703.43 596.357   1
   1  10  -9 -247.71 1033.54   1
  -1  10  -9 4504.15 2047.62   1
  -1 -10  -9 4066.62 1962.95   1
   1 -10  -9 2512.90 1122.65   1
   1  10 -10 5469.76 2160.16   1
  -1  10 -10 6716.66 2132.78   1
  -1 -10 -10 7570.75 2047.08   1
   1  10 -11 1330.70 1051.11   1
  -1  10 -11 4361.29 1772.87   1
   1 -10 -11 5277.59 1717.46   1
  -1 -10 -11 3497.10 1794.95   1
   1 -10 -12 62.5377  83.493   1
   1  10 -12 103.905 1031.05   1
  -1  10 -12 157.829 1285.84   1
   1 -10 -12 120.569 502.625   1
  -1 -10 -12-1137.85 1054.12   1
  -1 -10 -1333901.60 3984.70   1
   1 -10 -14 417.992  211.22   1
   1  10 -14-82.9691 943.722   1
  -1  10 -14 1335.33 1264.82   1
   1 -10 -14  102.20 616.245   1
  -1 -10 -14-106.485 1124.56   1
   1  10 -15 1365.64 1405.03   1
  -1  10 -15-1698.50 1217.20   1
   1 -10 -15 3839.22 1347.53   1
  -1 -10 -15 2361.38 1892.07   1
   1  10 -16-68.2893 1004.89   1
  -1  10 -16 2852.77 2196.05   1
   1 -10 -16 4380.59 1661.33   1
  -1 -10 -16 157.899 1273.13   1
   1  10 -17 5246.24 2173.25   1
  -1  10 -17 3821.22 2128.77   1
   1 -10 -17 4023.08 1729.45   1
  -1 -10 -17 5443.15 2431.16   1
   1  10 -18 4418.74 2029.49   1
   1 -10 -18 2340.60 1298.60   1
  -1 -10 -18 2390.77 2165.94   1
   1  10 -19 970.207 1049.91   1
  -1  10 -19 4678.09 1934.99   1
   1 -10 -19 1831.74 1245.33   1
  -1 -10 -19 3479.15 1613.35   1
   1  10 -20-1435.54 990.756   1
  -1  10 -20 3161.30 1539.01   1
   1 -10 -20-223.689 1134.59   1
  -1 -10 -20 1675.62 1621.18   1
   1  10 -21 4146.24 1819.81   1
  -1  10 -21 3478.84 1698.32   1
  -1 -10 -21 7022.26 3042.07   1
   1  10 -22-557.028 974.178   1
  -1  10 -22 1027.59 1380.92   1
  -1 -10 -22 2084.63 1519.96   1
   1  10 -23 3651.96 1671.06   1
  -1  10 -23 3934.78 1813.47   1
  -1 -10 -23 7004.65 3019.00   1
   1  10 -24 752.716 992.321   1
  -1  10 -24-2247.68 1376.74   1
  -1 -10 -24 3413.16 2309.99   1
   1  10 -25 1685.30 1412.46   1
  -1  10 -25 1255.85 1443.71   1
  -1 -10 -25 458.921 1412.32   1
   1  10 -26 614.352 972.036   1
  -1  10 -26 84.6824 1343.88   1
  -1 -10 -26 472.054 1418.76   1
   1  10 -27 482.258 987.817   1
  -1  10 -27 81.5838 1364.65   1
   1  10 -28-514.868 1020.37   1
  -1  10 -28 646.839 1344.79   1
  -1 -10 -28-626.332 1959.37   1
   1  10 -29 2182.47 1846.98   1
  -1  10 -29 3429.80 2109.47   1
  -1 -10 -29-325.433 2031.04   1
   1  10 -30 1222.49 1121.36   1
  -1  10 -30 1396.45 1408.43   1
   1  10 -31-461.187 895.516   1
  -1  10 -31 49.8886 907.618   1
   1  10 -32 1860.28 1374.86   1
  -1  10 -32 633.562 1132.52   1
   1  10 -33 1643.11 1226.55   1
  -1  10 -33 905.371 1213.45   1
   1  10 -34-598.271 990.763   1
  -1  10 -34 1439.05 1430.80   1
  -1  10 -35-1367.21 1162.51   1
   1  10 -36 1400.19 1632.41   1
   1  10 -37 1203.10 1161.12   1
  -1  11   024633.90 1673.98   1
  -1  11   134275.90 2021.08   1
  -1  11   2 8089.90 1568.19   1
  -1  11  -210478.50 1299.69   1
   1  11  -3 1341.94 1049.03   1
  -1  11   3 496.218 323.125   1
  -1  11  -3 600.165 627.192   1
  -1  11   4 2470.97 937.691   1
   1  11  -4 3275.60 1498.94   1
  -1  11  -4 2489.10 1101.81   1
  -1  11   5 159.091  413.06   1
   1  11  -5-312.378 855.847   1
   1 -11  -5 2083.54 818.122   1
  -1  11  -5 872.638 1151.76   1
  -1  11   618339.70 1980.06   1
  -1  11  -617063.10 2355.02   1
  -1 -11  -614831.10 2353.77   1
   1  11  -7 320.748  710.81   1
   1 -11  -7  739.05 372.172   1
  -1  11  -7 1758.69 1431.80   1
  -1 -11  -7-54.2541 1173.49   1
   1  11  -8 772.563 1039.96   1
   1 -11  -8 453.007 251.937   1
  -1  11  -8 2137.70 1537.00   1
  -1 -11  -8-1814.17 1032.09   1
   1 -11  -8  663.33 812.031   1
   1  11  -9 1179.25 1456.46   1
   1 -11  -9 1043.70 438.977   1
  -1  11  -9 908.428 1072.23   1
  -1 -11  -9 251.263 1139.79   1
   1 -11  -9  837.59 710.428   1
   1 -11 -10 957.094 308.504   1
   1  11 -10 1749.04 1142.64   1
  -1  11 -10-309.623 1079.83   1
   1 -11 -10 1715.01 834.036   1
  -1 -11 -10 1390.96 1138.04   1
   1  11 -11 289.756 1032.42   1
  -1  11 -11 2082.07 1732.38   1
   1 -11 -11-89.7916 528.483   1
  -1 -11 -11-429.567 1091.60   1
   1 -11 -12 1767.91 636.209   1
   1  11 -12 434.737 977.802   1
  -1  11 -12 1601.92 1253.74   1
   1 -11 -12 3824.06 1513.80   1
  -1 -11 -12 1678.93 1563.91   1
   1 -11 -13 1753.98 568.527   1
   1  11 -13 706.119 1013.60   1
  -1  11 -13 4222.20 2012.77   1
   1 -11 -13 1382.90 996.789   1
  -1 -11 -13 1366.29 1167.53   1
   1  11 -1413601.90 3602.18   1
  -1  11 -1415136.70 4210.31   1
   1 -11 -1422193.70 5083.53   1
  -1 -11 -1412820.20 3573.40   1
   1  11 -15 1553.53 1091.96   1
  -1  11 -15 4919.59 2150.56   1
   1 -11 -15 257.248  885.42   1
  -1 -11 -15 1097.11 1306.51   1
   1  11 -16 851.134 1034.51   1
  -1  11 -16 1037.12 1193.31   1
   1 -11 -16 2156.36 1220.76   1
  -1 -11 -16 922.139 1351.32   1
   1  11 -17 1045.22 1297.43   1
  -1  11 -17 2903.02 2017.66   1
   1 -11 -17 2862.53 2073.30   1
  -1 -11 -17 5849.32 2731.17   1
   1  11 -18-358.085 912.398   1
  -1  11 -18 4702.14 2242.02   1
   1 -11 -18 4175.31 2111.90   1
  -1 -11 -18 729.441 1504.73   1
   1  11 -19-7.61874 949.883   1
  -1  11 -19 2595.92 2045.97   1
   1 -11 -19 6680.62 2263.80   1
  -1 -11 -19 6214.78 2436.62   1
   1  11 -20 215.182 994.138   1
  -1  11 -20 4556.31 2244.81   1
  -1 -11 -20 1176.47 1617.69   1
   1  11 -21 1603.27 1014.81   1
  -1  11 -21 2769.10 2617.09   1
  -1 -11 -21 3135.35 2335.85   1
   1  11 -22 1165.89 942.532   1
  -1  11 -22 10.0802 1284.26   1
  -1 -11 -22 3399.29 2513.84   1
   1  11 -23 1232.55 938.401   1
  -1  11 -23 132.133 1286.34   1
  -1 -11 -23-1348.57 1602.72   1
   1  11 -24 1883.34 1167.65   1
  -1  11 -24 2792.33 2169.70   1
  -1 -11 -24 3589.66 2430.96   1
   1  11 -25 3655.65 1817.76   1
  -1  11 -25 2983.32 2191.49   1
  -1 -11 -25 5139.06 2226.26   1
   1  11 -26 1783.17 1478.69   1
  -1  11 -26 1721.02 1537.43   1
   1  11 -27-589.495 1028.42   1
  -1  11 -27 3142.63 2543.45   1
  -1 -11 -27-491.568 1686.17   1
   1  11 -28 304.936 1092.52   1
  -1  11 -28 2682.82 1496.20   1
  -1 -11 -28 2723.95 2731.34   1
   1  11 -29 2765.61 2281.96   1
  -1  11 -29 1438.68 1360.62   1
   1  11 -30 401.091 942.892   1
  -1  11 -30 1050.82 1219.39   1
   1  11 -31 3783.34 1894.17   1
  -1  11 -31 3709.10 2250.97   1
   1  11 -32 1495.30 1299.20   1
  -1  11 -32 3827.09 2585.55   1
   1  11 -33 188.693 923.361   1
  -1  11 -33 806.474 1373.54   1
   1  11 -34 817.058 1054.57   1
  -1  11 -34-238.413 1173.40   1
   1  11 -35 1431.79 1231.01   1
   1  11 -36-1494.12 1055.08   1
   1  12   0-351.466 598.254   1
  -1  12   0-249.317 505.252   1
   1  12  -1 3857.64 1955.32   1
   1  12   2 1887.09 928.791   1
   1  12  -2 2358.81 1208.69   1
  -1  12   2 2193.94 1033.12   1
  -1  12  -2 4180.79 1602.24   1
  -1  12   3 4090.52 1852.40   1
  -1  12  -3 4316.62 1532.29   1
  -1  12   4 159.027 151.105   1
   1  12  -4-792.445 899.831   1
  -1  12  -4-662.195 686.543   1
  -1  12   5 1398.21 787.923   1
   1  12  -5  826.83 552.842   1
  -1  12  -5 1653.43 1149.32   1
  -1  12   612045.10 1473.35   1
  -1  12  -610469.00 2066.48   1
  -1  12  -7 7979.57 1880.19   1
  -1 -12  -7 4910.89 2416.15   1
   1  12  -8 3420.20 1858.53   1
  -1  12  -8 1515.10 1037.57   1
  -1 -12  -8 3754.77 1644.55   1
   1  12  -9 1046.15 982.563   1
   1 -12  -9 3763.40 1125.01   1
  -1  12  -9 4162.81 1728.04   1
  -1 -12  -9 3677.16 1772.00   1
   1 -12  -9 6722.72 1538.70   1
  -1  12 -10 7522.94 1904.60   1
  -1 -12 -10 4582.52 1806.50   1
   1 -12 -10 5805.70 1350.83   1
   1 -12 -11 2961.63 966.744   1
  -1  12 -11 2866.79 1704.04   1
   1 -12 -11 5698.40 1327.12   1
  -1 -12 -11 5509.63 1645.87   1
   1 -12 -12 3273.27 1014.04   1
   1  12 -12 3350.40 1266.67   1
  -1  12 -12 4821.50 2275.99   1
   1 -12 -12 3711.23 1272.02   1
  -1 -12 -12 4493.40 1843.72   1
   1  12 -13-148.796 1032.70   1
  -1  12 -13 3350.32 1907.13   1
   1 -12 -13 3738.96 1510.70   1
  -1 -12 -13 3108.92 1824.28   1
   1  12 -14-850.772 962.085   1
  -1  12 -14 3739.07 1879.19   1
   1 -12 -14 3363.27 1866.29   1
  -1 -12 -14-458.538 1267.24   1
   1  12 -15 1195.06 997.731   1
  -1  12 -15 362.238 1148.23   1
   1 -12 -15 1815.17 1384.90   1
  -1 -12 -15 194.598 1399.14   1
   1  12 -16 101.051 1031.61   1
  -1  12 -16 4920.35 2103.79   1
   1 -12 -16 8742.33 3025.04   1
  -1 -12 -16 2678.55 2273.53   1
   1  12 -17 4847.23 2010.99   1
  -1  12 -17 1091.66 1223.67   1
   1 -12 -17 7060.12 2457.42   1
  -1 -12 -17 2111.66 2231.65   1
   1  12 -18 2372.22 1681.21   1
  -1  12 -18 1061.83 1284.54   1
   1 -12 -18 2840.72 1932.00   1
  -1 -12 -18 857.171 1491.64   1
   1  12 -19 2437.59 1649.68   1
  -1  12 -19 5066.59 2298.11   1
  -1 -12 -19 7329.10 3172.91   1
   1  12 -20 1555.50 1502.79   1
  -1  12 -20 1865.41 1258.11   1
  -1 -12 -20 3936.59 2520.89   1
   1  12 -21-148.932 1077.40   1
  -1  12 -21 1080.84 1825.96   1
  -1 -12 -21 2031.57 1709.12   1
   1  12 -22-486.544 1004.82   1
  -1  12 -22 1761.47 1417.74   1
  -1 -12 -22-413.011 1781.01   1
   1  12 -23 1578.80 1109.35   1
  -1  12 -23-1612.82 1310.50   1
  -1 -12 -23 2126.42 1869.15   1
   1  12 -24 3534.82 1852.08   1
  -1  12 -24 5092.45 2622.54   1
  -1 -12 -24 4755.11 2264.69   1
   1  12 -25 1744.48 1637.04   1
  -1  12 -25-390.954 1429.09   1
   1  12 -26 258.278 1031.60   1
  -1  12 -26 3459.42 2313.36   1
  -1 -12 -26 960.572 1850.63   1
   1  12 -27 630.005 1126.19   1
  -1  12 -27 2773.02 1577.98   1
  -1 -12 -27 4182.60 3042.03   1
   1  12 -28 62.8371 1054.55   1
  -1  12 -28 2504.59 1777.97   1
   1  12 -29 2328.45 1502.25   1
  -1  12 -29  388.21 1159.11   1
   1  12 -30 197.457 866.694   1
  -1  12 -30-1163.92 1084.90   1
   1  12 -31 3975.08 2192.47   1
  -1  12 -31 1318.78 1737.28   1
   1  12 -32 1315.09 1342.98   1
  -1  12 -32 1544.79 1496.80   1
   1  12 -33 1375.11 1117.25   1
  -1  12 -33 161.725 1391.76   1
   1  12 -34 2468.20 1334.31   1
   1  12 -35 1478.98 1252.49   1
   1  13   0 156.315  778.89   1
  -1  13   0 808.859 698.747   1
   1  13   1 597.238 595.633   1
   1  13  -1 701.146 714.878   1
  -1  13   1 1554.07 818.684   1
  -1  13  -1 245.879 584.676   1
   1  13   2 3252.03 1441.11   1
   1  13  -2 2541.26 1499.03   1
  -1  13   2 1958.19 969.841   1
  -1  13  -2 2218.89 876.289   1
   1  13  -3 1156.28 602.936   1
  -1  13   3 1899.41 907.017   1
  -1  13  -3 3152.74 1476.55   1
  -1  13   4 1741.95 919.588   1
   1  13  -4 473.469 623.051   1
  -1  13  -4 1469.23 1033.23   1
  -1  13   5 1002.76 487.579   1
   1  13  -5-507.671 969.849   1
  -1  13  -5 973.852 704.101   1
  -1  13   6 3841.09 1115.69   1
   1  13  -6 2361.82 1646.52   1
  -1  13  -6 3416.93 1423.14   1
   1  13  -7 3405.08 2218.94   1
  -1  13  -7 3187.25 1500.67   1
  -1 -13  -7 6646.15 1916.19   1
  -1  13  -826980.70 3228.95   1
  -1 -13  -829426.90 3521.48   1
   1  13  -9 1363.72 568.596   1
  -1  13  -9 1699.89 1072.48   1
  -1 -13  -9-560.416 1162.63   1
   1 -13  -9 1808.21 1314.66   1
   1  13 -10-23.3559  988.60   1
  -1  13 -10 999.009 1022.65   1
  -1 -13 -10 1510.68 1147.80   1
   1 -13 -10 940.093 1015.41   1
   1  13 -11 397.078 997.378   1
  -1  13 -11-233.327 1090.21   1
   1 -13 -11 1556.43 1146.97   1
  -1 -13 -11-702.306 1119.99   1
   1  13 -12 1446.17 1117.11   1
  -1  13 -12-166.933 1187.57   1
   1 -13 -12 1641.26 1379.20   1
  -1 -13 -12 1832.16 1358.67   1
   1  13 -13 337.514 963.775   1
  -1  13 -13 385.463 1218.92   1
   1 -13 -13 2469.36 1520.80   1
  -1 -13 -13 129.909 1238.09   1
   1  13 -14 3799.06 1897.47   1
  -1  13 -14 5090.47 2130.27   1
   1 -13 -14 4398.44 2091.10   1
  -1 -13 -14 3586.60 2201.60   1
   1  13 -15 1125.68 1046.10   1
  -1  13 -15 4062.43 1983.46   1
   1 -13 -15 1125.67 1157.85   1
  -1 -13 -15 -254.47 1434.72   1
   1  13 -16 988.111 1102.88   1
  -1  13 -16 3298.84 1910.90   1
   1 -13 -16-23.2133 1232.95   1
  -1 -13 -16 1916.00 1556.21   1
   1  13 -17 452.904 1116.85   1
  -1  13 -17 2447.39 1438.52   1
   1 -13 -17 4423.99 2473.31   1
  -1 -13 -17 2764.08 1825.03   1
   1  13 -18 1881.18 1335.58   1
  -1  13 -1811684.10 4284.49   1
  -1 -13 -1814348.20 5217.46   1
   1  13 -19 2648.61 2432.31   1
  -1  13 -19 1648.44 1346.03   1
  -1 -13 -19 3331.84 2504.06   1
   1  13 -20 1.15353 1036.51   1
  -1  13 -20  64.969 1153.49   1
  -1 -13 -20 6056.14 3710.47   1
   1  13 -21-190.914 1086.70   1
  -1  13 -21-325.083 1165.36   1
  -1 -13 -21 3007.52 2452.54   1
   1  13 -22 2523.56 1405.50   1
  -1  13 -22 1569.16 1368.95   1
  -1 -13 -22 4017.88 2680.18   1
   1  13 -23 1036.32 1204.71   1
  -1  13 -23 2997.93 2346.00   1
  -1 -13 -23-964.523 1660.83   1
   1  13 -24 115.364 1184.41   1
  -1  13 -24 2742.48 1699.60   1
   1  13 -25 2926.73 1957.17   1
  -1  13 -25 4787.64 2595.80   1
  -1 -13 -25 4329.53 2841.85   1
   1  13 -26 860.666 1249.60   1
  -1  13 -26 3463.45 1807.99   1
  -1 -13 -26 2585.64 2042.15   1
   1  13 -27-162.924 1074.06   1
  -1  13 -27 992.629 1465.14   1
   1  13 -28 1116.94 1476.76   1
  -1  13 -28 853.907 1328.76   1
   1  13 -29 805.219 1300.03   1
  -1  13 -29 519.627 1199.09   1
   1  13 -30 1059.91  904.31   1
  -1  13 -30 2589.50 1590.91   1
   1  13 -31 2228.66 1726.86   1
  -1  13 -31-1443.87 1236.99   1
   1  13 -32  408.12 963.506   1
  -1  13 -32 945.363 1459.89   1
   1  13 -33 303.445 861.434   1
  -1  13 -33 709.488 1347.70   1
   1  13 -34 552.424 1078.22   1
   1  14   0 1318.69  522.98   1
  -1  14   0 705.932 602.908   1
   1  14   1-229.007 617.626   1
   1  14  -1 346.586 302.127   1
  -1  14   1 526.663 367.312   1
  -1  14  -1 2192.28 1100.81   1
   1  14   2 1327.41 868.275   1
   1  14  -2 317.676  426.35   1
  -1  14   2 806.252 535.407   1
  -1  14  -2-370.387 582.133   1
   1  14  -4 7023.28 3117.08   1
  -1  14   514032.80 2545.20   1
  -1  14   6-86.5885 295.349   1
   1  14  -6 1240.49  894.59   1
  -1  14  -6-459.375 795.537   1
   1  14  -7 654.335 631.112   1
  -1  14  -7 2457.89 1322.78   1
   1  14  -8 631.633 721.042   1
  -1  14  -8-10.1258  920.66   1
  -1 -14  -8-700.202 1238.98   1
   1  14  -9 4860.42 2526.84   1
  -1  14  -9 7369.71 2255.19   1
  -1 -14  -9 5598.13 2038.11   1
   1 -14  -9 5445.88 1681.08   1
   1  14 -10 824.854 1070.81   1
  -1  14 -10 936.296 997.892   1
  -1 -14 -10-308.292 1143.21   1
   1 -14 -10 1457.54 946.497   1
  -1  14 -1115627.40 3814.76   1
  -1 -14 -1112798.50 3460.81   1
   1  14 -12 972.727 984.762   1
  -1  14 -12 5.10016 1104.77   1
  -1 -14 -12 468.264 1268.45   1
   1 -14 -12  409.42 978.968   1
   1  14 -13 841.353  991.90   1
  -1  14 -13 3338.55 1885.20   1
   1 -14 -13 1620.85 1756.49   1
  -1 -14 -13 161.299 1313.80   1
   1  14 -14 2800.35 1712.32   1
  -1  14 -14-1490.17 1162.95   1
   1 -14 -14-850.151 1115.51   1
  -1 -14 -14-247.652 1383.08   1
   1  14 -15-1073.41 1006.79   1
  -1  14 -15 1409.25 1267.69   1
   1 -14 -15  184.98 1208.87   1
  -1 -14 -15 1197.25 1539.57   1
   1  14 -16-144.894  981.79   1
  -1  14 -16 80.2308 1146.83   1
   1 -14 -16 3250.03 2702.58   1
  -1 -14 -16-620.242 1464.90   1
   1  14 -17 934.797 1474.21   1
  -1  14 -17 3630.23 1979.34   1
  -1 -14 -17-901.991 1537.77   1
   1  14 -18 2219.25 1235.38   1
  -1  14 -18 1473.51 1424.53   1
  -1 -14 -18 1765.73 1634.60   1
   1  14 -19 3578.01 1932.57   1
  -1  14 -19 3673.22 1965.49   1
  -1 -14 -19 9189.67 3761.04   1
   1  14 -20 3076.08 2200.80   1
  -1  14 -20-700.039 1278.83   1
  -1 -14 -20-182.591 1667.30   1
   1  14 -21-1178.21 1178.50   1
  -1  14 -21 1468.65 1301.01   1
  -1 -14 -21 3002.52 2549.22   1
   1  14 -22 1781.25 1339.89   1
  -1  14 -22 1622.40 1340.51   1
  -1 -14 -22 838.374 1768.96   1
   1  14 -23 1847.06 1362.75   1
  -1  14 -23 5132.58 2553.97   1
   1  14 -24-233.748 1256.15   1
  -1  14 -24 1918.58 1579.74   1
  -1 -14 -24 821.438 1759.81   1
   1  14 -25-380.051 1357.61   1
  -1  14 -25 2700.55 2306.63   1
  -1 -14 -25-419.317 1877.34   1
   1  14 -26-377.504 1167.86   1
  -1  14 -26 1157.74 1522.66   1
   1  14 -27 4622.74 2889.73   1
  -1  14 -27 1549.89 2013.24   1
   1  14 -28 1258.04 1121.78   1
  -1  14 -28 2439.80 1463.33   1
   1  14 -29-964.109 895.023   1
  -1  14 -29 2151.13 2077.19   1
   1  14 -30 1474.23 1097.79   1
  -1  14 -30 833.827 1542.13   1
   1  14 -31 1721.58 1321.61   1
  -1  14 -31 374.238 1389.09   1
   1  14 -32 1172.64 1043.17   1
  -1  14 -32-403.126 1391.21   1
   1  14 -33 293.444 970.345   1
   1  15   0 852.188 487.795   1
  -1  15   0 52.9801 511.798   1
   1  15  -1 5399.76 2144.32   1
  -1  15  -1 9409.06 1553.44   1
   1  15   2 8513.90 1522.29   1
   1  15  -2 5600.68 1807.90   1
  -1  15   3 1894.10 922.488   1
   1  15  -3 2884.49 1328.83   1
  -1  15  -3 239.572 868.815   1
  -1  15   4 667.507 357.486   1
   1  15  -4 1586.13 893.678   1
  -1  15  -4 1261.62 1028.71   1
  -1  15   5 1205.60 586.628   1
   1  15  -5 305.441 692.376   1
  -1  15  -5 1840.41 1251.36   1
  -1  15   6 2476.91 987.822   1
   1  15  -6 1264.10 1039.44   1
  -1  15  -6 1079.94 1119.93   1
  -1  15  -7 2206.67 1449.37   1
   1  15  -8 2035.47 1283.32   1
  -1  15  -8 3539.92 1569.59   1
  -1 -15  -8 2447.33 1478.86   1
   1  15  -9 1482.84 897.972   1
  -1  15  -9 2525.70 1632.95   1
  -1 -15  -9 5331.11 2829.63   1
   1  15 -10-83.4796 937.822   1
  -1  15 -10 1650.33 1533.42   1
  -1 -15 -10 3907.72 2464.48   1
   1 -15 -10 256.065 930.549   1
   1  15 -11 1311.32 1056.43   1
  -1  15 -11 69.8763 1070.44   1
   1 -15 -11-388.874 917.186   1
  -1 -15 -11 672.729 1349.33   1
   1  15 -12-421.907 896.461   1
  -1  15 -12  299.46 1084.42   1
  -1 -15 -12-449.617 1256.34   1
   1 -15 -12 1102.23 1028.16   1
   1  15 -13 4060.19 1592.88   1
  -1  15 -13 1665.96 1289.50   1
   1 -15 -13 2939.96 1842.50   1
  -1 -15 -13 2546.76 1552.59   1
   1  15 -14 5884.40 2112.42   1
  -1  15 -14 4894.58 1829.44   1
   1 -15 -14 723.289 1210.48   1
  -1 -15 -14 1848.92 1505.85   1
   1  15 -15-1182.35 1113.30   1
  -1  15 -15 388.617 1197.67   1
  -1 -15 -15 372.446 1343.44   1
   1  15 -16 867.014 1069.86   1
  -1  15 -16 5251.41 2413.25   1
  -1 -15 -16 2269.83 1616.64   1
   1  15 -17  623.45 1168.05   1
  -1  15 -17 2426.82 1847.02   1
  -1 -15 -17 2875.80 2364.37   1
   1  15 -18 1525.63 1584.28   1
  -1  15 -18  872.33 1297.27   1
  -1 -15 -18 864.066 1771.97   1
   1  15 -19 1397.58 1285.82   1
  -1  15 -19 4893.10 2356.73   1
  -1 -15 -19 3935.70 2607.63   1
   1  15 -20 -522.47 1170.74   1
  -1  15 -20 794.008 1205.35   1
  -1 -15 -20 2254.35 2538.55   1
   1  15 -21-374.143 1208.26   1
  -1  15 -21 940.588 1368.78   1
  -1 -15 -21 -996.90 1667.34   1
   1  15 -22 155.926 1274.46   1
  -1  15 -22 2402.19 1569.52   1
   1  15 -23 112.985 1288.75   1
  -1  15 -23 505.772 1422.67   1
  -1 -15 -23-2064.70 1610.00   1
   1  15 -24 1759.21 1869.57   1
  -1  15 -24 1212.50 1595.49   1
  -1 -15 -24 6322.30 3338.67   1
   1  15 -25-1647.78 1243.14   1
  -1  15 -25-461.546 1536.41   1
   1  15 -26-2427.15 1055.35   1
  -1  15 -26 1979.81 1900.58   1
   1  15 -27 1271.04 1110.02   1
  -1  15 -27 3826.05 2466.17   1
   1  15 -28 1438.40 1625.60   1
  -1  15 -28 2832.10 2125.26   1
   1  15 -29 3193.68 1783.57   1
  -1  15 -29 1793.34 2072.97   1
   1  15 -30-191.385 1487.42   1
  -1  15 -30 1971.87 1595.53   1
   1  15 -31 807.965 1563.16   1
  -1  15 -31-150.039 1277.75   1
   1  15 -32 1815.89 1638.57   1
   1  16   0 266.649  536.68   1
  -1  16   0-126.566 544.078   1
   1  16   1 729.986 852.846   1
   1  16  -1 1195.18 704.378   1
  -1  16   1 -152.58 621.998   1
  -1  16  -1 487.835 586.955   1
   1  16   2 411.328 615.677   1
   1  16  -2-378.648 687.858   1
  -1  16   2 1151.62 570.588   1
  -1  16  -2-172.858 626.297   1
   1  16  -3-402.922 737.552   1
  -1  16   3 1323.05 706.978   1
  -1  16  -3 146.534 685.186   1
  -1  16   4 -374.34 407.261   1
   1  16  -4-671.756 755.171   1
  -1  16  -4 1261.81  800.50   1
  -1  16   5 646.664 680.901   1
   1  16  -5 104.022 528.847   1
  -1  16  -5 2846.66 1729.38   1
  -1  16   6 108.475 369.419   1
   1  16  -6 1072.44 1151.73   1
  -1  16  -6 284.823 780.894   1
   1  16  -7 2140.52 1238.37   1
  -1  16  -7 145.798  843.07   1
   1  16  -8 206.494 1103.46   1
  -1  16  -8 1679.19 1010.45   1
  -1 -16  -8 1079.98 1312.17   1
   1  16  -9 1636.00  949.73   1
  -1  16  -9 3025.66 1732.46   1
  -1 -16  -9 2668.86 2026.55   1
  -1  16 -10 15.2799 1074.09   1
  -1 -16 -10 15.5701 1240.37   1
   1 -16 -10 2228.03 1579.59   1
   1  16 -11 1140.06 671.747   1
  -1  16 -11 939.183 1575.35   1
  -1 -16 -11  627.72 1232.35   1
   1 -16 -11 3279.96 1802.16   1
   1  16 -12 1844.27 1169.70   1
  -1  16 -12-380.247 1118.07   1
   1 -16 -12 614.784 1480.31   1
  -1 -16 -12 376.134 1220.43   1
   1  16 -13 962.234 1221.59   1
  -1  16 -13 1631.68 1677.16   1
   1 -16 -13 4063.23 2005.12   1
  -1 -16 -13 2889.64 1515.87   1
   1  16 -14-1411.38 1080.72   1
  -1  16 -14 350.185 1199.70   1
   1 -16 -14 1548.96 1840.10   1
  -1 -16 -14 5252.04 2840.24   1
   1  16 -15-24.0163 1099.56   1
  -1  16 -15 1792.35 1292.38   1
  -1 -16 -15 3289.24 2059.32   1
   1  16 -16-127.317 1108.45   1
  -1  16 -16 2725.74 2337.21   1
  -1 -16 -16-12.8997 1500.49   1
   1  16 -17 504.106 1160.62   1
  -1  16 -17-1050.10 1216.99   1
  -1 -16 -17 4562.97 2703.78   1
   1  16 -18-663.072 1199.13   1
  -1  16 -18 1474.03 1387.93   1
  -1 -16 -18 684.043 1688.53   1
   1  16 -19 2993.38 2029.97   1
  -1  16 -19 505.601 1412.70   1
  -1 -16 -19 554.624 1701.42   1
   1  16 -20 1202.33 1370.35   1
  -1  16 -20 1261.82 1435.19   1
  -1 -16 -20-1541.60 1754.59   1
   1  16 -21 2314.94 1593.01   1
  -1  16 -21 2772.57 1997.50   1
   1  16 -22 2630.97 1594.99   1
  -1  16 -22 4150.58 2280.05   1
  -1 -16 -22 898.922 1632.57   1
   1  16 -23 2482.27 2013.27   1
  -1  16 -23 4232.72 1913.56   1
  -1 -16 -23 588.097 1776.30   1
   1  16 -24 2402.02 1435.22   1
  -1  16 -24-1614.30 1596.90   1
   1  16 -25-165.679 1145.78   1
  -1  16 -25 2723.88 2727.24   1
   1  16 -26 353.583 1020.50   1
  -1  16 -26 361.298 1659.49   1
   1  16 -27 201.311 990.673   1
  -1  16 -27 754.133 1543.64   1
   1  16 -28 749.779 1193.98   1
  -1  16 -28 2153.38 2205.20   1
   1  16 -29 1995.30 1821.53   1
  -1  16 -29 2365.27 2102.49   1
   1  16 -30-1031.84 1180.72   1
  -1  16 -30 3935.91 2502.12   1
   1  16 -31 710.967 1157.49   1
   1  17   0 4028.07 1841.80   1
  -1  17   0 1602.97 1202.25   1
   1  17   1 126.036 450.151   1
   1  17  -1 702.953 612.908   1
  -1  17   1 190.198  496.44   1
  -1  17  -1 272.526  480.33   1
   1  17   2 607.516  679.64   1
   1  17  -2 0.44863 361.932   1
  -1  17   2-1004.84 526.486   1
  -1  17  -2-162.449 642.727   1
   1  17  -3-726.421  726.47   1
  -1  17   3-390.872 457.126   1
  -1  17  -3-210.655 701.467   1
  -1  17   4 1412.18  830.87   1
   1  17  -4 514.573 1113.13   1
  -1  17  -4  184.66 726.475   1
  -1  17   5-257.802 417.028   1
   1  17  -5 881.646 736.711   1
  -1  17  -5 2323.27 1327.69   1
   1  17  -6 1039.10 713.917   1
  -1  17  -6 631.322 904.115   1
   1  17  -7-951.888 959.575   1
  -1  17  -7  187.15 943.503   1
   1  17  -8-69.4458 959.082   1
  -1  17  -8 3782.56 1582.48   1
  -1 -17  -8 5221.74 2082.92   1
   1  17  -9 2193.28 1422.98   1
  -1  17  -9 41.3878 1073.67   1
  -1 -17  -9 825.831 1276.72   1
   1  17 -10-137.019 416.946   1
  -1  17 -10 20.9691 1027.70   1
  -1 -17 -10 645.162 1193.98   1
   1 -17 -10-427.912 993.637   1
   1  17 -11 4045.86 2043.72   1
  -1  17 -11 4919.67 2646.34   1
  -1 -17 -11-36.7933 1178.60   1
   1 -17 -11 3561.55 2103.89   1
   1  17 -12-2336.61 1032.92   1
  -1  17 -12 1073.09 1473.17   1
   1 -17 -12 803.204 1156.55   1
  -1 -17 -12 380.833 1252.82   1
   1  17 -13 -155.86 987.193   1
  -1  17 -13 2857.50 1394.19   1
  -1 -17 -13-419.687 1285.57   1
   1  17 -14-608.581 1022.75   1
  -1  17 -14 2427.33 1364.17   1
  -1 -17 -14 2042.42 1884.87   1
   1  17 -15 2531.72 1753.95   1
  -1  17 -15 4440.40 2074.91   1
  -1 -17 -15 1532.59 1774.28   1
   1  17 -16-414.925 1208.58   1
  -1  17 -16 59.5741 1391.70   1
  -1 -17 -16 1243.38 1450.09   1
   1  17 -17 2607.25 1459.05   1
  -1  17 -17 4941.92 2563.42   1
  -1 -17 -17 2166.89 2395.18   1
   1  17 -18-768.135 1186.58   1
  -1  17 -18 2882.47 2300.20   1
  -1 -17 -18 4684.50 3346.87   1
   1  17 -19 1486.14 1400.39   1
  -1  17 -19 3849.79 2824.70   1
  -1 -17 -19 1724.65 1733.74   1
   1  17 -20 1488.93 1455.73   1
  -1  17 -20-482.856 1348.63   1
   1  17 -21 4027.53 1908.05   1
  -1  17 -21 2685.31 2055.70   1
  -1 -17 -21 3229.20 2528.41   1
   1  17 -22 28.0896 1263.03   1
  -1  17 -22 4237.17 2279.45   1
  -1 -17 -22 3323.88 1991.06   1
   1  17 -23 2196.17 1371.22   1
  -1  17 -23 264.279 1997.06   1
   1  17 -24 1294.66 1295.11   1
  -1  17 -24-4.85189 1474.40   1
   1  17 -25 1732.14 1643.47   1
  -1  17 -25 2311.26 2221.87   1
   1  17 -26 1133.92 1118.56   1
  -1  17 -26 2611.92 1899.90   1
   1  17 -27 576.944 1123.70   1
  -1  17 -27 1812.97 1619.13   1
   1  17 -28 339.055 1181.74   1
  -1  17 -28 1055.19 1347.84   1
   1  17 -29 3228.12 1767.80   1
  -1  17 -29 3449.48 1747.00   1
   1  17 -30 3059.62 2044.98   1
   1  18   0 1032.19 756.263   1
  -1  18   0 264.847 335.205   1
   1  18   1-351.216  630.54   1
   1  18  -1 405.356 670.939   1
  -1  18   1 936.629 672.429   1
  -1  18  -1 481.431 731.907   1
   1  18   2-195.008 612.085   1
   1  18  -2-173.251  703.78   1
  -1  18   2 1126.18 716.433   1
  -1  18  -2 113.927 269.576   1
   1  18  -3-170.115 685.947   1
  -1  18   3  590.81 492.938   1
  -1  18  -3 943.096 822.398   1
  -1  18   4 143.786 489.319   1
   1  18  -4-1388.92 731.932   1
  -1  18  -4-156.382 761.152   1
  -1  18   5 -70.657 491.276   1
   1  18  -5 235.724 370.617   1
  -1  18  -5  265.97  885.88   1
  -1  18   6 221.738 425.196   1
   1  18  -6 1869.80 1352.49   1
  -1  18  -6 266.569 967.575   1
   1  18  -7  335.17 726.814   1
  -1  18  -7 617.453 986.298   1
   1  18  -8-795.455  912.07   1
  -1  18  -8 656.234 1012.98   1
  -1 -18  -8-184.866 1283.02   1
  -1  18  -9 1130.94 1184.57   1
  -1 -18  -9 3599.07 2374.06   1
   1  18 -10-1660.88 988.699   1
  -1  18 -10-450.203 1101.75   1
  -1 -18 -10 2366.32 1837.60   1
   1 -18 -10-632.386 1055.10   1
   1  18 -11 605.327 1088.71   1
  -1  18 -11 64.9841 1178.00   1
  -1 -18 -11 1456.72 1365.28   1
   1 -18 -11 7615.98 2915.79   1
   1  18 -12 2987.16 1980.83   1
  -1  18 -12 1291.22 1327.43   1
   1 -18 -12 4245.97 1940.16   1
  -1 -18 -12 2983.91 1892.35   1
   1  18 -13 207.655 1101.63   1
  -1  18 -13 3209.96 2012.08   1
  -1 -18 -13-1896.87 1278.04   1
   1  18 -14 -453.84 980.103   1
  -1  18 -14 4264.29 2265.59   1
  -1 -18 -14 586.276 1327.98   1
   1  18 -15 660.373 1127.22   1
  -1  18 -15-283.215 1336.56   1
  -1 -18 -15 1579.69 1448.77   1
   1  18 -16 4939.81 2556.27   1
  -1  18 -16 1767.61 1520.44   1
  -1 -18 -16 4802.17 3047.55   1
   1  18 -17-79.5886 1222.77   1
  -1  18 -17 1504.87 1583.99   1
  -1 -18 -17 238.119 1557.04   1
   1  18 -18 4223.79 2657.51   1
  -1  18 -18 3231.60 1846.64   1
  -1 -18 -18 2006.23 1804.24   1
   1  18 -19 3799.50 2568.13   1
  -1  18 -19-202.091 1389.27   1
  -1 -18 -19 2022.45 1677.64   1
   1  18 -20 911.644 1420.96   1
  -1  18 -20 3954.75 2369.47   1
  -1 -18 -20 2009.43 2429.63   1
   1  18 -21 555.936 1424.53   1
  -1  18 -21-80.2131 2051.21   1
  -1 -18 -21 1439.65 2404.41   1
   1  18 -22 2685.33 1874.11   1
  -1  18 -22 1376.23 1494.77   1
   1  18 -23 9.83998 1291.35   1
  -1  18 -23-29.9271 1303.81   1
   1  18 -24-115.774 1194.32   1
  -1  18 -24 568.631 1293.99   1
   1  18 -25 5347.56 2441.15   1
  -1  18 -25 4065.96 1982.31   1
   1  18 -26 1352.25 1274.16   1
  -1  18 -26-888.014 1393.95   1
   1  18 -27 1647.89 1461.51   1
  -1  18 -27-1208.01 1397.70   1
   1  18 -28 1620.98 1623.44   1
  -1  18 -28 3875.06 2317.08   1
   1  18 -29 203.598 1278.55   1
   1  19   0 490.022 831.524   1
  -1  19   0 249.556 546.258   1
   1  19   1 1285.48 1296.47   1
   1  19  -1 147.942 582.363   1
  -1  19   1-141.331 582.203   1
  -1  19  -1-404.338 666.243   1
   1  19   2 1279.45 1041.57   1
   1  19  -2-60.3071 738.734   1
  -1  19   2 177.937 422.206   1
  -1  19  -2 815.392  971.19   1
   1  19  -3 676.608 595.491   1
  -1  19   3 726.224 877.962   1
  -1  19  -3 205.817 892.255   1
  -1  19   4 242.384 624.547   1
   1  19  -4 625.485 1023.71   1
  -1  19  -4 915.979 920.746   1
  -1  19   5  565.23 541.045   1
   1  19  -5 1015.45 699.884   1
  -1  19  -5 -582.39 949.311   1
  -1  19   6 3786.23 1410.25   1
   1  19  -6 801.511 1211.69   1
  -1  19  -6 711.604 1132.85   1
   1  19  -7-624.206 941.513   1
  -1  19  -7 1030.89 1133.37   1
  -1  19  -8 1944.58 1210.12   1
  -1 -19  -8 -728.49 1300.62   1
   1  19  -9 445.664 682.852   1
  -1  19  -9 597.536 1201.12   1
  -1 -19  -9 7813.02 2906.88   1
   1  19 -10-653.662 1034.66   1
  -1  19 -10 1563.84 1248.86   1
  -1 -19 -10 4949.32 2128.85   1
   1 -19 -10-274.817 999.975   1
   1  19 -11 2725.23 1416.87   1
  -1  19 -11 1267.91 1262.73   1
  -1 -19 -11 1569.51 1307.57   1
   1  19 -12 825.516 1461.57   1
  -1  19 -12 3337.43 2435.84   1
  -1 -19 -12 1949.22 1890.02   1
   1  19 -13 527.265 686.434   1
  -1  19 -13-1380.03 1317.77   1
  -1 -19 -13 1214.55 1252.30   1
   1  19 -14 1510.33 980.389   1
  -1  19 -14 2448.29 1650.13   1
  -1 -19 -14  765.88 1322.36   1
   1  19 -15 1910.22 1426.96   1
  -1  19 -15  223.48 1384.49   1
  -1 -19 -15-1225.65 1351.46   1
   1  19 -16 1908.16 2115.00   1
  -1  19 -16 2873.25 1713.87   1
  -1 -19 -16 1669.09 1591.41   1
   1  19 -17 1090.60 1102.06   1
  -1  19 -17 1979.30 1648.04   1
  -1 -19 -17 161.992 1512.51   1
   1  19 -18 3402.43 2144.02   1
  -1  19 -18-854.601 1407.14   1
  -1 -19 -18 1141.78 1647.85   1
   1  19 -19 2745.68 2170.50   1
  -1  19 -19-260.587 1365.82   1
  -1 -19 -19 7786.14 3888.57   1
   1  19 -20 762.593 1491.29   1
  -1  19 -20 1086.66 1888.25   1
  -1 -19 -20-1518.11 1572.59   1
   1  19 -21 892.508 1557.90   1
  -1  19 -21 2497.82 2239.47   1
   1  19 -22 191.405 1419.54   1
  -1  19 -22 2650.91 1810.01   1
   1  19 -23 2476.14 2019.38   1
  -1  19 -23-36.3538 1253.36   1
   1  19 -24 5235.12 2846.81   1
  -1  19 -24 1598.36 1786.36   1
   1  19 -25 406.709 1241.58   1
  -1  19 -25 2121.07 2112.66   1
   1  19 -26 1293.72 1373.32   1
  -1  19 -26 7061.46 5141.74   1
   1  19 -27 272.198 1375.99   1
  -1  19 -27 102.491 1535.31   1
   1  19 -28 1804.12 1655.00   1
   1  20   0 239.904 400.236   1
  -1  20   0 260.549 510.894   1
   1  20   1 1712.67 1206.55   1
   1  20  -1 945.367 576.629   1
  -1  20   1 445.805 530.731   1
  -1  20  -1 587.045 628.104   1
   1  20   2 8.81151 657.176   1
   1  20  -2-923.055 816.343   1
  -1  20   2 134.909 528.068   1
  -1  20  -2 736.154 967.751   1
  -1  20   3 96.2622 326.992   1
   1  20  -3 390.563 524.176   1
  -1  20  -3 868.448 476.378   1
  -1  20   4 373.101  352.88   1
   1  20  -4 699.457 773.743   1
  -1  20  -4 1129.03 778.073   1
  -1  20   5 936.071 641.371   1
   1  20  -5 1101.09 944.753   1
  -1  20  -5 115.185 757.026   1
  -1  20   6 1323.06 766.943   1
   1  20  -6 323.816 724.371   1
  -1  20  -6 1658.65 1724.54   1
   1  20  -7 1156.88 1122.79   1
  -1  20  -7 1113.68 1163.74   1
   1  20  -8 1780.35 1311.08   1
  -1  20  -8 132.623 1044.04   1
   1  20  -9 631.009 1398.13   1
  -1  20  -9 193.978 1118.22   1
  -1 -20  -9 26.0062 1301.64   1
   1  20 -10 685.498 600.338   1
  -1  20 -10-1157.21 1108.33   1
  -1 -20 -10 1940.64 1356.70   1
   1  20 -11 809.416 919.401   1
  -1  20 -11 2678.49 1809.05   1
  -1 -20 -11-541.559 1206.42   1
   1  20 -12 936.443 1381.96   1
  -1  20 -12 1930.22 1796.73   1
  -1 -20 -12-793.512 1232.89   1
   1  20 -13 729.954 689.505   1
  -1  20 -13 1942.56 1418.17   1
  -1 -20 -13 1796.27 1711.85   1
   1  20 -14 1148.49 1044.20   1
  -1  20 -14 2118.78 2289.48   1
  -1 -20 -14 835.455 1313.35   1
   1  20 -15 988.764 880.142   1
  -1  20 -15 4993.83 2502.85   1
  -1 -20 -15  734.01 1312.66   1
  -1  20 -16 1401.77 1452.31   1
   1  20 -17 898.447 699.548   1
  -1  20 -17 2384.09 2364.21   1
  -1 -20 -17-182.921 1549.04   1
   1  20 -18 1119.92 1137.94   1
  -1  20 -18-931.604 1273.29   1
  -1 -20 -18 1933.76 1827.51   1
   1  20 -19 290.923 606.431   1
  -1  20 -19 1745.87 1750.05   1
  -1 -20 -19 755.883 1889.20   1
   1  20 -20 928.459 2292.38   1
  -1  20 -20 1441.40 1362.91   1
   1  20 -21 1717.01 1677.80   1
  -1  20 -21-705.793 1166.89   1
   1  20 -22 14.1842 1539.78   1
  -1  20 -22-165.031 1221.23   1
   1  20 -23 2342.41 1652.24   1
  -1  20 -23 146.938 1166.00   1
   1  20 -24 3248.97 2025.49   1
  -1  20 -24 1546.06 1388.79   1
   1  20 -25 1877.05 1635.41   1
  -1  20 -25 906.726 1316.56   1
   1  20 -26-63.0424 1263.84   1
  -1  20 -26 343.497 1498.62   1
   1  21   0-565.455  745.89   1
  -1  21   0 724.433 903.914   1
   1  21   1 345.382 727.401   1
   1  21  -1 1563.29 1007.79   1
  -1  21   1 1028.73 462.483   1
  -1  21  -1 1097.96 711.819   1
   1  21   2 2279.74 1522.55   1
   1  21  -2 751.746 696.453   1
  -1  21   2-350.203 415.929   1
  -1  21  -2-477.861 567.137   1
  -1  21   3 312.858 351.155   1
   1  21  -3 1262.68 718.556   1
  -1  21  -3 1916.67 974.878   1
  -1  21   4 677.474  528.96   1
   1  21  -4 278.831 1082.70   1
  -1  21  -4 591.182 669.486   1
  -1  21   5 172.489  387.11   1
   1  21  -5-163.087 936.368   1
  -1  21  -5 442.408 562.585   1
  -1  21   6 1971.50 980.417   1
   1  21  -6 857.141 1107.51   1
   1  21  -7 267.505 716.879   1
  -1  21  -7 2582.27 1524.86   1
   1  21  -8 350.438 1351.01   1
  -1  21  -8 138.784 920.602   1
   1  21  -9-300.911 857.834   1
  -1  21  -9-152.647 983.826   1
  -1 -21  -9 377.911 1336.64   1
   1  21 -10 2270.38 1728.78   1
  -1  21 -10-949.666 961.028   1
  -1 -21 -10-1667.47 1230.37   1
   1  21 -11 2139.81 1928.69   1
  -1  21 -11-1840.15 976.719   1
  -1 -21 -11-42.1032 1307.50   1
   1  21 -12 513.513 1141.03   1
  -1  21 -12 1434.64 1155.82   1
  -1 -21 -12-1479.45 1250.88   1
   1  21 -13 1865.42 1662.64   1
  -1  21 -13 1692.85 1282.23   1
  -1 -21 -13 994.285 1299.40   1
   1  21 -14-371.021 1271.24   1
  -1  21 -14-145.257 1133.56   1
  -1 -21 -14 79.1722 1344.10   1
   1  21 -15 1782.15 1558.16   1
  -1  21 -15-277.013 1175.07   1
   1  21 -16 470.205 971.764   1
  -1  21 -16 1087.48 1285.75   1
  -1 -21 -16-534.061 1557.54   1
   1  21 -17 568.161 642.193   1
  -1  21 -17 180.914 1222.22   1
  -1 -21 -17 2910.48 2403.12   1
   1  21 -18 186.013 1531.18   1
  -1  21 -18-1111.38 1219.49   1
   1  21 -19 -666.94 1605.15   1
  -1  21 -19 427.333 1715.36   1
   1  21 -20 -254.98 1641.44   1
  -1  21 -20-1510.70 1289.54   1
   1  21 -21 1217.94 1204.99   1
  -1  21 -21 1984.98 1463.94   1
   1  21 -22 2622.45 1993.08   1
  -1  21 -22-13.5124 1244.70   1
   1  21 -23 1568.87 1454.70   1
  -1  21 -23-11.1645 1290.58   1
   1  21 -24  103.80 1158.24   1
  -1  21 -24 1592.07 1564.87   1
   1  21 -25 454.536 1236.02   1
  -1  21 -25 1479.67 1447.99   1
   1  22   0-691.632 623.364   1
  -1  22   0 1314.98 695.965   1
   1  22   1 100.303 600.848   1
   1  22  -1 558.971 671.269   1
  -1  22   1 491.773 503.881   1
  -1  22  -1 299.107 640.084   1
   1  22  -2 1153.47 921.783   1
  -1  22   2 477.532 589.755   1
  -1  22  -2 1149.57 909.341   1
  -1  22   3 768.528 464.197   1
   1  22  -3 365.016 530.963   1
  -1  22  -3-187.051 590.644   1
  -1  22   4 1023.22 848.389   1
   1  22  -4 187.366 980.846   1
  -1  22  -4 581.383 809.287   1
  -1  22   5 2392.67 1090.05   1
   1  22  -5 953.443 843.904   1
  -1  22  -5 547.527  685.42   1
   1  22  -6 -353.89 939.388   1
  -1  22  -6 438.603 522.739   1
   1  22  -7 90.4745 1056.38   1
  -1  22  -7 1115.66 1326.75   1
   1  22  -8 947.929 964.641   1
  -1  22  -8 185.449 496.686   1
   1  22  -9-59.1839 678.869   1
  -1  22  -9 1219.56 1238.66   1
  -1 -22  -9 600.539 1450.24   1
   1  22 -10 1064.30 1319.85   1
  -1  22 -10 2278.98 1358.57   1
  -1 -22 -10 379.486 1411.18   1
   1  22 -11 442.985 838.185   1
  -1  22 -11-1334.01 837.899   1
  -1 -22 -11-690.396 1279.38   1
   1  22 -12 1096.16 1174.38   1
  -1  22 -12 310.685 902.497   1
  -1 -22 -12 2384.23 2073.02   1
   1  22 -13 873.192 655.279   1
  -1  22 -13 4745.07 2242.58   1
  -1 -22 -13 1823.64 2107.02   1
   1  22 -14 921.669 1102.89   1
  -1  22 -14 2451.70 1602.82   1
   1  22 -15 1395.21 1418.85   1
  -1  22 -15 1202.61 1565.62   1
  -1 -22 -15 7093.38 3587.65   1
   1  22 -16 18.2659 721.528   1
  -1  22 -16 720.272 1176.67   1
  -1 -22 -16 1097.15 1766.39   1
   1  22 -17 898.158 653.645   1
  -1  22 -17 2599.92 1815.52   1
   1  22 -18 589.959 1004.77   1
  -1  22 -18-387.209 1294.49   1
   1  22 -19 2306.66 2107.66   1
  -1  22 -19 1529.16 1458.24   1
   1  22 -20 2673.66 2936.07   1
  -1  22 -20 693.642 1430.71   1
   1  22 -21 1186.60 1831.44   1
  -1  22 -21 4174.22 2800.68   1
   1  22 -22 1854.93 1343.04   1
  -1  22 -22-353.136 1399.23   1
   1  22 -23 1136.26 1082.82   1
  -1  22 -23 685.768 1355.16   1
   1  22 -24 2309.79 2629.50   1
  -1  22 -24 992.782 1241.58   1
   1  23   0 631.099  563.76   1
  -1  23   0-393.611 522.687   1
   1  23   1-694.913  526.09   1
   1  23  -1 466.023 498.907   1
  -1  23   1 279.623 565.502   1
  -1  23  -1-274.168 591.678   1
   1  23  -2 792.151 573.584   1
  -1  23   2 -275.94 454.381   1
  -1  23  -2 909.517 592.222   1
  -1  23   3  455.13 677.106   1
   1  23  -3 505.375 485.858   1
  -1  23  -3 702.119 784.416   1
  -1  23   4 342.568  352.78   1
   1  23  -4 406.674 506.682   1
  -1  23  -4 524.759 384.854   1
  -1  23   5 855.628 658.735   1
   1  23  -5-265.147 768.057   1
  -1  23  -5 164.986  457.21   1
   1  23  -6 690.709 1237.53   1
  -1  23  -6 340.547 557.824   1
   1  23  -7 692.961 862.138   1
  -1  23  -7-9.79871 653.734   1
   1  23  -8 394.806 1068.73   1
  -1  23  -8 947.579 683.036   1
   1  23  -9 692.519 582.781   1
  -1  23  -9-415.655 759.324   1
  -1 -23  -9 359.363 1544.61   1
   1  23 -10 136.513 819.561   1
  -1  23 -10 1445.64 937.263   1
  -1 -23 -10 1360.15 1613.99   1
   1  23 -11 970.799 1057.94   1
  -1  23 -11 736.914 852.769   1
  -1 -23 -11 4460.00 2581.40   1
   1  23 -12 311.184 1423.20   1
  -1  23 -12 1147.72 996.833   1
  -1 -23 -12 329.444 1577.15   1
   1  23 -13 1245.74 1083.90   1
  -1  23 -13-569.948 957.519   1
  -1 -23 -13-528.548 1553.26   1
   1  23 -14 314.089 1230.78   1
  -1  23 -14 1102.56 1147.24   1
  -1 -23 -14 1904.97 2533.95   1
   1  23 -15 252.353 817.745   1
  -1  23 -15 590.321 1624.52   1
  -1 -23 -15 4407.05 3844.14   1
   1  23 -16-682.959 1058.44   1
  -1  23 -16 993.887 1227.67   1
   1  23 -17 1030.61 925.163   1
  -1  23 -17 1616.28 2064.35   1
   1  23 -18 1581.44 1384.41   1
  -1  23 -1813912.3013051.80   1
   1  23 -19 881.194 1149.40   1
  -1  23 -19 1808.56 1920.08   1
   1  23 -20 1036.29 1202.96   1
  -1  23 -20 998.955 1335.42   1
   1  23 -21 761.679 803.392   1
  -1  23 -21 2862.40 1654.62   1
   1  23 -22 1265.09 2046.01   1
  -1  23 -22 2094.64 2139.93   1
   1  24   0 1415.61 1039.24   1
  -1  24   0 254.035 586.463   1
   1  24   1-4.91031 479.464   1
   1  24  -1 233.547  335.11   1
  -1  24   1 506.628  410.15   1
  -1  24  -1-207.937 616.967   1
   1  24  -2 1106.90 875.097   1
  -1  24   2 948.091 824.569   1
  -1  24  -2-132.142 655.393   1
   1  24  -3 333.352  649.98   1
  -1  24   3-382.193 437.498   1
  -1  24  -3-31.9645 770.248   1
  -1  24   4 193.069 269.381   1
   1  24  -4 51.0152 395.851   1
  -1  24  -4 1382.19 1054.14   1
  -1  24   5-70.5573 449.395   1
   1  24  -5-415.737 673.963   1
  -1  24  -5 574.079 645.637   1
   1  24  -6 622.197 502.212   1
  -1  24  -6 430.632 705.216   1
   1  24  -7 327.754 877.283   1
  -1  24  -7 661.846 1080.81   1
   1  24  -8 508.202 895.649   1
  -1  24  -8-295.286 844.091   1
  -1 -24  -8-800.221 1479.92   1
   1  24  -9-206.504 892.013   1
  -1  24  -9 308.096 486.422   1
  -1 -24  -9 78.2498 1542.89   1
   1  24 -10 268.254 925.766   1
  -1  24 -10-303.482 464.656   1
  -1 -24 -10 1838.01 1662.95   1
   1  24 -11 80.2434 585.356   1
  -1  24 -11-581.817 923.023   1
  -1 -24 -11-59.4582 1524.88   1
   1  24 -12-350.697 1157.07   1
  -1  24 -12-1458.33 1276.26   1
  -1 -24 -12 1372.51 2391.68   1
   1  24 -13 946.381 1053.57   1
  -1  24 -13-233.626  903.22   1
  -1 -24 -13-371.009 1574.01   1
   1  24 -14-1605.45 1128.73   1
  -1  24 -14-408.598 909.308   1
  -1 -24 -14 3641.75 2450.88   1
   1  24 -15 1786.26 1487.05   1
  -1  24 -15-702.609 1343.40   1
   1  24 -16 2288.37 2081.26   1
  -1  24 -16 2559.48 1655.38   1
   1  24 -17 1468.92 1365.76   1
  -1  24 -17 153.429 949.056   1
   1  24 -18-747.908 1156.43   1
  -1  24 -18 880.613 1198.86   1
   1  24 -19 838.358 1735.90   1
  -1  24 -19 845.231 1149.78   1
   1  24 -20 740.032 1111.19   1
  -1  24 -20 2429.45 1429.98   1
   1  24 -21 1567.27 1764.31   1
  -1  24 -21 2493.15 1538.56   1
   1  25   0 734.992 627.098   1
  -1  25   0 675.583 663.866   1
   1  25   1  116.66 572.861   1
   1  25  -1 837.824 829.275   1
  -1  25   1  514.73 674.606   1
  -1  25  -1 106.634 400.036   1
   1  25  -2 1091.31 658.785   1
  -1  25   2 225.896 404.544   1
  -1  25  -2-209.305 599.722   1
  -1  25   3-6.61061 346.483   1
   1  25  -3 -89.443 567.885   1
  -1  25  -3 507.477 623.653   1
  -1  25   4 146.535 423.339   1
   1  25  -4 541.152 749.852   1
  -1  25  -4 233.552  696.26   1
   1  25  -5 99.6617 376.624   1
  -1  25  -5-238.665 816.064   1
   1  25  -6  699.55 553.867   1
  -1  25  -6 120.167 1072.11   1
   1  25  -7 782.644 1039.51   1
  -1  25  -7 337.454 738.993   1
  -1  25  -8-468.905 877.319   1
  -1 -25  -8 3011.30 2652.34   1
   1  25  -9  474.35 635.352   1
  -1  25  -9-144.782 1010.49   1
  -1 -25  -9 1508.14 1580.30   1
   1  25 -10 349.508 513.814   1
  -1  25 -10  0.8143 845.995   1
  -1 -25 -10 -754.46 1375.32   1
   1  25 -11-61.5179 602.055   1
  -1  25 -11-44.1623  869.70   1
  -1 -25 -11 2328.55 2206.91   1
   1  25 -12-233.788 662.233   1
  -1  25 -12-377.475 900.039   1
  -1 -25 -12-1413.69 1699.92   1
   1  25 -13 -32.511 1310.57   1
  -1  25 -13 1420.26 1065.75   1
   1  25 -14 1032.04 1043.56   1
  -1  25 -14 4091.43 1879.94   1
   1  25 -15  987.61 1532.48   1
  -1  25 -15-111.517 824.977   1
   1  25 -16 556.475 889.674   1
  -1  25 -16-1467.48  921.32   1
   1  25 -17 1899.50 1741.01   1
  -1  25 -17 162.152  951.39   1
   1  25 -18 1036.38 891.037   1
  -1  25 -18 1680.10 1346.30   1
   1  25 -19 553.548  550.22   1
  -1  25 -19 768.778 1131.50   1
   1  26   0-162.188 563.828   1
  -1  26   0-382.536 503.518   1
   1  26  -1 820.728 717.606   1
  -1  26   1-92.3964  571.82   1
  -1  26  -1 440.643 309.678   1
   1  26  -2 263.748  437.93   1
  -1  26   2 -113.06  428.04   1
  -1  26  -2 675.981 614.462   1
  -1  26   3 68.2012 427.075   1
   1  26  -3-30.6439 569.888   1
  -1  26  -3-563.842 544.649   1
   1  26  -4 1178.21 1056.11   1
  -1  26  -4 398.709 543.471   1
   1  26  -5-982.282 667.878   1
  -1  26  -5 -745.05 715.261   1
   1  26  -6-327.377  687.57   1
  -1  26  -6 246.713 462.348   1
   1  26  -7 1799.48 843.166   1
  -1  26  -7 473.554 438.528   1
   1  26  -8-984.983 764.352   1
  -1  26  -8 426.406 705.511   1
  -1 -26  -8 1094.60 1712.45   1
   1  26  -9 837.297 835.517   1
  -1  26  -9 1170.97 1009.17   1
  -1 -26  -9 2427.76 1789.38   1
   1  26 -10 1807.26 1205.52   1
  -1  26 -10 1683.14 1267.84   1
  -1 -26 -10 2691.34 1839.92   1
   1  26 -11 1011.73 676.976   1
  -1  26 -11 935.584 1118.08   1
  -1 -26 -11 3170.10 2146.67   1
   1  26 -12 854.707 1060.49   1
  -1  26 -12 952.534 845.642   1
   1  26 -13 2434.48 1859.02   1
  -1  26 -13 674.211 1013.90   1
   1  26 -14 369.978 1543.16   1
  -1  26 -14 1775.79 1329.41   1
   1  26 -15 1499.23 1318.72   1
  -1  26 -15 808.445 1234.60   1
   1  26 -16 1277.22 1436.02   1
   1  26 -17  158.84 856.584   1
  -1  26 -17 721.404 1054.58   1
  -1  26 -18 119.615 901.357   1
   1  27   0 1376.46 948.546   1
  -1  27   0-189.997 508.003   1
   1  27  -1-95.1377 554.448   1
  -1  27   1 814.653 512.014   1
  -1  27  -1 466.082 503.463   1
   1  27  -2 1747.22 1209.09   1
  -1  27   2 1154.39 756.708   1
  -1  27  -2 323.652 483.893   1
   1  27  -3 912.053 625.039   1
  -1  27  -3 572.687 777.876   1
   1  27  -4 1334.19 748.318   1
  -1  27  -4 1155.24 872.738   1
   1  27  -5 1257.21 797.702   1
  -1  27  -5 299.081 628.134   1
   1  27  -6 499.946 684.378   1
  -1  27  -6 1672.42 1183.22   1
   1  27  -7 131.793  280.34   1
  -1  27  -7 750.603 564.815   1
   1  27  -8-909.868 617.595   1
  -1  27  -8 968.749 808.756   1
  -1 -27  -8-828.572 1897.00   1
   1  27  -9 1566.63 963.963   1
  -1  27  -9 604.601 743.422   1
  -1 -27  -9 475.264 1825.33   1
   1  27 -10 702.221 721.857   1
  -1  27 -10 1117.92 1096.55   1
   1  27 -11-345.717 772.187   1
  -1  27 -11 466.502 629.128   1
   1  27 -12 887.138 742.783   1
  -1  27 -12-595.998 872.197   1
   1  27 -13 173.517 630.393   1
  -1  27 -13-535.928 836.767   1
   1  27 -14 922.825 1200.20   1
  -1  27 -14 446.835 897.664   1
   1  27 -15 76.7261 1201.68   1
  -1  27 -15 243.318 924.861   1
  -1  27 -16 426.531 688.677   1
  -1  27 -17 1456.07 1421.94   1
  -1  28   0-78.2863 520.622   1
   1  28  -1 2057.18 1229.33   1
  -1  28  -1 429.157 565.847   1
   1  28  -2 1807.90 1323.36   1
  -1  28  -2 245.753 673.868   1
   1  28  -3 346.154 759.839   1
  -1  28  -3 332.658 548.411   1
   1  28  -4 300.707 738.754   1
  -1  28  -4 645.792 700.139   1
   1  28  -5 132.316 510.667   1
  -1  28  -5 376.234 513.283   1
   1  28  -6 2280.44 1669.87   1
  -1  28  -6 1015.97 990.594   1
   1  28  -7 627.245 625.922   1
  -1  28  -7 6.95517 831.423   1
   1  28  -8-218.031 742.202   1
  -1  28  -8-1197.78 789.494   1
  -1 -28  -8 3095.52 1998.50   1
   1  28  -9 140.823 396.341   1
  -1  28  -9 1175.95 996.913   1
   1  28 -10 610.937 537.354   1
  -1  28 -10-1456.05 812.109   1
   1  28 -11 79.3403 613.348   1
  -1  28 -11  35.829 763.824   1
   1  28 -12 359.685 452.117   1
  -1  28 -12 1107.11 931.076   1
   1  28 -13 958.743 887.115   1
  -1  28 -13 677.838 1004.71   1
  -1  28 -14 649.224 806.248   1
  -1  28 -15-886.805  871.58   1
   1  29  -1 511.328 607.085   1
  -1  29  -1-519.423 514.395   1
   1  29  -2 1178.80 789.539   1
  -1  29  -2 791.463 798.057   1
   1  29  -3 1318.05 642.633   1
  -1  29  -3 527.404 850.798   1
   1  29  -4 664.059 725.339   1
  -1  29  -4 751.605 642.319   1
   1  29  -5 1467.91 940.071   1
  -1  29  -5-75.3305 596.236   1
   1  29  -6 298.191 577.495   1
  -1  29  -6 461.731 570.436   1
   1  29  -7 333.621  577.95   1
  -1  29  -7 1359.40 1135.99   1
   1  29  -8 1030.65 908.886   1
  -1  29  -8 571.011 1135.91   1
   1  29  -9-90.0221 755.946   1
  -1  29  -9 366.155 627.991   1
   1  29 -10 351.597 599.445   1
  -1  29 -10 52.3482 809.224   1
  -1  29 -11 376.265 570.114   1
  -1  29 -12 343.209 632.129   1
   1  30  -2 183.556 538.014   1
   1  30  -3-112.546  546.27   1
  -1  30  -3-233.507 514.853   1
   1  30  -4 1628.53 1214.66   1
  -1  30  -4 460.351 752.287   1
   1  30  -5 411.317 500.869   1
  -1  30  -5 1264.94 823.182   1
   1  30  -6-110.664 546.501   1
  -1  30  -6  443.43 345.718   1
   1  30  -7-282.924 545.919   1
  -1  30  -7-64.7166 706.553   1
  -1  30  -8-11.2998 562.958   1
  -1  30  -9  771.22  849.61   1
  -1  30 -10 1233.27 1095.07   1
   1  31  -3-218.382 511.379   1
  -1  31  -5 1661.93 1150.09   1
  -1  31  -6 711.277 600.181   1
  -1  31  -7 71.5114  305.20   1
  -1  31  -8 1110.24 727.939   1
  -1  31  -9-462.389 766.413   1
  -2   0   0 145.017 920.361   1
   2   0   0 359.917 815.593   1
  -2   0  -1-152.123 994.121   1
  -2   0   1-79.5934 799.432   1
   2   0   1-17.5336 909.064   1
   2   0  -1 844.822 1131.65   1
  -2   0  -2 6195.66 1965.32   1
  -2   0   2 7401.03 2178.63   1
  -2   0  -3-42.4507 1046.07   1
  -2   0   3 325.044 766.056   1
  -2   0   420622.30 1438.04   1
  -2   0  -420060.80 1961.40   1
  -2   0   5  33.167 273.229   1
  -2   0  -5-233.108 1242.63   1
  -2   0   6 2797.84 1191.89   1
  -2   0  -6 5087.10 2160.56   1
   2   0  -7-5.33815 204.265   1
  -2   0   7 494.847 471.561   1
  -2   0  -7 54.1858 1332.72   1
   2   0  -8102327.0 5075.32   1
  -2   0   8104505.0 5103.46   1
  -2   0  -8110763.0 3407.67   1
   2   0  -9-133.241 318.207   1
  -2   0   9-257.976 280.226   1
  -2   0  -9-1596.33 1712.90   1
  -2   0  1047462.50 2441.44   1
  -2   0 -1045414.00 3182.01   1
   2   0 -11-653.604 470.249   1
  -2   0  11 187.823 310.059   1
  -2   0 -11-1344.40 1684.89   1
  -2   0 -1225279.20 3607.23   1
   2   0 -13 617.239 515.163   1
  -2   0 -13-1409.87 1553.56   1
  -2   0 -1416428.90 2849.88   1
   2   0 -15-529.939 463.414   1
  -2   0 -15 119.798 1443.56   1
  -2   0 -1610039.90 2617.79   1
   2   0 -17 100.066 450.553   1
   2   0 -18 681.662 659.856   1
  -2   0 -18 985.037 1477.26   1
   2   0 -19-73.4758 479.462   1
  -2   0 -19 1010.47 1206.80   1
   2   0 -20 6916.38 2082.21   1
  -2   0 -20 5058.90 2315.22   1
   2   0 -21 541.456 539.499   1
  -2   0 -21 1676.19 1879.19   1
   2   0 -2213737.60 4431.65   1
  -2   0 -22 4605.43 1960.25   1
   2   0 -23 660.231 553.052   1
  -2   0 -23  570.41 1301.83   1
  -2   0 -24 3766.14 2080.84   1
   2   0 -25 1145.95 657.749   1
  -2   0 -25-301.309 1224.66   1
   2   0 -2617758.00 6564.57   1
  -2   0 -26 7897.83 3420.11   1
  -2   0 -27 29.5346 1254.71   1
  -2   0 -28 671.975 1385.72   1
  -2   0 -29-1249.49 1434.22   1
  -2   0 -30 1242.54 1581.53   1
  -2   0 -31 1631.00 1540.88   1
  -2   0 -32 2051.37 1820.08   1
  -2   0 -33 953.326 1145.30   1
  -2   0 -34 3248.45 2209.04   1
  -2   0 -35 2290.44 2127.14   1
  -2   0 -36-575.156 1207.70   1
  -2   0 -37 2232.54 1624.31   1
  -2   1   0 202.373 887.144   1
  -2  -1   0 180.834 973.897   1
   2  -1   0-546.662 715.775   1
   2   1   0-811.658 973.522   1
  -2   1  -1 591.912 904.681   1
  -2   1   1 2875.31 1410.63   1
  -2  -1  -1 2848.07 1566.56   1
   2  -1   1 1473.85 902.419   1
  -2  -1   1 395.485 877.718   1
   2  -1  -1 408.643 660.782   1
  -2   1  -2 3010.67 1121.78   1
  -2  -1  -2 3882.14 1767.64   1
   2  -1   2 6100.03 1823.21   1
  -2   1   2 2701.02 1385.80   1
  -2  -1   2 5199.38 1839.63   1
  -2  -1   324184.60 1647.07   1
  -2   1  -320897.10 1706.94   1
  -2  -1  -325837.20 2277.82   1
  -2   1   324735.50 1850.76   1
  -2   1   4 3286.19 846.315   1
  -2  -1   4 2272.70  812.93   1
  -2   1  -4 1923.31 1148.85   1
  -2  -1  -4 6097.83 2189.83   1
  -2   1   4 2094.33 1210.91   1
  -2   1   540023.50 2056.16   1
  -2  -1   537573.50 2314.67   1
  -2   1  -538554.80 2655.80   1
  -2  -1  -535743.80 2927.79   1
   2   1  -616770.10 1279.21   1
  -2   1   615935.00 1108.05   1
  -2  -1   611788.10 2598.84   1
  -2   1  -615820.80 2011.91   1
  -2  -1  -616807.30 2447.86   1
  -2  -1   7 7218.37 1655.18   1
  -2   1   7 7318.33  645.86   1
  -2   1  -7 9255.93 2106.43   1
  -2  -1  -7 8328.10 2585.20   1
   2  -1  -821837.10 1511.63   1
   2   1  -822521.90 2456.29   1
  -2  -1   822290.10 1415.80   1
  -2   1   823926.10 1333.84   1
  -2   1  -824933.20 2827.68   1
  -2  -1  -822267.40 2857.07   1
   2  -1  -9 5016.14 1500.59   1
  -2  -1   9 7918.26 881.868   1
  -2   1   9 6614.34 1536.64   1
  -2   1  -9 6460.55 2032.24   1
  -2  -1  -9 5623.53 2431.40   1
   2  -1 -1023804.40 1988.03   1
  -2   1  1023855.70 1385.41   1
  -2   1 -1026061.30 2992.61   1
  -2  -1 -1023549.10 2924.01   1
  -2   1  1135990.80 1917.65   1
  -2  -1 -1134286.20 2944.94   1
   2  -1 -12 371.218 518.369   1
   2   1 -12 360.299 390.187   1
  -2   1  12 1508.54 616.778   1
  -2   1 -12 433.851 1493.10   1
  -2  -1 -12 50.9077 1681.42   1
   2  -1 -13 4659.17 1559.48   1
   2   1 -13 4231.62 1528.20   1
  -2   1  13 6066.08 807.722   1
  -2   1 -13 2955.07 2428.26   1
  -2  -1 -13 5201.18 2873.45   1
   2   1 -14 1618.20 1017.62   1
   2  -1 -14 1390.70 724.864   1
  -2   1 -14 1101.14 1570.89   1
  -2  -1 -14 740.717 1608.76   1
   2   1 -15 1738.68 1091.71   1
   2  -1 -15 1485.68 699.699   1
  -2   1 -15 1905.45 1591.66   1
  -2  -1 -15 487.166 1560.78   1
  -2   1 -16 9045.47 2155.84   1
  -2  -1 -16 6720.54 2523.38   1
   2  -1 -17 4616.86 1066.19   1
  -2   1 -17 7467.26 1970.43   1
  -2  -1 -17 5637.67 2088.15   1
   2  -1 -1813454.40 3066.65   1
  -2   1 -1814018.00 3783.88   1
  -2  -1 -1811883.50 3618.73   1
   2  -1 -19 9043.32 2602.93   1
  -2   1 -1910027.50 3517.94   1
  -2  -1 -19 3726.02 1901.10   1
   2   1 -20 1909.81 803.612   1
   2  -1 -20 2510.37 1268.25   1
  -2   1 -20-465.556 1326.27   1
  -2  -1 -20 5476.14 2774.40   1
   2   1 -21 3615.52 1115.20   1
   2  -1 -21 2151.66 1163.93   1
  -2   1 -21 76.3288 1325.52   1
  -2  -1 -21 3153.48 1695.25   1
   2  -1 -22 4485.40 1637.71   1
   2   1 -22 3782.11 1511.63   1
  -2   1 -22 5427.32 2420.19   1
  -2  -1 -22 2953.23 1589.69   1
   2   1 -2311244.80 3672.63   1
  -2   1 -2313903.90 4846.17   1
  -2  -1 -23 5145.75 2478.58   1
   2   1 -24 2550.80 1057.13   1
   2  -1 -24 812.082 635.345   1
  -2   1 -24 3717.29 1994.54   1
  -2  -1 -24 2277.23 1879.76   1
   2  -1 -25 2389.37 1388.57   1
  -2   1 -25 1965.36 1424.80   1
  -2  -1 -25 2231.68 1972.50   1
   2   1 -26 2529.52 1436.54   1
   2  -1 -26 4675.86 2023.68   1
  -2   1 -26 1371.14 1424.78   1
  -2  -1 -26 989.132 1321.13   1
   2   1 -27 9757.11 3641.55   1
  -2   1 -27 7442.79 3363.15   1
  -2  -1 -27 3988.18 2238.81   1
  -2   1 -28 2302.68 2079.48   1
  -2  -1 -28 1626.05 1456.40   1
  -2   1 -29-35.3323 1472.18   1
  -2  -1 -29 1074.10 1475.48   1
  -2   1 -30 690.214 1550.84   1
  -2  -1 -30  387.07 1435.21   1
  -2   1 -31 4374.98 2888.08   1
  -2  -1 -31 2007.30 1630.53   1
  -2   1 -32 1738.88 1342.38   1
  -2  -1 -32 2850.99 1512.17   1
  -2   1 -33  477.83 1146.29   1
  -2  -1 -33-1210.11 1155.39   1
  -2   1 -34  327.43 1234.86   1
  -2  -1 -34 2997.81 2223.70   1
  -2   1 -35-755.749 1235.65   1
  -2  -1 -35-347.641 1276.97   1
  -2   1 -36-325.247 1188.61   1
  -2  -1 -36 1541.70 1515.82   1
  -2   1 -37 1443.69 1491.56   1
  -2  -1 -37 1510.85 1684.75   1
  -2   2   0 6779.38 1775.88   1
   2  -2   0 3511.61 1189.86   1
  -2  -2   0 7853.39 2179.95   1
  -2   2  -1 236.775 717.725   1
  -2   2   1 -614.90 676.955   1
   2  -2   1 1591.90  870.00   1
  -2  -2  -1 813.302 1182.78   1
   2  -2  -1 326.349 865.317   1
  -2  -2   1 1142.00 974.696   1
  -2  -2   2 740.661 588.751   1
  -2   2  -2 235.717 861.121   1
   2  -2   2 467.078 902.007   1
  -2   2   2  288.10 616.881   1
  -2  -2  -2 -712.55 1074.57   1
   2  -2  -2-388.859 615.098   1
  -2  -2   3-449.408 375.036   1
  -2   2  -3-1932.80  928.90   1
  -2   2   3-1.07318 577.688   1
  -2  -2  -3 510.585 1189.43   1
  -2  -2   4 2073.40 832.896   1
  -2   2  -4 4852.31 1520.60   1
  -2  -2  -4 4051.60 2103.80   1
  -2   2   4 4078.87 1254.94   1
   2   2  -527842.00 1831.79   1
  -2   2   528239.80 1613.43   1
  -2   2  -532586.00 2452.83   1
  -2  -2  -535076.60 3020.39   1
  -2   2   526510.10 1732.27   1
   2   2  -623105.80 2398.15   1
  -2   2   620462.70 1373.60   1
  -2   2  -619663.00 2208.59   1
  -2  -2  -622242.00 2750.05   1
  -2   2   621173.70 1545.37   1
   2   2  -7 1809.39 579.897   1
  -2   2   7 2232.34 595.978   1
  -2   2  -7 2704.77 1945.84   1
  -2  -2  -7 4429.96 2430.32   1
  -2   2   815408.40 924.861   1
  -2   2  -814560.30 2368.77   1
  -2  -2  -815827.80 2621.71   1
   2  -2  -9 1088.48 521.683   1
   2   2  -9 1530.97 679.692   1
  -2   2   9 2038.79 624.286   1
  -2   2  -9 2490.37 2045.18   1
  -2  -2  -9 2202.03 2238.54   1
   2  -2 -10 4047.77 1054.25   1
   2   2 -10 3219.71 1307.34   1
  -2   2  10 3010.27 791.345   1
  -2   2 -10 2798.58 2158.97   1
  -2  -2 -10 3230.84 1675.14   1
   2   2 -11 6569.28 1978.83   1
  -2   2  11 7393.62 489.998   1
  -2   2 -11 6575.81 2527.35   1
  -2  -2 -11 7965.29 2757.23   1
  -2   2  1222644.10 2287.28   1
  -2   2 -1219956.30 2813.88   1
  -2  -2 -1220886.40 3280.85   1
  -2   2  13 9123.30 1064.33   1
  -2   2 -13 5978.42 2362.02   1
  -2  -2 -13 6845.95 2615.14   1
  -2   2  1410060.50 1140.40   1
  -2   2 -14 9876.07 2689.69   1
  -2  -2 -14 4798.27 2279.94   1
  -2   2 -15 5651.54 2096.45   1
  -2  -2 -1511974.80 2917.27   1
  -2   2 -1610095.90 2550.60   1
  -2  -2 -1610266.80 2265.67   1
   2   2 -17 1303.34 1122.03   1
   2  -2 -17 698.741 430.092   1
  -2   2 -17 1745.38 1549.69   1
  -2  -2 -17 3394.19 2243.78   1
   2   2 -18 515.384 607.169   1
   2  -2 -18 1092.98 610.098   1
  -2   2 -18 2360.18 1647.20   1
  -2  -2 -18 237.484 1431.84   1
   2   2 -19 2282.04 1314.18   1
   2  -2 -19 2257.56 1056.79   1
  -2   2 -19 4072.11 1777.76   1
  -2  -2 -19 2306.82 1519.09   1
   2   2 -20 3261.89 1508.16   1
   2  -2 -20 4089.39 1410.26   1
  -2   2 -20 4781.20 2315.92   1
  -2  -2 -20 691.646 1350.67   1
   2   2 -21 596.133 661.623   1
   2  -2 -21 2008.82 1081.35   1
  -2   2 -21 814.552 1304.80   1
  -2  -2 -21 242.684 1317.87   1
   2   2 -22 257.718 608.981   1
   2  -2 -22 1189.08 708.406   1
  -2   2 -22 1099.35 1335.37   1
  -2  -2 -22 2814.76 2208.55   1
   2   2 -23 1264.53 831.099   1
   2  -2 -23 1829.45 1187.40   1
  -2   2 -23 5654.97 2801.06   1
  -2  -2 -23 1551.89 1470.71   1
   2   2 -24-33.0749 703.111   1
   2  -2 -24 86.0141 517.201   1
  -2   2 -24-1080.85 1252.13   1
  -2  -2 -24 3646.70 1573.99   1
   2   2 -25 4346.27 1912.77   1
  -2   2 -25 2874.67 2015.48   1
  -2  -2 -25 3082.93 2056.52   1
  -2   2 -26 9131.14 3921.91   1
  -2  -2 -26 3811.93 2258.75   1
   2   2 -27-1009.58  864.05   1
  -2   2 -27-537.377 1351.27   1
  -2  -2 -27-525.554 1138.44   1
   2   2 -28 1522.37 1197.82   1
  -2   2 -28 1900.26 1531.42   1
  -2  -2 -28 3080.95 2120.56   1
  -2   2 -29 1379.26 2200.23   1
  -2  -2 -29 3109.36 1667.00   1
  -2   2 -30 3737.79 3084.75   1
  -2  -2 -30 1943.02 1614.69   1
  -2   2 -31 4033.65 2390.30   1
  -2  -2 -31  919.76 1547.85   1
  -2   2 -32 1854.19 1736.85   1
  -2  -2 -32 3818.97 2212.51   1
  -2   2 -33 166.713 1119.51   1
  -2  -2 -33 2591.21 1684.05   1
  -2   2 -34-300.658 1192.71   1
  -2  -2 -34 892.566 1210.81   1
  -2   2 -35 1899.25 1538.77   1
  -2  -2 -35 4596.58 2605.82   1
  -2   2 -36-272.389 1200.25   1
  -2  -2 -36 248.693 1387.32   1
  -2   2 -37 2092.86 1591.51   1
  -2  -2 -37 654.676 1537.56   1
  -2  -2 -38 2032.94 1834.34   1
  -2   3   0-972.513  713.13   1
   2  -3   0 130.743 694.355   1
  -2  -3   0 1342.12 1082.77   1
  -2   3  -1 2205.63 851.189   1
  -2   3   1 6086.63 1781.24   1
   2  -3   1 4294.81 1163.74   1
   2  -3  -1 3650.96 1150.37   1
  -2  -3  -1 2887.68 1232.33   1
  -2   3  -2-681.367  816.81   1
  -2   3   2 263.188 569.695   1
   2  -3   2-463.937 837.698   1
   2  -3  -2 722.239 797.977   1
  -2  -3  -2 1164.06 1233.10   1
  -2   3  -312635.30 3037.83   1
  -2   3   3 4360.69 1394.50   1
  -2  -3  -310790.80 3081.13   1
   2  -3  -3 8133.46 2035.75   1
  -2   3  -421370.30 1644.84   1
  -2   3   418350.10 1329.67   1
  -2  -3  -419039.60 2552.66   1
  -2   3   5 381.806 219.778   1
   2   3  -5 551.762 504.758   1
  -2   3  -5 3454.37 1574.88   1
  -2  -3  -5 2129.97 2221.59   1
  -2   3   611916.50 1086.00   1
  -2   3  -613406.30 1758.77   1
  -2  -3  -6 9044.80 2159.25   1
   2   3  -7 9976.21 2048.86   1
  -2   3   710339.60 723.586   1
  -2   3  -711664.20 1608.88   1
  -2  -3  -7 5229.51 1923.61   1
   2   3  -8 666.423 539.983   1
  -2   3   8 640.702 338.115   1
  -2   3  -8-1281.59 1259.53   1
  -2  -3  -8-642.531 1523.44   1
   2   3  -913127.10 2768.89   1
  -2   3   912182.10 755.959   1
  -2   3  -914907.30 2065.15   1
  -2  -3  -911745.80 2631.80   1
   2  -3 -10 6622.08 1667.27   1
  -2   3  10 5223.53 1193.91   1
  -2   3 -10 4441.64 2281.92   1
  -2  -3 -10 4367.97 2363.51   1
  -2   3  11 7986.34  599.29   1
  -2   3 -11 8409.17 2051.76   1
  -2  -3 -11 3607.21 2468.75   1
   2  -3 -12 1985.82 713.688   1
   2   3 -12 -106.36 572.936   1
  -2   3  12 1064.13 380.266   1
  -2   3 -12 887.084 1502.53   1
  -2  -3 -12-1785.31 1774.64   1
  -2   3  13 6307.48 769.086   1
  -2   3 -13 4298.24 2000.02   1
  -2  -3 -13 4737.79 2683.73   1
   2   3 -14 813.005 674.797   1
   2  -3 -14 408.485 330.096   1
  -2   3 -14-823.304 1471.05   1
  -2   3  14-9.35967 401.733   1
  -2  -3 -14 1217.72 1857.40   1
   2   3 -15 5813.38 1246.75   1
  -2   3 -15 6105.77 2146.51   1
  -2   3  15 6466.57  893.14   1
  -2  -3 -15 3947.69 1914.35   1
   2   3 -16-522.223 560.359   1
   2  -3 -16 836.719 421.847   1
  -2   3 -16  4.0817 1334.99   1
  -2   3  16-406.596 404.098   1
  -2  -3 -16-2602.76 1566.30   1
   2   3 -17 2398.10 1277.21   1
   2  -3 -17 1896.00  868.48   1
  -2   3 -17 1105.20 1364.06   1
  -2  -3 -17 1609.27 1618.60   1
   2   3 -18 432.786 635.224   1
   2  -3 -18  655.41 576.331   1
  -2   3 -18-165.798 1359.19   1
  -2  -3 -18 806.527 1471.63   1
   2   3 -19 6408.34 2095.34   1
   2  -3 -1910453.70 2979.69   1
  -2   3 -1914364.70 4408.78   1
  -2  -3 -19 5987.05 2562.43   1
   2   3 -20  887.51 797.297   1
   2  -3 -20 4220.65 1514.79   1
  -2   3 -20 2508.38 1559.97   1
  -2  -3 -20 2745.76 1706.51   1
   2  -3 -2110585.80 2211.38   1
  -2   3 -21 5098.34 2444.52   1
  -2  -3 -21 5063.00 1628.18   1
   2   3 -22 19.8625 766.034   1
   2  -3 -22 1366.65  945.92   1
  -2   3 -22-1872.67 1371.65   1
  -2  -3 -22 2087.80 1445.08   1
   2   3 -23 2270.28 1245.78   1
   2  -3 -23 1088.08  926.65   1
  -2   3 -23 3043.16 1510.48   1
  -2  -3 -23 4701.12 2496.54   1
   2   3 -24 1759.64 1247.69   1
  -2   3 -24 2128.39 1411.66   1
  -2  -3 -24 2550.94 1427.84   1
   2   3 -25 277.532 883.135   1
  -2   3 -25 2839.24 1617.13   1
  -2  -3 -25-1936.14 1258.38   1
   2   3 -26 2812.85 1619.17   1
  -2   3 -26 2448.76 1585.40   1
  -2  -3 -26 472.742 1282.85   1
  -2   3 -27 3223.48 2149.46   1
  -2  -3 -27 3185.25 2093.04   1
   2   3 -28 1805.93 1281.66   1
  -2   3 -28  498.36 1426.66   1
  -2  -3 -28  659.28 1372.96   1
   2   3 -29  110.86 884.185   1
  -2   3 -29 2307.79 1627.70   1
  -2  -3 -29 2887.86 1638.89   1
  -2   3 -30 83.1742 1307.99   1
  -2  -3 -30 31.0594 1472.64   1
  -2   3 -31 1372.62 1343.08   1
  -2  -3 -31-581.028 1463.67   1
  -2   3 -32 1167.49 1170.64   1
  -2  -3 -32-352.493 1329.85   1
  -2   3 -33 2051.48 1883.50   1
  -2  -3 -33 4421.90 2685.90   1
  -2   3 -34 2094.91 1605.95   1
  -2  -3 -34 1532.29 1953.50   1
  -2   3 -35 2631.81 1635.76   1
  -2  -3 -35 2130.87 2154.74   1
  -2   3 -36 560.616 1306.78   1
  -2  -3 -36 1076.74 1432.22   1
  -2  -3 -37-1524.05 1478.85   1
  -2  -3 -38 1618.38 1737.75   1
  -2   4   027420.80 1728.43   1
   2  -4   031306.60 1922.75   1
  -2  -4   031238.90 2503.18   1
  -2   4  -1 834.629 678.491   1
  -2   4   1 2384.07 1060.67   1
   2  -4   1 2410.92 1216.69   1
   2  -4  -1 5.39374  607.00   1
  -2  -4  -1  508.12 1216.31   1
  -2   4  -2 5637.36 1513.46   1
  -2   4   2 4131.54 1298.82   1
   2  -4   2 3250.53 1241.68   1
   2  -4  -2 2506.79 1085.95   1
  -2  -4  -2 3282.83 1950.05   1
  -2   4  -3 1940.46 840.628   1
  -2   4   3-330.534 411.331   1
   2  -4  -3 1617.40 833.392   1
  -2  -4  -3 2041.96 1342.04   1
   2   4  -411940.40 2788.15   1
  -2   4  -412400.60 2875.63   1
  -2   4   4 8655.19 2120.43   1
  -2  -4  -414511.50 2334.89   1
   2  -4  -412722.40 2834.13   1
   2   4  -6 6230.82 1906.16   1
  -2   4   6 2245.19 682.115   1
  -2   4  -6 6795.16 2060.69   1
  -2  -4  -6 6778.31 2457.24   1
  -2   4   728412.60 1417.51   1
  -2   4  -727704.30 2340.87   1
  -2  -4  -727546.20 2437.92   1
  -2   4   838068.00 1865.02   1
  -2   4  -840311.30 3046.59   1
  -2  -4  -841498.30 3295.22   1
   2   4  -9 616.878  583.80   1
  -2   4   9 -26.782 107.172   1
  -2   4  -9 2800.63 1497.23   1
  -2  -4  -9 1472.98 1649.46   1
  -2   4 -1017234.10 2417.44   1
  -2   4  1012255.40 755.116   1
  -2  -4 -10 8186.73 2365.83   1
   2  -4 -1115470.80 1750.34   1
  -2   4 -1111818.90 2787.16   1
  -2   4  1111739.70 1227.92   1
  -2  -4 -1113385.30 3205.08   1
  -2   4 -12 6237.69 1641.05   1
  -2   4  12 7242.47 841.802   1
  -2  -4 -1210759.60 2681.77   1
  -2   4 -13 5807.55 2235.34   1
  -2   4  1311528.60 1272.43   1
  -2  -4 -13 9992.73 2581.59   1
   2   4 -14 7111.25 1413.21   1
  -2   4 -14 6905.08 2123.96   1
  -2   4  14 5669.53 843.738   1
  -2  -4 -14 8381.72 2638.75   1
   2   4 -15 4856.99 1240.44   1
   2  -4 -15 2661.77 811.791   1
  -2   4 -15 5784.59 2283.15   1
  -2   4  15 432.432  697.98   1
  -2  -4 -15 655.505 1604.14   1
   2  -4 -1612021.50 1424.27   1
  -2   4 -16 7144.02 2492.45   1
  -2   4  1614029.00 1763.54   1
   2   4 -17 5713.39 1807.54   1
   2  -4 -17 7609.81 1811.87   1
  -2   4 -17 8909.59 2788.31   1
  -2  -4 -17 3080.05 1732.15   1
  -2   4  1710563.80 2561.16   1
   2  -4 -18 9999.58 2382.93   1
  -2   4 -18 9442.39 3010.51   1
  -2  -4 -18 8196.64 2739.92   1
   2   4 -19 6856.28 2346.62   1
   2  -4 -19 9966.40 2921.83   1
  -2   4 -19 3871.76 2139.50   1
  -2  -4 -19 7715.35 3001.59   1
   2   4 -20-10.4274 769.724   1
   2  -4 -20 293.031 509.275   1
  -2   4 -20 2012.51 1914.89   1
  -2  -4 -20 3141.78 1800.04   1
   2   4 -21 1505.76 1005.80   1
   2  -4 -21 2651.78 1318.27   1
  -2   4 -21 2176.92 1953.45   1
  -2  -4 -21 5229.54 1703.20   1
   2   4 -22 4589.60 2113.11   1
   2  -4 -22 5191.62 1901.52   1
  -2   4 -22 4320.27 2247.66   1
  -2  -4 -22 4211.15 2368.43   1
   2   4 -23-612.462 760.244   1
  -2   4 -23-1915.45 1413.40   1
  -2  -4 -23 2879.48 2042.60   1
   2   4 -24 1403.98 945.897   1
  -2   4 -24 1762.97 1430.73   1
  -2  -4 -24 467.223 1441.48   1
   2   4 -25 831.427 1172.55   1
  -2   4 -25 2873.78 2078.53   1
  -2  -4 -25 2420.82 1312.89   1
   2   4 -26  820.72 1188.45   1
  -2   4 -26 2645.90 2182.61   1
  -2  -4 -26 1802.28 1457.15   1
   2   4 -27 834.776 889.334   1
  -2   4 -27 1643.72 2044.07   1
  -2  -4 -27 4316.32 2587.64   1
  -2   4 -28-38.5668 1394.54   1
  -2  -4 -28 2357.94 1522.57   1
   2   4 -29 1199.52 1091.97   1
  -2   4 -29-672.055 1401.94   1
  -2  -4 -29-30.2338 1443.16   1
   2   4 -30 -389.92 1072.54   1
  -2   4 -30 2086.43 1602.60   1
  -2  -4 -30-1183.36 1425.76   1
  -2   4 -31 1323.51 1326.87   1
  -2  -4 -31 2266.17 1641.70   1
  -2   4 -32 1931.91 1353.78   1
  -2  -4 -32 1243.28 1443.36   1
  -2   4 -33-996.132 1004.00   1
  -2  -4 -33 62.6535 1223.59   1
  -2   4 -34-409.578 1238.93   1
  -2  -4 -34 4556.86 2512.93   1
  -2   4 -35 1650.63 1907.13   1
  -2  -4 -35 235.437 1530.22   1
  -2   4 -36  105.94 1174.48   1
  -2  -4 -36-490.517 1231.20   1
  -2  -4 -37 2452.49 2937.52   1
  -2   5   0-901.988 518.387   1
   2  -5   0 66.3247 576.525   1
  -2   5  -1-464.257 580.706   1
  -2   5   1 191.918 461.492   1
   2  -5   1 171.534 580.234   1
   2  -5  -1-543.915 576.299   1
  -2  -5  -1 493.553 1192.99   1
  -2   5  -2 4148.64 1281.62   1
  -2   5   2 7649.47 1859.05   1
   2  -5  -2 2864.66 1095.58   1
  -2  -5  -210737.90 3175.63   1
   2   5  -3 3733.86 1081.95   1
  -2   5   3 5994.97 1391.82   1
   2   5  -4 16.6304 507.149   1
  -2   5   4 981.138 597.253   1
  -2   5  -4 -502.02 827.984   1
   2  -5  -4-55.9265 255.501   1
  -2  -5  -4 63.5737 1296.70   1
  -2   5  -511596.40 1565.36   1
  -2  -5  -513247.60 2837.27   1
   2   5  -6 4526.91 1475.90   1
  -2   5  -6 9218.18 1904.60   1
  -2  -5  -6 5252.08 2290.93   1
  -2   5  -7 8949.12 1969.54   1
  -2  -5  -7 8911.63 2049.40   1
   2   5  -8 1200.49 750.054   1
  -2   5  -8 3064.54 1735.59   1
  -2  -5  -8 564.965 1556.05   1
   2   5  -9-66.9655 610.144   1
  -2   5  -9 654.088 1198.98   1
  -2  -5  -9-634.586 1694.71   1
  -2   5 -1019194.00 2955.56   1
  -2  -5 -1023886.40 3555.22   1
   2   5 -11 236.624 587.429   1
  -2   5 -11 2259.62 2218.73   1
  -2  -5 -11 5691.94 2502.16   1
   2  -5 -12 167.241 117.974   1
   2   5 -12-441.605 614.878   1
  -2   5 -12 2124.67 2161.08   1
  -2  -5 -12 2952.83 2671.74   1
  -2   5  12 844.793 340.218   1
  -2   5 -1318247.20 2902.14   1
  -2  -5 -1310479.80 2599.25   1
  -2   5  1315509.90 1642.63   1
   2   5 -14 1770.55 786.804   1
   2  -5 -14 1600.24 556.958   1
  -2   5 -14 1051.14 1383.41   1
  -2  -5 -14-1091.90 1853.64   1
  -2   5  14 3918.97 1152.10   1
   2   5 -15 1504.63 1006.13   1
  -2   5 -15 2531.02 1476.19   1
  -2  -5 -15 5827.97 1684.61   1
  -2   5  15 6164.17 1131.42   1
   2   5 -16  412.62 638.968   1
   2  -5 -16 990.377 470.387   1
  -2   5 -16 3973.33 2199.90   1
  -2  -5 -16 844.112 1685.24   1
  -2   5  16 3915.68 1344.73   1
   2  -5 -1716805.80 3732.89   1
  -2   5 -1711048.40 3340.92   1
  -2  -5 -17 6369.58 2171.94   1
  -2   5  1721040.50 4695.58   1
   2   5 -18 685.806  768.04   1
   2  -5 -18 2741.12 1148.43   1
  -2   5 -18 2111.79 1583.45   1
  -2  -5 -18 791.029 1835.06   1
   2   5 -19 5251.50 2036.44   1
   2  -5 -19 4941.14 1588.33   1
  -2   5 -19 4957.52 1830.62   1
  -2  -5 -19 3127.07 1944.89   1
   2   5 -20 4746.76 1690.95   1
   2  -5 -20 3894.96 1153.57   1
  -2   5 -20 5140.06 2038.80   1
  -2  -5 -20 4722.67 2197.92   1
   2   5 -21-1196.05 758.097   1
   2  -5 -21 1828.52 1079.18   1
  -2   5 -21 789.992 1360.84   1
  -2  -5 -21 812.713 1536.26   1
  -2   5 -22 3498.39 1757.58   1
  -2  -5 -22 4922.33 2515.37   1
   2   5 -23 30.3838 717.942   1
  -2   5 -23 1433.92 1517.48   1
  -2  -5 -23 1951.01 1549.77   1
   2   5 -24 1860.80 968.827   1
  -2   5 -24 4319.65 2445.51   1
  -2  -5 -24 2481.23 1577.93   1
   2   5 -25 2281.01 1470.20   1
  -2   5 -25 7930.33 3433.71   1
  -2  -5 -25 5063.60 2276.26   1
   2   5 -26 1193.88  882.23   1
  -2   5 -26 467.771 1365.19   1
  -2  -5 -26 2344.65 2366.84   1
   2   5 -27 78.6054 795.094   1
  -2   5 -27 4920.76 3103.98   1
  -2  -5 -27 3444.34 1751.40   1
   2   5 -28 2725.95 1522.06   1
  -2   5 -28 2347.66 2222.92   1
  -2  -5 -28 5539.65 2912.18   1
   2   5 -29-556.765 1006.21   1
  -2   5 -29-1346.19 1392.28   1
  -2  -5 -29 2445.08 1555.02   1
   2   5 -30 50.0273 1137.91   1
  -2   5 -30-1625.02 1298.97   1
  -2  -5 -30 2248.32 1847.36   1
  -2   5 -31-380.121 1196.15   1
  -2  -5 -31-1342.36 1513.53   1
  -2   5 -32 5749.38 2631.27   1
  -2  -5 -32 2541.65 1662.57   1
  -2   5 -33-521.088 1096.92   1
  -2  -5 -33 672.073 1308.67   1
  -2   5 -34 201.969 1223.45   1
  -2  -5 -34 2077.46 1790.86   1
  -2   5 -35 2728.67 1619.71   1
  -2  -5 -35 7388.73 3794.29   1
  -2   5 -36-1739.29 1211.06   1
  -2  -5 -36 1970.47 2207.36   1
  -2  -5 -37 2593.60 1854.79   1
  -2   6   0-450.911 485.796   1
   2  -6   0 52.9622 527.261   1
  -2   6   1 4191.39 1163.93   1
  -2   6  -1 4594.09 1331.60   1
   2  -6   1 1577.11 624.995   1
   2  -6  -1 4617.35 1379.27   1
  -2   6   2 499.676 474.501   1
  -2   6  -2 273.816 606.735   1
   2  -6  -2-131.562  493.22   1
  -2  -6  -2-2017.41 1228.29   1
   2   6  -3-315.278 517.793   1
  -2   6   3 602.727 383.181   1
  -2   6  -3 867.673 896.523   1
   2  -6  -3 216.985 383.082   1
  -2  -6  -3-880.793 1317.50   1
   2   6  -4 2118.29 1023.42   1
  -2   6   4 2611.76 868.191   1
  -2   6  -4 3152.64 1536.95   1
   2  -6  -4 1718.73 594.163   1
  -2  -6  -4 2206.24 1440.04   1
  -2   6  -520676.50 1965.18   1
   2  -6  -520783.50 1171.20   1
  -2  -6  -519394.20 2437.98   1
   2   6  -6 3171.15 1631.62   1
  -2   6  -6 4882.53 1885.77   1
  -2  -6  -6 3194.15 1552.44   1
   2   6  -7 1856.99 1109.54   1
  -2   6  -7 4309.71 1750.87   1
  -2  -6  -7 6380.10 2536.77   1
   2   6  -8 2740.50 1118.34   1
  -2   6  -8 4393.27 1952.49   1
  -2  -6  -8 2715.78 1636.56   1
  -2   6  -932532.40 2784.70   1
  -2  -6  -940050.90 3652.48   1
   2   6 -10 7154.50 2481.21   1
  -2   6 -10 6589.39 2075.13   1
  -2  -6 -10 8788.06 2695.56   1
   2   6 -11-503.682 713.374   1
  -2   6 -11-301.208 1453.47   1
  -2  -6 -11 -604.31 1820.95   1
  -2   6 -1231012.80 4041.14   1
  -2  -6 -1216503.50 2977.82   1
  -2   6 -1316827.80 2923.72   1
  -2  -6 -1314962.00 3319.02   1
   2  -6 -14 1621.02 511.956   1
   2   6 -14 231.989 690.408   1
  -2   6 -14 647.425 1361.20   1
  -2  -6 -14 2398.26 1847.15   1
  -2   6  14 2942.13 886.655   1
   2   6 -15-638.491 787.523   1
   2  -6 -15 532.167 240.559   1
  -2   6 -15 2177.97 2037.29   1
  -2  -6 -15 1334.50 1807.45   1
  -2   6  15 2367.36 839.766   1
   2   6 -16 5108.73 1735.32   1
   2  -6 -16 6535.10 1517.84   1
  -2   6 -16 6051.59 2293.39   1
  -2  -6 -16 5862.46 2024.24   1
   2   6 -17 3923.96 1640.58   1
   2  -6 -17 2370.83 956.144   1
  -2   6 -17 6044.75 2300.44   1
  -2   6  17 3297.18 1024.41   1
   2   6 -18 1305.35 1065.89   1
   2  -6 -18 2220.15 941.985   1
  -2   6 -18 1227.49 1435.01   1
  -2  -6 -18 -697.44 1727.67   1
   2   6 -19 2169.56 1464.80   1
   2  -6 -19 541.633 575.835   1
  -2   6 -19 3188.30 1683.54   1
  -2  -6 -19-458.167 1792.90   1
   2   6 -20 6072.68 1807.35   1
  -2   6 -2013249.60 3394.27   1
  -2  -6 -20 6297.54 1959.53   1
   2   6 -21 3533.18 1695.03   1
  -2   6 -21 3173.53 1645.49   1
  -2  -6 -21 2063.21 1593.82   1
   2   6 -22 57.0133  662.68   1
  -2   6 -22 3828.70 1739.93   1
  -2  -6 -22 2832.78 2433.92   1
   2   6 -23 1582.34 1223.59   1
  -2   6 -23 2332.47 1410.22   1
  -2  -6 -23 2851.30 1594.59   1
   2   6 -24-246.451 640.332   1
  -2   6 -24 489.774 1348.52   1
  -2  -6 -24 2508.16 1573.19   1
   2   6 -25 200.002 705.761   1
  -2   6 -25-292.241 1325.55   1
  -2  -6 -25 1167.66 1424.37   1
   2   6 -26-541.839 737.469   1
  -2   6 -26 2071.44 1577.83   1
  -2  -6 -26 1289.61 1437.66   1
   2   6 -27 1546.87 1270.64   1
  -2   6 -27 2891.72 1692.35   1
  -2  -6 -27-919.513 1399.64   1
   2   6 -28 481.157 896.158   1
  -2   6 -28 809.218 1505.87   1
  -2  -6 -28 2830.09 2053.65   1
  -2   6 -29 961.538 2046.21   1
  -2  -6 -29 5131.19 2393.70   1
   2   6 -30 461.205 1003.46   1
  -2   6 -30 1614.41 1350.46   1
  -2  -6 -30 6192.47 2694.87   1
   2   6 -31 2584.07 1259.21   1
  -2   6 -31  505.58 1100.00   1
  -2  -6 -31 2534.88 2447.80   1
   2   6 -32 692.423 1160.77   1
  -2   6 -32 2799.03 1839.62   1
  -2  -6 -32 4543.39 2767.66   1
  -2   6 -33 1642.94 1436.24   1
  -2  -6 -33 1396.49 1487.84   1
  -2   6 -34  830.80 1423.13   1
  -2  -6 -34 2239.24 1858.49   1
  -2   6 -35-353.214 1253.26   1
  -2  -6 -35 1080.90 1642.23   1
  -2  -6 -36 1523.24 1719.24   1
  -2   7   0-885.331 439.537   1
   2  -7   0 325.714 450.773   1
  -2   7   1 2220.15  816.08   1
  -2   7  -1 1684.42 784.169   1
   2  -7  -1 1651.75 543.159   1
  -2   7   224909.00 1562.72   1
  -2   7  -226443.00 1770.17   1
   2  -7  -224051.90 1559.86   1
   2   7  -3 2097.63 925.588   1
  -2   7   3 3202.79 844.474   1
  -2   7  -3 1315.57 903.935   1
   2  -7  -3 2324.60 885.332   1
  -2  -7  -3 3856.73 2047.01   1
   2   7  -4 120.946 410.826   1
  -2   7  -4 2257.80 1366.54   1
   2  -7  -4-27.7341 293.665   1
  -2  -7  -4 1206.14 1293.08   1
  -2   7  -512122.50 1704.49   1
   2  -7  -510074.00 794.661   1
  -2  -7  -514502.90 2361.05   1
   2   7  -6 194.709 348.347   1
  -2   7  -6 1333.41 1249.20   1
   2  -7  -6 772.857 263.288   1
  -2  -7  -6 4073.57 2171.41   1
   2   7  -7 8065.64 2743.56   1
   2   7  -8 998.393 821.683   1
  -2   7  -8 4233.57 1928.32   1
  -2  -7  -8 6944.07 2895.86   1
   2   7  -911933.00 3518.75   1
  -2   7  -915498.60 2484.31   1
  -2  -7  -911119.30 2517.21   1
   2   7 -10 2749.89 1969.91   1
  -2   7 -10 8308.16 2256.03   1
  -2  -7 -10 9120.21 2691.74   1
  -2   7 -1114960.70 2770.35   1
  -2  -7 -1112893.20 2888.85   1
  -2   7 -12 8074.46 1995.80   1
  -2  -7 -1214678.20 3388.05   1
   2   7 -13 2176.01 1415.73   1
  -2   7 -13 3338.23 2082.39   1
  -2  -7 -13 2503.19 2533.18   1
   2   7 -14  990.12 800.607   1
  -2   7 -14 3263.77 1486.86   1
  -2  -7 -14 2662.51 2633.75   1
   2   7 -15-8.93652 854.428   1
   2  -7 -15-69.9118 83.6666   1
  -2   7 -15 358.283 1327.48   1
  -2  -7 -15-1520.80 1741.88   1
   2   7 -16 4802.48 1869.51   1
   2  -7 -1612158.80 2694.76   1
  -2   7 -16 8627.33 2609.33   1
  -2  -7 -16 5136.88 2004.10   1
  -2   7  1611349.00 2536.06   1
   2   7 -17 1925.42 1266.21   1
   2  -7 -17 1544.07 525.835   1
  -2   7 -17 2014.86 1477.54   1
  -2  -7 -17 1788.24 1785.11   1
   2  -7 -18 8521.33 2362.35   1
  -2   7 -18 5600.06 2294.42   1
  -2  -7 -1813607.00 4670.29   1
   2   7 -19 2928.06 1445.78   1
  -2   7 -19 1893.84 1485.08   1
  -2  -7 -19 4861.66 1966.92   1
   2   7 -20 2330.95 1256.88   1
  -2   7 -20 4364.01 2129.29   1
  -2  -7 -20 3880.22 1828.11   1
   2   7 -21 658.493 1000.64   1
  -2   7 -21 1595.93 1564.53   1
  -2  -7 -21 3029.49 1876.94   1
  -2   7 -2216356.5012067.00   1
  -2  -7 -2213933.70 4683.77   1
   2   7 -23 4062.10 1783.72   1
  -2   7 -23 1434.70 1422.82   1
  -2  -7 -23 7507.09 3592.02   1
   2   7 -24 1196.99 1006.32   1
  -2   7 -24 1064.61 1388.52   1
  -2  -7 -24 2799.53 1699.53   1
   2   7 -25 388.158 1106.95   1
  -2   7 -25 473.011 1388.11   1
  -2  -7 -25-1485.48 1401.41   1
   2   7 -26 3636.91 1817.08   1
  -2   7 -26 1355.30 1518.34   1
  -2  -7 -26-308.696 1352.72   1
   2   7 -27 776.594 873.099   1
  -2   7 -27 1703.63 1493.61   1
  -2  -7 -27 2761.24 1542.54   1
   2   7 -28-449.435 896.356   1
  -2   7 -28 1061.99 1483.65   1
  -2  -7 -28 2000.40 1504.96   1
   2   7 -29 72.4461 874.766   1
  -2   7 -29 604.407 1253.06   1
  -2  -7 -29 1226.57 1512.28   1
   2   7 -30-1687.46 863.126   1
  -2   7 -30 4095.20 1976.76   1
  -2  -7 -30  647.02 1488.20   1
   2   7 -31 71.9181 943.419   1
  -2   7 -31 1367.31 1237.68   1
  -2  -7 -31 2026.83 2277.46   1
   2   7 -32 4372.60 2766.37   1
  -2   7 -32-23.8338 1119.55   1
  -2  -7 -32-250.171 1392.70   1
  -2   7 -33 4595.55 2474.15   1
  -2  -7 -33-483.278 1305.87   1
  -2   7 -34 4195.47 2541.10   1
  -2  -7 -34 5865.29 3321.31   1
  -2   7 -35 1901.11 1546.72   1
  -2  -7 -35 1270.63 2247.20   1
  -2   8   034578.50 2116.64   1
   2  -8   031836.00 1814.79   1
  -2   8   1 9062.11 972.277   1
  -2   8  -110762.30 1322.49   1
   2  -8  -110008.90 910.605   1
   2   8  -213082.60 1462.79   1
  -2   8   215358.30 1180.34   1
  -2   8  -216999.90 1632.33   1
   2  -8  -215055.50 1145.75   1
  -2   8   313489.90 1031.46   1
  -2   8  -313352.20 1380.36   1
   2  -8  -314319.80 1119.76   1
  -2  -8  -316643.00 2326.03   1
   2   8  -4 3543.92 1370.39   1
  -2   8   4 2524.52 725.492   1
  -2   8  -4 2687.55 1296.99   1
   2  -8  -4 610.179 312.633   1
  -2  -8  -4 2740.54 1989.48   1
   2   8  -5 3317.84 1499.55   1
  -2   8   5 2663.90 705.407   1
  -2   8  -5 1701.59 1087.22   1
  -2  -8  -5 1419.66 1469.82   1
   2   8  -6 1579.15 949.408   1
  -2   8  -6 2515.89 1358.73   1
   2  -8  -6 1575.92 472.978   1
  -2  -8  -6 3852.52 2204.89   1
  -2   8  -732133.00 3533.79   1
  -2  -8  -736181.70 4409.40   1
  -2   8  -827027.00 3349.79   1
  -2  -8  -836487.20 4637.90   1
   2   8  -9 9201.20 3296.46   1
  -2   8  -9 6245.62 1702.56   1
  -2  -8  -9 5601.94 2409.51   1
   2   8 -10 534.217 507.776   1
  -2   8 -10 2614.43 1696.67   1
  -2  -8 -10 2406.45 1851.55   1
   2   8 -11  138.82  785.84   1
  -2   8 -11 2783.61 1891.38   1
  -2  -8 -11 2285.67 1852.81   1
   2   8 -12 5101.74 2467.13   1
  -2   8 -12 9700.08 2617.96   1
  -2  -8 -12 7295.17 2602.17   1
   2   8 -13 1897.74 1302.45   1
  -2   8 -13 2797.06 1895.36   1
  -2  -8 -13 3009.92 1995.40   1
   2   8 -14 3713.67 2329.95   1
  -2   8 -14 3076.90 2032.87   1
  -2  -8 -14 2098.27 1851.00   1
   2   8 -15 2858.61 1986.61   1
  -2   8 -15 3460.32 1541.63   1
  -2  -8 -15 3903.01 1960.37   1
   2   8 -16-778.455 926.223   1
  -2   8 -16 193.649 1317.58   1
  -2  -8 -16 1807.25 1779.18   1
   2   8 -17 1088.26 884.549   1
  -2   8 -17-364.024 1206.07   1
  -2  -8 -17 7434.47 3694.07   1
   2   8 -18 392.721 882.967   1
  -2   8 -18 1432.05 1796.46   1
  -2  -8 -18 6628.38 3170.34   1
   2   8 -19 808.165 915.812   1
  -2   8 -19  613.26 1351.78   1
  -2  -8 -19 1969.48 2470.92   1
   2   8 -20 2305.96 1303.43   1
  -2   8 -20 2364.08 1995.95   1
  -2  -8 -20 4755.19 2919.88   1
   2   8 -21 2240.49 1223.91   1
  -2   8 -21 1558.15 2002.21   1
  -2  -8 -21 2038.60 1752.32   1
   2   8 -22 572.693 890.083   1
  -2   8 -22 2013.28 1867.60   1
  -2  -8 -22 -310.06 1595.96   1
   2   8 -23 3232.61 1766.50   1
  -2   8 -23 3394.78 2126.74   1
  -2  -8 -23 1120.84 1589.06   1
   2   8 -24 3358.20 1841.00   1
  -2   8 -24 2059.17 1538.79   1
  -2  -8 -24 1068.22 1563.66   1
   2   8 -25 213.691 842.822   1
  -2   8 -25 575.297 1395.01   1
  -2  -8 -25 3466.35 2388.08   1
   2   8 -26 776.438 901.191   1
  -2   8 -26 -133.33 1443.95   1
  -2  -8 -26-305.935 1437.62   1
   2   8 -27 1003.15 929.825   1
  -2   8 -27-148.585 1420.56   1
  -2  -8 -27 1392.10 1401.42   1
   2   8 -28  836.38 879.512   1
  -2   8 -28 2624.84 1624.00   1
  -2  -8 -28 2070.57 1984.28   1
   2   8 -29 745.523 869.096   1
  -2   8 -29 660.928 1331.54   1
  -2  -8 -29 3751.99 2691.44   1
   2   8 -30 1150.06 1332.66   1
  -2   8 -30 2417.28 1814.49   1
  -2  -8 -30-1262.26 1420.61   1
   2   8 -31 2465.25 1690.47   1
  -2   8 -31 4080.78 2144.61   1
  -2  -8 -31 4635.29 2676.02   1
   2   8 -32 1020.26 1143.89   1
  -2   8 -32 1977.14 1536.28   1
  -2  -8 -32-19.0654 1422.04   1
   2   8 -33-1536.75 1036.75   1
  -2   8 -33 973.166 1379.12   1
  -2  -8 -33 907.709 1540.16   1
  -2   8 -34 2947.52 1776.75   1
  -2  -8 -34 2967.83 2098.87   1
  -2   9   0 1296.89 657.728   1
  -2   9   1 1128.38 584.816   1
  -2   9  -1 539.822 775.563   1
   2  -9  -1 1351.38  701.43   1
   2   9  -211380.00 1510.78   1
  -2   9   211168.90 982.376   1
  -2   9  -212896.30 1519.13   1
   2  -9  -211663.50 921.327   1
  -2   9   331175.40 1760.41   1
  -2   9  -328709.10 2004.13   1
   2  -9  -329301.10 1635.06   1
   2   9  -4 269.181 350.741   1
  -2   9  -4 1340.40 998.993   1
   2  -9  -4  850.84 408.193   1
  -2  -9  -4 3135.84 2073.25   1
   2   9  -5 7807.86 2552.37   1
  -2   9   5 7600.36 884.642   1
  -2   9  -510363.90 1810.22   1
   2  -9  -5 8258.03 1012.42   1
   2   9  -612880.50 3913.91   1
   2  -9  -612484.20 1372.90   1
  -2  -9  -6 6939.16 2197.96   1
   2   9  -7 1759.85 1487.92   1
  -2   9  -7 5049.60 2076.07   1
  -2  -9  -7 4039.82 2467.21   1
   2   9  -8 1071.22 787.244   1
  -2   9  -8 3912.12 1468.50   1
  -2  -9  -8-961.678 1529.62   1
   2   9  -9 309.757 1126.14   1
  -2   9  -9 698.486 1030.54   1
  -2  -9  -9 1384.88 1642.23   1
   2   9 -10 1274.51 677.775   1
  -2   9 -10 2207.32 1268.19   1
  -2  -9 -10 2705.58 2458.65   1
   2   9 -11 1408.69 1414.15   1
  -2   9 -11 3151.88 1818.12   1
  -2  -9 -11 6618.43 3143.07   1
   2   9 -12-922.646 983.627   1
  -2   9 -12 1593.89 1244.65   1
  -2  -9 -12 481.759 1736.04   1
   2   9 -13 5392.74 2200.98   1
  -2   9 -13 5772.97 1827.95   1
  -2  -9 -13 4996.26 2528.41   1
   2   9 -14 847.878 1028.94   1
  -2   9 -14-114.513 1360.92   1
  -2  -9 -14 3215.52 2555.65   1
  -2   9 -15 3436.80 1480.64   1
  -2  -9 -15 4625.57 2824.04   1
   2   9 -16 3489.80 2069.28   1
  -2   9 -16 3750.10 1823.04   1
  -2  -9 -16 1182.14 1752.51   1
   2   9 -17 6685.74 2412.70   1
  -2   9 -17 7362.62 3072.13   1
  -2  -9 -1717209.70 5465.73   1
   2   9 -18 5667.57 2297.50   1
  -2   9 -18 3194.54 2096.83   1
  -2  -9 -18 3994.23 1833.45   1
   2   9 -19-598.381 956.667   1
  -2   9 -19 440.384 1327.07   1
  -2  -9 -19 1113.89 1747.53   1
   2   9 -20 655.552 973.349   1
  -2   9 -20 4686.69 2308.99   1
  -2  -9 -20 3945.32 2082.23   1
   2   9 -21 3077.69 1706.27   1
  -2   9 -21 1215.83 1378.71   1
  -2  -9 -21 525.469 1693.00   1
   2   9 -22 185.354 943.486   1
  -2   9 -22 934.145 1316.61   1
  -2  -9 -22 2267.47 2606.88   1
   2   9 -23 111.837 852.122   1
  -2   9 -23-352.167 1247.90   1
  -2  -9 -23-75.6045 1648.14   1
   2   9 -24-538.297 885.319   1
  -2   9 -24-1109.00 1462.35   1
  -2  -9 -24 2552.57 1793.50   1
   2   9 -25-128.762 879.635   1
  -2   9 -25 6345.87 2929.34   1
  -2  -9 -25 2016.79 1708.02   1
   2   9 -26 407.388 882.233   1
  -2   9 -26 1589.73 1576.52   1
  -2  -9 -26 347.765 1454.45   1
   2   9 -27 298.761 798.848   1
  -2   9 -27 2566.86 1639.42   1
  -2  -9 -27 1237.60 1449.99   1
  -2   9 -28-256.717 1306.19   1
  -2  -9 -28 381.269 1282.09   1
   2   9 -29 1642.92 1029.88   1
  -2   9 -29 83.0619 1290.92   1
  -2  -9 -29 2705.12 1948.11   1
   2   9 -30 275.786 910.703   1
  -2   9 -30 -977.51 1179.35   1
  -2  -9 -30 142.054 1475.81   1
   2   9 -31-46.4096 903.666   1
  -2   9 -31  965.80 1245.48   1
  -2  -9 -31 1017.79 1472.09   1
   2   9 -32-352.227 888.386   1
  -2   9 -32 4167.40 2709.37   1
  -2  -9 -32 821.974 1641.84   1
   2   9 -33 570.443 1427.17   1
  -2   9 -33-106.328 1491.24   1
  -2  -9 -33 4392.44 2296.54   1
  -2   9 -34 624.813 1453.92   1
  -2  -9 -34  215.74 1823.83   1
  -2  10   0 472.321 434.542   1
   2  10  -1-310.381 626.093   1
  -2  10   1 138.503 373.419   1
  -2  10  -1 207.289 499.777   1
   2  10  -2 3929.23 1728.10   1
  -2  10   2 1370.54 605.086   1
  -2  10  -2 2257.15 1165.41   1
   2 -10  -2 1357.98 582.226   1
   2  10  -3 718.181 628.833   1
  -2  10   3 567.272 273.887   1
  -2  10  -3 1471.67 960.837   1
   2 -10  -3 2075.09 808.976   1
   2  10  -4  535.94 575.894   1
  -2  10   4 1273.18 428.832   1
  -2  10  -4 2947.58 1267.60   1
   2 -10  -4 1941.29  798.35   1
  -2 -10  -4 800.941 1383.14   1
   2  10  -5 169.634 253.222   1
  -2  10   5 257.567  282.90   1
  -2  10  -5 1487.58 1170.15   1
   2 -10  -5 912.295 422.276   1
  -2 -10  -5 2905.31 2641.02   1
   2  10  -6 1835.02 1108.40   1
  -2  10   6 4500.75 1526.33   1
  -2  10  -6 5792.48 1272.94   1
   2 -10  -6 1997.39 690.784   1
  -2 -10  -6 4230.15 2374.31   1
   2  10  -7 3626.33 1952.69   1
  -2  10  -7 4360.70 1709.61   1
   2 -10  -7 1991.24 685.565   1
  -2 -10  -7 1638.44 1560.54   1
   2  10  -8  825.55 817.504   1
  -2  10  -8 1485.82 980.989   1
   2 -10  -8 489.396  218.92   1
  -2 -10  -8 4364.23 1977.57   1
   2 -10  -8 1094.06 444.824   1
   2  10  -9 1013.12  895.69   1
  -2  10  -9 394.001 989.914   1
  -2 -10  -9 1601.44 1615.22   1
  -2  10 -10 750.366 1009.14   1
  -2 -10 -10 743.802 1594.39   1
   2  10 -11 614.341 597.523   1
  -2  10 -11 4062.64 1819.22   1
  -2 -10 -11-234.901 1728.72   1
   2  10 -12 456.723 570.012   1
  -2  10 -12-99.1163 1141.87   1
  -2 -10 -12 1559.72 2588.50   1
   2  10 -13 2239.44 1300.36   1
  -2  10 -13  83.052 1214.96   1
  -2 -10 -13 81.7255 1689.75   1
   2  10 -14 16.6561 567.034   1
  -2  10 -14 1384.90 1385.93   1
  -2 -10 -14-238.448 1785.39   1
   2  10 -15-1042.23 935.136   1
  -2  10 -15 1956.51 1357.70   1
  -2 -10 -15 1325.90 1776.48   1
   2  10 -16 870.517 647.095   1
  -2  10 -16 2639.69 1969.05   1
  -2 -10 -16 4089.32 2805.37   1
   2  10 -17 2317.85 1482.75   1
  -2  10 -17 2231.26 1434.37   1
  -2 -10 -17 6291.26 2611.97   1
   2  10 -18 6.43709  946.26   1
  -2  10 -18 2815.61 1972.82   1
  -2 -10 -18 2993.84 1903.27   1
   2  10 -19 223.638 967.427   1
  -2  10 -19 586.071 1263.87   1
  -2 -10 -19-1082.07 1555.35   1
   2  10 -20 1516.08 1453.96   1
  -2  10 -20 1541.82 1279.51   1
  -2 -10 -20 1724.80 1530.10   1
   2  10 -21 1999.73 1006.25   1
  -2  10 -21 3925.79 2061.52   1
  -2 -10 -21 1809.01 1788.48   1
   2  10 -22 3130.15 1611.96   1
  -2  10 -22 5517.48 2489.54   1
  -2 -10 -22-2715.36 1754.18   1
   2  10 -23-729.426  889.06   1
  -2  10 -23 417.355 1342.26   1
  -2 -10 -23 1736.84 1689.68   1
   2  10 -24 762.886 952.667   1
  -2  10 -24  411.04 1451.34   1
  -2 -10 -24 2109.62 2036.69   1
   2  10 -25 2261.74 1405.69   1
  -2  10 -25 4192.68 2532.70   1
  -2 -10 -25 1841.71 1792.36   1
   2  10 -26  436.72 841.262   1
  -2  10 -26 1518.29 1562.65   1
  -2 -10 -26 148.894 1594.69   1
   2  10 -27 3886.98 1824.99   1
  -2  10 -27 1574.97 1605.93   1
  -2 -10 -27 2059.52 1511.61   1
   2  10 -28  649.56 1420.02   1
  -2  10 -28 2994.72 2598.72   1
  -2 -10 -28-713.855 1210.72   1
   2  10 -29 2014.71 1414.53   1
  -2  10 -29 4167.51 2527.30   1
  -2 -10 -29 3405.08 2274.89   1
   2  10 -30 1049.18 928.653   1
  -2  10 -30 1755.92 1453.56   1
  -2 -10 -30 4550.81 2780.34   1
   2  10 -31 1212.24 998.959   1
  -2  10 -31 1662.50 1513.73   1
  -2 -10 -31 2737.58 2551.71   1
   2  10 -32-269.291 780.522   1
  -2  10 -32 768.496 1413.97   1
  -2 -10 -32 2375.20 1978.65   1
   2  10 -33 1955.88 1687.83   1
  -2  10 -33 2090.46 1779.57   1
  -2 -10 -33 1495.36 1895.45   1
   2  10 -34 1171.59 1065.31   1
  -2  11   0 401.934  462.50   1
   2  11  -1-730.923 623.075   1
  -2  11   1 865.319 547.214   1
  -2  11  -1 955.653 499.385   1
   2  11  -2 2944.92 1502.28   1
  -2  11  -2 8311.88 1484.43   1
   2  11  -3 108.146 604.262   1
  -2  11   3 2701.40 984.206   1
  -2  11  -3 2355.27 1139.14   1
   2 -11  -3 2986.24 1131.94   1
   2  11  -4 4233.14 2113.04   1
  -2  11   4 3928.81 1259.93   1
  -2  11  -4 3526.42 1408.46   1
   2 -11  -4 6077.82  883.60   1
   2  11  -5 236.136 543.053   1
  -2  11   5 1658.26 660.851   1
  -2  11  -5 2210.45 961.487   1
   2 -11  -5 925.046 358.538   1
  -2 -11  -5 1799.68 1518.91   1
   2  11  -6 666.796 617.347   1
  -2  11   6 411.409 227.013   1
  -2  11  -6 60.3815 733.226   1
   2 -11  -6 139.139 225.567   1
  -2 -11  -6 269.126 1490.37   1
  -2  11   7  446.13 227.787   1
   2  11  -7-309.526 757.067   1
  -2  11  -7-387.798 837.841   1
   2 -11  -7 1145.31 476.372   1
  -2 -11  -7 2051.46 1590.40   1
   2  11  -8 556.626 667.757   1
  -2  11  -8 1681.01 1044.77   1
   2 -11  -8 246.879 155.124   1
  -2 -11  -8 510.537 1519.23   1
   2  11  -9 3419.89 2228.52   1
  -2  11  -9 4149.76 1718.95   1
   2 -11  -9 7103.20 779.054   1
  -2 -11  -9 4300.23 2766.80   1
  -2  11 -1017287.50 2638.54   1
  -2 -11 -1017727.70 3594.55   1
   2  11 -11-453.503 861.548   1
  -2  11 -11 27.1892 1170.82   1
  -2 -11 -11 1676.82 1680.40   1
   2  11 -12 3190.47 1364.44   1
  -2  11 -12 4247.91 1902.34   1
  -2 -11 -12 7169.80 2838.01   1
   2  11 -13 4804.65 2130.80   1
  -2  11 -13 4413.56 1902.36   1
  -2 -11 -13 6654.06 2798.99   1
   2  11 -14 1876.02 813.417   1
  -2  11 -14 492.121 1261.57   1
  -2 -11 -14 7410.98 3078.69   1
   2  11 -15 6079.91 2969.06   1
  -2  11 -1511491.20 3710.81   1
  -2 -11 -15 4870.35 2214.41   1
   2  11 -16-66.5109 826.508   1
  -2  11 -16 3572.82 1416.09   1
  -2 -11 -16-1054.61 1680.96   1
   2  11 -17 197.279 567.175   1
  -2  11 -17 474.057 1237.38   1
  -2 -11 -17 3445.86 1794.05   1
   2  11 -18 4002.02 1765.70   1
  -2  11 -18 5276.40 2418.37   1
  -2 -11 -18 4238.10 2838.68   1
   2  11 -19 2579.69 2207.10   1
  -2  11 -19 1749.02 1820.21   1
  -2 -11 -19 1307.57 1638.55   1
   2  11 -20 1534.50 1721.41   1
  -2  11 -20 731.325 1362.81   1
  -2 -11 -20 3777.57 2390.26   1
   2  11 -21-157.164 847.033   1
  -2  11 -21 523.977 1239.60   1
  -2 -11 -21  388.56 1637.09   1
   2  11 -22 3738.58 1978.88   1
  -2  11 -22 3480.14 2181.58   1
  -2 -11 -22 4530.13 2395.02   1
   2  11 -23 1558.88 1042.63   1
  -2  11 -23 3172.54 1712.90   1
  -2 -11 -23 1271.26 1911.14   1
   2  11 -24 131.436 811.706   1
  -2  11 -24 1594.54 2004.48   1
  -2 -11 -24 3757.26 2768.16   1
   2  11 -25 861.248 886.825   1
  -2  11 -25-300.313 1523.24   1
  -2 -11 -25 463.543 1524.80   1
   2  11 -26 3764.96 1817.57   1
  -2  11 -26 1593.19 1677.06   1
  -2 -11 -26 2061.56 2230.43   1
   2  11 -27  609.36 907.678   1
  -2  11 -27 1221.97 1658.68   1
  -2 -11 -27-2859.31 1404.78   1
   2  11 -28-151.922 871.165   1
  -2  11 -28 -913.69 1491.89   1
  -2 -11 -28-2723.71 1423.67   1
   2  11 -29 1663.76 1049.52   1
  -2  11 -29 33.0871 1491.33   1
  -2 -11 -29 772.704 1585.16   1
   2  11 -30 41.6192 771.227   1
  -2  11 -30 1148.80 1428.37   1
  -2 -11 -30 4243.95 2174.80   1
   2  11 -31 1954.24 1232.02   1
  -2  11 -31 175.348 1364.44   1
  -2 -11 -31-617.951 1690.04   1
   2  11 -32 917.899 988.924   1
  -2  11 -32 3073.37 2198.09   1
  -2 -11 -32 5626.77 2379.29   1
   2  11 -33 2339.78 1315.68   1
  -2  11 -33 1507.43 2046.40   1
   2  11 -34 1629.26 1230.37   1
  -2  12   011179.30 1587.49   1
   2  12  -1 4900.67 1883.69   1
  -2  12   1 4738.86 1644.84   1
  -2  12  -1 7669.66 1384.04   1
  -2  12  -213137.90 1671.59   1
   2  12  -3 1354.02  912.85   1
  -2  12   3 1504.56 679.274   1
  -2  12  -3 1155.91 1062.45   1
   2  12  -4-651.761 709.272   1
  -2  12   4 150.101 306.214   1
  -2  12  -4 2715.90 1226.45   1
   2  12  -5 865.665 694.258   1
  -2  12   5 2285.34 947.005   1
  -2  12  -5 2416.68 1155.29   1
   2 -12  -5 2889.50 869.295   1
  -2 -12  -5 4403.66 1759.04   1
   2  12  -6 880.911 558.684   1
  -2  12   6 118.561  150.92   1
  -2  12  -6 827.526 772.526   1
   2 -12  -6 78.8842 224.042   1
  -2 -12  -6 421.591 1426.05   1
  -2  12   711917.10 2017.19   1
  -2 -12  -712946.10 2809.49   1
   2  12  -8 916.498 841.819   1
  -2  12  -8 850.766 900.358   1
  -2 -12  -8 2705.88 1567.51   1
   2  12  -9  758.29 757.088   1
  -2  12  -9 2320.86 1566.86   1
  -2 -12  -9 3872.58 2260.36   1
   2 -12  -9 5428.89 1450.73   1
   2  12 -10-772.337 900.424   1
  -2  12 -10 4398.89 1721.65   1
  -2 -12 -10 2064.42 2268.45   1
   2  12 -11 -671.75 840.893   1
  -2  12 -11 3363.72 1775.20   1
   2 -12 -11 194.576 236.354   1
  -2 -12 -11 4139.49 2405.54   1
   2  12 -12-343.918 960.791   1
  -2  12 -12 5550.82 2414.40   1
  -2 -12 -12 1746.24 1612.82   1
   2  12 -13-632.794 903.731   1
  -2  12 -13 1541.91 1206.55   1
  -2 -12 -13-1189.36 1654.27   1
   2  12 -14 -925.68 861.279   1
  -2  12 -14 2491.10 1868.22   1
  -2 -12 -14 1774.05 1763.65   1
   2  12 -15-288.208 1067.88   1
  -2  12 -15 3370.90 2035.55   1
  -2 -12 -15-1295.34 1785.69   1
   2  12 -16 837.211 1053.16   1
  -2  12 -16-615.291 1182.37   1
  -2 -12 -16 549.734 1605.05   1
  -2  12 -17 367.346 1247.63   1
  -2 -12 -17 2150.06 1821.73   1
   2  12 -18 788.561 1105.67   1
  -2  12 -18 4568.02 2073.62   1
  -2 -12 -18 4815.99 2587.20   1
   2  12 -19 2274.36 1299.66   1
  -2  12 -19 196.896 1228.10   1
  -2 -12 -19 1386.60 1670.77   1
   2  12 -20 669.658 853.658   1
  -2  12 -20 832.347 1229.26   1
  -2 -12 -20 588.261 1613.26   1
   2  12 -21 4009.82 1970.17   1
  -2  12 -21 2113.70 1469.03   1
  -2 -12 -21 1242.40 1666.22   1
   2  12 -22-896.024 878.733   1
  -2  12 -22-881.085 1234.09   1
  -2 -12 -22 1787.73 1806.44   1
   2  12 -23-665.338 877.533   1
  -2  12 -23 8003.29 3477.92   1
  -2 -12 -23 3320.55 2670.43   1
   2  12 -24-6.14718 867.447   1
  -2  12 -24 1250.66 1526.18   1
  -2 -12 -24 803.931 1737.02   1
   2  12 -25 1107.38 989.489   1
  -2  12 -25 5309.10 2649.48   1
  -2 -12 -25 3784.64 2059.37   1
   2  12 -26 620.543 976.342   1
  -2  12 -26 5138.45 2730.22   1
  -2 -12 -26-538.747 1551.49   1
   2  12 -27 1266.06 1090.57   1
  -2  12 -27 2018.83 1895.94   1
  -2 -12 -27 191.779 1422.76   1
   2  12 -28 2608.09 1520.24   1
  -2  12 -28 545.444 1621.69   1
  -2 -12 -28 1920.13 1618.80   1
   2  12 -29 22.0349 831.219   1
  -2  12 -29-75.4057 1521.27   1
  -2 -12 -29 717.605 1611.80   1
   2  12 -30 -184.38 816.976   1
  -2  12 -30 3159.75 2018.66   1
  -2 -12 -30-1668.45 1724.33   1
   2  12 -31 1664.56 1637.64   1
  -2  12 -31 2436.36 2044.19   1
  -2 -12 -31 1236.03 1703.40   1
   2  12 -32 2291.65 1599.84   1
  -2  12 -32 1821.84 1587.31   1
   2  12 -33 1081.72 922.136   1
   2  12 -34 612.423 1075.98   1
   2  12 -35 1789.69 1693.05   1
  -2  13   0 1415.41  819.50   1
   2  13  -1 1972.97 1058.58   1
  -2  13   1 1435.04 682.544   1
  -2  13  -1 163.943 474.328   1
   2  13  -2 7475.17 1520.77   1
  -2  13  -2 6499.81 1268.21   1
   2  13  -3 929.989 688.397   1
  -2  13   3 3189.54 1046.61   1
  -2  13  -3 2436.32 1038.66   1
   2  13  -4 249.997 446.017   1
  -2  13   4 1086.16 597.481   1
  -2  13  -4-68.1512 653.713   1
   2  13  -5-801.314 692.315   1
  -2  13   5-47.5466 253.519   1
  -2  13  -5 969.271 714.424   1
  -2 -13  -5 531.283 1439.85   1
   2  13  -6-203.888 552.602   1
  -2  13   6 674.247 340.949   1
  -2  13  -6 2057.82 971.596   1
   2 -13  -6 854.513 375.564   1
  -2 -13  -6-81.6682 1407.68   1
  -2  13   7 2010.56 813.126   1
   2  13  -7 491.749 524.632   1
  -2  13  -7 2919.49 1854.78   1
   2 -13  -7 241.555  303.64   1
  -2 -13  -7 1230.33 1430.80   1
   2  13  -8 496.318 800.916   1
  -2  13  -8 74.8352 917.799   1
   2 -13  -8 268.432 205.986   1
  -2 -13  -8 3347.40 1555.74   1
   2  13  -9 771.134 775.732   1
  -2  13  -9 1454.32 1393.94   1
   2 -13  -9 608.897 273.954   1
  -2 -13  -9 419.785 1375.48   1
   2 -13  -9 1441.75 950.673   1
   2  13 -10 572.582 804.485   1
  -2  13 -10 3667.96 1637.98   1
   2 -13 -10 3365.35 1148.75   1
  -2 -13 -10 1724.67 1602.52   1
   2  13 -11 3409.77 2076.82   1
  -2  13 -11 2643.79 1443.41   1
   2 -13 -11 6077.01 1924.82   1
  -2 -13 -11  722.12 1549.00   1
   2  13 -12-231.864 900.173   1
  -2  13 -12 2688.39 1851.25   1
  -2 -13 -12 1798.95 1647.34   1
   2  13 -13 2295.86 1494.01   1
  -2  13 -13 4014.11 2077.17   1
  -2 -13 -13 3988.81 1720.42   1
   2  13 -14 -212.79 846.852   1
  -2  13 -14 3123.04 2313.90   1
  -2 -13 -14 4456.91 2406.38   1
   2  13 -15 1000.38 1067.14   1
  -2  13 -15 4481.85 1888.15   1
  -2 -13 -15 5157.72 2929.88   1
   2  13 -16 58.7899 491.986   1
  -2  13 -16 166.005 1184.36   1
  -2 -13 -16-443.486 1584.08   1
   2  13 -17 1304.08  932.64   1
  -2  13 -17 4319.81 2150.48   1
  -2 -13 -17-320.911 1718.05   1
   2  13 -18 169.966 1069.27   1
  -2  13 -18 646.021 1348.59   1
  -2 -13 -18 1093.87 1635.62   1
   2  13 -19-729.879 940.701   1
  -2  13 -19 749.445 1370.42   1
  -2 -13 -19-711.097 1580.21   1
   2  13 -20 304.581 520.848   1
  -2  13 -20-193.005 1360.58   1
  -2 -13 -20 2905.91 2509.39   1
   2  13 -21-436.793 895.967   1
  -2  13 -21-300.229 1307.45   1
  -2 -13 -21 8205.86 3370.95   1
   2  13 -22 329.075 961.378   1
  -2  13 -22 1063.99 1464.65   1
  -2 -13 -22 6111.83 3109.61   1
   2  13 -23 688.027 962.636   1
  -2  13 -23 1780.24 1501.94   1
  -2 -13 -23 3119.50 2543.29   1
   2  13 -24 387.105 1660.43   1
  -2  13 -24-318.252 1326.52   1
  -2 -13 -24 1661.97 1740.01   1
   2  13 -25 947.086 1078.62   1
  -2  13 -25-66.9243 1399.84   1
  -2 -13 -25 4263.99 2581.57   1
   2  13 -26-574.212 1020.70   1
  -2  13 -26-1087.19 1617.45   1
  -2 -13 -26 1099.22 1657.55   1
   2  13 -27 2429.51 1185.91   1
  -2  13 -27 5721.36 3004.25   1
  -2 -13 -27 4512.05 2508.63   1
   2  13 -28 1768.98 1085.71   1
  -2  13 -28 2273.07 1784.01   1
  -2 -13 -28 2241.53 1977.84   1
   2  13 -29-2125.78 788.184   1
  -2  13 -29 6450.25 4537.93   1
  -2 -13 -29 5136.48 3480.31   1
   2  13 -30 1728.92 1157.15   1
  -2  13 -30 177.614 1302.97   1
  -2 -13 -30 1409.37 1924.19   1
   2  13 -31-355.338 1202.08   1
  -2  13 -31 704.663 1205.01   1
   2  13 -32 2145.19 1460.81   1
   2  13 -33 268.989 955.603   1
   2  13 -34 601.528 1039.21   1
   2  14  -1 5597.42 1913.95   1
  -2  14  -1 3671.85 1253.35   1
   2  14  -2 1091.13 671.684   1
  -2  14   2 2393.84 1025.59   1
  -2  14  -2 3288.98 1057.14   1
   2  14  -3-317.362 682.675   1
  -2  14   3 594.636 395.027   1
  -2  14  -3 704.738 606.979   1
   2  14  -4 344.013 361.865   1
  -2  14   4 578.179 423.084   1
  -2  14  -4 600.296 618.254   1
   2  14  -5-141.643 697.133   1
  -2  14   5 423.298 316.472   1
  -2  14  -5-259.418 721.475   1
   2  14  -6 1048.46 734.201   1
  -2  14   6 61.1102 158.038   1
  -2  14  -6 60.3903 759.972   1
  -2 -14  -6 3511.99 2069.45   1
  -2  14   7 2758.45 1128.41   1
   2  14  -7 4546.02 1815.78   1
  -2  14  -7 3328.89 1423.56   1
  -2 -14  -7 4023.27 1650.98   1
   2  14  -8 437.086 674.132   1
  -2  14  -8 727.474 884.526   1
  -2 -14  -8 2248.61 2071.54   1
   2  14  -9 2533.34 1615.15   1
  -2  14  -9 2714.03 1320.89   1
  -2 -14  -9 1940.63 1538.55   1
   2  14 -10-1336.69 894.593   1
  -2  14 -10 974.692 1072.09   1
  -2 -14 -10 477.703 1531.57   1
   2 -14 -10 3107.06 1260.98   1
   2  14 -11 2252.23 1350.14   1
  -2  14 -11-458.547 1142.07   1
  -2 -14 -11 1730.90 1698.93   1
   2  14 -12 1609.18 1049.29   1
  -2  14 -12 2440.23 1820.24   1
  -2 -14 -12 6992.52 3129.70   1
   2  14 -13-932.949 914.178   1
  -2  14 -13 2746.54 1933.17   1
  -2 -14 -13 592.472 1494.25   1
   2  14 -14 699.626 1046.31   1
  -2  14 -14 1022.84 1276.55   1
  -2 -14 -14 9.65471 1593.19   1
   2  14 -15 1346.99 1662.33   1
  -2  14 -15 6687.50 3007.03   1
  -2 -14 -15 8026.49 3416.69   1
   2  14 -16-30.0381 525.912   1
  -2  14 -16 1476.76 1463.92   1
  -2 -14 -16 5014.85 2597.60   1
   2  14 -17 246.273 693.237   1
  -2  14 -17 3987.36 2175.28   1
  -2 -14 -17 1113.62 1746.37   1
   2  14 -18 1547.82 935.164   1
  -2  14 -18 1214.25 1415.28   1
  -2 -14 -18 3723.40 2661.22   1
   2  14 -19 1386.00 1432.25   1
  -2  14 -19 1308.78 1484.55   1
  -2 -14 -19 1126.46 1606.09   1
   2  14 -20 2076.51 1258.30   1
  -2  14 -20 1219.75 1517.14   1
  -2 -14 -20 4023.46 2815.38   1
   2  14 -21-148.134 1066.39   1
  -2  14 -21 5179.85 2261.57   1
  -2 -14 -2110332.70 4474.98   1
   2  14 -22 1858.55 1535.72   1
  -2  14 -22  223.79 1380.19   1
  -2 -14 -22 6877.59 2776.66   1
   2  14 -23 1894.84 1264.39   1
  -2  14 -23 3048.38 2215.45   1
  -2 -14 -23 777.973 1670.82   1
   2  14 -24 1387.52 1199.29   1
  -2  14 -24-581.734 1461.10   1
  -2 -14 -24 2818.06 2997.97   1
   2  14 -25-1391.13 1111.63   1
  -2  14 -25 3417.26 2724.93   1
  -2 -14 -25 2702.98 2127.16   1
   2  14 -26 481.054 1013.80   1
  -2  14 -26 1489.11 1754.46   1
  -2 -14 -26-56.5817 2239.82   1
   2  14 -27 1615.46 1018.72   1
  -2  14 -27-1157.54 1545.38   1
  -2 -14 -27 2005.76 1877.92   1
   2  14 -28 391.827 842.661   1
  -2  14 -28 1992.01 1656.10   1
  -2 -14 -28 6236.93 3354.52   1
   2  14 -29 4042.91 2339.95   1
  -2  14 -29 1868.28 2002.89   1
  -2 -14 -29 452.669 1966.16   1
   2  14 -30 873.857 1030.58   1
  -2  14 -30 380.936 1253.23   1
   2  14 -31-42.8267 1176.36   1
   2  14 -32 712.395 959.588   1
   2  14 -33-475.216 958.121   1
  -2  15   0-339.362 535.715   1
   2  15  -1 2090.53 944.355   1
  -2  15   1 1051.03 810.926   1
  -2  15  -1 2324.23 1182.63   1
   2  15  -2 772.536 672.549   1
  -2  15   2 1674.53  899.80   1
  -2  15  -2 1106.98 585.812   1
   2  15  -3 1733.33 1209.46   1
  -2  15   3  617.49 498.413   1
  -2  15  -3 3410.45 1340.58   1
   2  15  -4  894.06 878.359   1
  -2  15   4 1813.24 1182.22   1
  -2  15  -4 4274.55 1498.29   1
   2  15  -5-207.609 690.796   1
  -2  15   5-87.2768 307.416   1
  -2  15  -5-241.902 743.299   1
  -2  15   6 1038.43 621.381   1
   2  15  -6 560.256 561.615   1
  -2  15  -6 1990.98 1325.64   1
  -2 -15  -6 3748.40 2315.56   1
  -2  15   7 170.043 220.512   1
   2  15  -7-1043.42 722.245   1
  -2  15  -7 1208.24 881.957   1
  -2 -15  -7 2482.44 1613.09   1
   2  15  -8 1268.52 747.957   1
  -2  15  -8 2986.93 1607.96   1
  -2 -15  -8 7242.18 2771.04   1
   2  15  -9 346.627 395.379   1
  -2  15  -9-54.0026 1058.43   1
  -2 -15  -9 1217.34 1544.82   1
   2  15 -10 2816.83 1967.60   1
  -2  15 -10 6378.38 1973.68   1
  -2 -15 -10 3189.94 1871.94   1
   2 -15 -10 4830.86 1376.83   1
   2  15 -11 1251.67 1011.37   1
  -2  15 -11 557.443 1219.18   1
  -2 -15 -11 842.611 1489.30   1
  -2  15 -12 3605.53 1784.36   1
  -2 -15 -12 6929.93 2405.41   1
   2  15 -13-1002.15 933.292   1
  -2  15 -13 1937.53 1365.68   1
  -2 -15 -13 701.357 1561.61   1
   2  15 -14 1298.60 739.646   1
  -2  15 -14 1081.72 1321.17   1
  -2 -15 -14 1592.34 1610.82   1
   2  15 -15 1371.88 1325.49   1
  -2  15 -15 2540.92 1395.64   1
  -2 -15 -15 1739.30 1541.08   1
   2  15 -16 1300.05 833.921   1
  -2  15 -16-988.653 1397.56   1
  -2 -15 -16 2582.18 2937.76   1
   2  15 -17 1391.21 977.712   1
  -2  15 -17 3637.69 2339.56   1
  -2 -15 -17 5478.61 2947.16   1
   2  15 -18 638.216 613.254   1
  -2  15 -18 792.707 1468.27   1
  -2 -15 -18 3369.46 1962.30   1
   2  15 -19 1388.83  775.93   1
  -2  15 -19 179.666 1533.66   1
  -2 -15 -19 3858.14 2861.41   1
   2  15 -20 1532.94 1248.44   1
  -2  15 -20 3968.71 2002.24   1
  -2 -15 -20 1497.14 1761.35   1
   2  15 -21 249.528 975.296   1
  -2  15 -21-105.994 1492.53   1
  -2 -15 -21 312.264 1697.67   1
   2  15 -22-540.132 1140.22   1
  -2  15 -22 4350.79 2835.52   1
  -2 -15 -22 4157.37 2094.87   1
   2  15 -23 233.793  723.63   1
  -2  15 -23 946.064 1444.73   1
  -2 -15 -23 538.388 1641.99   1
   2  15 -24 1550.10 963.418   1
  -2  15 -24 4041.99 3200.61   1
  -2 -15 -24 2744.94 2754.42   1
   2  15 -25 640.419 1073.34   1
  -2  15 -25 2145.30 1447.11   1
  -2 -15 -25 2025.03 2165.21   1
   2  15 -26 1924.00 1383.79   1
  -2  15 -26-1339.11 1331.49   1
  -2 -15 -26 5682.35 3038.37   1
   2  15 -27-180.602 841.102   1
  -2  15 -27-1210.70 1460.99   1
  -2 -15 -27 3819.95 2372.60   1
   2  15 -28 3574.65 2151.42   1
  -2  15 -28-476.541 1401.12   1
  -2 -15 -28 293.155 2199.56   1
   2  15 -29 2206.90 1448.41   1
  -2  15 -29 3118.72 2178.16   1
   2  15 -30-40.0323 867.477   1
  -2  15 -30 3050.26 1774.71   1
   2  15 -31 74.9547 859.342   1
   2  15 -32-847.495 966.593   1
  -2  16   0 2034.75 1022.04   1
   2  16  -1 424.627  655.76   1
  -2  16   1 19.6676 542.007   1
  -2  16  -1-145.658 563.687   1
   2  16  -2-196.798 628.539   1
  -2  16   2-451.843 429.307   1
  -2  16  -2-876.536 614.887   1
   2  16  -3-514.383 668.951   1
  -2  16   3 210.144 589.879   1
  -2  16  -3-160.301 665.895   1
   2  16  -4 498.672 439.563   1
  -2  16   4 -23.629 379.016   1
  -2  16  -4 1881.32 1017.43   1
   2  16  -5 24.7836 331.106   1
  -2  16   5 411.519 355.777   1
  -2  16  -5 1526.07 1121.19   1
  -2  16   6-429.548  260.54   1
   2  16  -6-143.117 674.921   1
  -2  16  -6 3348.00 1921.94   1
  -2 -16  -6 1118.81 1555.29   1
  -2  16   7 371.764 390.085   1
   2  16  -7 777.776 680.626   1
  -2  16  -7 921.652 923.962   1
  -2 -16  -7 674.191 1481.87   1
   2  16  -8 337.899 572.919   1
  -2  16  -8 3700.74 1781.18   1
  -2 -16  -8 3281.99 1820.65   1
   2  16  -9 2053.82 1008.71   1
  -2  16  -9 1890.22 1529.89   1
  -2 -16  -9 1506.50 1583.55   1
   2  16 -10 1646.95 1059.04   1
  -2  16 -10 710.461 1196.11   1
  -2 -16 -10 -141.88 1422.57   1
   2  16 -11-32.2378 962.318   1
  -2  16 -11 3774.53 2045.12   1
  -2 -16 -11 -262.85 1343.47   1
   2  16 -12 994.928 818.938   1
  -2  16 -12 314.133 1244.59   1
  -2 -16 -12 1868.41 1612.75   1
   2  16 -13-1262.95 976.363   1
  -2  16 -13 2619.18 2692.06   1
  -2 -16 -13 283.339 1419.97   1
   2  16 -14 650.724 781.893   1
  -2  16 -14 710.121 1386.51   1
  -2 -16 -14 405.416 1508.64   1
   2  16 -15 970.426 680.655   1
  -2  16 -15 4988.93 2829.97   1
  -2 -16 -15 1150.85 1513.15   1
   2  16 -16 3040.49 1834.04   1
  -2  16 -16-2754.42 1361.35   1
  -2 -16 -16 1520.12 1651.77   1
   2  16 -17-256.368 1041.57   1
  -2  16 -17 4073.83 2454.94   1
  -2 -16 -17-724.099 1611.66   1
   2  16 -18-212.679 1127.15   1
  -2  16 -18 1756.68 2140.03   1
  -2 -16 -18-1088.35 1711.63   1
   2  16 -19 94.6357 558.663   1
  -2  16 -19 1946.97 1660.52   1
  -2 -16 -19 2103.66 1742.68   1
   2  16 -20 1007.20 1218.00   1
  -2  16 -20 942.679 1471.78   1
  -2 -16 -20 2603.10 1830.36   1
   2  16 -21  402.76 1113.52   1
  -2  16 -21 -353.99 1375.50   1
  -2 -16 -21-1108.44 1706.25   1
   2  16 -22 1223.13 1098.97   1
  -2  16 -22 3928.42 2702.20   1
  -2 -16 -22 834.994 1679.68   1
   2  16 -23 1152.35 971.977   1
  -2  16 -23  955.96 1445.09   1
  -2 -16 -23 495.373 1629.50   1
   2  16 -24  520.53  822.01   1
  -2  16 -24 2759.12 1882.44   1
  -2 -16 -24 2541.43 2370.57   1
   2  16 -25-152.979 667.116   1
  -2  16 -25-505.817 1134.46   1
  -2 -16 -25-1282.54 1680.17   1
   2  16 -26 2079.73 1708.69   1
  -2  16 -26 5669.37 3100.41   1
  -2 -16 -26 4478.50 3083.29   1
   2  16 -27 1597.17 1301.31   1
  -2  16 -27 5959.25 4228.93   1
  -2 -16 -27-1258.17 2245.89   1
   2  16 -28 1413.38 1188.70   1
  -2  16 -28 389.081 1503.17   1
   2  16 -29 841.963 725.115   1
  -2  16 -29 630.153 1560.56   1
   2  16 -30 1413.80 1272.81   1
   2  16 -31 968.202 1038.47   1
  -2  17   0 592.647 607.189   1
   2  17  -1 1540.40 909.548   1
  -2  17   1 307.668 382.821   1
  -2  17  -1 950.812  962.83   1
   2  17  -2 581.098 696.577   1
  -2  17   2 563.968 387.157   1
  -2  17  -2-34.4338 625.121   1
   2  17  -3-255.107 663.973   1
  -2  17   3 630.053 542.216   1
  -2  17  -3 718.343 753.355   1
   2  17  -4 4069.37 1581.84   1
  -2  17   4 2282.86 1415.12   1
  -2  17  -4 4444.86 1498.32   1
   2  17  -5-304.081 595.294   1
  -2  17   5 40.3091  357.86   1
  -2  17  -5 809.497 890.204   1
  -2  17   6 1242.14 686.771   1
   2  17  -6 342.731 567.676   1
  -2  17  -6 491.221 1183.86   1
  -2 -17  -6 2563.11 2092.95   1
  -2  17   7  24.036 289.486   1
   2  17  -7 -637.56 711.348   1
  -2  17  -7 1566.23 1150.66   1
  -2 -17  -7  444.85 1338.13   1
   2  17  -8 114.927 409.817   1
  -2  17  -8 1442.12 1106.51   1
  -2 -17  -8 1672.66 1577.25   1
   2  17  -9 567.371 644.923   1
  -2  17  -9 395.996 1074.22   1
  -2 -17  -9 969.664 1453.16   1
   2  17 -10 1106.80  810.72   1
  -2  17 -10 3590.94 2020.02   1
  -2 -17 -10 5754.61 2712.42   1
   2  17 -11 166.193 689.186   1
  -2  17 -11 1804.21 1780.82   1
  -2 -17 -11-310.644 1377.32   1
   2  17 -12 350.869 738.815   1
  -2  17 -12 2391.75 1319.77   1
  -2 -17 -12 341.018 1506.32   1
   2  17 -13 743.573 1004.38   1
  -2  17 -13 1804.05 1428.27   1
  -2 -17 -13-606.026 1377.54   1
   2  17 -14 730.173 938.093   1
  -2  17 -14 3130.38 1610.79   1
  -2 -17 -14 1755.98 2210.99   1
   2  17 -15  20.648 775.861   1
  -2  17 -15 1127.57 1454.67   1
  -2 -17 -15-459.039 1447.22   1
   2  17 -16 1610.75 1136.61   1
  -2  17 -16 3369.16 2348.23   1
  -2 -17 -16 7310.45 3452.39   1
   2  17 -17 445.681 890.485   1
  -2  17 -17 1716.26 1567.09   1
  -2 -17 -17 2566.88 1755.48   1
   2  17 -18 1435.33 1102.74   1
  -2  17 -18 31.9449 1459.06   1
  -2 -17 -18 741.674 1657.71   1
   2  17 -19 63.9277 872.392   1
  -2  17 -19 2649.83 1730.37   1
  -2 -17 -19 1305.42 1733.28   1
   2  17 -20 658.348 1473.78   1
  -2  17 -20 2793.68 1620.16   1
  -2 -17 -20 1363.68 1761.10   1
   2  17 -21 849.281 825.932   1
  -2  17 -21 383.092 1364.92   1
  -2 -17 -21 889.222 1653.41   1
   2  17 -22-2396.37 1149.58   1
  -2  17 -22 4235.84 2749.51   1
  -2 -17 -22 2958.75 2206.54   1
   2  17 -23 272.173 1114.94   1
  -2  17 -23 3823.55 2601.41   1
  -2 -17 -23 4091.69 2600.39   1
   2  17 -24 599.724 1084.23   1
  -2  17 -24 1026.06 1311.94   1
  -2 -17 -24 6107.88 5166.92   1
   2  17 -25 388.452 726.079   1
  -2  17 -25 1205.69 1248.17   1
  -2 -17 -25 3670.23 2274.17   1
   2  17 -26 526.803 1256.90   1
  -2  17 -26 3234.89 2200.78   1
  -2 -17 -26 2296.18 3205.16   1
   2  17 -27 721.066 1309.35   1
  -2  17 -27 4965.82 1835.04   1
   2  17 -28  390.24 1033.91   1
  -2  17 -28 1296.93 1524.35   1
   2  17 -29 744.153 747.579   1
   2  17 -30 339.571 671.916   1
  -2  18   0-213.478 304.259   1
   2  18  -1-194.171 629.146   1
  -2  18   1 260.013 372.155   1
  -2  18  -1  404.02 634.186   1
   2  18  -2 2783.40 1279.47   1
  -2  18   2 312.912 444.769   1
  -2  18  -2 1844.45 1365.80   1
   2  18  -3 1100.39 857.529   1
  -2  18   3 456.179 495.217   1
  -2  18  -3 1927.44 1131.28   1
   2  18  -4 1075.18 1011.64   1
  -2  18   4 296.409 569.521   1
  -2  18  -4 1810.07 1242.90   1
   2  18  -5-581.323 677.047   1
  -2  18   5 246.399  172.51   1
  -2  18  -5 75.6582 765.293   1
   2  18  -6-1831.44 678.601   1
  -2  18   6-3.75833 235.281   1
  -2  18  -6 78.0416 779.377   1
  -2  18   7 1354.20 764.775   1
   2  18  -7-521.293 771.101   1
  -2  18  -7 2577.03 1417.36   1
  -2 -18  -7 716.831 1457.51   1
   2  18  -8 809.923 850.519   1
  -2  18  -8 2166.79 1001.55   1
  -2 -18  -8-936.515 1420.84   1
   2  18  -9 -711.09 743.405   1
  -2  18  -9 1519.06 1829.38   1
  -2 -18  -9-1048.85 1388.19   1
   2  18 -10-288.319 720.984   1
  -2  18 -10 2729.24 2524.29   1
  -2 -18 -10-1446.47 1406.35   1
   2  18 -11-1448.87 903.909   1
  -2  18 -11 2432.96 1150.12   1
  -2 -18 -11 3795.77 1831.65   1
   2  18 -12-733.082 1000.84   1
  -2  18 -12-20.0933 1158.81   1
  -2 -18 -12 1031.39 1475.56   1
   2  18 -13-10.3333 1201.76   1
  -2  18 -13 1022.40 1190.28   1
  -2 -18 -13 2147.63 1626.79   1
   2  18 -14-542.639 1095.50   1
  -2  18 -14 682.308 1189.50   1
  -2 -18 -14 572.538 1473.08   1
   2  18 -15 1122.10 980.002   1
  -2  18 -15 3304.44 2285.11   1
  -2 -18 -15-764.398 1374.54   1
   2  18 -16 962.935 1128.92   1
  -2  18 -16 516.631 1221.93   1
  -2 -18 -16 3972.34 2016.77   1
   2  18 -17 1215.99 1122.70   1
  -2  18 -17 2988.18 1597.31   1
  -2 -18 -17 3513.10 1979.52   1
   2  18 -18 176.868 1524.46   1
  -2  18 -18-271.481 1218.44   1
  -2 -18 -18 4721.76 2733.18   1
   2  18 -19 1224.95 865.676   1
  -2  18 -19-9.48633 1272.20   1
  -2 -18 -19 1248.65 1774.13   1
   2  18 -20 837.824 974.407   1
  -2  18 -20-1973.92 1315.15   1
  -2 -18 -20 6138.74 3183.65   1
   2  18 -21 1527.71 1663.58   1
  -2  18 -21 2249.90 2102.45   1
  -2 -18 -21 4738.14 2840.49   1
   2  18 -22 1383.67 1025.42   1
  -2  18 -22 1964.44 1984.55   1
  -2 -18 -22-2656.29 1623.10   1
   2  18 -23 952.483 893.182   1
  -2  18 -23  557.83 1220.04   1
  -2 -18 -23 1331.56 1809.49   1
   2  18 -24-504.442 955.538   1
  -2  18 -24 1814.29 1440.62   1
  -2 -18 -24 2633.37 2223.13   1
   2  18 -25 2060.52 1497.19   1
  -2  18 -25 2961.63 1936.15   1
  -2 -18 -25-2392.46 2068.90   1
   2  18 -26-609.658 1085.72   1
  -2  18 -26 1032.30 1350.90   1
   2  18 -27 2050.54 1584.02   1
  -2  18 -27 2748.08 1648.77   1
   2  18 -28 278.469 1089.90   1
   2  18 -29 1477.96 1052.70   1
  -2  19   0-772.894 509.272   1
   2  19  -1 2475.85 1357.20   1
  -2  19   1-13.1447 221.078   1
  -2  19  -1-152.117 539.939   1
   2  19  -2 471.004 1038.09   1
  -2  19   2 151.679 242.448   1
  -2  19  -2-496.971 557.095   1
   2  19  -3  195.28 672.007   1
  -2  19   3 557.513 589.063   1
  -2  19  -3 283.134 656.327   1
   2  19  -4 1142.83 989.696   1
  -2  19   4 1593.87 920.376   1
   2  19  -5 583.993 677.831   1
  -2  19   5 54.2494 191.548   1
  -2  19  -5  547.30 760.054   1
  -2  19   6 839.475 652.512   1
   2  19  -6 775.227 459.501   1
  -2  19  -6 2283.27 1172.62   1
  -2  19   7 1399.79 783.899   1
   2  19  -7 1117.48 828.635   1
  -2  19  -7 555.589 839.262   1
  -2 -19  -7 191.253 1407.06   1
   2  19  -8 916.644 561.491   1
  -2  19  -8 1551.78 1364.53   1
  -2 -19  -8-40.5524 1423.23   1
   2  19  -9 372.453 575.546   1
  -2  19  -9 1117.45 944.573   1
  -2 -19  -9 981.576 1997.37   1
   2  19 -10-449.965 824.804   1
  -2  19 -10 5232.88 2285.41   1
  -2 -19 -10 5592.31 2663.40   1
   2  19 -11 1223.30 793.579   1
  -2  19 -11 1570.01 1423.88   1
  -2 -19 -11 2165.88 1607.15   1
   2  19 -12 812.459 918.124   1
  -2  19 -12 1292.12 1440.54   1
  -2 -19 -12 733.363 1454.93   1
   2  19 -13  873.98 781.469   1
  -2  19 -13 9.41895 958.779   1
  -2 -19 -13 1607.12 1488.42   1
   2  19 -14 474.951 1061.13   1
  -2  19 -14 -727.86 1036.88   1
  -2 -19 -14 5408.27 2679.27   1
   2  19 -15 579.603 1202.67   1
  -2  19 -15-651.453 1003.06   1
  -2 -19 -15-2161.52 1407.72   1
   2  19 -16  822.51 851.432   1
  -2  19 -16 3904.43 1935.41   1
  -2 -19 -16 2515.45 1706.70   1
   2  19 -17 1845.90 992.527   1
  -2  19 -17 715.133 1041.67   1
  -2 -19 -17 2335.31 2228.97   1
   2  19 -18 -804.77 1272.31   1
  -2  19 -18 687.872 1120.96   1
  -2 -19 -18 2025.54 1615.61   1
   2  19 -19 399.979 1071.29   1
  -2  19 -19 1247.38 1712.38   1
  -2 -19 -19 5244.44 3048.20   1
   2  19 -20 775.456 854.491   1
  -2  19 -20 3299.38 2732.65   1
  -2 -19 -20 766.753 1452.66   1
   2  19 -21 901.749  954.87   1
  -2  19 -21 1803.05 1456.48   1
  -2 -19 -21 3422.61 1976.25   1
   2  19 -22 1406.33 1431.86   1
  -2  19 -22 3109.22 2943.13   1
  -2 -19 -22 1565.66 1798.95   1
   2  19 -23-794.952 1005.58   1
  -2  19 -23 1228.74 1428.70   1
  -2 -19 -23 3822.04 2358.84   1
   2  19 -24 164.289 730.625   1
  -2  19 -24 5049.81 2996.08   1
  -2 -19 -24-2849.25 1998.13   1
   2  19 -25 1758.46 1316.40   1
  -2  19 -25 67.0865 1376.68   1
   2  19 -26 2321.79 1460.55   1
  -2  19 -26-1178.67 1277.73   1
   2  19 -27 -294.16 1082.81   1
  -2  20   0 6211.87 2741.72   1
   2  20  -1 669.602 791.198   1
  -2  20   1 778.642 644.276   1
  -2  20  -1 993.074 711.338   1
   2  20  -2-167.307  787.91   1
  -2  20   2-61.8682 403.045   1
  -2  20  -2-8.98635 522.487   1
   2  20  -3 1020.51 1136.92   1
  -2  20   3 -122.83 438.127   1
  -2  20  -3-662.334 557.461   1
   2  20  -4 786.851 683.438   1
  -2  20   4-70.4634 285.994   1
   2  20  -5 989.726 655.429   1
  -2  20   5 294.702 409.438   1
  -2  20  -5-103.329 635.859   1
  -2  20   6 307.327 582.578   1
   2  20  -6 1852.62 1198.90   1
  -2  20  -6 1002.70 940.588   1
   2  20  -7 852.192 631.574   1
  -2  20  -7 283.606 808.368   1
  -2 -20  -7-48.6757 1395.65   1
   2  20  -8 -153.79 592.412   1
  -2  20  -8-406.125 816.156   1
  -2 -20  -8 1133.15 1513.49   1
   2  20  -9 404.969 788.967   1
  -2  20  -9-612.788 734.147   1
  -2 -20  -9-16.4902 1335.77   1
   2  20 -10 1559.46 789.967   1
  -2  20 -10-33.7988 820.867   1
  -2 -20 -10 4441.55 2528.58   1
   2  20 -11-963.012 874.493   1
  -2  20 -11 1922.50 1107.79   1
  -2 -20 -11 -193.62 1334.16   1
   2  20 -12 934.853  684.09   1
  -2  20 -12 163.658 1141.72   1
  -2 -20 -12-784.517 1359.05   1
   2  20 -13 1085.60 1413.04   1
  -2  20 -13 1034.93 974.872   1
  -2 -20 -13-691.438 1362.51   1
   2  20 -14 1256.22 1458.72   1
  -2  20 -14 689.486 911.706   1
  -2 -20 -14 1832.92 1418.91   1
   2  20 -15 2100.45 1158.31   1
  -2  20 -15 2861.31 1928.43   1
  -2 -20 -15 4488.56 2457.47   1
   2  20 -16-843.143 1347.16   1
  -2  20 -16 2224.41 1144.97   1
  -2 -20 -16 3816.29 2277.00   1
   2  20 -17-1354.76 1335.22   1
  -2  20 -17 1097.48 1124.11   1
  -2 -20 -17 4556.72 2265.66   1
   2  20 -18 87.5607 1443.96   1
  -2  20 -18 1307.11 1711.93   1
  -2 -20 -18 620.896 1343.45   1
   2  20 -19 807.669 1007.71   1
  -2  20 -19 324.492 1202.30   1
  -2 -20 -19-224.918 1480.21   1
   2  20 -20 892.273 1074.70   1
  -2  20 -20 417.094 1220.48   1
  -2 -20 -20 3906.40 2417.49   1
   2  20 -21-135.244 654.939   1
  -2  20 -21 1725.68 1965.83   1
  -2 -20 -21-1669.66 1757.29   1
   2  20 -22 1754.85 1602.73   1
  -2  20 -22 1441.93 1445.20   1
  -2 -20 -22 790.938 2138.89   1
   2  20 -23 252.413 1032.93   1
  -2  20 -23 1211.74 1836.78   1
   2  20 -24 1491.21 1273.50   1
  -2  20 -24 334.346 1337.06   1
   2  20 -25 211.491 916.738   1
  -2  20 -25-623.592 1409.85   1
  -2  21   0 468.227 310.656   1
   2  21  -1 1022.52 962.033   1
  -2  21   1-385.782 501.538   1
  -2  21  -1 1151.89 722.236   1
   2  21  -2 1033.56 1249.34   1
  -2  21   2 837.458 774.126   1
  -2  21  -2-81.5368 379.554   1
   2  21  -3 1004.61 1217.83   1
  -2  21   3 192.024 365.582   1
  -2  21  -3-37.6006 602.147   1
   2  21  -4  322.28 546.579   1
  -2  21   4-251.714 348.247   1
  -2  21  -4 1829.83 855.242   1
   2  21  -5 192.161 820.716   1
  -2  21  -5 2068.62 1301.73   1
   2  21  -6-903.716 894.184   1
  -2  21  -6 1258.27 1099.07   1
   2  21  -7 1252.44  957.73   1
  -2  21  -7 1213.88 875.498   1
  -2 -21  -7 3274.71 2452.21   1
   2  21  -8 1483.88 1136.01   1
  -2  21  -8-429.296 677.228   1
  -2 -21  -8-1213.54 1419.99   1
   2  21  -9-30.2041 945.448   1
  -2  21  -9 2692.97 1540.55   1
  -2 -21  -9-349.823 1377.76   1
   2  21 -10 2565.39 1503.80   1
  -2  21 -10 977.185 920.963   1
  -2 -21 -10-95.6691 1322.06   1
   2  21 -11 837.321 774.161   1
  -2  21 -11 15.2727 791.271   1
  -2 -21 -11 1534.32 1425.36   1
   2  21 -12 771.185 746.018   1
  -2  21 -12 280.671  741.84   1
  -2 -21 -12 356.643 1246.94   1
   2  21 -13 483.116  740.89   1
  -2  21 -13 125.888 852.319   1
  -2 -21 -13 915.564 1392.35   1
   2  21 -14 1523.98 1186.37   1
  -2  21 -14 2447.41 1450.66   1
  -2 -21 -14-71.8666 1294.80   1
   2  21 -15 515.034 976.965   1
  -2  21 -15-508.837 893.316   1
  -2 -21 -15 3799.19 2218.76   1
   2  21 -16 1175.27 1128.96   1
  -2  21 -16 2831.69 1735.21   1
  -2 -21 -16 2866.26 2271.90   1
   2  21 -17 907.937 1462.37   1
  -2  21 -17 1112.16 1230.83   1
  -2 -21 -17 1590.73 1476.63   1
   2  21 -18 1545.83 1538.74   1
  -2  21 -18 1412.17 1239.19   1
  -2 -21 -18 -679.55 1431.12   1
   2  21 -19-1753.11 1352.70   1
  -2  21 -19 1388.63 1872.61   1
  -2 -21 -19 2537.55 1749.79   1
   2  21 -20 2146.61 1413.76   1
  -2  21 -20 2284.67 1430.90   1
  -2 -21 -20 1547.59 1892.02   1
   2  21 -21 1208.03 1361.89   1
  -2  21 -21 1802.87 1367.17   1
  -2 -21 -21-96.6647 1999.38   1
   2  21 -22 3342.37 2536.33   1
  -2  21 -22 749.366 1257.54   1
   2  21 -23  495.25 779.791   1
  -2  21 -23 912.279 1243.11   1
   2  21 -24-1196.51 1297.96   1
  -2  21 -24-412.012 1288.63   1
  -2  22   0 1352.59 815.222   1
  -2  22   1-500.275 487.052   1
  -2  22  -1 518.482 731.894   1
   2  22  -2-480.507 832.075   1
  -2  22   2-197.556 395.459   1
  -2  22  -2-321.244 635.147   1
   2  22  -3-1000.47 832.273   1
  -2  22   3  711.86 804.836   1
  -2  22  -3 862.823 719.844   1
   2  22  -4 991.139  943.03   1
  -2  22   4-444.215  330.49   1
  -2  22  -4 1865.92 1096.42   1
   2  22  -5 1343.37 1231.41   1
  -2  22  -5  647.85 1045.40   1
   2  22  -6 231.704 661.617   1
  -2  22  -6 405.377 817.353   1
   2  22  -7-27.3802 576.025   1
  -2  22  -7-805.206 759.225   1
  -2 -22  -7-260.935 1495.39   1
   2  22  -8 292.529 1263.78   1
  -2  22  -8-817.942 787.962   1
  -2 -22  -8 4793.24 2135.24   1
  -2  22  -9 143.978 811.983   1
  -2 -22  -9 7413.04 3060.24   1
   2  22 -10-792.521 948.449   1
  -2  22 -10 65.8339 816.356   1
  -2 -22 -10 1038.74 1387.58   1
   2  22 -11-83.7567 1148.92   1
  -2  22 -11 1569.85 1303.17   1
  -2 -22 -11 2861.76 1997.46   1
   2  22 -12 1075.59 685.244   1
  -2  22 -12 1169.85 960.646   1
  -2 -22 -12 2025.09 1417.44   1
   2  22 -13 863.097 821.548   1
  -2  22 -13 4206.89 2058.32   1
  -2 -22 -13 1389.75 1324.18   1
   2  22 -14 459.596 637.281   1
  -2  22 -14 423.035 976.513   1
  -2 -22 -14 1494.36 1873.85   1
   2  22 -15-334.615 872.406   1
  -2  22 -15 1206.96 1484.19   1
  -2 -22 -15 -982.24 1224.56   1
   2  22 -16 3486.67 1892.00   1
  -2  22 -16-303.996 990.347   1
  -2 -22 -16 1014.38 1373.08   1
   2  22 -17 1996.35 1528.47   1
  -2  22 -17 985.334 1077.32   1
  -2 -22 -17 2818.24 2210.85   1
   2  22 -18-274.356 1340.87   1
  -2  22 -18 1974.69 1253.36   1
  -2 -22 -18 947.253 1669.42   1
   2  22 -19-63.7829 1291.17   1
  -2  22 -19 1650.25 1428.67   1
  -2 -22 -19 5066.93 2449.83   1
   2  22 -20-597.592 1106.48   1
  -2  22 -20-315.336  846.71   1
  -2 -22 -20 1629.41 2072.59   1
   2  22 -21 1367.85 1642.35   1
  -2  22 -21 1381.84 1120.23   1
   2  22 -22 1301.50 693.827   1
  -2  22 -22-998.124 1055.95   1
   2  22 -23 856.091 909.197   1
  -2  22 -23 1018.52 1226.11   1
  -2  23   0  526.08 655.463   1
  -2  23   1-123.787 538.065   1
  -2  23  -1-498.918 636.248   1
   2  23  -2-160.593 726.925   1
  -2  23   2 530.189 420.521   1
  -2  23  -2 485.041 482.193   1
   2  23  -3 1832.01 1269.35   1
  -2  23  -3 43.9142  489.57   1
   2  23  -4 384.794 796.751   1
  -2  23  -4 746.469 714.661   1
   2  23  -5-373.834 788.733   1
  -2  23  -5 498.149 793.844   1
   2  23  -6 281.771 514.927   1
  -2  23  -6 464.766  977.70   1
   2  23  -7-455.054 848.616   1
  -2  23  -7 3239.82 1720.46   1
  -2 -23  -7-1150.47 1645.31   1
   2  23  -8 538.335 483.812   1
  -2  23  -8 165.923 937.234   1
  -2 -23  -8 1327.47 1610.75   1
   2  23  -9 420.039 1007.49   1
  -2  23  -9 723.151 1003.33   1
  -2 -23  -9 48.8584 1479.10   1
   2  23 -10 -342.46 884.538   1
  -2  23 -10-138.932 965.486   1
  -2 -23 -10 5113.44 2654.88   1
   2  23 -11-72.8459 929.658   1
  -2  23 -11  408.36 961.128   1
  -2 -23 -11 236.277 1419.72   1
   2  23 -12  358.84  698.27   1
  -2  23 -12 746.861 1020.28   1
  -2 -23 -12 98.1854 1313.90   1
  -2  23 -13 2270.31 1787.46   1
  -2 -23 -13 444.904 1384.65   1
   2  23 -14 1279.28 1132.48   1
  -2  23 -14-743.408 948.234   1
  -2 -23 -14 280.031 1297.40   1
   2  23 -15 2211.07 1675.50   1
  -2  23 -15 719.923 1283.65   1
  -2 -23 -15 777.406 1463.80   1
   2  23 -16 521.749 782.677   1
  -2  23 -16-356.213  926.38   1
  -2 -23 -16 1212.81 1543.59   1
   2  23 -17 96.8094 996.217   1
  -2  23 -17 559.699 967.649   1
  -2 -23 -17 2574.35 2412.96   1
   2  23 -18-1998.57 1132.33   1
  -2  23 -18 2030.68 1357.11   1
  -2 -23 -18 260.772 1701.87   1
   2  23 -19 284.959 797.805   1
  -2  23 -19 521.846 1063.29   1
  -2 -23 -19-502.653 1733.25   1
   2  23 -20-852.994 1049.06   1
  -2  23 -20 423.223 1023.79   1
   2  23 -21 519.407 859.099   1
  -2  23 -21 3553.13 1993.38   1
  -2  24   0-203.492 740.335   1
  -2  24   1 976.691 655.169   1
  -2  24  -1-440.127 683.298   1
   2  24  -2  189.70 664.897   1
  -2  24  -2 310.193 754.037   1
   2  24  -3 1332.99 1097.13   1
  -2  24  -3 579.256  492.00   1
   2  24  -4-738.568 692.964   1
  -2  24  -4-140.734 707.055   1
   2  24  -5-71.8387 717.664   1
  -2  24  -5 1093.17 795.435   1
   2  24  -6 636.653 620.896   1
  -2  24  -6-75.6026 472.002   1
   2  24  -7-49.8512 775.127   1
  -2  24  -7-10.3426  764.11   1
  -2 -24  -7 298.634 1783.74   1
   2  24  -8 794.512 817.527   1
  -2  24  -8 916.541  957.61   1
  -2 -24  -8-1270.06 1688.54   1
   2  24  -9  706.96 666.645   1
  -2  24  -9 4785.23 2836.00   1
  -2 -24  -9 3368.89 2845.59   1
   2  24 -10-150.985 775.333   1
  -2  24 -10 809.054 1018.53   1
  -2 -24 -10-1306.68 1630.41   1
   2  24 -11-242.469 803.372   1
  -2  24 -11 525.952 892.897   1
  -2 -24 -11-189.713 1405.74   1
   2  24 -12-531.253 788.005   1
  -2  24 -12 1656.53 1082.91   1
  -2 -24 -12 1974.62 2190.30   1
   2  24 -13 1605.54 1093.24   1
  -2  24 -13-189.424 901.061   1
  -2 -24 -13 2689.35 1716.10   1
   2  24 -14 930.683 705.249   1
  -2  24 -14 1526.73 1182.44   1
  -2 -24 -14  153.32 1498.76   1
   2  24 -15 1799.93 1461.65   1
  -2  24 -15 191.045 1035.32   1
  -2 -24 -15 3887.45 2424.08   1
   2  24 -16 -777.87 1050.23   1
  -2  24 -16 1975.27 1448.75   1
  -2 -24 -16 974.971 1571.66   1
   2  24 -17-143.555 1090.68   1
  -2  24 -17 968.409 1337.05   1
  -2 -24 -17 924.423 1623.47   1
   2  24 -18 939.005 1162.79   1
  -2  24 -18 1076.40 1071.26   1
  -2 -24 -18 2230.10 2552.77   1
   2  24 -19 1471.92 1490.78   1
  -2  24 -19 141.026 1014.34   1
  -2  24 -20 1689.05 1613.31   1
  -2  25   0 687.645 745.933   1
  -2  25  -1-349.656  565.48   1
  -2  25  -2 -198.01 686.661   1
   2  25  -3-160.846 945.877   1
  -2  25  -3 983.812 798.158   1
   2  25  -4 416.531 783.373   1
  -2  25  -4  454.30 550.759   1
   2  25  -5-462.759 714.753   1
  -2  25  -5 1141.81 927.618   1
   2  25  -6 670.926 904.563   1
  -2  25  -6-807.588 771.286   1
   2  25  -7 109.901 634.783   1
  -2  25  -7 223.451 465.192   1
  -2 -25  -7 3687.09 2094.51   1
   2  25  -8 222.335 292.045   1
  -2  25  -8 1107.17 948.644   1
  -2 -25  -8 1759.88 1911.63   1
   2  25  -9 3229.03 1562.54   1
  -2  25  -9 2624.92 1607.50   1
  -2 -25  -9 23.1755 1602.69   1
   2  25 -10 1165.11 1067.16   1
  -2  25 -10-312.313 847.401   1
  -2 -25 -10 497.334 1578.11   1
   2  25 -11  823.33 840.902   1
  -2  25 -11 572.904 1035.43   1
  -2 -25 -11 510.879 1493.63   1
   2  25 -12 1963.62 1069.36   1
  -2 -25 -12 2198.49 1599.56   1
   2  25 -13 1772.34 1249.62   1
  -2  25 -13 864.537 1145.53   1
  -2 -25 -13  416.08 1388.38   1
   2  25 -14-640.507 931.263   1
  -2  25 -14-366.328 955.054   1
  -2 -25 -14 118.712 1342.76   1
   2  25 -15 1142.45 839.428   1
  -2  25 -15 241.508 901.483   1
  -2 -25 -15 1574.20 1531.00   1
   2  25 -16 1608.56 1414.06   1
  -2  25 -16 954.872 983.054   1
  -2 -25 -16-2870.56 1517.05   1
   2  25 -17 349.119 1157.24   1
  -2  25 -17 82.3088 951.723   1
  -2  25 -18 2299.25 1691.22   1
  -2  25 -19 4091.89 2153.10   1
  -2  26  -2 869.292 739.425   1
   2  26  -3-280.201 648.988   1
  -2  26  -3 214.624 448.311   1
   2  26  -4 957.187 688.788   1
  -2  26  -4 291.922 515.901   1
   2  26  -5-188.185 699.368   1
  -2  26  -5-674.576 800.344   1
   2  26  -6-904.941 758.996   1
  -2  26  -6 151.587 630.234   1
  -2 -26  -6-262.905 1726.08   1
   2  26  -7-440.035 818.603   1
  -2  26  -7 570.354 956.867   1
  -2 -26  -7 4328.21 2591.43   1
   2  26  -8 1612.91 1111.21   1
  -2  26  -8 1035.06 626.492   1
  -2 -26  -8-983.035 1506.39   1
   2  26  -9 1392.20 1301.73   1
  -2  26  -9 622.141 863.319   1
  -2 -26  -9 -785.96 1500.68   1
   2  26 -10-1009.64 958.582   1
  -2  26 -10 2350.65 1683.98   1
  -2 -26 -10-2477.45 1312.44   1
   2  26 -11 702.829  999.41   1
  -2  26 -11 2441.90 1866.48   1
  -2 -26 -11 1258.20 1454.34   1
   2  26 -12-386.813 747.325   1
  -2  26 -12-1181.80 816.786   1
  -2 -26 -12 767.928 1525.83   1
   2  26 -13 303.491  504.03   1
  -2  26 -13 2704.25 1492.13   1
  -2 -26 -13 2222.10 1776.82   1
   2  26 -14-21.0274 678.414   1
  -2  26 -14 905.256 843.231   1
  -2 -26 -14 3401.53 1976.08   1
   2  26 -15-215.648 854.038   1
  -2  26 -15-291.869 842.902   1
  -2 -26 -15 445.785 1600.30   1
  -2  26 -16 1680.30 1529.69   1
  -2  26 -17 23.8124 891.581   1
  -2  27  -3-440.901 735.857   1
   2  27  -4 559.222 950.633   1
  -2  27  -4 1190.35 1293.16   1
   2  27  -5-444.635 590.059   1
  -2  27  -5 2382.99 1594.09   1
   2  27  -6 1195.50 828.078   1
  -2  27  -6 874.762 833.888   1
  -2 -27  -6 135.262 1571.82   1
   2  27  -7 663.517 695.299   1
  -2  27  -7 875.166 995.346   1
  -2 -27  -7 84.6283 1551.43   1
   2  27  -8-572.972 678.539   1
  -2  27  -8 668.847 779.669   1
  -2 -27  -8 3973.80 2074.80   1
   2  27  -9 446.284 382.673   1
  -2  27  -9 1294.86 1127.91   1
  -2 -27  -9 654.746 1587.51   1
   2  27 -10 88.1244  729.56   1
  -2  27 -10 1790.69 1254.47   1
  -2 -27 -10 2475.03 1805.69   1
   2  27 -11 934.961 1227.29   1
  -2  27 -11 601.354 702.616   1
  -2 -27 -11 1891.38 1825.65   1
   2  27 -12-86.4173  861.56   1
  -2  27 -12 1212.78 1011.07   1
  -2 -27 -12 252.425 1610.02   1
   2  27 -13 740.772 1350.88   1
  -2  27 -13-927.725 939.728   1
  -2 -27 -13 1987.03 1907.37   1
  -2  27 -14 419.477 1310.21   1
  -2 -27 -14 2111.16 1805.06   1
  -2  27 -15-679.192 862.529   1
  -2  27 -16 572.282 984.257   1
   2  28  -4-347.879 656.587   1
   2  28  -5 1165.90  754.73   1
  -2  28  -5 604.472 1148.71   1
   2  28  -6 644.461 813.007   1
  -2  28  -6-319.572 793.686   1
  -2 -28  -6 1228.02 1892.35   1
   2  28  -7 319.826 634.633   1
  -2  28  -7 953.509 610.928   1
  -2 -28  -7 5559.23 3249.55   1
   2  28  -8-274.673 710.304   1
  -2  28  -8 1317.41  968.09   1
  -2 -28  -8 4687.79 2582.23   1
   2  28  -9 808.051 840.195   1
  -2  28  -9 514.409 562.346   1
  -2 -28  -9 2103.75 1859.55   1
  -2  28 -10  828.37 755.277   1
  -2 -28 -10 4274.73 2977.29   1
  -2  28 -11-773.877 763.617   1
  -2 -28 -11 1422.76 1777.47   1
  -2  28 -12 1314.34 1057.18   1
  -2 -28 -12 3943.54 2094.26   1
  -2  28 -13 938.457 892.801   1
  -2  28 -14-300.355 1210.56   1
   2  29  -5-105.947 625.597   1
   2  29  -6 459.726  679.27   1
  -2  29  -6 1541.90 1193.96   1
  -2 -29  -6-747.755 1693.33   1
  -2  29  -7 313.754 575.135   1
  -2 -29  -7 1225.34 1722.04   1
  -2  29  -8 760.696 891.661   1
  -2 -29  -8 1838.16 2026.14   1
  -2  29  -9 1378.76 1469.57   1
  -2 -29  -9 2799.34 2058.85   1
  -2  29 -10 234.641 964.246   1
  -2 -29 -10 5235.32 2642.55   1
  -2  29 -11 244.641 615.685   1
  -2 -29 -11 1687.11 1847.46   1
  -2  29 -12-468.847 864.489   1
  -2 -30  -5 1148.91 2060.16   1
  -2 -30  -6 4731.14 2722.73   1
  -2 -30  -7 1588.59 2126.92   1
  -2 -30  -8-1557.52 1896.47   1
  -3   0   0 1351.32 1180.62   1
  -3   0  -1 94.3218 1197.38   1
  -3   0   1-525.332 1016.17   1
  -3   0  -211218.60 1841.81   1
  -3   0   217939.90 2346.72   1
  -3   0  -3 1495.53 1996.53   1
  -3   0   3 1478.41 1353.51   1
  -3   0  -4 4715.86 2334.41   1
  -3   0   4 4164.30 1264.47   1
  -3   0  -5 965.488 1565.24   1
  -3   0   5-842.129 872.992   1
  -3   0  -610848.20 2653.98   1
  -3   0   610515.80 1917.12   1
  -3   0  -7 -269.98 1659.56   1
  -3   0   7-420.839 779.055   1
  -3   0  -8 6153.36 1819.76   1
  -3   0  -9 1531.39 1960.17   1
  -3   0 -1044493.90 2922.69   1
  -3   0 -11-857.267 1956.72   1
  -3   0 -1219277.60 3399.31   1
   3   0 -13-253.381 323.789   1
  -3   0 -13  909.74 1783.42   1
   3   0 -14 3123.00 1213.25   1
  -3   0 -14 3933.71 1894.69   1
   3   0 -15 135.949 284.957   1
  -3   0 -15 4317.77 2546.94   1
  -3   0 -1652319.9018379.90   1
   3   0 -17 409.307 498.031   1
  -3   0 -17 2197.16 1744.61   1
  -3   0 -18 4905.80 1811.35   1
   3   0 -19 428.511 555.578   1
  -3   0 -19 2879.46 2418.46   1
   3   0 -20 911.536 591.745   1
  -3   0 -20-635.612 1480.30   1
   3   0 -21-371.789 521.007   1
  -3   0 -21 426.272 1473.67   1
  -3   0 -22 917.211 1521.63   1
  -3   0 -23 3701.68 2409.89   1
  -3   0 -24 2072.84 1724.08   1
  -3   0 -25-1048.91 1608.37   1
  -3   0 -26 1601.03 1614.41   1
  -3   0 -27 4732.19 2644.26   1
  -3   0 -28 383.762 1509.52   1
  -3   0 -29-325.801 1334.91   1
  -3   0 -30 1184.25 1879.82   1
  -3   0 -31 1369.30 1308.10   1
  -3   0 -32 1354.31 1402.09   1
  -3   0 -33 2109.08 1753.16   1
  -3   0 -34 206.557 1334.47   1
  -3   1   0 3055.88 1622.96   1
  -3  -1   0 6333.92 2341.00   1
  -3   1  -1 8094.78 1575.10   1
  -3   1   1 3979.16 1300.67   1
  -3  -1  -1 4224.93 1919.96   1
  -3  -1   1 5550.91 1961.33   1
  -3   1  -2 686.666 1121.00   1
  -3  -1  -2-383.704 1352.33   1
  -3   1   2-435.614 903.946   1
  -3  -1   2  548.58 1459.18   1
  -3   1  -3 5498.64 1773.08   1
  -3  -1  -3 6084.43 2478.66   1
  -3   1   3 1770.45 808.695   1
  -3  -1   3 5023.84 2011.40   1
  -3   1  -413872.60 1841.52   1
  -3  -1  -411703.90 2196.07   1
  -3   1   413685.40 1902.79   1
  -3  -1   411559.70 1942.03   1
  -3   1  -517883.40 2613.34   1
  -3  -1  -515526.60 2993.21   1
  -3   1   513799.40 1701.53   1
  -3  -1   516712.00 1877.61   1
  -3   1  -6 1168.75 1441.24   1
  -3  -1  -6 2609.07 1857.13   1
  -3   1   6 1922.24 1206.66   1
  -3  -1   6 2611.48 1206.86   1
  -3   1  -7 2741.65 1790.78   1
  -3  -1  -7 5544.05 3241.81   1
  -3   1   7 2162.56 1176.28   1
  -3   1  -821568.70 3307.93   1
  -3  -1  -817104.90 3478.90   1
  -3   1   821268.90 2587.00   1
  -3   1  -9 6975.46 2594.13   1
  -3   1 -10 3504.94 1993.44   1
  -3  -1 -10 3041.27 2849.32   1
  -3   1 -1114078.40 3283.32   1
  -3  -1 -1113944.90 3441.78   1
   3   1 -12 2000.00  857.92   1
  -3   1 -12 2457.20 1848.67   1
  -3  -1 -12 1850.02 1773.89   1
   3  -1 -13-59.4942 291.718   1
   3   1 -13 233.871 391.031   1
  -3   1 -13 2871.69 1837.75   1
  -3  -1 -13-695.069 1803.94   1
  -3   1 -14 6944.76 2672.29   1
  -3  -1 -1422166.50 5837.11   1
   3  -1 -15 805.034 362.261   1
   3   1 -15 1379.94 747.913   1
  -3   1 -15 2653.90 2406.34   1
  -3  -1 -15 1801.47 1857.07   1
   3  -1 -16 2817.00 1287.94   1
   3   1 -16 2446.51 1350.83   1
  -3   1 -16 4202.94 1911.46   1
  -3  -1 -16 3334.77 1944.06   1
   3  -1 -17 1406.96 773.778   1
   3   1 -17  356.62 303.168   1
  -3   1 -17 2897.39 2361.46   1
  -3  -1 -17 3085.24 1923.12   1
   3   1 -18 2357.12 1203.39   1
   3  -1 -18 2801.34 1451.76   1
  -3   1 -18 661.117 1550.93   1
  -3  -1 -18 5346.76 2266.26   1
   3  -1 -19 1431.19 1161.12   1
   3   1 -19-371.268 452.057   1
  -3   1 -19 -948.25 1432.46   1
  -3  -1 -19-483.989 1546.13   1
   3  -1 -20 3872.89 1798.57   1
  -3   1 -20-120.837 1527.21   1
  -3  -1 -20 2324.42 2190.76   1
  -3   1 -21 5683.51 2603.21   1
  -3  -1 -21 4368.02 1855.55   1
   3   1 -22 294.916 468.109   1
  -3   1 -22 478.582 1537.26   1
  -3  -1 -22 561.059 1581.14   1
   3   1 -23 1740.22 1119.87   1
  -3   1 -23 3565.54 1958.42   1
  -3  -1 -23 5575.48 3127.77   1
  -3   1 -24 5347.78 2917.19   1
  -3  -1 -24 2335.08 1781.00   1
  -3   1 -25 1150.69 1826.05   1
  -3  -1 -25-850.805 1582.45   1
  -3   1 -26 5992.60 3005.10   1
  -3  -1 -26 5719.98 2901.87   1
  -3   1 -27 717.286 1698.60   1
  -3  -1 -27 4235.73 2093.19   1
  -3   1 -28 1588.34 1555.74   1
  -3  -1 -28 1159.52 1632.41   1
  -3   1 -29-1969.98 1338.78   1
  -3  -1 -29 1863.18 1512.17   1
  -3   1 -30  954.74 1363.17   1
  -3  -1 -30 75.6948 1304.11   1
  -3   1 -31 2884.44 1945.13   1
  -3  -1 -31 962.751 1261.93   1
  -3   1 -32 1582.40 1484.52   1
  -3  -1 -32 761.034 1433.45   1
  -3   1 -33 2319.65 1824.02   1
  -3  -1 -33 4760.18 2904.81   1
  -3   1 -34 1387.61 1523.61   1
  -3  -1 -34 440.354 1367.57   1
  -3   1 -35 2924.49 1786.67   1
  -3  -1 -35-971.973 1325.21   1
  -3   2   0 2116.51 1463.83   1
  -3  -2   0 153.884 1213.61   1
  -3   2  -1 3506.10 1255.15   1
  -3   2   1 5616.31 1941.45   1
  -3  -2  -1 6969.42 2748.08   1
  -3  -2   1 2761.74 1686.43   1
  -3   2  -2 4050.80 1764.12   1
  -3   2   2 1518.24 950.496   1
  -3  -2  -2 1147.34 1413.43   1
  -3  -2   2 5057.64 1897.66   1
  -3   2  -3 8354.94 1590.66   1
  -3   2   3 9279.99 1493.16   1
  -3  -2  -3 6413.34 2613.84   1
  -3  -2   3 6551.25 2083.03   1
  -3   2  -4 5739.88 2006.64   1
  -3  -2  -414213.10 2953.55   1
  -3   2   4 9561.17 1444.78   1
  -3  -2   4 7938.80 1868.00   1
  -3   2   5 503.425 247.658   1
  -3   2  -5 5339.16 2346.27   1
  -3  -2  -5 1695.76 1855.76   1
  -3   2   5 1138.29 731.935   1
  -3   2   6 1257.62 653.847   1
  -3   2  -6 6844.72 2060.78   1
  -3  -2  -6 7126.77 2700.29   1
  -3   2   6 3273.93 1448.29   1
  -3   2   7 3564.26 1194.46   1
  -3   2  -7 7528.41 2275.16   1
  -3  -2  -7 6527.27 2640.96   1
  -3   2   7 2029.31 1013.33   1
  -3   2   8 935.191 659.504   1
  -3   2  -8 3325.62 1773.95   1
  -3   2   8 3950.49 1515.21   1
  -3   2   9 6929.56 878.721   1
  -3   2  -9 5695.85 2410.91   1
  -3  -2  -9 5250.20 3082.51   1
   3   2 -10 1721.65 850.048   1
  -3   2  10 2395.28 784.957   1
  -3   2 -10 2284.62 1725.60   1
  -3  -2 -10 1063.18 1793.95   1
   3   2 -11 4508.01 1635.45   1
  -3   2  11 5303.19 670.113   1
  -3   2 -11 4016.45 1874.83   1
  -3  -2 -11 2621.51 1970.94   1
   3   2 -12 965.666 641.578   1
  -3   2  12 3468.43  945.17   1
  -3   2 -12 2520.42 1746.84   1
  -3  -2 -12 5655.48 1728.66   1
   3   2 -13 2824.59 1265.11   1
  -3   2  13 3995.32 1075.05   1
  -3   2 -13 3740.38 1800.76   1
  -3  -2 -13 8576.93 2672.70   1
   3  -2 -14 2390.11 979.775   1
   3   2 -14 1995.48 909.976   1
  -3   2  14 2281.37 845.084   1
  -3   2 -14 1225.62 2276.14   1
  -3  -2 -14 1645.52 1876.49   1
   3   2 -15 3868.56 1258.48   1
  -3   2 -15 5189.05 2450.72   1
  -3  -2 -15 4698.04 2070.27   1
   3  -2 -16 2283.71 987.939   1
   3   2 -16 2203.51 1361.81   1
  -3   2 -16 3450.66 2329.56   1
  -3  -2 -16 3634.90 1971.61   1
   3  -2 -17 1445.78 675.537   1
   3   2 -17 1917.26 935.999   1
  -3   2 -17 4816.31 2357.76   1
  -3  -2 -17 7004.98 3196.13   1
   3  -2 -18 2091.48 1179.42   1
  -3   2 -18 3814.92 2298.14   1
  -3  -2 -18 1994.97 1630.44   1
   3  -2 -19 443.885 494.569   1
   3   2 -19 220.251  520.66   1
  -3   2 -19 3067.15 1827.93   1
  -3  -2 -19 2448.13 2239.08   1
   3   2 -20 1225.14 793.882   1
  -3   2 -20 980.848 1579.70   1
  -3  -2 -20 1604.41 1598.98   1
  -3   2 -2113984.30 4472.64   1
  -3  -2 -21 5644.07 2100.34   1
   3   2 -22 3561.97 1605.08   1
  -3   2 -22 3455.74 2336.45   1
  -3  -2 -22 6670.31 2770.10   1
   3   2 -23-412.279 531.882   1
  -3   2 -23-1483.21 1589.06   1
  -3  -2 -23 1726.38 1588.07   1
   3   2 -24 485.751 825.781   1
  -3   2 -24 4334.21 2228.11   1
  -3  -2 -24 2044.95 2207.93   1
  -3   2 -25 688.774 1621.30   1
  -3  -2 -25-1004.82 1664.56   1
  -3   2 -26 2029.65 1725.41   1
  -3  -2 -26-1232.31 1508.02   1
  -3   2 -27 4645.87 2686.94   1
  -3  -2 -27 823.641 1761.06   1
  -3   2 -28 6446.72 2898.98   1
  -3  -2 -28 6349.30 2880.43   1
  -3   2 -29 2168.10 1697.81   1
  -3  -2 -29 5746.07 2264.88   1
  -3   2 -30 952.305 1339.46   1
  -3  -2 -30  440.76 1271.95   1
  -3   2 -31 1072.56 1328.15   1
  -3  -2 -31 5009.86 2666.84   1
  -3   2 -32 3092.97 2262.09   1
  -3  -2 -32 3695.11 2455.78   1
  -3   2 -33 3409.57 2859.40   1
  -3  -2 -33 107.847 1368.51   1
  -3   2 -34 1892.26 1705.92   1
  -3  -2 -34-31.6682 1308.23   1
  -3  -2 -35 424.618 1343.20   1
  -3   3   031610.50 2312.87   1
  -3  -3   025447.00 2422.51   1
  -3   3  -1 2381.34 1421.50   1
  -3  -3  -1 3406.54 2052.11   1
  -3  -3   1 5204.53 2445.98   1
  -3   3  -2 2036.10 1453.32   1
  -3   3   2 3137.52 1484.26   1
  -3  -3  -2 5557.20 2317.35   1
  -3  -3   2 3138.83 1703.08   1
  -3   3  -3 4415.92 1788.79   1
  -3   3   3 2807.13 1374.65   1
  -3  -3  -3 3786.58 2235.58   1
   3  -3  -3 2599.99 1067.49   1
  -3  -3   3 2698.66 1298.31   1
  -3   3  -4 1156.14 1173.71   1
  -3   3   4 646.978  682.51   1
  -3  -3  -4 892.725 1610.92   1
  -3   3  -520767.70 2979.84   1
  -3   3   517139.30 2096.62   1
  -3  -3  -518482.50 2959.94   1
  -3   3   6 3698.75 1432.78   1
  -3   3  -6 8349.38 2380.30   1
  -3  -3  -6 7541.39 2885.63   1
  -3   3   6 1919.80 934.711   1
  -3   3   733659.60 3358.74   1
  -3   3  -730286.20 3906.19   1
  -3  -3  -731561.60 4659.46   1
  -3   3   729660.60 3143.06   1
  -3   3   8 13.3686 147.986   1
  -3   3  -8 2518.06 1608.00   1
  -3  -3  -8-539.456 2065.38   1
  -3   3   8 2080.27 1014.66   1
  -3   3   932962.10 3252.10   1
  -3   3  -928506.80 3530.80   1
  -3  -3  -929075.90 3964.69   1
  -3   3   933589.80 3470.26   1
   3   3 -10 895.802 696.188   1
  -3   3  10 1969.34 621.629   1
  -3   3 -10 934.023 1471.14   1
  -3  -3 -10 2273.01 1931.15   1
  -3   3  10 1375.14 742.978   1
   3   3 -11 6697.06 2049.60   1
  -3   3  11 9686.49 1040.89   1
  -3   3 -11 7278.98 2080.08   1
  -3  -3 -11 8001.09 2566.60   1
   3   3 -12-37.2709 441.484   1
  -3   3  12 568.864 329.918   1
  -3   3 -12 1085.05 1560.65   1
  -3  -3 -12-229.494 1881.85   1
   3   3 -13 5030.98 1531.02   1
  -3   3 -1310428.50 2281.69   1
  -3  -3 -13 5052.62 1864.14   1
   3   3 -14 924.012 780.949   1
  -3   3  14 3220.87 809.459   1
  -3   3 -14 3225.25 1776.76   1
  -3  -3 -14 5229.32 3443.58   1
  -3   3  1512301.60 2733.91   1
  -3   3 -15 7690.36 2876.04   1
  -3  -3 -1510682.60 3389.54   1
   3  -3 -16 -307.02 229.756   1
   3   3 -16 154.828 446.915   1
  -3   3 -16-889.453 1399.58   1
  -3  -3 -16 -590.16 1836.36   1
   3  -3 -17 556.654 418.528   1
   3   3 -17 301.546 622.828   1
  -3   3 -17 561.248 1424.72   1
  -3  -3 -17 2687.39 2603.77   1
   3  -3 -18 116.867 268.529   1
   3   3 -18 813.483 596.437   1
  -3   3 -18 457.959 1531.57   1
  -3  -3 -18 1950.94 1756.88   1
   3   3 -19 1418.29 1082.99   1
  -3   3 -19 3003.09 1791.58   1
  -3  -3 -19 621.452 1707.23   1
   3   3 -20 1069.36 767.297   1
  -3   3 -20 1032.99 1593.11   1
  -3  -3 -20 1169.99 1605.40   1
   3   3 -21 1204.57 1191.06   1
  -3   3 -21 1109.20 1563.48   1
  -3  -3 -21 4097.84 1874.48   1
  -3   3 -22 2615.26 1658.52   1
  -3  -3 -22 43.8669 1496.34   1
   3   3 -23  422.90 647.391   1
  -3   3 -23 3232.27 2467.23   1
  -3  -3 -23 1641.23 1543.65   1
   3   3 -24 668.896 604.253   1
  -3   3 -24 1987.56 1824.17   1
  -3  -3 -24-712.785 1561.67   1
  -3   3 -25 780.035 1585.88   1
  -3  -3 -25 1043.43 1600.83   1
  -3   3 -26 2018.24 1723.05   1
  -3  -3 -26 3784.12 2918.09   1
  -3   3 -27 3255.93 1953.85   1
  -3  -3 -27 6171.80 2909.20   1
  -3   3 -28-1229.09 1477.50   1
  -3  -3 -28 643.849 1614.22   1
  -3   3 -29 1243.50 2067.89   1
  -3  -3 -29 2757.07 2725.77   1
  -3   3 -30-240.593 1255.62   1
  -3  -3 -30 944.001 1284.27   1
  -3   3 -31 771.749 1246.99   1
  -3  -3 -31 624.699 1176.06   1
  -3   3 -32 2021.23 1631.56   1
  -3  -3 -32 4160.89 2624.03   1
  -3   3 -33-150.209 1597.36   1
  -3  -3 -33 2199.11 1809.19   1
  -3   3 -34 592.842 1426.22   1
  -3  -3 -34 1267.18 1361.75   1
  -3  -3 -35 1533.57 1581.28   1
  -3   4   0 717.059  876.61   1
  -3  -4   0 1660.95 1796.04   1
  -3   4  -112738.80 1413.78   1
  -3   4   1 6993.53 2083.13   1
  -3  -4  -1 5593.69 2301.46   1
  -3  -4   1 8159.56 1599.04   1
  -3   4  -2 1786.09 983.405   1
  -3   4   2 596.308 767.936   1
  -3  -4  -2-680.762 1470.38   1
  -3  -4   2 450.717 1159.72   1
  -3   4  -312209.90 2153.66   1
  -3   4   3 7839.23 1524.59   1
  -3  -4  -3 5050.01 2670.28   1
   3  -4  -3 5820.03 1003.02   1
  -3  -4   3 6942.75 1774.89   1
  -3   4  -4 6094.15 2027.29   1
  -3   4   4 2844.81 1237.70   1
  -3  -4  -4 5435.99 2411.65   1
  -3   4  -5 99.6449 1058.60   1
  -3   4   5 522.431 504.079   1
  -3  -4  -5 1631.49 1809.77   1
  -3   4   6 292.703 222.877   1
  -3   4  -6 2666.25 1348.89   1
  -3   4   6 1147.74  467.69   1
  -3  -4  -6 2251.71 2046.40   1
  -3   4   7  338.10 136.056   1
  -3   4  -7 448.197 1250.95   1
  -3   4   7 1053.80 641.932   1
  -3  -4  -7 943.888 1980.70   1
   3   4  -8 3778.14 1348.58   1
  -3   4   8 728.518 347.004   1
  -3   4  -8 2259.43 1918.03   1
  -3   4   8 768.391 416.238   1
  -3  -4  -8 5255.28 3457.59   1
  -3   4   921568.40 2144.79   1
  -3   4  -925805.30 3553.95   1
  -3  -4  -926878.50 3690.48   1
  -3   4   922245.10 2425.28   1
   3   4 -10-617.194 417.458   1
  -3   4  10 593.064 227.879   1
  -3   4 -10 1535.58 1429.38   1
  -3  -4 -10 4769.00 2718.20   1
  -3   4  10  852.94  731.76   1
  -3   4  1114149.20 1412.30   1
  -3   4 -1114616.60 2710.63   1
  -3   4  1111140.50 1507.40   1
   3   4 -12 2007.23 1092.72   1
  -3   4 -12 2390.02 2218.66   1
  -3  -4 -12 2973.62 2640.74   1
  -3   4  12-374.428 404.351   1
   3   4 -13 703.957 399.934   1
  -3   4  13 1231.01 508.608   1
  -3   4 -13 1798.15 1561.10   1
  -3  -4 -13 4307.49 1998.45   1
  -3   4  13 1814.07 1097.73   1
   3   4 -14 963.567 515.397   1
  -3   4  14 17.2499 176.103   1
  -3   4 -14 416.336 1562.21   1
  -3  -4 -14-236.749 1764.23   1
   3   4 -15 223.904 372.301   1
  -3   4  15 802.857 579.689   1
  -3   4 -15-944.853 1598.67   1
  -3  -4 -15-1925.58 1744.67   1
   3   4 -16 2647.18 1459.41   1
  -3   4 -16 4561.71 2455.41   1
  -3  -4 -16 1035.72 1773.60   1
  -3   4 -17 3428.75 1548.26   1
  -3  -4 -17 5131.48 2071.64   1
   3   4 -18 1059.33 860.474   1
  -3   4 -18 2138.77 1597.21   1
  -3  -4 -18 2578.43 1962.49   1
   3   4 -19 660.503  916.42   1
  -3   4 -19 4855.79 2587.11   1
  -3  -4 -19 4554.44 2726.10   1
   3   4 -20 928.837 1251.68   1
  -3   4 -20 4982.21 2107.19   1
  -3  -4 -20 5699.22 2689.84   1
  -3   4 -21 130.189 1475.18   1
  -3  -4 -21 1753.60 1603.81   1
   3   4 -22 212.552 454.397   1
  -3   4 -22 1470.20 1676.25   1
  -3  -4 -22 5210.51 3017.72   1
  -3   4 -23 675.968 1609.78   1
  -3  -4 -23 2527.59 1816.56   1
   3   4 -24-814.503 734.443   1
  -3   4 -24 365.957 1597.48   1
  -3  -4 -24 4914.63 2658.80   1
   3   4 -25 241.165  554.20   1
  -3   4 -25 371.862 1680.60   1
  -3  -4 -25 2927.59 1807.97   1
  -3   4 -26 2315.26 1865.06   1
  -3  -4 -26 591.132 1614.26   1
  -3   4 -27 1337.62 1727.62   1
  -3  -4 -27-1089.24 1573.45   1
  -3   4 -28 4141.67 2573.54   1
  -3  -4 -28-471.316 1560.36   1
  -3   4 -29 2258.80 2097.32   1
  -3  -4 -29 150.572 1348.79   1
  -3   4 -30 363.494 1247.29   1
  -3  -4 -30 332.914 1318.88   1
  -3   4 -31 1561.02 1416.68   1
  -3  -4 -31-558.448 1225.23   1
  -3   4 -32 247.952 1399.35   1
  -3  -4 -32 1333.86 1432.84   1
  -3   4 -33 3021.26 1863.44   1
  -3  -4 -33 246.031 1445.56   1
  -3   4 -34 2474.02 1687.34   1
  -3  -4 -34 440.284 1346.14   1
  -3  -4 -35 1018.87 1501.04   1
  -3   5   0 726.653 793.609   1
  -3  -5   0 962.542 1327.78   1
  -3   5  -1 3681.72 1806.93   1
  -3   5   1 1500.67 1123.13   1
  -3  -5  -1 3258.65 2206.43   1
  -3  -5   1 4783.50 2363.35   1
  -3   5  -2 6786.12 1627.03   1
  -3   5   2 7457.33 1391.69   1
  -3  -5  -2 4790.17 2557.12   1
  -3  -5   2 6020.78 2233.22   1
  -3   5  -3 708.736 917.359   1
  -3   5   3 410.615 582.288   1
  -3  -5  -3 2031.15 2209.38   1
   3  -5  -3 594.036 653.376   1
  -3   5  -4 3516.21 1668.63   1
  -3   5   4 5056.01 1736.46   1
  -3  -5  -4 5367.59 2801.16   1
   3  -5  -4 4913.67 1652.17   1
  -3   5  -5 1159.88 1029.63   1
  -3   5   5 1889.45 1042.38   1
  -3  -5  -5-764.059 1782.74   1
  -3   5  -6 4210.97 1964.84   1
  -3   5   6 1388.03 820.177   1
  -3  -5  -6 98.8988 1739.52   1
  -3   5   7 500.647 203.887   1
  -3   5  -7-464.571 1169.22   1
  -3   5   7 1442.45 797.019   1
  -3  -5  -7 6705.93 2619.66   1
  -3   5   8 797.151 326.228   1
  -3   5   8 2778.54 1141.53   1
  -3  -5  -8 7328.63 2906.76   1
   3   5  -9 1487.21 653.519   1
  -3   5  -9 3522.82 1968.82   1
  -3  -5  -9 4141.72 2981.91   1
   3   5 -10 1810.82 1034.25   1
  -3   5  10 3384.78 878.831   1
  -3   5 -10 4070.15 1614.89   1
  -3  -5 -10 2885.90 2055.09   1
   3   5 -11 1357.26 1086.09   1
  -3   5  11 3080.61 820.348   1
  -3   5 -11 2129.44 1402.27   1
  -3  -5 -11 4839.06 2755.29   1
   3   5 -12 2604.06 1495.70   1
  -3   5  12 4069.55 1063.52   1
  -3   5 -12 4328.33 1768.84   1
  -3  -5 -12 4023.23 2095.57   1
   3   5 -13 773.492 477.572   1
  -3   5 -13 2462.90 1620.31   1
  -3  -5 -13-1139.82 1746.30   1
   3   5 -14 1164.55 604.571   1
  -3   5 -14 1180.76 1575.28   1
  -3   5  14 1307.85  580.51   1
  -3  -5 -14 1180.54 1839.47   1
   3   5 -15 991.182 962.817   1
  -3   5 -15 2934.86 2336.56   1
  -3  -5 -15 2521.54 1922.25   1
   3   5 -16-93.2272 442.073   1
  -3   5 -16 4578.38 2530.16   1
  -3  -5 -16 4300.34 2602.29   1
  -3   5 -1714800.20 3855.62   1
  -3  -5 -1716116.10 2679.80   1
  -3   5 -18-140.716 1449.75   1
  -3  -5 -18 1907.54 1771.50   1
   3   5 -19 293.288  574.56   1
  -3   5 -19 -637.61 1452.26   1
  -3  -5 -19 1882.07 1820.77   1
   3   5 -20 730.115 914.065   1
  -3   5 -20 2926.71 1549.86   1
  -3  -5 -20 3114.70 2477.41   1
   3   5 -21 1265.93 1133.97   1
  -3   5 -21-947.378 1484.78   1
  -3  -5 -21 1951.59 1727.22   1
   3   5 -22-820.832 773.764   1
  -3   5 -22-1256.33 1551.75   1
  -3  -5 -22 30.4744 1465.72   1
   3   5 -23 1007.43  850.24   1
  -3   5 -23 3223.33 2381.27   1
  -3  -5 -23-441.934 1515.68   1
  -3   5 -24 709.075 1590.69   1
  -3  -5 -24 2625.57 2309.82   1
   3   5 -25 -67.283 789.196   1
  -3   5 -25 1502.98 1824.23   1
  -3  -5 -25 942.696 1462.77   1
   3   5 -26 6696.25 2281.21   1
  -3   5 -26 4529.87 2947.48   1
  -3  -5 -26 1752.57 1736.04   1
  -3   5 -27 1300.83 1663.19   1
  -3  -5 -27 2119.72 1735.86   1
  -3   5 -28 5198.19 3315.97   1
  -3  -5 -28 1942.30 2814.67   1
  -3   5 -29 4360.64 2422.04   1
  -3  -5 -29 1255.66 1464.35   1
  -3   5 -30 6182.89 2849.82   1
  -3  -5 -30 140.104 1178.19   1
  -3   5 -31 3083.43 2290.70   1
  -3  -5 -31 2296.45 1622.20   1
  -3   5 -32-1842.83 1387.29   1
  -3  -5 -32 2794.42 2142.40   1
  -3   5 -33 3047.61 2023.88   1
  -3  -5 -33 6061.90 3000.04   1
  -3  -5 -34 1323.82 1447.42   1
  -3  -5 -35 3323.28 2907.66   1
  -3   6   0 675.744 1037.34   1
  -3  -6   0 2050.25 1498.37   1
  -3   6   1 1041.38 910.083   1
  -3   6  -1 2441.70 1287.41   1
  -3  -6  -1 1281.85 1479.42   1
  -3  -6   1 3431.10 2116.49   1
  -3   6   2 6050.17 1335.28   1
  -3   6  -2 2385.73 1365.74   1
   3  -6  -2 6321.42 1159.47   1
  -3  -6  -2 4392.96 2001.01   1
  -3   6  -3 5526.86 1581.82   1
  -3   6   3 3613.68 1398.86   1
   3  -6  -3 1784.89  815.81   1
  -3  -6  -3 6499.54 2264.97   1
  -3   6  -440652.20 4307.43   1
  -3   6   442959.30 1278.52   1
  -3  -6  -444030.40 3434.74   1
   3  -6  -437245.40 3762.26   1
  -3   6  -5 8333.58 1822.79   1
  -3   6   5 9555.90 1401.50   1
  -3  -6  -5 7249.94 2513.85   1
   3  -6  -5 9903.84 1362.40   1
  -3   6   6 6602.97 1013.90   1
  -3   6  -6 7667.88 2013.71   1
  -3  -6  -6 4126.90 2080.24   1
   3   6  -7 1697.12 1070.84   1
  -3   6   7 320.538 174.545   1
  -3   6   7-230.462 313.665   1
  -3   6  -7 2994.73 1890.14   1
  -3  -6  -7-3815.77 1789.37   1
   3   6  -8-310.511  554.42   1
  -3   6   8 824.127 207.976   1
  -3   6  -8 3937.41 1920.39   1
  -3  -6  -8 4184.08 2919.31   1
   3   6  -9 2628.05 998.745   1
  -3   6  -9 2281.57 1358.41   1
  -3  -6  -9 5950.60 2799.66   1
  -3   6 -10 3877.16 1623.89   1
  -3  -6 -10 3647.20 1994.98   1
  -3   6 -1117986.40 2853.75   1
  -3  -6 -1118629.40 3004.60   1
  -3   6 -1213576.40 3687.78   1
  -3  -6 -1212348.60 3661.72   1
  -3   6 -1314539.20 4062.06   1
  -3  -6 -1313848.60 4245.83   1
   3   6 -14 98.0552 599.161   1
  -3   6 -14 1578.87 1528.08   1
  -3  -6 -14 4359.40 2067.12   1
   3   6 -15  935.64 971.458   1
  -3   6 -15 1805.24 2085.94   1
  -3  -6 -15 3249.54 2128.67   1
   3   6 -16 4754.61 2590.61   1
  -3   6 -1613721.30 4406.51   1
  -3  -6 -1615794.10 5054.90   1
   3   6 -17 973.472 809.514   1
  -3   6 -17 3030.64 1872.29   1
  -3  -6 -17 2479.28 1818.69   1
   3   6 -18 1233.69 794.261   1
  -3   6 -18 2953.69 1667.44   1
  -3  -6 -18 2338.12 2416.16   1
   3   6 -19  624.94 730.649   1
  -3   6 -19 3208.27 2724.90   1
  -3  -6 -19 3759.39 2480.73   1
   3   6 -20 232.245 576.085   1
  -3   6 -20 961.445 1477.01   1
  -3  -6 -20 1336.15 1837.10   1
   3   6 -21-583.206 775.527   1
  -3   6 -21 2345.58 1658.20   1
  -3  -6 -21 4980.06 2841.11   1
   3   6 -22 338.075 422.515   1
  -3   6 -22 2289.41 1690.20   1
  -3  -6 -22-1292.42 1512.78   1
   3   6 -23 206.904 389.943   1
  -3   6 -23 1823.52 1725.80   1
  -3  -6 -23 771.271 1627.05   1
   3   6 -24  529.97 503.454   1
  -3   6 -24 1674.29 1605.54   1
  -3  -6 -24 2854.38 1817.12   1
  -3   6 -25 4933.62 2223.65   1
  -3  -6 -25-596.092 1581.80   1
   3   6 -26-393.465 891.896   1
  -3   6 -26 1378.88 1743.68   1
  -3  -6 -26 1234.23 1771.47   1
   3   6 -27 684.802 914.053   1
  -3   6 -27 3035.29 2914.15   1
  -3  -6 -27 4748.90 2772.42   1
  -3   6 -28-770.111 1470.44   1
  -3  -6 -28 58.7412 1555.45   1
  -3   6 -29 1523.23 1555.75   1
  -3  -6 -29 507.867 1329.78   1
  -3   6 -30 2264.68 1627.91   1
  -3  -6 -30-11.2993 1242.90   1
  -3   6 -31 1778.89 1661.75   1
  -3  -6 -31 1345.99 1448.54   1
  -3   6 -32 2601.72 1699.86   1
  -3  -6 -32 3302.03 2204.20   1
  -3   6 -33 557.615 1470.43   1
  -3  -6 -33 2098.02 1494.26   1
  -3  -6 -34-857.406 1297.48   1
  -3  -6 -35 229.584 1573.65   1
  -3   7   015099.30 2100.35   1
  -3  -7   012242.30 2748.80   1
  -3   7   1 484.245 601.263   1
  -3   7  -1 230.801 721.321   1
  -3  -7  -1  483.73 1432.95   1
  -3  -7  -211864.70 2992.80   1
  -3   7   3  644.67  497.44   1
  -3   7  -3 1162.46 791.008   1
   3  -7  -3 38.6821 446.945   1
  -3  -7  -3-37.1022 1555.01   1
  -3   7   4 5867.70 1025.15   1
  -3   7  -4 3145.05 1245.06   1
   3  -7  -4 2074.16 983.179   1
  -3  -7  -4 5573.04 2321.72   1
  -3   7   5-105.464 312.699   1
  -3   7  -5 355.422 919.045   1
  -3  -7  -5 1467.83 1639.33   1
   3  -7  -5 535.435 475.632   1
  -3   7  -630861.70 3472.48   1
  -3  -7  -623679.30 3316.51   1
   3   7  -7 4388.20 1752.42   1
  -3   7  -7 6405.37 1715.50   1
  -3  -7  -7 2981.25 1845.87   1
   3   7  -8 3148.87 1648.34   1
  -3   7  -8 2646.55 1320.67   1
  -3  -7  -8 108.635 1792.51   1
   3   7  -9 1318.73 868.289   1
  -3   7  -9 136.191 1129.09   1
  -3  -7  -9 2171.14 1852.38   1
   3   7 -10 2922.95 1536.86   1
  -3   7 -10 2428.55 1795.44   1
  -3  -7 -10 5039.25 1787.33   1
   3   7 -11 850.844 652.308   1
  -3   7 -11 2385.41 1464.17   1
  -3  -7 -11 5017.33 2136.44   1
   3   7 -12 961.852 1037.65   1
  -3   7 -1239989.7019545.60   1
  -3  -7 -12 6254.14 3262.08   1
   3   7 -13 48.1452 291.209   1
  -3   7 -13 194.111 1436.49   1
  -3  -7 -13 2393.43 1908.90   1
  -3   7 -1422656.70 6739.36   1
  -3  -7 -1424539.30 8889.33   1
   3   7 -15 462.792 789.182   1
  -3   7 -15 -24.343 1473.40   1
  -3  -7 -15-863.678 1602.28   1
   3   7 -16 1949.92 1077.25   1
  -3   7 -16 5114.32 2245.97   1
  -3  -7 -16 738.103 1550.11   1
   3   7 -17 35.8977  498.22   1
  -3   7 -17 1923.51 1642.16   1
  -3  -7 -17-448.223 1611.49   1
   3   7 -18 662.445 936.692   1
  -3   7 -18 3359.31 1741.99   1
  -3  -7 -18 3016.86 1954.84   1
   3   7 -19 103.653 479.615   1
  -3   7 -19 4506.67 2309.44   1
  -3  -7 -19 4704.12 2522.39   1
   3   7 -20 2525.04 1656.40   1
  -3   7 -20 2535.75 1508.28   1
  -3  -7 -20 3903.95 1887.83   1
   3   7 -21  412.80 495.844   1
  -3   7 -21 1537.78 1392.03   1
  -3  -7 -21 1724.14 1724.30   1
   3   7 -22 331.081 306.652   1
  -3   7 -22 1203.09 1488.54   1
  -3  -7 -22 2313.06 1724.57   1
  -3   7 -23 5577.48 2805.05   1
  -3  -7 -23 3981.25 2683.16   1
   3   7 -24-1145.30 778.139   1
  -3   7 -24 4581.53 2529.10   1
  -3  -7 -24-2419.29 1528.33   1
   3   7 -25 1077.00 1252.38   1
  -3   7 -25 2728.32 1760.10   1
  -3  -7 -25 731.243 1713.93   1
  -3   7 -26-55.0164 1630.81   1
  -3  -7 -26-1521.29 1619.06   1
   3   7 -27 958.686 594.116   1
  -3   7 -27 2429.79 2043.51   1
  -3  -7 -27-779.311 1675.01   1
   3   7 -28 135.629 932.662   1
  -3   7 -28 1306.17 1694.87   1
  -3  -7 -28 1686.75 1659.11   1
  -3   7 -29 -34.657 1453.90   1
  -3  -7 -29 17.7435 1450.36   1
  -3   7 -30 2962.03 2261.76   1
  -3  -7 -30 3383.01 1710.57   1
  -3   7 -31 2947.50 2300.86   1
  -3  -7 -31 1373.47 1345.96   1
  -3   7 -32 569.963 1405.52   1
  -3  -7 -32 1130.97 1371.26   1
  -3  -7 -33  494.43 1309.30   1
  -3  -7 -34 2322.67 1669.36   1
  -3  -7 -35-1832.99 1495.58   1
  -3   8   0-697.547 613.928   1
  -3  -8   0-848.909 1452.10   1
  -3   8  -1-492.639 683.045   1
  -3   8   1 138.562 544.058   1
  -3  -8  -1-74.2996 1454.62   1
  -3   8   2 8302.47 1368.33   1
  -3   8  -2 8759.27 1607.28   1
  -3  -8  -2 6697.96 2301.06   1
  -3   8   3 233.366 583.436   1
  -3   8  -3-339.405 790.007   1
   3  -8  -3  240.04 486.767   1
  -3  -8  -3 1384.57 1578.27   1
  -3   8   4 697.862 455.141   1
  -3   8  -4 2903.79 1302.34   1
   3  -8  -4-12.3156 399.071   1
  -3  -8  -4 445.828 1484.38   1
  -3   8   5  512.19 346.266   1
  -3   8  -5-502.068  891.45   1
   3  -8  -5 1254.74 678.026   1
  -3  -8  -5-572.485 1593.13   1
   3   8  -6 2521.91 1368.96   1
  -3   8   6 578.025  416.76   1
  -3   8  -6 1144.84 948.147   1
  -3  -8  -6-534.025 1512.06   1
   3  -8  -6 986.176 526.295   1
   3   8  -7 1552.10 1360.90   1
  -3   8  -7 2340.10 1153.61   1
  -3  -8  -7 1013.07 1592.59   1
   3   8  -8 397.505 722.952   1
  -3   8  -8  342.69 1037.61   1
  -3  -8  -8-296.522 1580.64   1
   3   8  -9-362.122 525.372   1
  -3   8  -9 1156.74 1206.17   1
  -3  -8  -9  598.69 1692.41   1
   3   8 -10 249.112 464.924   1
  -3   8 -10 132.883 1183.27   1
  -3  -8 -10-1586.39 1710.33   1
   3   8 -11-330.543  697.78   1
  -3   8 -11 2216.85 2006.78   1
  -3  -8 -11-620.258 1746.29   1
   3   8 -12 310.651 457.178   1
  -3   8 -12 1497.97 1335.17   1
  -3  -8 -12 6156.25 2890.42   1
   3   8 -13 1209.36 784.373   1
  -3   8 -13 1654.45 1328.24   1
  -3  -8 -13 6706.53 2990.69   1
   3   8 -14-934.545 714.326   1
  -3   8 -14 3261.34 1735.39   1
  -3  -8 -14 3763.12 2131.77   1
   3   8 -15 701.563 609.755   1
  -3   8 -15 1389.85 1505.78   1
  -3  -8 -15 4992.14 1867.27   1
   3   8 -16 754.344 529.799   1
  -3   8 -16 4167.16 2134.42   1
  -3  -8 -16 4978.16 2499.49   1
   3   8 -17-1762.27 691.247   1
  -3   8 -17  16.935 1305.95   1
  -3  -8 -17 1294.76 1650.22   1
   3   8 -18-634.305 690.457   1
  -3   8 -18 853.033 1459.30   1
  -3  -8 -18 938.795 1633.30   1
   3   8 -19-1158.78 654.025   1
  -3   8 -19-1236.27 1348.19   1
  -3  -8 -19 370.725 1717.40   1
  -3   8 -20 2934.65 2115.40   1
  -3  -8 -20 642.137 1590.45   1
   3   8 -21 15.4395 375.182   1
  -3   8 -21 3196.22 2228.77   1
  -3  -8 -21 5192.68 2698.40   1
   3   8 -22-8.99463  354.49   1
  -3   8 -22 1508.74 1446.91   1
  -3  -8 -22-598.718 1566.54   1
   3   8 -23 231.103 710.001   1
  -3   8 -23 2749.39 2133.47   1
  -3  -8 -23-19.1124 1556.50   1
   3   8 -24 908.391 633.842   1
  -3   8 -24 15.9314 1392.38   1
  -3  -8 -24 4722.43 2816.25   1
   3   8 -25 207.783 302.869   1
  -3   8 -25 6132.37 2841.09   1
  -3  -8 -25 3078.02 1899.73   1
   3   8 -26-775.365 883.785   1
  -3   8 -26 71.3869 1660.43   1
  -3  -8 -26 308.382 1744.31   1
  -3   8 -27 3149.72 3024.29   1
  -3  -8 -27 2839.61 2146.96   1
   3   8 -28-328.345 892.348   1
  -3   8 -28-1212.90 1748.55   1
  -3  -8 -28-31.1643 1574.31   1
   3   8 -29  983.39 779.808   1
  -3   8 -29 963.706 1535.76   1
  -3  -8 -29 1921.45 1499.63   1
  -3   8 -30 1453.65 1540.95   1
  -3  -8 -30 2471.31 2118.17   1
  -3   8 -31-72.1517 1264.79   1
  -3  -8 -31 2308.68 2518.08   1
  -3   8 -32-1246.13 1245.47   1
  -3  -8 -32 2519.98 1672.75   1
  -3  -8 -33 4988.13 2677.16   1
  -3  -8 -34 1355.80 2223.59   1
  -3  -8 -35 1117.04 1581.44   1
  -3   9   0 81.6187 559.842   1
  -3   9  -1 9465.79 1378.81   1
  -3   9   1 6403.75 1230.02   1
  -3  -9  -110287.50 2813.52   1
  -3   9   2 1716.45 998.264   1
  -3   9  -2 2524.95 1297.17   1
  -3  -9  -2 3732.37 1654.06   1
  -3   9  -3 8842.31 1524.74   1
  -3  -9  -3 5885.03 2146.81   1
  -3   9   4 613.384 307.087   1
  -3   9  -4 1977.35 1165.04   1
   3  -9  -4 463.098 449.706   1
  -3  -9  -4-344.158 1505.28   1
  -3   9   5 3810.37 1126.65   1
  -3   9  -5 5161.11 1201.60   1
   3  -9  -5 3168.88 1139.65   1
  -3  -9  -5 6226.93 2121.12   1
   3   9  -6 2276.33 1108.37   1
  -3   9   6 932.051 426.845   1
  -3   9  -6 2282.70 1381.90   1
   3  -9  -6 1016.02 530.592   1
  -3  -9  -6 2443.15 2197.43   1
   3   9  -7 874.106 678.184   1
  -3   9  -7 -271.46 989.453   1
  -3  -9  -7-357.145 1538.30   1
   3   9  -8 3817.42 2104.02   1
  -3   9  -8 5986.62 1949.35   1
  -3  -9  -8 5392.97 2028.20   1
   3   9  -9 363.849 623.634   1
  -3   9  -9 1387.69 1142.17   1
  -3  -9  -9 4879.15 2551.51   1
   3   9 -10  783.69 547.822   1
  -3   9 -10 1328.46 1285.53   1
  -3  -9 -10 3710.72 1773.51   1
   3   9 -11 145.073 995.135   1
  -3   9 -11 4384.98 2363.39   1
  -3  -9 -11 5460.79 2544.35   1
   3   9 -12-290.681 753.106   1
  -3   9 -12 1331.08 1270.29   1
  -3  -9 -12-338.488 1624.20   1
   3   9 -13-1.82194 762.653   1
  -3   9 -13-281.017 1297.66   1
  -3  -9 -13 -404.75 1633.93   1
   3   9 -14 369.874  712.55   1
  -3   9 -14 3497.76 2240.55   1
  -3  -9 -14 3219.61 2012.76   1
   3   9 -15 1409.46 988.773   1
  -3   9 -15 5509.75 2501.27   1
  -3  -9 -15 2820.69 1974.62   1
   3   9 -16 403.083 699.287   1
  -3   9 -16-549.273 1364.04   1
  -3  -9 -16 2818.74 1839.08   1
   3   9 -17 864.158  837.94   1
  -3   9 -17 1494.74 2060.20   1
  -3  -9 -17 6095.97 2925.42   1
  -3   9 -18 4988.82 2267.35   1
  -3  -9 -18 864.858 1692.57   1
   3   9 -19 1128.35 780.935   1
  -3   9 -19 2059.53 1552.89   1
  -3  -9 -19 1635.60 1749.81   1
   3   9 -20 343.023 567.201   1
  -3   9 -20 1558.61 1538.72   1
  -3  -9 -20 3052.58 2433.51   1
   3   9 -21 786.528 917.122   1
  -3   9 -21 6505.46 3101.10   1
  -3  -9 -21 7653.74 3511.60   1
   3   9 -22 1069.54 957.822   1
  -3   9 -22 2517.92 1684.06   1
  -3  -9 -22 345.968 1565.64   1
   3   9 -23-7.41606 464.763   1
  -3   9 -23 -19.465 1409.21   1
  -3  -9 -23 165.369 1635.30   1
   3   9 -24 480.533 613.261   1
  -3   9 -24 738.305 1465.51   1
  -3  -9 -24-1186.81 1663.82   1
   3   9 -25 1080.00  774.69   1
  -3   9 -25 4122.06 2448.43   1
  -3  -9 -25 2068.96 2554.70   1
   3   9 -26 914.113 846.921   1
  -3   9 -26 262.411 1688.52   1
  -3  -9 -26 4694.79 3422.32   1
   3   9 -27-303.268 799.141   1
  -3   9 -27 4246.27 2739.16   1
  -3  -9 -27 4516.11 2869.05   1
   3   9 -28 446.726 930.882   1
  -3   9 -28 1836.88 1888.64   1
  -3  -9 -28 2578.53 1654.73   1
   3   9 -29  264.35 916.095   1
  -3   9 -29 1758.36 1642.95   1
  -3  -9 -29 2368.22 1963.07   1
  -3   9 -30 1653.59 1541.65   1
  -3  -9 -30 1700.97 1996.65   1
  -3   9 -31 1855.80 1555.70   1
  -3  -9 -31 1280.43 1534.18   1
  -3   9 -32 3651.61 1940.23   1
  -3  -9 -32 938.919 1451.64   1
  -3  -9 -33-745.051 1345.64   1
  -3  -9 -34 847.048 1632.22   1
  -3  10   0-284.778 552.338   1
  -3  10   1 3078.74 1192.40   1
  -3  10  -1 3911.29 1375.48   1
  -3  10   2 863.229 597.143   1
  -3  10  -2 -131.64 594.887   1
  -3 -10  -2-697.332 1404.46   1
  -3  10  -3 2650.57  958.97   1
   3 -10  -3 3000.60 1116.36   1
  -3 -10  -3 2829.94 2024.70   1
  -3  10   4 1301.86  522.41   1
  -3  10  -4 1870.95 904.221   1
   3 -10  -4 203.225 468.063   1
  -3 -10  -4 2834.32 2056.86   1
  -3  10   5 1428.83 579.649   1
  -3  10  -5 2776.73 1582.98   1
   3 -10  -5 282.352 422.677   1
  -3 -10  -5 2466.68 1564.40   1
   3  10  -6 302.098 613.547   1
  -3  10  -6 1604.54 1589.62   1
  -3 -10  -6-589.175 1395.34   1
   3  10  -7 796.747 923.802   1
  -3  10  -7 933.369  950.45   1
  -3 -10  -7 1982.15 1578.74   1
   3  10  -8 -88.474 672.168   1
  -3  10  -8 409.241 951.746   1
  -3 -10  -8 2609.24 2256.47   1
   3  10  -9  450.37 565.764   1
  -3 -10  -9 4199.60 1782.22   1
   3  10 -10 2728.39 1592.59   1
  -3  10 -10 3579.11 1684.00   1
  -3 -10 -10 2081.02 1748.59   1
  -3  10 -11 8512.37 2896.83   1
  -3 -10 -11 4454.22 1863.79   1
   3  10 -12 405.069 726.506   1
  -3  10 -12 2653.05 1542.52   1
  -3 -10 -12 1701.38 1596.40   1
   3  10 -13  904.88 622.594   1
  -3  10 -13 1679.56 1462.45   1
  -3 -10 -13 2663.81 1881.53   1
   3  10 -14 581.128 932.188   1
  -3  10 -14 1379.19 1452.94   1
  -3 -10 -14 3078.89 2486.63   1
   3  10 -15 748.104 616.789   1
  -3  10 -15 424.023 1355.41   1
  -3 -10 -15 3651.90 2039.79   1
   3  10 -16-202.001  575.45   1
  -3  10 -16 458.692 1401.16   1
  -3 -10 -16 1808.50 2340.70   1
   3  10 -17 783.917 1351.17   1
  -3  10 -17 5128.54 2381.11   1
  -3 -10 -17 3236.98 2405.76   1
   3  10 -18 1185.08 709.433   1
  -3  10 -18 2362.35 2168.11   1
  -3 -10 -18-2258.29 1520.14   1
   3  10 -19 1492.60 1419.68   1
  -3  10 -19 8297.99 3594.28   1
  -3 -10 -19 2283.30 1786.79   1
   3  10 -20-309.043 838.182   1
  -3  10 -20 4140.51 2440.41   1
  -3 -10 -20 3048.07 1813.23   1
   3  10 -21 429.232 763.685   1
  -3  10 -21 39.2764 1509.62   1
  -3 -10 -21 938.667 1666.70   1
   3  10 -22-657.383 819.919   1
  -3  10 -22 544.399 1537.18   1
  -3 -10 -22 3095.92 2037.14   1
   3  10 -23 330.489 834.582   1
  -3  10 -23-16.9816 1473.53   1
  -3 -10 -23 2380.37 1851.87   1
   3  10 -24 296.584 620.505   1
  -3  10 -24 3870.15 2808.37   1
  -3 -10 -24 3017.62 2136.01   1
   3  10 -25 667.995 781.551   1
  -3  10 -25 5110.56 2896.33   1
  -3 -10 -25 1734.13 1718.56   1
   3  10 -26-543.491  744.03   1
  -3  10 -26 1212.62 1646.20   1
  -3 -10 -26 2620.23 2166.07   1
   3  10 -27 432.212  492.38   1
  -3  10 -27 2115.69 1757.86   1
  -3 -10 -27 515.496 1616.79   1
   3  10 -28-37.0567 526.506   1
  -3  10 -28 2276.34 2989.50   1
  -3 -10 -28 1490.38 2027.67   1
   3  10 -29 417.687 708.409   1
  -3  10 -29-1298.74 1352.83   1
  -3 -10 -29 3340.04 1994.04   1
   3  10 -30 224.383  851.36   1
  -3  10 -30-1435.66 1217.07   1
  -3 -10 -30 387.357 1352.71   1
  -3  10 -31-1480.94 1240.02   1
  -3 -10 -31  753.55 1556.71   1
  -3 -10 -32 3696.69 2456.26   1
  -3 -10 -33 2668.53 2271.62   1
  -3 -10 -34 654.627 1627.61   1
  -3  11   0 3774.86 1307.04   1
  -3  11   1-272.276 444.381   1
  -3  11  -1 1161.58 660.977   1
  -3  11   2 1965.53 930.933   1
  -3  11  -2 1659.02 1006.15   1
  -3 -11  -2 1850.46 1545.89   1
  -3  11   3 1674.94 870.788   1
  -3  11  -3 1876.15 877.887   1
  -3 -11  -3 4142.05 1976.94   1
  -3  11   4  807.98 371.266   1
  -3  11  -4 1066.46 714.992   1
   3 -11  -4 977.363 647.154   1
  -3 -11  -4-258.688 1456.04   1
   3  11  -5 1152.41 1039.93   1
  -3  11   5 1185.34  675.78   1
  -3  11  -5 927.277 772.309   1
   3 -11  -5 497.734 462.336   1
  -3 -11  -5 3125.28 2076.69   1
   3  11  -6 583.031 642.639   1
  -3  11   6 25.6375  160.00   1
  -3  11  -6 1532.20 1041.72   1
   3 -11  -6 250.849 404.893   1
  -3 -11  -6 127.594 1368.62   1
   3  11  -7 638.189 415.392   1
  -3  11  -7 1202.25 1344.38   1
   3 -11  -7 -30.974  180.74   1
  -3 -11  -7 2585.14 1593.48   1
   3  11  -8 354.792 497.633   1
  -3  11  -8 367.394 951.668   1
  -3 -11  -8 -385.30 1400.70   1
   3  11  -9 3418.61 1709.09   1
  -3  11  -9 7012.76 2562.37   1
  -3 -11  -9  827.52 1495.79   1
   3  11 -10 818.197 1194.35   1
  -3  11 -10 5512.34 2376.02   1
  -3 -11 -10 3503.72 2371.70   1
   3  11 -11 667.419 532.309   1
  -3  11 -11 5243.04 2475.00   1
  -3 -11 -11 5352.56 2674.38   1
   3  11 -12-716.368 701.365   1
  -3  11 -12-272.777 1233.11   1
  -3 -11 -12 2424.91 1716.00   1
   3  11 -13 1432.53 1025.36   1
  -3  11 -13 406.461 1281.74   1
  -3 -11 -13 1585.49 1778.74   1
   3  11 -14 494.385 441.757   1
  -3  11 -14 130.668 1310.46   1
  -3 -11 -14 1937.06 1651.91   1
   3  11 -15 300.337 445.153   1
  -3  11 -15 1685.30 1405.15   1
  -3 -11 -15 -251.11 1581.87   1
   3  11 -16-159.298 890.425   1
  -3  11 -16 376.907 1319.83   1
  -3 -11 -16 3454.49 2391.46   1
   3  11 -17 179.248 572.511   1
  -3  11 -17 1359.36 1524.72   1
  -3 -11 -17-7.09381 1670.59   1
   3  11 -18 4431.50 2636.31   1
  -3  11 -18 7360.43 2725.74   1
  -3 -11 -18 8032.74 3332.74   1
   3  11 -19 1538.17 1135.98   1
  -3  11 -19 56.6835 1524.21   1
  -3 -11 -19-1977.07 1627.19   1
   3  11 -20-408.256 900.528   1
  -3  11 -20 787.734 1551.93   1
  -3 -11 -20 2858.35 2485.45   1
   3  11 -21  775.07 832.208   1
  -3  11 -21-81.9794 1506.24   1
  -3 -11 -21 339.308 1660.65   1
   3  11 -22 388.362 880.517   1
  -3  11 -22 1374.25 1588.29   1
  -3 -11 -22-698.865 1678.57   1
   3  11 -23 17.5744 498.786   1
  -3  11 -23-1817.82 1521.54   1
  -3 -11 -23 2205.81 1865.64   1
   3  11 -24 -988.76 784.994   1
  -3  11 -24 767.569 1523.24   1
  -3 -11 -24-154.504 1742.26   1
   3  11 -25 802.007 898.321   1
  -3  11 -25 2368.42 1872.06   1
  -3 -11 -25 3777.54 2605.79   1
   3  11 -26-1103.54 734.925   1
  -3  11 -26 3174.20 2543.76   1
  -3 -11 -26 1150.66 1765.30   1
   3  11 -27 1396.82 1329.32   1
  -3  11 -27 637.525 1521.55   1
  -3 -11 -27 1104.07 1664.45   1
   3  11 -28 1042.88 720.199   1
  -3  11 -28 3034.43 2323.25   1
  -3 -11 -28 4153.01 2358.10   1
   3  11 -29 265.763 573.162   1
  -3  11 -29  184.45 1455.02   1
  -3 -11 -29 4967.64 2638.79   1
   3  11 -30-771.815 793.438   1
  -3  11 -30 1782.98 1703.00   1
  -3 -11 -30 2266.77 2275.61   1
   3  11 -31 1765.38 1187.05   1
  -3 -11 -31 859.246 1489.34   1
  -3 -11 -32  44.261 2028.12   1
  -3 -11 -33 1550.58 1774.41   1
  -3 -11 -34 1977.19 1897.85   1
  -3  12   0-759.005 533.277   1
  -3  12   1 1684.25 844.789   1
  -3  12  -1 1045.29 867.418   1
  -3  12   2 1262.55 689.317   1
  -3  12  -2 266.617 650.753   1
  -3 -12  -2 381.659 1517.83   1
  -3  12   3 435.514 471.923   1
  -3  12  -3  753.95 668.398   1
  -3 -12  -3 4736.29 2201.78   1
  -3  12   4 9503.01 2268.37   1
  -3  12  -4 6684.61 1973.09   1
  -3 -12  -4 4521.92 2292.99   1
   3  12  -5-186.148 560.895   1
  -3  12  -5 3006.94 2020.24   1
  -3 -12  -5 2258.49 2045.76   1
   3  12  -6 631.026 678.321   1
  -3  12   6 1088.16  407.75   1
  -3  12  -6 2921.27 1581.23   1
  -3 -12  -6-520.423 1340.68   1
   3  12  -7 1184.51 661.576   1
  -3  12   7 87.4896 143.666   1
  -3  12  -7 2709.94 1573.05   1
  -3 -12  -7-1343.28 1284.69   1
   3  12  -8 343.383  686.16   1
  -3  12  -8 3525.90 1830.82   1
  -3 -12  -8 7520.25 2716.64   1
   3  12  -9-661.089 632.907   1
  -3  12  -9 858.387 1082.82   1
  -3 -12  -9 2550.97 2145.33   1
   3  12 -10 636.656 685.485   1
  -3  12 -10 2790.64 1516.49   1
  -3 -12 -10 -838.89 1456.62   1
   3  12 -11-792.631 701.079   1
  -3  12 -11-75.0479 1238.81   1
  -3 -12 -11-672.482 1385.48   1
   3  12 -12 983.725 986.163   1
  -3  12 -12 829.956 1263.23   1
  -3 -12 -12-1133.33 1456.64   1
   3  12 -13-899.492 701.134   1
  -3  12 -13 2641.10 1521.56   1
  -3 -12 -13 3765.04 2441.87   1
   3  12 -14 -359.70 699.377   1
  -3  12 -14-541.464 1245.86   1
  -3 -12 -14 1969.81 1648.06   1
   3  12 -15 1520.47 1350.10   1
  -3  12 -15 1989.47 1428.89   1
  -3 -12 -15 2391.41 1722.80   1
   3  12 -16  503.72 772.741   1
  -3  12 -16 3287.04 1645.08   1
  -3 -12 -16 1173.78 1605.12   1
   3  12 -17-92.3751 953.372   1
  -3  12 -17 2107.13 1697.18   1
  -3 -12 -17 4856.66 2748.59   1
   3  12 -18-80.9634 384.325   1
  -3  12 -18 1621.15 1622.75   1
  -3 -12 -18 2359.97 1881.42   1
   3  12 -19-1189.78 847.519   1
  -3  12 -19-1061.07 1517.18   1
  -3 -12 -19-2839.36 1563.37   1
   3  12 -20 85.9355 595.223   1
  -3  12 -20 2843.76 1860.51   1
  -3 -12 -20 3610.76 2028.51   1
   3  12 -21 270.223 649.819   1
  -3  12 -21 262.073 1506.35   1
  -3 -12 -21 1027.52 1749.44   1
   3  12 -22 1327.51 858.191   1
  -3  12 -22 1638.90 1587.68   1
  -3 -12 -22 3956.87 2108.94   1
   3  12 -23 849.166 817.244   1
  -3  12 -23 1492.41 1470.29   1
  -3 -12 -23 3083.60 2009.53   1
   3  12 -24 875.879 739.769   1
  -3  12 -24 85.0232 1459.85   1
  -3 -12 -24 3135.73 2612.95   1
   3  12 -25 575.908 549.462   1
  -3  12 -25 3961.67 2407.40   1
  -3 -12 -25 1293.69 2545.41   1
   3  12 -26-339.622 848.021   1
  -3  12 -26 1149.88 1357.51   1
  -3 -12 -26 979.775 1766.71   1
   3  12 -27 713.859 1250.17   1
  -3  12 -27 3697.28 2202.02   1
  -3 -12 -27 2174.75 1762.23   1
   3  12 -28 581.204 774.544   1
  -3  12 -28 822.856 1537.45   1
  -3 -12 -28 211.548 1394.35   1
   3  12 -29 1057.74 784.193   1
  -3  12 -29 9.55999 1492.78   1
  -3 -12 -29 4459.89 2196.11   1
   3  12 -30 1840.60 1319.49   1
  -3  12 -30-666.855 1544.28   1
  -3 -12 -30 3621.08 1998.08   1
   3  12 -31 597.193 914.466   1
  -3 -12 -31 657.161 1466.20   1
  -3 -12 -32 3626.97 2917.22   1
  -3 -12 -33 2503.89 2540.32   1
  -3  13   0 8467.25 2520.00   1
  -3  13   1 1152.01 716.132   1
  -3  13  -1 1133.50 936.179   1
  -3  13   2 7080.40 2143.20   1
  -3  13  -2 8498.34 2531.80   1
  -3  13   3 861.312 473.739   1
  -3  13  -3 2049.29 1268.33   1
  -3 -13  -3 1291.34 1921.17   1
  -3  13   4  742.25 637.084   1
  -3  13  -4 -350.68 757.257   1
  -3 -13  -4 1346.57 1312.86   1
   3  13  -5 1639.97 878.213   1
  -3  13   5  61.306 229.623   1
  -3  13  -5 366.079 872.053   1
  -3 -13  -5 2443.42 1626.26   1
  -3  13   6 8330.04 2476.75   1
  -3  13  -611226.00 3496.44   1
  -3 -13  -612244.10 3707.23   1
   3  13  -7 -31.747 593.453   1
  -3  13   7 319.538 215.594   1
  -3  13  -7 1250.46 953.542   1
  -3 -13  -7 1769.76 1364.96   1
   3  13  -8-27.1388 587.971   1
  -3  13  -8 355.228 933.044   1
  -3 -13  -8 1556.11 1480.77   1
   3  13  -9 346.516 404.303   1
  -3  13  -9-1055.09 1078.33   1
  -3 -13  -9 709.382 1367.65   1
   3  13 -10 1146.05 759.237   1
  -3  13 -10 3747.21 1773.70   1
  -3 -13 -10-547.208 1323.98   1
   3  13 -11 2281.04 1176.92   1
  -3  13 -11  273.01 1267.90   1
  -3 -13 -11 443.066 1387.85   1
   3  13 -12 2899.89 1763.87   1
  -3  13 -12 1755.38 1481.05   1
  -3 -13 -12 4065.61 1895.32   1
   3  13 -13-170.886 676.961   1
  -3  13 -13 923.536 1390.74   1
  -3 -13 -13 1035.87 1566.73   1
   3  13 -1410096.20 3988.07   1
  -3  13 -1417685.6013009.70   1
  -3 -13 -1417493.5012914.90   1
   3  13 -15-1269.65 718.046   1
  -3  13 -15-1591.42 1425.56   1
   3  13 -16 615.604 588.834   1
  -3  13 -16 5602.33 3080.68   1
  -3 -13 -16 4521.19 2550.66   1
   3  13 -17-123.819 850.734   1
  -3  13 -17 1846.12 1622.75   1
  -3 -13 -17 1051.73 2181.24   1
   3  13 -18 2682.64 1691.06   1
  -3  13 -18 2403.71 2315.47   1
  -3 -13 -18 1995.97 2291.91   1
   3  13 -19 1010.85 802.238   1
  -3  13 -19 61.4144 1517.51   1
  -3 -13 -19 3043.83 2403.72   1
   3  13 -20 1191.69 1338.81   1
  -3  13 -20 2836.99 2227.16   1
  -3 -13 -20 3563.96 1986.78   1
   3  13 -21-999.963 820.406   1
  -3  13 -21-1069.91 1475.29   1
  -3 -13 -21 3930.31 2699.01   1
   3  13 -22 746.432 498.212   1
  -3  13 -22 3830.05 2884.59   1
  -3 -13 -22 1132.69 1751.59   1
   3  13 -23-241.004 839.134   1
  -3  13 -23 2273.11 1550.99   1
  -3 -13 -23 2226.76 1906.77   1
   3  13 -24 529.762 775.596   1
  -3  13 -24 4784.36 2975.00   1
  -3 -13 -24 4049.65 3708.18   1
   3  13 -25 578.827 623.414   1
  -3  13 -25 3435.71 1596.06   1
  -3 -13 -25 2112.22 2518.99   1
   3  13 -26 823.905 1135.29   1
  -3  13 -26 1570.71 1787.16   1
  -3 -13 -26 -796.63 1632.29   1
   3  13 -27 1572.97 960.884   1
  -3  13 -27 189.942 1261.78   1
  -3 -13 -27 952.869 1492.10   1
   3  13 -28 1846.54 1245.95   1
  -3  13 -28 969.096 1597.69   1
  -3 -13 -28-2687.72 1395.79   1
   3  13 -29 440.116 686.472   1
  -3  13 -29-304.773 1519.07   1
  -3 -13 -29-1788.60 1610.85   1
   3  13 -30 1802.88 1370.02   1
  -3 -13 -30 3766.81 2118.61   1
   3  13 -31 952.786 453.376   1
  -3 -13 -31 1669.17 1744.44   1
   3  13 -32 535.118 739.999   1
  -3 -13 -32 1831.12 1840.63   1
  -3  14   0 1573.39 1069.27   1
  -3  14   1 28.1849  524.85   1
  -3  14  -1 1826.14 717.206   1
  -3  14   2 1080.42 659.161   1
  -3  14  -2 371.615 748.008   1
  -3  14   3 1578.72 694.339   1
  -3  14  -3 1325.55 767.809   1
  -3 -14  -3 3199.34 2381.73   1
  -3  14   4 2101.74 863.591   1
  -3  14  -4 3238.53 1930.60   1
  -3 -14  -4 2289.39 1521.71   1
   3  14  -5 173.907 590.912   1
  -3  14   5 888.012  590.93   1
  -3  14  -5-79.2303 835.838   1
  -3 -14  -5 1859.25 1521.49   1
   3  14  -6 2818.03 1395.27   1
  -3  14   6-117.345 176.111   1
  -3  14  -6 2065.95 1423.10   1
  -3 -14  -6-507.943 1354.30   1
   3  14  -7 -103.03 642.903   1
  -3  14   7-54.1712 129.445   1
  -3  14  -7-1110.74 948.464   1
  -3 -14  -7-663.796 1293.07   1
   3  14  -8 531.754 537.501   1
  -3  14  -8 2955.32 1648.37   1
  -3 -14  -8 1262.53 1412.83   1
   3  14  -9-184.654 608.561   1
  -3  14  -9 2012.40 1709.35   1
  -3 -14  -9 1786.58 1488.22   1
   3  14 -10 34.9544  387.63   1
  -3  14 -10 2294.25 1804.92   1
  -3 -14 -10 5140.57 2091.03   1
   3  14 -11 925.178 743.645   1
  -3  14 -11 2926.02 1528.30   1
  -3 -14 -11 233.698 1325.33   1
   3  14 -12 1140.62 833.755   1
  -3  14 -12 3243.04 2532.84   1
  -3 -14 -12-1744.21 1377.58   1
   3  14 -13 1591.05 660.793   1
  -3  14 -13 2379.79 2121.49   1
  -3 -14 -13 3300.42 1715.32   1
   3  14 -14-848.281 748.958   1
  -3  14 -14 334.082 1383.34   1
  -3 -14 -14 1824.64 2019.78   1
   3  14 -15-590.528 787.951   1
  -3  14 -15 3841.33 2600.96   1
  -3 -14 -15 586.263 1276.67   1
   3  14 -16 1348.74 1158.68   1
  -3  14 -16 4290.18 2422.57   1
  -3 -14 -16 3848.25 2460.86   1
  -3  14 -17 1108.75 1538.90   1
  -3 -14 -17 2934.31 1878.06   1
   3  14 -18-221.259 831.328   1
  -3  14 -18-103.533 1415.14   1
  -3 -14 -18 3035.43 1862.49   1
   3  14 -19 754.903 585.237   1
  -3  14 -19 4743.95 2535.75   1
  -3 -14 -19 3051.90 2576.85   1
   3  14 -20 402.493 621.413   1
  -3  14 -20 559.972 1528.30   1
  -3 -14 -20 2197.27 1819.37   1
   3  14 -21-554.704 964.058   1
  -3  14 -21 5658.32 2952.07   1
  -3 -14 -21 4338.04 2127.99   1
   3  14 -22 1137.83 1095.92   1
  -3  14 -22 362.996 1384.78   1
  -3 -14 -22 2070.62 1867.44   1
   3  14 -23 874.443 572.544   1
  -3  14 -23 2641.99 2287.73   1
  -3 -14 -23-1278.94 1796.74   1
   3  14 -24-68.5343 1120.03   1
  -3  14 -24 3312.07 2035.25   1
  -3 -14 -24 3056.00 1995.81   1
   3  14 -25 2548.81 1708.58   1
  -3  14 -25 688.337 1416.90   1
  -3 -14 -25 1619.20 1763.08   1
   3  14 -26 601.469 854.486   1
  -3  14 -26 1407.17 1389.85   1
  -3 -14 -26-470.898 1435.42   1
   3  14 -27 635.379 948.228   1
  -3  14 -27 1898.09 1609.40   1
  -3 -14 -27 557.605 1585.27   1
   3  14 -28-315.548 753.599   1
  -3  14 -28 1768.89 1708.21   1
  -3 -14 -28 1105.15 1556.47   1
   3  14 -29 603.831 731.063   1
  -3  14 -29 2510.69 1720.49   1
  -3 -14 -29 3193.71 2602.82   1
   3  14 -30 602.034 620.978   1
  -3 -14 -30 1881.54 1834.84   1
   3  14 -31 422.534 1098.69   1
  -3 -14 -31 3877.37 2631.56   1
   3  14 -32 1265.49 1013.88   1
  -3 -14 -32 1490.31 1877.73   1
  -3  15   018684.30 1494.81   1
  -3  15   1 76.1479  535.32   1
  -3  15  -1-209.271 630.843   1
  -3  15   2 1098.58 877.955   1
  -3  15  -2-119.385 706.324   1
  -3  15   3-189.735 370.275   1
  -3  15  -3-182.883 745.056   1
  -3 -15  -3 5452.49 2527.99   1
  -3  15   4 915.186 484.277   1
  -3  15  -4 1384.78 999.789   1
  -3 -15  -4 -307.81 1416.78   1
   3  15  -5-199.922 599.411   1
  -3  15   5 487.514 307.938   1
  -3  15  -5 1084.59 1202.98   1
  -3 -15  -5 3567.25 1602.68   1
   3  15  -6 1638.54 1099.93   1
  -3  15   6  87.263 158.087   1
  -3  15  -6-1000.01 880.983   1
  -3 -15  -6-212.634 1399.87   1
   3  15  -7-260.006 651.053   1
  -3  15  -7-1064.32 898.218   1
  -3 -15  -7 111.792 1226.40   1
   3  15  -8 1649.28  904.96   1
  -3  15  -8 2034.99 1146.21   1
  -3 -15  -8 2958.07 1584.39   1
   3  15  -9-286.153 775.269   1
  -3  15  -9 782.038 1058.65   1
  -3 -15  -9 2868.83 2003.21   1
   3  15 -10 131.774 808.041   1
  -3  15 -10 2022.16 1697.10   1
  -3 -15 -10 1849.69 1321.18   1
   3  15 -11 30.3922 488.557   1
  -3  15 -11-315.835 1170.06   1
  -3 -15 -11 3346.27 1573.48   1
   3  15 -12 1232.94 844.987   1
  -3  15 -12 2934.77 1843.79   1
  -3 -15 -12 1065.62 1380.52   1
   3  15 -13-408.062 723.055   1
  -3  15 -13 1213.06 1305.00   1
  -3 -15 -13-1303.50 1367.91   1
   3  15 -14-1126.06 736.771   1
  -3  15 -14 4855.38 2371.47   1
  -3 -15 -14 1879.16 1564.89   1
   3  15 -15 840.783 730.272   1
  -3  15 -15 1098.04 1314.44   1
  -3 -15 -15-451.815 1354.58   1
   3  15 -16 1045.52 594.343   1
  -3  15 -16 1133.09 1314.41   1
  -3 -15 -16-855.514 1497.44   1
   3  15 -17 419.878  691.59   1
  -3  15 -17  427.68 1305.97   1
  -3 -15 -17 464.876 1558.34   1
   3  15 -18 920.813 832.759   1
  -3  15 -18 2675.85 2026.24   1
  -3 -15 -18 233.857 1474.48   1
   3  15 -19-285.516 994.284   1
  -3  15 -19-193.659 1278.30   1
  -3 -15 -19 3777.77 2738.70   1
   3  15 -20-138.905 805.773   1
  -3  15 -20 2228.60 1511.82   1
  -3 -15 -20 -921.89 1692.30   1
   3  15 -21 1358.47 744.904   1
  -3  15 -21 705.439 1367.52   1
  -3 -15 -21 2489.90 2620.27   1
   3  15 -22 -32.194 1053.43   1
  -3  15 -22 2315.98 2231.23   1
  -3 -15 -22 659.337 1821.21   1
   3  15 -23 18.5856 920.353   1
  -3  15 -23 3194.61 2148.90   1
  -3 -15 -23 1770.96 1799.97   1
   3  15 -24-22.2496 881.583   1
  -3  15 -24 2552.90 2079.21   1
  -3 -15 -24 2336.02 1794.18   1
   3  15 -25-1798.83  759.85   1
  -3  15 -25 4644.71 2818.68   1
  -3 -15 -25 2868.88 1808.03   1
   3  15 -26 565.157 794.283   1
  -3  15 -26 298.569 1454.84   1
  -3 -15 -26 226.094 1519.20   1
   3  15 -27-18.5829 843.471   1
  -3  15 -27-552.711 1352.01   1
  -3 -15 -27 1892.16 1870.91   1
   3  15 -28  471.07 481.792   1
  -3  15 -28 731.249 1315.69   1
  -3 -15 -28 1421.21 1867.83   1
   3  15 -29 389.937 388.235   1
  -3 -15 -29 1125.90 2481.47   1
   3  15 -30-546.898 887.684   1
  -3 -15 -30 693.711 1715.61   1
   3  15 -31 342.257 601.957   1
  -3 -15 -31 1606.91 1884.97   1
  -3  16   0-891.699 548.886   1
  -3  16   1 2587.45 1183.91   1
  -3  16  -1 1890.72 1149.76   1
  -3  16   2 3380.61 1388.32   1
  -3  16  -2 3280.57 2291.83   1
  -3  16   3 4339.66 1593.03   1
  -3  16  -3 2375.55 1346.94   1
  -3  16   4 4239.84 1582.51   1
  -3  16  -4 1093.22 862.109   1
  -3 -16  -4 5581.60 3078.82   1
   3  16  -5  261.87 635.769   1
  -3  16   5 1107.18 774.863   1
  -3  16  -5 1110.99 1135.07   1
  -3 -16  -5 195.317 1401.94   1
   3  16  -6-511.129 620.608   1
  -3  16  -6 4411.94 2029.53   1
  -3 -16  -6 1810.88 1506.31   1
   3  16  -7 631.971 1022.69   1
  -3  16  -7 737.933 845.558   1
  -3 -16  -7-985.234 1348.92   1
   3  16  -8 448.987  638.97   1
  -3  16  -8 -308.46 839.166   1
  -3 -16  -8 1829.15 1456.75   1
   3  16  -9 1214.99 772.077   1
  -3  16  -9 1498.45 1390.90   1
  -3 -16  -9-15.4295 1298.70   1
   3  16 -10 828.558 997.623   1
  -3  16 -10 4528.09 1973.68   1
  -3 -16 -10 7057.24 2985.28   1
   3  16 -11 92.6019 743.054   1
  -3  16 -11 5969.58 2595.77   1
  -3 -16 -11 2784.22 1482.59   1
   3  16 -12 1065.27 660.675   1
  -3  16 -12 1359.06 1145.04   1
  -3 -16 -12 722.183 1290.61   1
   3  16 -13 932.634 827.728   1
  -3  16 -13-197.693 1051.61   1
  -3 -16 -13 1895.39 1533.62   1
   3  16 -14 1390.82 781.988   1
  -3  16 -14 744.503 1148.80   1
  -3 -16 -14 836.607 1426.41   1
   3  16 -15-214.522 843.204   1
  -3  16 -15-922.919 1080.46   1
  -3 -16 -15 1655.25 1590.86   1
   3  16 -16 953.437 645.382   1
  -3  16 -16 1553.07 1719.54   1
  -3 -16 -16  28.723 1460.47   1
   3  16 -17 1579.12 1123.57   1
  -3  16 -17 3121.08 1551.39   1
  -3 -16 -17 6553.04 3077.62   1
   3  16 -18 443.336 1488.98   1
  -3  16 -18 4713.01 2225.29   1
  -3 -16 -18 5757.77 2930.40   1
   3  16 -19 953.722 1131.59   1
  -3  16 -19 2370.03 1446.65   1
  -3 -16 -19 1948.36 1814.13   1
   3  16 -20 686.698 1186.24   1
  -3  16 -20-692.674 1257.33   1
  -3 -16 -20 2279.44 2000.66   1
   3  16 -21-8.60558 1151.40   1
  -3  16 -21 1126.05 1428.32   1
  -3 -16 -21 233.586 1837.33   1
   3  16 -22 653.334 944.996   1
  -3  16 -22 1591.32 1508.98   1
  -3 -16 -22 2192.91 1951.01   1
   3  16 -23 1207.23 1102.11   1
  -3  16 -23-804.537 1405.61   1
  -3 -16 -23 4177.28 3145.52   1
   3  16 -24-36.4398 735.114   1
  -3  16 -24 3110.81 2386.86   1
  -3 -16 -24 3303.29 1879.40   1
   3  16 -25 734.061 1107.40   1
  -3  16 -25 1470.64 1605.33   1
  -3 -16 -25-1156.17 1443.77   1
   3  16 -26-5.39134 549.097   1
  -3  16 -26-1460.93 1327.12   1
  -3 -16 -26-2241.40 1454.77   1
   3  16 -27 1541.74 1084.43   1
  -3  16 -27 2354.90 1780.09   1
  -3 -16 -27 4201.66 2801.12   1
   3  16 -28 -330.40 554.832   1
  -3 -16 -28 4350.71 3068.88   1
   3  16 -29 545.731 694.201   1
  -3 -16 -29 5767.72 3219.79   1
   3  16 -30 2441.89 1421.51   1
  -3 -16 -30 5954.39 3407.60   1
  -3  17   0 1356.90 986.855   1
  -3  17  -1 2392.75 770.768   1
  -3  17   2 201.583 496.171   1
  -3  17  -2 474.902 653.366   1
  -3  17   3 3175.69 1277.73   1
  -3  17  -3 2832.24 1131.33   1
  -3  17   4 -582.44 363.624   1
  -3  17  -4 495.181 711.932   1
  -3 -17  -4 1025.42 1544.66   1
   3  17  -5 252.672 657.607   1
  -3  17  -5  580.97 734.601   1
  -3 -17  -5-2271.66 1367.01   1
   3  17  -6 2472.01 1244.70   1
  -3  17  -6 875.941 1026.55   1
  -3 -17  -6-138.799 1351.76   1
   3  17  -7-382.936 637.945   1
  -3  17  -7 1145.27 882.374   1
  -3 -17  -7 6108.12 2438.06   1
   3  17  -8 1317.45 921.088   1
  -3  17  -8 345.288  815.17   1
  -3 -17  -8 1732.81 1486.08   1
   3  17  -9-533.471 699.815   1
  -3  17  -9 2549.20 1346.82   1
  -3 -17  -9-159.373 1422.68   1
   3  17 -10 2011.63 1073.03   1
  -3  17 -10 43.9763 932.929   1
  -3 -17 -10-762.438 1344.30   1
   3  17 -11  641.28 705.115   1
  -3  17 -11 584.925 937.294   1
  -3 -17 -11 350.322 1213.66   1
   3  17 -12 1843.91 1300.95   1
  -3  17 -12 1129.38 1022.33   1
  -3 -17 -12 3410.97 2264.28   1
   3  17 -13 1923.82 1114.67   1
  -3  17 -13 551.519 900.389   1
  -3 -17 -13 2568.73 1664.73   1
   3  17 -14 1533.68 1229.33   1
  -3  17 -14 2562.98 1589.84   1
  -3 -17 -14 806.848 1419.18   1
   3  17 -15 1094.58 982.503   1
  -3  17 -15  81.358 917.336   1
  -3 -17 -15-397.521 1414.56   1
   3  17 -16 83.2098 308.655   1
  -3  17 -16  269.49 1048.61   1
  -3 -17 -16 3926.73 1994.70   1
   3  17 -17-105.008 1017.68   1
  -3  17 -17-1535.43 1049.17   1
  -3 -17 -17-1302.97 1580.82   1
   3  17 -18 403.028  670.67   1
  -3  17 -18 2928.16 1409.35   1
  -3 -17 -18 2505.89 1816.77   1
   3  17 -19 222.734 570.687   1
  -3  17 -19 347.986 1172.64   1
  -3 -17 -19 1648.20 1872.14   1
   3  17 -20 2239.96 1378.17   1
  -3  17 -20 3482.37 2460.43   1
  -3 -17 -20 1736.99 2020.93   1
   3  17 -21 643.819 1018.90   1
  -3  17 -21 1158.65 1443.71   1
  -3 -17 -21 3165.27 2706.43   1
   3  17 -22-9.02306 821.597   1
  -3  17 -22 871.029 1440.22   1
  -3 -17 -22 299.053 1734.42   1
   3  17 -23 586.896 872.302   1
  -3  17 -23 1443.35 1485.12   1
  -3 -17 -23 515.093 1553.19   1
   3  17 -24 2732.61 1707.73   1
  -3  17 -24-453.047 1331.80   1
  -3 -17 -24 1152.83 1502.77   1
   3  17 -25 401.423 1055.77   1
  -3  17 -25 792.887 1413.59   1
  -3 -17 -25 2213.67 1858.03   1
   3  17 -26-159.733 906.163   1
  -3  17 -26 1409.12 1459.89   1
  -3 -17 -26 129.958 1651.18   1
   3  17 -27 568.728 730.459   1
  -3 -17 -27 3430.07 2144.25   1
   3  17 -28 520.099 897.371   1
  -3 -17 -28 607.208 1681.74   1
  -3 -17 -29 3681.70 2396.19   1
  -3  18   0-629.215 540.655   1
  -3  18   1 111.485  516.29   1
  -3  18  -1 231.035 591.252   1
  -3  18   2-7.49027 479.515   1
  -3  18  -2 486.448 653.784   1
  -3  18   3 128.486 444.877   1
  -3  18  -3  818.51 602.523   1
  -3  18  -4-627.237 595.092   1
  -3 -18  -4 375.094 1423.18   1
   3  18  -5 1146.79  996.83   1
  -3  18  -5 3472.47 1428.80   1
  -3 -18  -5 3522.22 2337.85   1
   3  18  -6 2448.84 1186.67   1
  -3  18  -6 2279.58 1047.87   1
  -3 -18  -6-595.594 1450.84   1
   3  18  -7 488.717 812.738   1
  -3  18  -7 871.102 964.195   1
  -3 -18  -7 2068.34 1511.97   1
   3  18  -8 -508.54 739.741   1
  -3  18  -8 905.898 787.687   1
  -3 -18  -8-968.747 1317.91   1
   3  18  -9 697.407 597.324   1
  -3  18  -9 3867.94 1858.05   1
  -3 -18  -9 1727.65 2014.32   1
   3  18 -10 614.868 1081.34   1
  -3  18 -10 2423.61 1411.73   1
  -3 -18 -10-363.633 1251.34   1
   3  18 -11-8.45537 882.839   1
  -3  18 -11 788.944 851.656   1
  -3 -18 -11 738.066 1418.45   1
   3  18 -12  882.24 496.221   1
  -3  18 -12 997.351 1443.95   1
  -3 -18 -12 904.649 1409.63   1
   3  18 -13-977.652 881.067   1
  -3  18 -13 363.183 851.056   1
  -3 -18 -13-331.444 1400.75   1
   3  18 -14 1380.92 1044.41   1
  -3  18 -14 1097.16 983.162   1
  -3 -18 -14 -496.67 1396.41   1
   3  18 -15-581.487 954.199   1
  -3  18 -15-194.804 905.246   1
  -3 -18 -15 1051.49 1531.16   1
   3  18 -16 -455.08 961.907   1
  -3  18 -16 4464.12 2156.95   1
  -3 -18 -16 2968.35 1817.48   1
   3  18 -17 1486.72 978.945   1
  -3  18 -17  485.06 1017.17   1
  -3 -18 -17 1348.68 1727.78   1
   3  18 -18-847.679 835.227   1
  -3  18 -18 2523.80 1626.84   1
  -3 -18 -18 1105.20 1914.60   1
   3  18 -19 -510.99 854.842   1
  -3  18 -19 2342.88 1634.29   1
  -3 -18 -19 2767.24 2210.25   1
   3  18 -20 87.4415 771.322   1
  -3  18 -20 327.603 1174.93   1
  -3 -18 -20 655.364 1672.59   1
   3  18 -21 1708.75 1833.43   1
  -3  18 -21 3160.30 1952.66   1
  -3 -18 -21 4793.51 2762.01   1
   3  18 -22-655.932 814.597   1
  -3  18 -22 933.206 1107.63   1
  -3 -18 -22 4416.66 3191.83   1
   3  18 -23 438.282 698.948   1
  -3  18 -23-592.013 1144.86   1
  -3 -18 -23 3384.28 2546.13   1
   3  18 -24 383.738 991.972   1
  -3  18 -24 2585.02 1929.07   1
  -3 -18 -24 2177.33 1868.85   1
   3  18 -25 1389.25 1299.59   1
  -3  18 -25 1166.29 1324.57   1
   3  18 -26 1525.30 1172.12   1
  -3 -18 -26-735.119 1622.19   1
   3  18 -27 1064.99 619.909   1
  -3 -18 -27 3479.19 2641.98   1
   3  18 -28-744.369 1040.09   1
  -3 -18 -28 1979.05 2833.38   1
  -3  19   0  407.07 619.893   1
  -3  19   1 1553.87 905.944   1
  -3  19  -1 2176.67 1163.85   1
  -3  19   2-51.4681 574.279   1
  -3  19  -2 1086.18 909.197   1
  -3  19  -3 788.018 723.745   1
  -3  19  -4 2087.26 1136.02   1
  -3 -19  -4 3231.61 2015.42   1
   3  19  -5-231.951  651.47   1
  -3  19  -5 1074.48 837.032   1
  -3 -19  -5-319.813 1611.42   1
   3  19  -6 1009.75 840.532   1
  -3  19  -6 3849.67 1822.06   1
  -3 -19  -6 8328.10 4096.13   1
   3  19  -7 52.5193 738.617   1
  -3  19  -7-717.246 752.745   1
  -3 -19  -7-1746.06 1512.66   1
   3  19  -8 1133.75 1051.83   1
  -3  19  -8-293.254 769.329   1
  -3 -19  -8-738.615 1491.45   1
   3  19  -9 1563.67 804.895   1
  -3 -19  -9 2646.72 2168.61   1
   3  19 -10 337.504 607.837   1
  -3  19 -10 1069.44 1155.29   1
  -3 -19 -10 164.066 1373.42   1
   3  19 -11 1117.84 684.193   1
  -3  19 -11 380.114 847.669   1
  -3 -19 -11 1735.88 2145.27   1
   3  19 -12-262.682 954.252   1
  -3  19 -12 -311.97 870.055   1
  -3 -19 -12 1741.19 1524.12   1
   3  19 -13 449.403 544.831   1
  -3  19 -13 984.516 948.749   1
  -3 -19 -13 3362.38 1775.91   1
   3  19 -14-921.716 955.022   1
  -3  19 -14 3067.75 1630.99   1
  -3 -19 -14 1758.49 1655.74   1
   3  19 -15 53.3819 394.223   1
  -3  19 -15 1695.30 1084.50   1
  -3 -19 -15-891.481 1648.52   1
   3  19 -16 1909.91 1592.57   1
  -3  19 -16 873.498 1091.23   1
  -3 -19 -16 114.438 1524.00   1
   3  19 -17-1709.14 837.848   1
  -3  19 -17-271.461 1086.81   1
  -3 -19 -17 1213.97 1761.99   1
   3  19 -18 16.0934 628.715   1
  -3  19 -18-361.499 1102.34   1
  -3 -19 -18 2896.58 1875.39   1
   3  19 -19 325.382 914.588   1
  -3  19 -19 201.984 1049.09   1
  -3 -19 -19  442.26 1556.88   1
   3  19 -20 822.327 857.332   1
  -3  19 -20 448.218 1090.27   1
  -3 -19 -2010917.4010461.30   1
   3  19 -21 1331.12 1068.03   1
  -3  19 -21 778.065 975.917   1
  -3 -19 -21 2088.07 1754.58   1
   3  19 -22-180.412 984.542   1
  -3  19 -22 2184.16 1476.71   1
  -3 -19 -22 5056.36 2778.28   1
   3  19 -23 1007.34 1152.11   1
  -3  19 -23  478.01 1124.16   1
   3  19 -24 546.556 1033.33   1
  -3  19 -24-1300.27 1202.19   1
  -3 -19 -24 2149.57 2014.79   1
   3  19 -25 853.219 1086.59   1
  -3 -19 -25 251.764 1692.58   1
   3  19 -26 768.268 943.763   1
  -3 -19 -26 2250.32 1907.01   1
  -3 -19 -27 254.713 1628.37   1
  -3  20   0 1576.12 774.124   1
  -3  20   1 626.354 424.021   1
  -3  20  -1 -122.83 572.012   1
  -3  20  -2-226.615 612.735   1
  -3  20  -3-344.845 678.759   1
  -3  20  -4 1246.99 1115.20   1
  -3 -20  -4 164.971 1749.80   1
   3  20  -5 1627.26 1202.99   1
  -3  20  -5 1106.80 887.187   1
  -3 -20  -5 -761.72 1660.93   1
   3  20  -6 743.442 769.683   1
  -3  20  -6-49.6035 817.895   1
  -3 -20  -6 2704.10 1932.68   1
   3  20  -7-97.1014  741.51   1
  -3  20  -7 126.181 900.057   1
  -3 -20  -7 1434.33 1605.79   1
   3  20  -8 73.2953 497.395   1
  -3  20  -8 801.578 1024.44   1
  -3 -20  -8 253.143 1545.96   1
   3  20  -9 1227.24 733.413   1
  -3  20  -9 58.2687 968.725   1
  -3 -20  -9-760.175 1502.49   1
   3  20 -10 260.176 457.756   1
  -3  20 -10 2236.32 1852.75   1
  -3 -20 -10 -104.65 1502.22   1
   3  20 -11 27.4732 619.607   1
  -3  20 -11-701.157 1016.91   1
  -3 -20 -11 314.057 1569.02   1
   3  20 -12 1041.81 837.272   1
  -3  20 -12-671.978 1016.32   1
  -3 -20 -12 1492.37 1570.35   1
   3  20 -13 838.269 828.595   1
  -3  20 -13 58.4306 1001.45   1
  -3 -20 -13 2928.11 1771.24   1
   3  20 -14 233.974 397.248   1
  -3  20 -14-146.535 1345.95   1
  -3 -20 -14 4181.73 2674.84   1
   3  20 -15-1663.03 903.049   1
  -3  20 -15 2507.96 1897.76   1
  -3 -20 -15 2456.75 1948.24   1
   3  20 -16-322.166  855.38   1
  -3  20 -16 773.747 1089.22   1
  -3 -20 -16-293.275 1592.61   1
   3  20 -17-286.514 806.709   1
  -3  20 -17 4189.56 1816.68   1
  -3 -20 -17 5760.83 3243.09   1
   3  20 -18 1118.22 829.325   1
  -3  20 -18 1781.83 1559.10   1
  -3 -20 -18  915.80 1467.43   1
   3  20 -19 265.211 808.793   1
  -3  20 -19-296.028 920.832   1
  -3 -20 -19-763.662 1506.25   1
   3  20 -20-423.856 800.796   1
  -3  20 -20  101.95 989.596   1
  -3 -20 -20-2002.95 1388.62   1
   3  20 -21 775.454 1197.68   1
  -3  20 -21 1129.13 1140.27   1
  -3 -20 -21-334.575 1399.62   1
   3  20 -22 23.4843 763.553   1
  -3  20 -22 2527.27 1427.45   1
  -3 -20 -22-501.562 1697.23   1
   3  20 -23 524.409 610.037   1
  -3  20 -23-1377.14 1051.79   1
  -3 -20 -23 2464.12 2021.18   1
   3  20 -24 887.069 1116.83   1
  -3  20 -24-256.434  991.88   1
  -3 -20 -24-620.672 1657.81   1
  -3 -20 -25 3233.61 2516.85   1
  -3 -20 -26 1658.86 2021.09   1
  -3  21   0-418.486  702.25   1
  -3  21  -1 1904.60 1299.31   1
  -3  21  -2 1503.59 901.995   1
  -3  21  -3-658.906 724.637   1
  -3  21  -4 661.492 815.792   1
  -3 -21  -4-2089.13 1877.57   1
   3  21  -5 2668.74 1382.17   1
  -3  21  -5-574.198  872.15   1
  -3 -21  -5 660.704 1764.24   1
   3  21  -6 1424.15 1238.23   1
  -3  21  -6 2412.84 1590.53   1
  -3 -21  -6 509.669 1728.52   1
   3  21  -7-119.778 704.837   1
  -3 -21  -7 1828.31 1887.23   1
   3  21  -8  858.08 1224.18   1
  -3  21  -8 1226.17 1148.33   1
  -3 -21  -8 804.386 1697.62   1
   3  21  -9 733.315 665.408   1
  -3  21  -9 1334.85 1117.54   1
  -3 -21  -9 1494.53 1697.92   1
   3  21 -10 378.771 554.345   1
  -3  21 -10 429.537 1030.89   1
  -3 -21 -10-2091.09 1626.94   1
   3  21 -11 818.356 802.491   1
  -3  21 -11 574.522 1081.28   1
  -3 -21 -11 2109.72 1688.08   1
   3  21 -12-111.902 1013.30   1
  -3  21 -12 1140.11 1208.17   1
  -3 -21 -12 345.572 1611.08   1
   3  21 -13-995.098 1001.84   1
  -3  21 -13-293.349 1029.36   1
  -3 -21 -13 287.674 1570.85   1
   3  21 -14 2448.54 1945.45   1
  -3  21 -14 1599.30 1227.86   1
  -3 -21 -14 2943.16 2627.95   1
   3  21 -15-79.1204 912.393   1
  -3  21 -15 439.771 1393.88   1
  -3 -21 -15-1957.32 1494.58   1
   3  21 -16 159.397 620.993   1
  -3  21 -16-1226.96 1068.95   1
  -3 -21 -16 1623.06 2067.53   1
   3  21 -17 110.445 611.784   1
  -3  21 -17 3141.34 2030.58   1
  -3 -21 -17-428.847 1425.21   1
   3  21 -18 518.996 1015.64   1
  -3  21 -18 658.216 1151.61   1
  -3 -21 -18 420.738 1258.32   1
   3  21 -19 695.575 923.678   1
  -3  21 -19 934.422 1295.66   1
  -3 -21 -19-926.999 1356.83   1
   3  21 -20  306.28 816.495   1
  -3  21 -20 1498.25 1378.73   1
  -3 -21 -20-392.359 1601.35   1
   3  21 -21 1371.14 1068.71   1
  -3  21 -21 800.103 1170.54   1
  -3 -21 -21-141.591 1595.76   1
   3  21 -22 631.272 1101.24   1
  -3  21 -22 870.319 1104.84   1
  -3 -21 -22-670.412 1733.48   1
  -3 -21 -23 2226.72 1925.63   1
  -3 -21 -24 1961.69 1921.22   1
  -3 -21 -25 338.268 1649.60   1
  -3  22  -2 1708.10 1133.80   1
  -3  22  -3 1917.64 1442.86   1
  -3  22  -4-1021.25 852.666   1
  -3 -22  -4 2971.26 2869.32   1
  -3  22  -5 573.028 934.494   1
  -3 -22  -5 562.109 1799.69   1
   3  22  -6-151.118 745.078   1
  -3  22  -6 1120.88 1345.55   1
  -3 -22  -6-1451.95 1804.68   1
   3  22  -7 684.165 848.665   1
  -3  22  -7 2092.32 1309.33   1
  -3 -22  -7 4671.01 3242.68   1
   3  22  -8 272.012 802.396   1
  -3  22  -8-1673.08 869.068   1
  -3 -22  -8 2944.76 2943.48   1
   3  22  -9 1116.68 1453.58   1
  -3  22  -9 2277.64 1692.85   1
  -3 -22  -9 1855.70 2452.07   1
   3  22 -10 1133.93 1104.31   1
  -3  22 -10 603.363 903.882   1
  -3 -22 -10 2514.74 1985.43   1
   3  22 -11  656.42 874.946   1
  -3  22 -11 2821.65 1853.69   1
  -3 -22 -11 3357.17 2597.80   1
   3  22 -12 1183.29 834.409   1
  -3  22 -12 2069.72 1680.63   1
  -3 -22 -12-905.848 1475.48   1
   3  22 -13 823.128 789.705   1
  -3  22 -13 1908.95 1699.67   1
  -3 -22 -13 4973.06 2832.92   1
   3  22 -14 1092.40 1189.16   1
  -3  22 -14 2414.02 1934.96   1
  -3 -22 -14  213.18 1263.83   1
   3  22 -15 563.734 960.028   1
  -3  22 -15 1072.54 1047.19   1
  -3 -22 -15-48.7913 1230.44   1
   3  22 -16  107.98 1124.82   1
  -3  22 -16 2809.34 1764.38   1
  -3 -22 -16 7062.98 3018.75   1
   3  22 -17 1889.29 1358.92   1
  -3  22 -17 2868.96 2036.45   1
  -3 -22 -17-466.251 1330.59   1
   3  22 -18-121.984 949.288   1
  -3  22 -18 1365.86 1201.98   1
  -3 -22 -18 2875.51 1707.46   1
   3  22 -19 1260.91  936.56   1
  -3  22 -19  685.09 1090.01   1
  -3 -22 -19 1137.86 1632.37   1
   3  22 -20 181.105 1138.79   1
  -3  22 -20 2250.42 1676.03   1
  -3 -22 -20 3847.04 2229.72   1
   3  22 -21 2197.13 1607.00   1
  -3 -22 -21-937.171 1638.85   1
  -3 -22 -22 4215.92 2846.47   1
  -3 -22 -23 1677.67 1943.54   1
  -3 -22 -24 4755.27 3176.40   1
  -3  23  -3 246.995 828.618   1
  -3  23  -4-645.628  816.22   1
  -3 -23  -4 2982.00 2958.33   1
  -3  23  -5 287.616 1238.81   1
  -3 -23  -5 2121.11 1787.27   1
   3  23  -6 1291.67 1080.48   1
  -3  23  -6 1476.85 1422.31   1
  -3 -23  -6-2692.52 1689.82   1
   3  23  -7 1658.18 1212.69   1
  -3  23  -7 224.715 958.059   1
  -3 -23  -7 2030.25 2319.54   1
   3  23  -8 295.191 754.408   1
  -3  23  -8 1209.44 1099.97   1
  -3 -23  -8 287.864 1447.73   1
   3  23  -9 1028.85 878.569   1
  -3  23  -9 4412.67 1852.74   1
  -3 -23  -9 925.628 1564.52   1
   3  23 -10 1005.62 976.918   1
  -3  23 -10 46.1102 929.191   1
  -3 -23 -10 2894.33 1613.58   1
   3  23 -11 329.257 703.366   1
  -3  23 -11 417.082 963.255   1
  -3 -23 -11 238.842 1337.12   1
   3  23 -12 816.781 910.745   1
  -3  23 -12 25.6859 957.128   1
  -3 -23 -12 1873.11 1562.47   1
   3  23 -13 -687.55 957.979   1
  -3  23 -13 1053.70 1361.70   1
  -3 -23 -13 1768.41 1445.98   1
   3  23 -14-494.573 862.112   1
  -3  23 -14 2357.96 2009.96   1
  -3 -23 -14 590.328 1334.34   1
   3  23 -15 1220.92 1000.22   1
  -3  23 -15 956.513 1764.17   1
  -3 -23 -15-2074.30 1240.90   1
   3  23 -16  637.35 624.438   1
  -3  23 -16-1524.22 843.369   1
  -3 -23 -16-1438.21 1333.72   1
   3  23 -17 356.957 443.304   1
  -3  23 -17 2741.29 1308.98   1
  -3 -23 -17 3802.86 2863.65   1
  -3  23 -18-739.735 887.778   1
  -3 -23 -18 5044.72 2857.75   1
  -3  23 -19 1219.23 1000.93   1
  -3 -23 -19 1973.18 1801.77   1
  -3  23 -20 3340.04 1819.16   1
  -3 -23 -20 3485.34 2030.70   1
  -3 -23 -21 1068.30 1650.30   1
  -3 -23 -22 3793.05 2911.43   1
  -3  24  -4 606.405 922.082   1
  -3 -24  -4 1604.60 1867.29   1
  -3  24  -5 2356.49 1434.94   1
  -3 -24  -5 4389.64 2069.42   1
   3  24  -6 2798.35 1448.56   1
  -3  24  -6 1621.78 1418.49   1
  -3 -24  -6 6444.17 4973.55   1
   3  24  -7 384.459 669.332   1
  -3  24  -7-991.474 966.593   1
  -3 -24  -7-222.496 1403.20   1
   3  24  -8 310.788 694.521   1
  -3  24  -8 401.926 1006.56   1
  -3 -24  -8 3846.92 1921.45   1
   3  24  -9 -182.67 689.836   1
  -3  24  -9 1365.07 1547.62   1
  -3 -24  -9-1165.71 1308.69   1
   3  24 -10 682.683 629.724   1
  -3  24 -10-98.1179 976.328   1
  -3 -24 -10-177.066 1360.93   1
   3  24 -11-243.793 833.133   1
  -3  24 -11 1221.04 1151.14   1
  -3 -24 -11  601.74 1364.30   1
   3  24 -12 582.902 928.614   1
  -3  24 -12 1349.07 1143.07   1
  -3 -24 -12 1295.47 1471.38   1
   3  24 -13-103.591 875.322   1
  -3  24 -13 3344.13 2032.17   1
  -3 -24 -13 2085.64 2113.56   1
   3  24 -14 1092.42 783.061   1
  -3  24 -14-1026.51 947.577   1
  -3 -24 -14 1673.64 1590.84   1
   3  24 -15-333.697 747.809   1
  -3  24 -15 1624.68 1247.62   1
  -3 -24 -15 3307.02 1856.48   1
   3  24 -16  712.73  616.92   1
  -3  24 -16  888.31 1004.21   1
  -3 -24 -16-1116.52 1443.46   1
   3  24 -17 1438.35 1157.61   1
  -3  24 -17 1292.99 1061.90   1
  -3 -24 -17 608.424 1500.17   1
  -3  24 -18 4726.90 2443.86   1
  -3 -24 -18-2129.92 1410.51   1
  -3  24 -19  120.98 933.946   1
  -3 -24 -19 3648.66 2064.84   1
  -3 -24 -20 1076.64 1717.58   1
  -3 -25  -4 1853.28 1827.23   1
  -3 -25  -5 3086.46 2291.51   1
  -3  25  -6 108.513  945.82   1
  -3 -25  -6 1617.14 1672.58   1
   3  25  -7 2771.46 1836.97   1
  -3  25  -7 3920.13 2440.92   1
  -3 -25  -7 2893.12 2058.92   1
   3  25  -8 861.947 998.602   1
  -3  25  -8 2097.08 1956.29   1
  -3 -25  -8 3828.40 2274.14   1
   3  25  -9 1141.96 890.502   1
  -3  25  -9 1035.88 1767.13   1
   3  25 -10 1183.47 911.981   1
  -3  25 -10 3373.02 2066.09   1
  -3 -25 -10-75.3979 1412.97   1
   3  25 -11 309.135  416.51   1
  -3  25 -11 2741.59 1706.44   1
  -3 -25 -11-791.905 1371.63   1
   3  25 -12 824.327 982.197   1
  -3  25 -12 1194.03 1062.19   1
  -3 -25 -12 678.834 1494.43   1
   3  25 -13-436.584 1054.76   1
  -3  25 -13 119.817 1003.03   1
  -3 -25 -13 3931.56 1949.10   1
   3  25 -14 1048.96 1119.72   1
  -3  25 -14 275.955 989.292   1
  -3 -25 -14 663.736 1481.02   1
  -3  25 -15-672.507 1001.64   1
  -3 -25 -15 1498.34 1529.17   1
  -3  25 -16 1461.38 1627.76   1
  -3 -25 -16 360.731 1436.64   1
  -3  25 -17-973.138 1028.95   1
  -3 -25 -17-1435.60 1469.22   1
  -3 -25 -18 3643.43 2626.55   1
  -3 -25 -19 4580.11 2480.77   1
  -3 -26  -4 3094.23 2370.12   1
  -3 -26  -5 732.692 1796.09   1
  -3 -26  -6 897.375 1827.58   1
   3  26  -7 18.7231 795.913   1
  -3  26  -7 207.359  968.92   1
  -3 -26  -7 3489.22 2207.66   1
   3  26  -8 422.783 852.366   1
  -3  26  -8 79.3246 1010.16   1
  -3 -26  -8 1730.34 1803.29   1
   3  26  -9 -159.83 784.316   1
  -3 -26  -9 1511.27 1734.09   1
   3  26 -10 730.974 924.077   1
  -3  26 -10 313.985 1009.49   1
  -3 -26 -10 3562.42 2397.04   1
   3  26 -11 961.826 909.334   1
  -3  26 -11 2765.94 1739.95   1
  -3 -26 -11 -227.42 1350.71   1
  -3  26 -12 987.124 1436.27   1
  -3 -26 -12-965.111 1346.66   1
  -3  26 -13 656.526  979.42   1
  -3 -26 -13 1519.07 1597.17   1
  -3  26 -14 396.968 936.553   1
  -3 -26 -14 1388.69 1660.83   1
  -3  26 -15 1236.45 1380.59   1
  -3 -26 -15 -670.98 1474.74   1
  -3  26 -16 907.304 1361.12   1
  -3 -26 -16 1663.48 1820.32   1
  -3 -26 -17 1280.01 2414.87   1
  -3 -27  -4 3544.88 2393.78   1
  -3 -27  -5 293.606 1851.30   1
  -3 -27  -6 345.558 1826.83   1
  -3 -27  -7 214.575 1638.36   1
  -3 -27  -8-1584.90 1571.17   1
  -3 -27  -9 2937.44 1948.53   1
  -3  27 -10 319.687 979.523   1
  -3 -27 -10 2077.68 1839.24   1
  -3  27 -11 5034.88 2417.20   1
  -3 -27 -11 1065.24 1594.43   1
  -3  27 -12 1111.58 1118.70   1
  -3 -27 -12 862.002 1618.15   1
  -3  27 -13-1343.62  995.97   1
  -3 -27 -13 -402.29 1613.80   1
  -3  27 -14 1467.82 1602.72   1
  -3 -27 -14  856.85 1654.05   1
  -3  27 -15-578.323 882.729   1
  -3 -27 -15 2189.73 1832.08   1
  -3 -28  -4 2021.89 2102.90   1
  -3 -28  -5 2198.04 2156.21   1
  -3 -28  -6-46.4169 1828.41   1
  -3 -28  -7 234.985 1727.48   1
  -3 -28  -8 2894.47 2130.61   1
  -3 -28  -9 1577.55 2072.16   1
  -3  28 -11-379.192 947.289   1
  -4   0   0 4072.97 1705.23   1
  -4   0  -1 1366.53 1435.79   1
  -4   0   1 1741.39 1296.43   1
  -4   0  -2 1263.48 1494.08   1
  -4   0   2  772.79 1183.06   1
  -4   0  -3 1631.10 1596.10   1
  -4   0   3 1318.61 1150.78   1
  -4   0  -412662.20 2924.36   1
  -4   0   4 5225.45 1577.45   1
  -4   0  -5  537.40 1660.02   1
  -4   0   5 795.141 1017.19   1
  -4   0  -612208.50 3997.38   1
  -4   0   610689.80 2953.31   1
  -4   0  -7-1183.92 1715.09   1
  -4   0   7 749.762 928.411   1
  -4   0  -8 1885.02 1921.38   1
  -4   0   8 2814.81 1361.26   1
  -4   0  -9 2986.05 2910.08   1
  -4   0   9 1436.42 1440.74   1
  -4   0 -10 1480.92 1851.12   1
  -4   0  10 2719.64 1659.40   1
  -4   0 -11-2509.39 2089.77   1
  -4   0  11 852.215 1034.02   1
  -4   0 -12 4094.44 2262.71   1
  -4   0 -13 2319.27 2850.98   1
  -4   0 -14 6207.01 2809.65   1
  -4   0 -15 323.519 1847.50   1
  -4   0 -16 136.035 1735.36   1
  -4   0 -17 8591.60 3232.61   1
  -4   0 -18 2160.29 1674.00   1
  -4   0 -19 1765.19 1872.88   1
  -4   0 -20 3285.29 2612.12   1
  -4   0 -21 2295.94 1884.74   1
  -4   0 -22 1867.27 1816.10   1
  -4   0 -23 3317.73 2681.35   1
  -4   0 -2413044.20 6328.51   1
  -4   0 -25-473.601 1955.98   1
  -4   0 -26 862.448 1813.09   1
  -4   0 -27 2945.55 2380.20   1
  -4   0 -28 3561.74 2552.33   1
  -4   0 -29 975.598 1578.91   1
  -4   0 -30-17.9987 1568.04   1
  -4   0 -31 1661.30 1923.72   1
  -4   0 -32 4523.94 2834.56   1
  -4   1   0 131.329 1163.68   1
  -4  -1   0-757.384 1325.62   1
  -4   1  -1-406.534 1257.61   1
  -4   1   1 2326.97 1334.82   1
  -4  -1  -1 534.669 1505.45   1
  -4  -1   1 3269.58 1976.90   1
  -4   1  -2 4131.16 2130.36   1
  -4   1   2 2297.62 1648.63   1
  -4  -1  -2 7901.65 2735.75   1
  -4  -1   2 4271.14 2252.50   1
  -4   1  -3 2262.99 1492.60   1
  -4  -1  -3 4163.63 2531.91   1
  -4   1   3 3371.80 1692.19   1
  -4  -1   3 5546.38 1654.12   1
  -4   1  -4 5745.09 2501.30   1
  -4  -1  -4 1700.21 1780.65   1
  -4   1   4 2447.08 1471.29   1
  -4  -1   4 560.297 1039.58   1
  -4   1  -514414.40 3141.46   1
  -4  -1  -515043.10 3360.47   1
  -4   1   511920.60 2434.49   1
  -4  -1   513197.50 2635.61   1
  -4   1  -6 2469.11 1762.53   1
  -4  -1  -6 1970.96 2732.80   1
  -4   1   6 3002.33 2153.06   1
  -4  -1   6 489.602 1030.36   1
  -4   1  -7 2051.94 2522.97   1
  -4  -1  -7-524.751 1835.94   1
  -4   1   7 199.915  930.81   1
  -4  -1   7 1519.96 1138.19   1
  -4   1  -8-46.6267 1778.76   1
  -4  -1  -8 1210.46 1853.76   1
  -4   1   8 1198.54 1253.43   1
  -4  -1   8 2856.99 1943.78   1
  -4   1  -9 2834.59 2050.79   1
  -4  -1  -9 838.316 1837.60   1
  -4   1   9 3252.11 1691.51   1
  -4  -1   9 3996.81 1978.38   1
  -4   1 -10 2167.89 2025.68   1
  -4  -1 -10 3187.36 2974.42   1
  -4   1  10 6544.25 2434.15   1
  -4  -1  10 6526.55 2531.32   1
  -4   1 -11 3356.46 2118.05   1
  -4  -1 -11 4059.90 2218.85   1
  -4   1  11 4954.85 2169.73   1
  -4   1 -12 915.754 1872.44   1
  -4  -1 -12 3091.28 2250.84   1
  -4   1  12 4912.32 2183.29   1
  -4   1 -13 2320.60 1993.35   1
  -4  -1 -13 1975.82 2948.06   1
  -4   1  13 1671.10 1090.14   1
  -4   1 -14 6735.74 2758.13   1
  -4  -1 -14 1128.18 2039.78   1
  -4   1 -15 1036.39 1675.76   1
  -4  -1 -15 114.325 1864.99   1
  -4   1 -16 1654.57 1814.35   1
  -4  -1 -16 6783.47 3307.45   1
  -4   1 -17-637.543 1725.28   1
  -4  -1 -17 4068.73 2692.97   1
   4   1 -18 896.577 566.491   1
  -4   1 -18 4752.28 3027.73   1
  -4  -1 -18 3798.18 2043.57   1
  -4   1 -19 1483.15 1706.01   1
  -4  -1 -19 3697.75 2600.25   1
  -4   1 -20-1081.78 1540.00   1
  -4  -1 -20-872.725 1686.54   1
  -4   1 -21 1409.98 1648.62   1
  -4  -1 -21 1780.87 1801.49   1
  -4   1 -22 3158.69 1993.07   1
  -4  -1 -22 2793.48 2010.76   1
  -4   1 -23 4381.76 2744.41   1
  -4  -1 -23 740.287 1835.19   1
  -4   1 -24 3540.41 2861.57   1
  -4  -1 -24 3051.15 2073.40   1
  -4   1 -25-119.117 1916.50   1
  -4  -1 -25 3491.97 2091.43   1
  -4   1 -26 1661.82 2711.41   1
  -4  -1 -26  166.28 1623.95   1
  -4   1 -27 3132.60 2072.07   1
  -4  -1 -27 840.546 1538.36   1
  -4   1 -28 4333.92 2256.69   1
  -4  -1 -28 1719.02 1623.29   1
  -4   1 -29 2750.67 2039.48   1
  -4  -1 -29 4132.82 2803.05   1
  -4   1 -30-313.824 1525.62   1
  -4  -1 -30 4670.78 3237.83   1
  -4   1 -31-715.938 1463.94   1
  -4  -1 -31 540.949 1765.36   1
  -4   2   0 1746.73 1186.62   1
  -4  -2   0 3711.35 2214.39   1
  -4   2  -1 5217.89 1720.75   1
  -4   2   1 4207.71 1795.90   1
  -4  -2  -1 5557.98 2184.41   1
  -4  -2   1 4665.49 1887.03   1
  -4   2  -2 1235.98 1202.95   1
  -4   2   2 1275.25 1065.38   1
  -4  -2  -2 292.131 1546.05   1
  -4  -2   2 4075.51 1995.79   1
  -4   2  -3 4395.16 2191.56   1
  -4   2   3-342.214 1026.06   1
  -4  -2  -3 4635.69 3032.97   1
  -4  -2   3-512.867 1112.51   1
  -4   2  -4 6478.53 2100.54   1
  -4   2   4 5583.14 1773.71   1
  -4  -2  -4 2193.19 1883.16   1
  -4   2  -5 5080.55 2001.68   1
  -4  -2  -5 4064.90 3406.20   1
  -4   2   5 2712.68 1448.46   1
  -4  -2   5 1194.57 1146.00   1
  -4   2  -6 2019.89 1696.25   1
  -4  -2  -6 5816.04 2927.38   1
  -4   2   6 1056.42 857.094   1
  -4  -2   6 3103.82 1713.27   1
  -4   2  -7 6736.43 2983.16   1
  -4  -2  -7 8059.48 3128.91   1
  -4   2   7 6272.67 2172.93   1
  -4  -2   7 4910.47 2160.80   1
  -4   2  -8 1911.57 1806.44   1
  -4  -2  -8 3310.57 2899.86   1
  -4   2   8 1982.47 1455.73   1
  -4  -2   8-1322.70 1118.08   1
  -4   2  -9 6330.62 2874.85   1
  -4  -2  -9 5856.55 3119.02   1
  -4   2   9 2862.47 1915.76   1
  -4  -2   9 5979.30 2308.51   1
  -4   2 -10 2040.70 1876.86   1
  -4  -2 -10 171.264 2032.26   1
  -4   2  10 3155.64 1647.24   1
  -4   2 -11 1631.07 1798.77   1
  -4  -2 -11 235.496 2140.47   1
  -4   2  11 2373.13 1379.86   1
  -4   2 -12 498.338 1818.17   1
  -4  -2 -12 4086.00 2279.45   1
  -4   2  12 2356.13 1306.91   1
  -4   2 -13 3241.97 2000.55   1
  -4  -2 -13 1484.39 3113.82   1
  -4   2  13 2941.70 1564.53   1
  -4   2 -14 8232.46 2277.23   1
  -4  -2 -14 5734.77 2214.54   1
  -4   2  14 1166.97 1088.07   1
  -4   2 -15 7051.90 3401.38   1
  -4  -2 -1510371.70 4231.89   1
  -4   2  15 3240.20 2225.59   1
  -4   2 -16 4355.76 2570.62   1
  -4  -2 -1610476.10 4416.18   1
   4   2 -17 2956.76 1159.92   1
  -4   2 -17 5758.47 2180.39   1
  -4  -2 -17 105.678 1795.90   1
   4   2 -18 1982.82 852.924   1
  -4   2 -18 122.197 1488.64   1
  -4  -2 -18 917.834 1868.66   1
   4   2 -19 490.071 801.294   1
  -4   2 -19 1675.78 1699.57   1
  -4  -2 -19 131.811 1779.23   1
  -4   2 -20 577.078 1643.17   1
  -4  -2 -20-781.755 1806.51   1
  -4   2 -21 721.607 1557.61   1
  -4  -2 -21 1038.15 1874.54   1
  -4   2 -22 311.885 1630.51   1
  -4  -2 -22-831.493 1890.73   1
  -4   2 -23 2812.12 1912.24   1
  -4  -2 -23 407.756 1875.05   1
  -4   2 -24 1351.50 1957.25   1
  -4  -2 -24-162.086 1889.80   1
  -4   2 -25 3713.94 2943.91   1
  -4  -2 -25  597.31 1779.34   1
  -4   2 -26-733.409 1962.73   1
  -4  -2 -26-616.326 1548.60   1
  -4   2 -27 3275.01 2063.14   1
  -4  -2 -27 853.941 1554.11   1
  -4   2 -28 2380.82 1913.77   1
  -4  -2 -28 2352.50 2240.14   1
  -4   2 -29 2746.21 1943.84   1
  -4  -2 -29-23.2887 1420.82   1
  -4   2 -30 888.139 1501.26   1
  -4  -2 -30 233.942 1629.08   1
  -4   2 -31-1355.79 1456.28   1
  -4  -2 -31 5027.18 2464.18   1
  -4   3   0 1976.65 1142.92   1
  -4  -3   0 532.611 1456.39   1
  -4   3  -1 4590.48 1098.28   1
  -4   3   1 4795.80 1828.49   1
  -4  -3  -1 2480.05 1666.02   1
  -4  -3   1 2785.95 1547.81   1
  -4   3  -2-4.66075 1267.19   1
  -4   3   2 1832.04 1030.60   1
  -4  -3  -2-271.708 1647.64   1
  -4  -3   2 1960.87 1865.78   1
  -4   3  -3 5786.06 1403.79   1
  -4   3   3 9353.61 1920.06   1
  -4  -3  -312562.40 3370.80   1
  -4  -3   3 4905.87 2141.36   1
  -4   3  -4 6502.15 2135.26   1
  -4   3   4 3370.35 1565.04   1
  -4  -3  -4 1051.79 1775.48   1
  -4  -3   4 1712.04 1268.56   1
  -4   3  -5 433.676 1418.36   1
  -4   3   5 1939.10 1343.57   1
  -4  -3  -5 817.802 1886.81   1
  -4  -3   5 766.201 1143.21   1
  -4   3  -6-826.157 1467.84   1
  -4  -3  -6 2807.53 2157.91   1
  -4   3   6 1125.17 826.497   1
  -4  -3   6-482.409 1136.90   1
  -4   3  -7-533.404 1506.48   1
  -4  -3  -7 2159.31 2041.02   1
  -4   3   7 562.988  798.94   1
  -4  -3   7 2168.25 1382.14   1
  -4   3  -8 342.991 1592.76   1
  -4  -3  -8 4382.58 2269.16   1
  -4   3   8 526.276 752.176   1
  -4  -3   8 3386.77 1792.04   1
  -4   3  -9 2979.52 2220.38   1
  -4  -3  -9 2602.36 2275.78   1
  -4   3   9  410.78 747.157   1
  -4   3 -10 790.655 1766.30   1
  -4  -3 -10 3871.90 3049.91   1
  -4   3  10 933.474 756.807   1
  -4   3 -11 5921.33 3430.85   1
  -4  -3 -11 1593.77 2120.07   1
  -4   3  11 2294.07 1354.90   1
  -4   3 -12-368.628 1541.97   1
  -4  -3 -12 207.305 2041.46   1
  -4   3  12 1060.30 838.002   1
  -4   3 -13-963.906 1651.52   1
  -4  -3 -13 3116.58 2189.87   1
  -4   3  13 2781.26 1397.78   1
  -4   3 -14-594.333 1739.09   1
  -4  -3 -14 1336.35 1939.12   1
  -4   3  14 570.169  534.58   1
  -4   3 -15 4545.74 2762.60   1
  -4  -3 -15 6442.84 2651.61   1
   4   3 -16 2039.44 1073.98   1
  -4   3 -16 4573.96 2738.01   1
  -4  -3 -16 6324.93 3481.72   1
  -4   3 -17 506.312 1728.01   1
  -4  -3 -17 6813.00 3238.51   1
   4   3 -18 1147.04  685.09   1
  -4   3 -18 -327.35 1679.02   1
  -4  -3 -18-723.369 1896.85   1
   4   3 -19 1326.43 599.921   1
  -4   3 -19 929.361 1594.35   1
  -4  -3 -19 2407.73 2132.00   1
   4   3 -20 2744.96 1522.34   1
  -4   3 -20 3984.97 2733.22   1
  -4  -3 -20 481.654 1863.25   1
  -4   3 -21 1373.89 1670.77   1
  -4  -3 -21 1249.84 1967.75   1
  -4   3 -22 484.403 1570.41   1
  -4  -3 -22 898.181 1970.19   1
  -4   3 -23 9927.88 5021.11   1
  -4  -3 -23 6275.05 3275.76   1
  -4   3 -24 2407.84 1896.32   1
  -4  -3 -24 2426.18 2557.26   1
  -4   3 -25 3495.08 2163.41   1
  -4  -3 -25 2226.70 1822.18   1
  -4   3 -26 187.311 2103.55   1
  -4  -3 -26 6.90474 1569.25   1
  -4   3 -27 6416.89 5282.37   1
  -4  -3 -27 2975.62 1700.72   1
  -4   3 -28 2204.42 1910.37   1
  -4  -3 -28 2988.90 1761.66   1
  -4   3 -29 5752.34 4575.56   1
  -4  -3 -29 2652.43 1924.38   1
  -4   3 -30-125.321 1435.58   1
  -4  -3 -30 2782.50 2810.65   1
  -4   3 -31 1133.22 1387.35   1
  -4  -3 -31-387.384 1623.33   1
  -4   4   018961.50 2901.86   1
  -4  -4   021102.30 3495.86   1
  -4   4  -1-524.342 1136.68   1
  -4   4   1 2766.52 1822.55   1
  -4  -4  -1 14.9145 1494.04   1
  -4  -4   1 3458.42 1665.49   1
  -4   4  -2 4013.21 1977.58   1
  -4   4   2 1964.03 1170.10   1
  -4  -4  -2 4048.75 2906.90   1
  -4  -4   2 671.564 1409.97   1
  -4   4  -3 2244.85 1725.10   1
  -4   4   3 1182.68 1341.02   1
  -4  -4  -3-472.855 1698.40   1
  -4  -4   3 591.067 1263.95   1
  -4   4  -4 2365.12 1514.30   1
  -4   4   4 1289.33 1270.70   1
  -4  -4  -4 7187.09 3005.31   1
  -4  -4   4 3603.11 1975.88   1
  -4   4  -5 4852.94 2115.56   1
  -4   4   5 4135.03 1616.54   1
  -4  -4  -5 2084.52 1993.14   1
  -4  -4   5 4291.09 2484.04   1
  -4   4  -6 5345.44 2302.82   1
  -4   4   6 4986.63 1514.83   1
  -4  -4  -6 9829.08 4041.57   1
  -4   4  -7 3879.87 1745.80   1
  -4   4   7 -98.999 703.988   1
  -4  -4  -7 4959.68 2851.72   1
  -4  -4   7 4749.29 2356.95   1
  -4   4  -8 2168.22 2209.93   1
  -4   4   8 1922.50 1385.92   1
  -4  -4  -8 3417.65 2909.09   1
  -4   4  -9 2567.73 1625.69   1
  -4   4   9 4316.26 1831.95   1
  -4  -4  -9 5299.38 2517.82   1
  -4   4 -10 3245.87 1935.94   1
  -4  -4 -10 2384.21 2217.73   1
  -4   4  10 1578.22 920.098   1
  -4   4 -11 3662.69 2532.12   1
  -4  -4 -11-287.613 2112.24   1
  -4   4  11 1303.26 588.234   1
  -4   4 -12 -612.46 1567.47   1
  -4  -4 -12 5228.77 2204.33   1
  -4   4  12 354.691 473.874   1
  -4   4 -13-2208.10 1665.93   1
  -4  -4 -13 4291.25 2027.68   1
  -4   4 -14 5849.93 2569.01   1
  -4  -4 -14 4167.01 2707.31   1
   4   4 -15 489.398  691.11   1
  -4   4 -15 3939.84 2070.23   1
  -4  -4 -15 5697.79 3364.80   1
   4   4 -16 2017.42 834.056   1
  -4   4 -16 3359.81 2540.42   1
  -4  -4 -16 9182.34 3612.73   1
   4   4 -17 229.678 388.258   1
  -4   4 -17 3535.74 1914.58   1
  -4  -4 -17 2284.54 2018.50   1
  -4   4 -18 768.817 1661.91   1
  -4  -4 -18-167.855 2076.94   1
   4   4 -19 1057.06 554.562   1
  -4   4 -19 2305.01 1818.79   1
  -4  -4 -19 79.1135 1899.47   1
   4   4 -20 89.2967  394.75   1
  -4   4 -20 2029.34 1771.56   1
  -4  -4 -20 5078.28 3237.23   1
   4   4 -21 1493.33  990.63   1
  -4   4 -21 3735.13 2585.75   1
  -4  -4 -21-1737.35 1966.84   1
  -4   4 -22 2837.06 2529.67   1
  -4  -4 -22 3069.46 2953.87   1
  -4   4 -23 1708.49 1753.58   1
  -4  -4 -23-984.369 1834.29   1
  -4   4 -24 2390.83 1827.52   1
  -4  -4 -24 5546.28 3095.68   1
  -4   4 -25 6132.29 2933.53   1
  -4  -4 -25 4103.71 2629.70   1
  -4   4 -26 1590.18 1989.18   1
  -4  -4 -26 2386.31 2425.70   1
  -4   4 -27 3584.13 3038.65   1
  -4  -4 -27 1861.21 1581.46   1
  -4   4 -28 1257.61 1809.17   1
  -4  -4 -28-934.248 1246.83   1
  -4   4 -29 5388.85 3396.36   1
  -4  -4 -29 1737.44 1762.88   1
  -4   4 -30-2256.58 1405.86   1
  -4  -4 -30 2414.24 1895.34   1
  -4   4 -31-1231.05 1282.70   1
  -4  -4 -31 1299.67 1775.88   1
  -4   5   0 3599.41 1942.91   1
  -4  -5   0-394.456 1577.63   1
  -4   5  -1 3871.96 1699.31   1
  -4   5   1 7934.54 2499.82   1
  -4  -5  -1 3918.04 2303.33   1
  -4  -5   1 3549.39 2007.55   1
  -4   5  -2 7756.39 2310.46   1
  -4   5   213580.70 3512.23   1
  -4  -5  -2 9069.01 3033.98   1
  -4  -5   2 8790.06 2734.11   1
  -4   5  -315602.80 4167.62   1
  -4   5   317280.40 4340.42   1
  -4  -5  -3 4730.37 2021.59   1
  -4  -5   3 6451.59 2465.61   1
  -4   5  -415274.80 3923.05   1
  -4   5   415379.60 3787.15   1
  -4  -5  -4 4866.06 2047.71   1
  -4  -5   4 8886.71 3155.05   1
  -4   5  -5 2586.97 2046.62   1
  -4   5   5 3280.45 1604.11   1
  -4  -5  -5 210.139 1726.67   1
  -4  -5   5 1748.00 1488.59   1
  -4   5  -6 5538.22 1811.12   1
  -4   5   6 4909.84 1537.27   1
  -4  -5  -610164.50 3468.72   1
  -4  -5   6 3438.67 2001.64   1
  -4   5  -7 630.514 1263.34   1
  -4   5   7 2314.62 1528.13   1
  -4  -5  -7-703.089 2081.80   1
  -4   5  -8 1057.03 1343.11   1
  -4   5   8 1908.74 1049.30   1
  -4  -5  -8 966.087 2039.95   1
  -4   5  -9 2982.03 1706.02   1
  -4   5   9 4156.77 1648.68   1
  -4  -5  -9 146.697 2282.35   1
  -4   5 -1014613.00 4646.57   1
  -4   5  1020639.90 5716.28   1
  -4  -5 -1014815.10 4955.64   1
  -4   5 -11 3105.20 1955.44   1
  -4   5  11 4438.42 1610.03   1
  -4  -5 -11 1498.48 1877.58   1
  -4   5 -12 2167.29 1828.47   1
  -4  -5 -12 2698.53 2143.11   1
  -4   5 -13 1164.37 1684.22   1
  -4  -5 -13  794.52 1847.43   1
   4   5 -14  394.98 615.174   1
  -4   5 -14 2297.67 1730.51   1
  -4  -5 -14 2835.13 2819.36   1
   4   5 -15 1503.51 1245.01   1
  -4   5 -15 2875.64 1782.22   1
  -4  -5 -15 5793.87 2639.28   1
   4   5 -16 694.223 785.757   1
  -4   5 -16 357.302 1773.10   1
  -4  -5 -16 4237.66 2914.97   1
   4   5 -17-220.456 621.373   1
  -4   5 -17 1505.07 2043.87   1
  -4  -5 -17 748.711 1845.96   1
   4   5 -18 1628.75 980.432   1
  -4   5 -18 3106.60 2027.34   1
  -4  -5 -18 5950.42 3402.15   1
  -4   5 -19 872.254 1751.84   1
  -4  -5 -19-1376.29 1826.92   1
   4   5 -20 38.4969 417.651   1
  -4   5 -20-248.814 1759.84   1
  -4  -5 -20 5716.39 2853.64   1
   4   5 -21-138.576 579.314   1
  -4   5 -21-422.057 1660.07   1
  -4  -5 -21 1681.97 2129.41   1
   4   5 -22 867.917 665.959   1
  -4   5 -22 3845.13 2645.48   1
  -4  -5 -22-17.7075 2072.88   1
  -4   5 -23 7568.15 3769.69   1
  -4  -5 -23 3401.10 2994.23   1
  -4   5 -24 1642.61 1711.89   1
  -4  -5 -24-1500.47 1757.37   1
  -4   5 -25 2919.11 2259.80   1
  -4  -5 -25 2184.29 1980.60   1
  -4   5 -26 2875.80 2018.27   1
  -4  -5 -26 4539.65 2088.16   1
  -4   5 -27-534.004 1856.36   1
  -4  -5 -27 2136.62 1552.32   1
  -4   5 -28 1816.37 1693.50   1
  -4  -5 -28 3826.32 1894.99   1
  -4   5 -29-13.3712 1539.15   1
  -4  -5 -29-1387.45 1358.43   1
  -4   5 -30 5246.00 1852.45   1
  -4  -5 -30 2222.56 2005.08   1
  -4  -5 -31 834.276 1569.44   1
  -4  -5 -32 5553.44 2854.30   1
  -4   6   028716.4014164.80   1
  -4  -6   021186.10 5236.95   1
  -4   6  -1 1111.55 997.158   1
  -4   6   1 2482.45 1643.02   1
  -4  -6  -1 2468.40 1795.63   1
  -4  -6   1 715.422 1547.53   1
  -4   6  -2 794.458 1061.12   1
  -4   6   2 855.538  921.56   1
  -4  -6  -2 5155.48 2432.93   1
  -4  -6   2 2486.34 1684.19   1
  -4   6  -316301.60 3905.61   1
  -4   6   324365.10 5563.70   1
  -4  -6  -321306.60 5455.53   1
  -4  -6   318226.70 4683.13   1
  -4   6  -4 797.309 1164.18   1
  -4   6   4-649.267 808.083   1
  -4  -6  -4  912.87 1603.17   1
  -4  -6   4 2381.04 2058.42   1
  -4   6  -5 1172.08 1301.30   1
  -4   6   5 -16.559 793.802   1
  -4  -6  -5 5814.72 2834.96   1
  -4  -6   5 1840.44 1558.10   1
  -4   6  -612350.20 3493.81   1
  -4   6   615065.70 3882.76   1
  -4  -6  -621409.40 5826.43   1
  -4   6  -718260.20 5419.29   1
  -4   6   730427.6010800.60   1
  -4   6  -8 2111.04 2049.75   1
  -4   6   8 110.882  596.66   1
  -4  -6  -8-41.3111 2128.86   1
  -4   6  -9 3602.67 2243.52   1
  -4   6   9 2646.49 1405.77   1
  -4  -6  -9 3401.37 3053.92   1
  -4   6 -10 2267.75 2362.32   1
  -4   6  10 5260.50 1740.22   1
  -4  -6 -10 7740.43 4176.59   1
  -4   6 -11  266.82 1636.93   1
  -4  -6 -11 1814.99 2069.10   1
  -4   6 -12 5313.50 2387.47   1
  -4  -6 -12 4497.23 2925.44   1
   4   6 -13 18.3543 573.514   1
  -4   6 -13 5163.47 2849.82   1
  -4  -6 -13 2947.35 2020.68   1
   4   6 -14 3847.40 1737.34   1
  -4   6 -14 1505.65 1731.15   1
  -4  -6 -14 3504.09 2219.09   1
   4   6 -15 1800.71 1137.91   1
  -4   6 -15 2382.71 2495.17   1
  -4  -6 -15-82.2287 1850.96   1
   4   6 -16 874.621 560.602   1
  -4   6 -16 2469.72 1670.62   1
  -4  -6 -16-1322.79 1906.25   1
   4   6 -17 618.741  799.39   1
  -4   6 -17 1457.28 1793.04   1
  -4  -6 -17 3073.77 2909.01   1
   4   6 -18  231.56 859.706   1
  -4   6 -18 2423.31 1731.68   1
  -4  -6 -18 4575.19 2513.28   1
   4   6 -19 428.934 621.966   1
  -4   6 -19  470.61 1789.76   1
  -4  -6 -19 2413.60 2151.71   1
   4   6 -20 1322.49 1339.11   1
  -4   6 -20 234.654 1737.28   1
  -4  -6 -20 5000.49 2782.52   1
   4   6 -21  643.81 723.282   1
  -4   6 -21 750.918 1735.02   1
  -4  -6 -21 606.091 2080.18   1
   4   6 -22 1115.83 762.197   1
  -4   6 -22 1141.32 1804.59   1
  -4  -6 -22-190.773 2078.50   1
   4   6 -23-258.628 566.526   1
  -4   6 -23 1158.58 1663.37   1
  -4  -6 -23-31.9499 1972.13   1
  -4   6 -24 2423.82 2417.72   1
  -4  -6 -24 1738.59 1861.51   1
  -4   6 -25 1179.50 1639.59   1
  -4  -6 -25 883.357 1735.85   1
  -4  -6 -26-2732.70 1435.12   1
  -4   6 -27 4245.22 2177.08   1
  -4  -6 -27 1039.30 1461.74   1
  -4   6 -28 4147.13 2933.27   1
  -4  -6 -28 1652.66 2151.09   1
  -4   6 -29 1000.87 1469.30   1
  -4  -6 -29 869.728 1591.29   1
  -4   6 -30-1010.52 1334.41   1
  -4  -6 -30 1108.23 1709.33   1
  -4  -6 -31 503.756 1536.45   1
  -4   7   0 -265.51 1017.30   1
  -4  -7   0 1283.16 1641.66   1
  -4   7   1 2652.70 1851.74   1
  -4   7  -1 3228.07 1640.92   1
  -4  -7  -1 1103.26 1495.76   1
  -4  -7   1 3874.85 2727.50   1
  -4   7   2 1957.99 1421.49   1
  -4   7  -2 3203.11 1717.19   1
  -4  -7  -2 2302.93 1722.59   1
  -4  -7   2 1860.64 1639.96   1
  -4   7  -3 5832.33 2262.87   1
  -4   7   311128.70 3065.70   1
  -4  -7  -3 4617.12 2990.86   1
  -4  -7   3 6635.81 2486.86   1
  -4   7  -4 2715.06 1840.86   1
  -4   7   4 -483.57 790.365   1
  -4  -7  -4-299.344 1639.46   1
  -4  -7   4 2400.19 2093.09   1
  -4   7  -5 2753.50 1914.37   1
  -4   7   5 1395.21 829.942   1
  -4  -7  -5 82.0228 1757.37   1
  -4   7   6 1185.58 705.624   1
  -4   7  -6 2385.13 1503.54   1
  -4  -7  -6 5684.46 3119.16   1
  -4   7   7 7299.67 2404.00   1
  -4   7  -7 3141.11 1644.49   1
  -4  -7  -7 4651.85 3013.84   1
  -4   7   8 3382.30 1464.89   1
  -4   7  -8 1011.74 1284.52   1
  -4  -7  -8 6402.70 3220.32   1
  -4   7  -9 1698.37 1457.37   1
  -4   7   9-372.109  386.01   1
  -4  -7  -9 6708.54 3933.91   1
  -4   7 -10 3630.76 1636.13   1
  -4  -7 -10-23.9774 1935.51   1
  -4   7 -11 2195.04 1907.13   1
  -4  -7 -11 5256.44 2932.70   1
  -4   7 -12 925.449 1723.92   1
  -4  -7 -12 7223.05 3008.98   1
   4   7 -13-120.574 516.884   1
  -4   7 -13 707.203 1725.27   1
  -4  -7 -13 5087.39 3245.06   1
   4   7 -14 3704.85 1679.24   1
  -4   7 -14 4689.62 2702.00   1
  -4  -7 -14 3543.56 2947.27   1
   4   7 -15-332.223 557.845   1
  -4   7 -15 1672.61 1709.00   1
  -4  -7 -15 440.933 2024.11   1
   4   7 -16 515.251 559.813   1
  -4   7 -16-1380.17 1645.79   1
  -4  -7 -16 3683.07 2211.47   1
   4   7 -17-55.2723 537.434   1
  -4   7 -17 1958.47 1792.85   1
  -4  -7 -17 2622.08 2075.46   1
   4   7 -18-537.503 624.268   1
  -4   7 -18 4599.96 2314.75   1
  -4  -7 -18 2853.54 2137.25   1
   4   7 -19 278.091 618.667   1
  -4   7 -19-2446.72 1765.32   1
  -4  -7 -19 2584.76 2166.63   1
   4   7 -20 383.538 455.117   1
  -4   7 -20 1160.44 1879.47   1
  -4  -7 -20 241.386 2087.33   1
  -4   7 -21 713.019 1771.38   1
  -4  -7 -21-772.154 2109.60   1
   4   7 -22 1195.64 1224.17   1
  -4   7 -22 5057.43 2335.56   1
  -4  -7 -22 5224.30 2713.00   1
   4   7 -23 441.918 840.842   1
  -4   7 -23-291.304 1560.84   1
  -4  -7 -23-39.9934 1909.47   1
  -4   7 -24 -360.18 1538.14   1
  -4  -7 -24 60.3347 1830.48   1
  -4   7 -25-320.106 1534.29   1
  -4  -7 -25 1910.02 1822.17   1
  -4   7 -26 169.334 1349.68   1
  -4  -7 -26 1133.59 1554.22   1
  -4   7 -27 1470.19 2242.09   1
  -4  -7 -27 4511.40 2102.41   1
  -4   7 -28 2499.26 1984.84   1
  -4  -7 -28 1050.73 1518.52   1
  -4   7 -29 1346.31 1685.77   1
  -4  -7 -29 225.559 1542.67   1
  -4   7 -30 4763.83 3230.31   1
  -4  -7 -30 5025.04 3338.20   1
  -4  -7 -31-394.302 1360.61   1
  -4   8   019934.60 5711.48   1
  -4  -8   010300.00 3413.35   1
  -4   8   129531.4010484.90   1
  -4   8  -123279.80 6578.52   1
  -4  -8  -118864.10 5618.41   1
  -4   8  -2 3453.13 1647.50   1
  -4   8   2 4578.41 1920.64   1
  -4  -8  -2 2060.36 2115.64   1
  -4  -8   2 5919.95 2992.01   1
  -4   8   3 3207.72 1772.95   1
  -4   8  -3 4165.38 2331.99   1
  -4  -8  -3 1786.70 1525.61   1
  -4  -8   3 1952.92 2120.47   1
  -4   8   416024.30 4741.80   1
  -4   8  -4 4443.85 2072.41   1
  -4  -8  -4 8786.95 3759.20   1
  -4   8   525013.50 8885.59   1
  -4   8  -5 5991.90 2007.31   1
  -4  -8  -5 9508.83 3404.82   1
  -4   8   6 500.601 751.491   1
  -4   8  -6 4129.15 2071.80   1
  -4  -8  -6 216.089 1799.51   1
  -4   8   7 4653.57 1555.01   1
  -4   8  -7 2631.38 1943.15   1
  -4  -8  -7 5867.25 3573.08   1
  -4   8  -814207.80 3714.96   1
  -4  -8  -815407.90 4040.02   1
  -4   8  -9 4950.93 2267.08   1
  -4  -8  -9 5603.16 2650.89   1
  -4   8 -10-2602.61 1494.69   1
  -4  -8 -10-1273.74 1979.60   1
  -4   8 -11 127.055 1602.09   1
  -4  -8 -11 1787.06 2091.17   1
   4   8 -12 663.088 758.471   1
  -4   8 -12 998.772 1625.43   1
  -4  -8 -12 2810.05 2153.78   1
   4   8 -13 2871.12 1357.15   1
  -4   8 -13 1554.63 1763.93   1
  -4  -8 -13 388.918 1974.94   1
   4   8 -14 1245.06 772.629   1
  -4   8 -14 3224.44 2430.08   1
  -4  -8 -14 2015.68 1984.39   1
   4   8 -15 915.848  791.46   1
  -4   8 -15 785.209 1691.43   1
  -4  -8 -15 2006.04 2067.87   1
   4   8 -16 362.223 584.193   1
  -4   8 -16 971.902 1581.62   1
  -4  -8 -16-2753.61 1945.51   1
   4   8 -17-993.572 546.181   1
  -4   8 -17 300.368 1687.74   1
  -4  -8 -17 320.942 1896.61   1
   4   8 -18-1055.95  576.22   1
  -4   8 -18 4464.51 2974.56   1
  -4  -8 -18 4175.52 2408.59   1
   4   8 -19-1072.29 572.346   1
  -4   8 -19 2396.52 1928.16   1
  -4  -8 -19 -153.04 1912.78   1
   4   8 -20-395.074 625.043   1
  -4   8 -20 3629.65 2672.58   1
  -4  -8 -20 3419.62 2374.38   1
   4   8 -21 1195.48 841.962   1
  -4   8 -21 4079.63 2195.52   1
  -4  -8 -21 1616.96 2096.74   1
  -4   8 -22 1331.33 1724.09   1
  -4  -8 -22-1845.81 2078.14   1
   4   8 -23 216.642  727.02   1
  -4   8 -23 1392.86 1533.95   1
  -4  -8 -23-1155.23 2014.35   1
   4   8 -24 196.264 896.727   1
  -4   8 -24 1316.67 1513.97   1
  -4  -8 -24-2021.22 1759.98   1
  -4   8 -25-1593.87 1261.60   1
  -4  -8 -25 2442.84 1760.53   1
  -4   8 -26 1491.74 1388.34   1
  -4  -8 -26 2310.69 2179.72   1
  -4   8 -27-857.434 1270.95   1
  -4  -8 -27-260.716 1323.89   1
  -4   8 -28 4946.07 3056.54   1
  -4  -8 -28 1157.35 1573.16   1
  -4   8 -29 1604.99 1871.01   1
  -4  -8 -29 1863.91 1850.84   1
  -4  -8 -30-243.321 1494.93   1
  -4   9   0-660.631 989.177   1
  -4  -9   0 3806.72 1919.93   1
  -4   9  -1 433.402 1055.03   1
  -4   9   1 2608.74 1590.57   1
  -4  -9  -1 1170.96 1485.34   1
  -4  -9   1 141.016 1494.02   1
  -4   9   2-645.771 821.453   1
  -4   9  -2 393.311 1046.68   1
  -4  -9  -2-510.037 1504.30   1
  -4  -9   2 1486.05 1539.60   1
  -4   9   3 8029.13 2847.81   1
  -4   9  -3 3983.91 1892.18   1
  -4  -9  -3 5395.81 2838.30   1
  -4  -9   3 3466.17 1899.63   1
  -4   9   411482.10 3393.80   1
  -4   9  -4 7736.07 2828.87   1
  -4  -9  -4 3539.58 2008.73   1
  -4   9   5 3205.09 1391.49   1
  -4   9  -5 5791.78 2240.86   1
  -4  -9  -5 5958.71 2798.82   1
  -4   9   6 2341.13 1124.01   1
  -4   9  -6 4379.10 2273.52   1
  -4  -9  -6 1600.33 1607.62   1
  -4   9   7 2222.75 972.966   1
  -4   9  -7 1302.31 1340.73   1
  -4  -9  -7 3802.62 2349.46   1
  -4   9  -8-832.756 1252.50   1
  -4  -9  -8-1016.44 1667.51   1
  -4   9  -9 8877.47 2967.42   1
  -4  -9  -9 8638.46 2661.71   1
  -4   9 -10 895.647 1563.69   1
  -4  -9 -10 4341.34 3190.71   1
  -4   9 -11 336.607 1528.99   1
  -4  -9 -11 2433.64 2748.68   1
   4   9 -12 897.323 1051.55   1
  -4   9 -12 1874.92 1858.52   1
  -4  -9 -12 176.439 2043.60   1
   4   9 -13 1467.90 1052.44   1
  -4   9 -13 4442.78 2564.05   1
  -4  -9 -13 2803.07 2051.21   1
   4   9 -14 591.584 596.488   1
  -4   9 -14 988.633 1702.15   1
  -4  -9 -14 3573.72 2238.43   1
   4   9 -15-697.816 571.573   1
  -4   9 -15 5677.46 2945.59   1
  -4  -9 -15 695.711 2052.71   1
   4   9 -16 359.722 494.538   1
  -4   9 -16 1846.70 1821.93   1
  -4  -9 -16-497.224 1937.16   1
   4   9 -17 455.885 500.542   1
  -4   9 -17 4245.57 3349.21   1
  -4  -9 -17 2051.01 2123.83   1
   4   9 -18 403.912 439.178   1
  -4   9 -18 264.979 1697.03   1
  -4  -9 -18 5723.56 3561.31   1
   4   9 -19 1585.43 1220.02   1
  -4   9 -19 1389.52 1692.26   1
  -4  -9 -19 3943.00 2392.68   1
   4   9 -20-131.515 734.654   1
  -4   9 -20 72.4826 1542.75   1
  -4  -9 -20 4363.24 2506.72   1
   4   9 -21-283.938 638.596   1
  -4   9 -21  835.80 1599.54   1
  -4  -9 -21 232.392 2128.10   1
   4   9 -22 1179.76 942.492   1
  -4   9 -22 877.048 1560.56   1
  -4  -9 -22 3288.36 3491.37   1
  -4   9 -23 2829.96 2015.16   1
  -4  -9 -23 13.1342 1828.09   1
   4   9 -24-914.874 751.257   1
  -4   9 -24 1923.59 1585.95   1
  -4  -9 -24-1441.82 1692.33   1
   4   9 -25 1017.97 988.982   1
  -4   9 -25 1693.89 1458.69   1
  -4  -9 -25 4490.25 2538.62   1
  -4   9 -26 1587.77 1445.53   1
  -4  -9 -26 3798.74 2472.02   1
  -4   9 -27 507.293 1431.91   1
  -4  -9 -27 3225.03 2043.88   1
  -4   9 -28 2857.86 1785.48   1
  -4  -9 -28 5176.69 2197.80   1
  -4   9 -29 5766.55 2120.23   1
  -4  -9 -29 1069.09 1597.21   1
  -4  -9 -30-1036.04 1412.64   1
  -4  10   0 2578.34 1952.23   1
  -4 -10   0-1715.12 1405.29   1
  -4  10  -1 6851.08 2614.43   1
  -4  10   1 8260.07 2670.55   1
  -4 -10  -1 6949.99 3074.61   1
  -4 -10   1 1885.35 1578.54   1
  -4  10   2 2322.52 1469.05   1
  -4  10  -2 399.035 1153.60   1
  -4 -10  -2 3861.23 1896.36   1
  -4 -10   2 1356.89 1594.00   1
  -4  10   3 1289.00 662.349   1
  -4  10  -3-3.66244 1172.12   1
  -4 -10  -3 3550.03 1955.11   1
  -4  10   4 3752.82 1198.31   1
  -4  10  -4 3130.64 1911.98   1
  -4 -10  -4 2598.88 1751.57   1
  -4  10   5 2294.39 1104.46   1
  -4  10  -5 1630.73 1379.31   1
  -4 -10  -5 1172.84 1622.55   1
  -4  10   6 2965.00 1168.69   1
  -4  10  -6 2740.85 1483.55   1
  -4 -10  -6 759.715 1511.48   1
  -4  10  -7 2545.99 1870.12   1
  -4 -10  -7 1856.71 1658.01   1
  -4  10  -8 1633.93 1409.97   1
  -4 -10  -8 2967.78 2467.65   1
  -4  10  -9 -264.75 1440.27   1
  -4 -10  -9 1034.54 1645.80   1
  -4  10 -10 116.157 1532.30   1
  -4 -10 -10-446.218 1623.24   1
   4  10 -11 1575.57 893.809   1
  -4  10 -11-59.5137 1509.41   1
  -4 -10 -11 955.038 1675.67   1
   4  10 -12 1177.07 1030.81   1
  -4  10 -12 2557.26 2358.83   1
  -4 -10 -12 6210.45 3696.90   1
   4  10 -13 1702.49 1039.31   1
  -4  10 -13 3540.01 2449.50   1
  -4 -10 -13 4091.37 2186.30   1
   4  10 -14 1310.22 981.159   1
  -4  10 -14 1862.12 2127.26   1
  -4 -10 -14-1442.33 1957.82   1
   4  10 -15-25.5492 661.023   1
  -4  10 -15 2149.20 1658.01   1
  -4 -10 -15-2207.18 1968.29   1
   4  10 -16 89.9682 351.222   1
  -4  10 -16 2566.54 2240.87   1
  -4 -10 -16-327.826 1844.35   1
   4  10 -17-571.695 601.815   1
  -4  10 -17 301.993 1512.95   1
  -4 -10 -17 278.707 1926.16   1
   4  10 -18 1217.01 629.259   1
  -4  10 -18 792.279 1556.03   1
  -4 -10 -18 2504.31 2900.70   1
   4  10 -19-220.868 758.099   1
  -4  10 -19 2748.87 2810.51   1
  -4 -10 -19 1364.62 2019.02   1
   4  10 -20-615.313 670.456   1
  -4  10 -20 4438.39 2650.39   1
  -4 -10 -2010999.20 5797.98   1
   4  10 -21-639.598 641.568   1
  -4  10 -2117053.5013604.40   1
  -4 -10 -21 1260.25 2040.34   1
   4  10 -22 622.924 805.461   1
  -4  10 -22 2156.63 2580.31   1
  -4 -10 -22 2486.54 2088.35   1
   4  10 -23 366.379 824.763   1
  -4  10 -23 891.514 1523.45   1
  -4 -10 -23  197.26 1725.66   1
   4  10 -24 254.515  799.19   1
  -4  10 -24 1620.80 1914.04   1
  -4 -10 -24 2741.90 1849.85   1
   4  10 -25 171.465 528.225   1
  -4  10 -25 4896.84 2459.29   1
  -4 -10 -25-222.193 1440.19   1
   4  10 -26 693.282 478.494   1
  -4  10 -26 5496.86 2638.79   1
  -4 -10 -26-2052.05 1519.78   1
  -4  10 -27 1408.07 1532.10   1
  -4 -10 -27 3046.96 2124.68   1
  -4  10 -28 1859.96 1697.54   1
  -4 -10 -28-366.456 1687.45   1
  -4 -10 -29-1065.64 1510.38   1
  -4 -10 -30 4888.49 2835.30   1
  -4  11   0-546.196 875.769   1
  -4 -11   0 1773.42 1618.73   1
  -4  11   1 3227.07 1869.31   1
  -4  11  -1 2581.10 2001.60   1
  -4 -11  -1 3291.75 2447.68   1
  -4 -11   1 1969.88 1707.32   1
  -4 -11  -2 6083.39 2476.38   1
  -4  11   3 5175.04 1523.02   1
  -4  11  -3 4529.56 1747.93   1
  -4 -11  -3 2143.36 1680.82   1
  -4  11   410484.60 2257.06   1
  -4  11  -4 5082.75 1783.91   1
  -4 -11  -4 3473.06 2238.04   1
  -4  11   5 104.012 343.437   1
  -4  11  -5 1118.55 1233.61   1
  -4 -11  -5 2954.76 2301.94   1
  -4  11  -6 1288.90 1682.87   1
  -4 -11  -6 2747.97 2305.64   1
  -4  11  -7 3550.73 1991.46   1
  -4 -11  -7 3406.50 2339.26   1
  -4  11  -8-103.494 1191.16   1
  -4 -11  -8-2993.09 1574.66   1
  -4  11  -9 5531.23 2788.04   1
  -4 -11  -9 3683.85 2012.68   1
  -4  11 -10-349.466 1286.74   1
  -4 -11 -10 2910.30 1874.36   1
   4  11 -11-201.891 591.496   1
  -4  11 -11 1328.23 1544.04   1
  -4 -11 -11 3231.10 2543.29   1
   4  11 -12 355.593 677.621   1
  -4  11 -12 3967.16 2271.65   1
  -4 -11 -12 2070.44 1764.33   1
   4  11 -13 434.505 695.345   1
  -4  11 -13 2815.79 1690.65   1
  -4 -11 -13 7304.28 4005.29   1
   4  11 -14 1515.95 848.238   1
  -4  11 -14  483.11 1420.38   1
  -4 -11 -14 838.626 1936.64   1
   4  11 -15  399.34 505.148   1
  -4  11 -15 463.534 1350.89   1
  -4 -11 -15 5596.84 3510.33   1
   4  11 -16 810.011 779.599   1
  -4  11 -16 213.031 1417.87   1
  -4 -11 -16 321.902 1913.65   1
   4  11 -17 469.398 620.216   1
  -4  11 -17 1834.27 1504.11   1
  -4 -11 -17 331.498 1963.22   1
   4  11 -18 1030.23 767.188   1
  -4  11 -18 1874.94 1562.37   1
  -4 -11 -18 4964.03 3172.13   1
   4  11 -19 806.954 571.338   1
  -4  11 -19 3962.85 3124.25   1
  -4 -11 -19 5971.24 3454.94   1
   4  11 -20  127.26 400.277   1
  -4  11 -20 2255.93 2270.57   1
  -4 -11 -20 2265.02 2663.52   1
   4  11 -21 -383.78 623.024   1
  -4  11 -21-1325.16 1429.73   1
  -4 -11 -21-710.227 1930.86   1
   4  11 -22 972.855 786.634   1
  -4  11 -22 2197.62 1737.08   1
  -4 -11 -22-64.3808 1784.53   1
   4  11 -23-758.599 614.381   1
  -4  11 -23 346.839 1438.20   1
  -4 -11 -23-756.837 1561.26   1
   4  11 -24 62.1214 334.958   1
  -4  11 -24 869.778 2067.96   1
  -4 -11 -24 2162.14 1742.88   1
   4  11 -25 2182.99 1311.52   1
  -4  11 -25 492.473 1481.41   1
  -4 -11 -25 995.554 1683.98   1
   4  11 -26 1636.41 1078.52   1
  -4  11 -26 2845.91 2065.78   1
  -4 -11 -26 4157.51 2945.59   1
  -4  11 -27 1835.23 1703.27   1
  -4 -11 -27 707.994 1706.68   1
  -4  11 -28-189.148 1316.88   1
  -4 -11 -28 212.115 1556.28   1
  -4 -11 -29 614.809 1581.83   1
  -4 -11 -30 3392.27 2049.95   1
  -4  12   015119.50 3349.54   1
  -4 -12   0 9358.70 3180.58   1
  -4  12   1 2451.92 1307.44   1
  -4  12  -1 2045.24 1606.43   1
  -4 -12  -1 2379.93 1771.03   1
  -4 -12   1 84.0256 1643.39   1
  -4  12   2 2864.48 1273.61   1
  -4  12  -2 5604.33 1949.64   1
  -4 -12  -2 680.686 1559.86   1
  -4  12   3 764.305 593.708   1
  -4  12  -3 119.187 997.585   1
  -4 -12  -3 1911.07 1530.67   1
  -4  12   4 1810.97 1017.95   1
  -4  12  -4  69.683 993.639   1
  -4 -12  -4 830.977 1475.07   1
  -4  12  -5 2013.22 1602.32   1
  -4 -12  -5-170.302 1447.58   1
  -4  12  -6-4.15598 1038.60   1
  -4 -12  -6 1501.61 1628.48   1
  -4  12  -7 1632.31 1609.53   1
  -4 -12  -7 7195.38 3088.69   1
  -4  12  -8 7462.60 2485.67   1
  -4 -12  -8 2378.22 1621.71   1
  -4  12  -9 3214.54 1874.07   1
  -4 -12  -9 5205.66 2591.91   1
  -4  12 -10 1448.51 1261.07   1
  -4 -12 -10-130.681 1562.48   1
   4  12 -11-48.6881 587.702   1
  -4  12 -11 1173.94 1357.13   1
  -4 -12 -11 1406.67 1774.97   1
   4  12 -12-245.361 620.537   1
  -4  12 -12 147.802 1228.63   1
  -4 -12 -12-1251.04 1795.82   1
   4  12 -13 1384.47 1147.68   1
  -4  12 -13 82.0891 1828.45   1
  -4 -12 -13-1963.19 1797.71   1
   4  12 -14 795.184 651.485   1
  -4  12 -14 1709.31 1448.44   1
  -4 -12 -14 4378.01 3153.53   1
   4  12 -15  189.56 289.027   1
  -4  12 -15 6882.98 3458.47   1
  -4 -12 -15 6703.38 3690.68   1
   4  12 -16  856.93 618.098   1
  -4  12 -16-136.645 1156.21   1
  -4 -12 -16-1127.34 1967.46   1
   4  12 -17 766.154 549.986   1
  -4  12 -17 799.252 1207.62   1
  -4 -12 -17 3833.69 2293.61   1
   4  12 -18-1159.00 651.728   1
  -4  12 -18 448.823 1253.87   1
  -4 -12 -18 2009.92 2795.27   1
   4  12 -19 439.381 542.175   1
  -4  12 -19 2566.66 2207.90   1
  -4 -12 -19 -202.34 1945.82   1
   4  12 -20 1247.55 841.664   1
  -4  12 -20 1958.46 1351.58   1
  -4 -12 -20 3121.10 2167.06   1
   4  12 -21-583.801 611.556   1
  -4  12 -21 202.096 1392.37   1
  -4 -12 -21 598.789 1847.02   1
   4  12 -22-1575.52  653.26   1
  -4  12 -22 1688.12 1562.16   1
  -4 -12 -22 2267.25 2061.76   1
   4  12 -23 471.168  654.76   1
  -4  12 -23 1907.85 1569.29   1
  -4 -12 -23 3323.99 1841.75   1
   4  12 -24 1136.24 643.074   1
  -4  12 -24 4289.63 2458.77   1
  -4 -12 -24-1407.96 1491.66   1
   4  12 -25 -198.00 686.733   1
  -4  12 -25 4739.74 3425.56   1
  -4 -12 -25-916.215 1558.16   1
   4  12 -26 843.108 830.928   1
  -4  12 -26 4799.98 3098.98   1
  -4 -12 -26 512.347 1721.66   1
   4  12 -27 95.2034 361.419   1
  -4  12 -27-1346.32 1376.24   1
  -4 -12 -27-535.891 1622.15   1
  -4 -12 -28 2333.08 2511.05   1
  -4 -12 -29 1645.53 1754.35   1
  -4  13   0 564.937 804.966   1
  -4 -13   0  420.04 1586.23   1
  -4  13   1 1521.28 1165.24   1
  -4  13  -1 4024.78 1851.16   1
  -4 -13   1 4217.21 2786.22   1
  -4 -13  -1 607.494 1587.17   1
  -4  13   2-211.163 568.683   1
  -4  13  -2 2284.04 1538.65   1
  -4 -13  -2 2128.65 1684.90   1
  -4  13   3 458.434  480.43   1
  -4  13  -3 558.271 808.667   1
  -4 -13  -3 4688.99 2541.20   1
  -4  13  -4 1962.66 1372.46   1
  -4 -13  -4-782.093 1360.85   1
  -4  13  -5 875.291 1017.64   1
  -4 -13  -5-464.582 1383.93   1
  -4  13  -6-201.907 852.343   1
  -4 -13  -6 2404.19 1536.84   1
  -4  13  -7 46.3569 899.061   1
  -4 -13  -7 3534.35 2521.57   1
  -4  13  -8 1734.15 1061.37   1
  -4 -13  -8 4143.04 2290.35   1
  -4  13  -9 4390.79 2088.33   1
  -4 -13  -9-1082.66 1544.39   1
   4  13 -10 334.217 665.903   1
  -4  13 -10 4873.02 2519.48   1
  -4 -13 -10 5107.57 2656.05   1
   4  13 -11 2192.66 1310.31   1
  -4  13 -11 2483.94 1362.14   1
  -4 -13 -11 1849.93 1755.33   1
   4  13 -12 33.0308 607.927   1
  -4  13 -12 3901.45 1951.93   1
  -4 -13 -12-166.919 1554.58   1
   4  13 -13 472.761 601.469   1
  -4  13 -13 2762.76 1830.04   1
  -4 -13 -13 3424.09 2810.45   1
   4  13 -14 1071.64 779.302   1
  -4  13 -14 1295.74 1187.11   1
  -4 -13 -14-392.452 1863.94   1
   4  13 -15-349.381 655.206   1
  -4  13 -15 2952.56 1470.04   1
  -4 -13 -15 259.333 1898.72   1
   4  13 -16-440.543 641.837   1
  -4  13 -16-464.132 1105.79   1
  -4 -13 -16-558.362 1958.89   1
   4  13 -17 1131.33 800.722   1
  -4  13 -17-344.296 1096.77   1
  -4 -13 -17 6002.48 2764.34   1
   4  13 -18 111.289 427.412   1
  -4  13 -18 1961.99 1699.72   1
  -4 -13 -18 2407.31 2169.16   1
   4  13 -19-73.9792 634.438   1
  -4  13 -19 2032.07 1327.74   1
  -4 -13 -19 519.331 1969.77   1
   4  13 -20 1076.87 983.774   1
  -4  13 -20-47.9773 1214.87   1
  -4 -13 -20 1443.73 1935.96   1
   4  13 -21-867.797 656.006   1
  -4  13 -21 3733.65 2678.78   1
  -4 -13 -21 1155.62 1744.91   1
   4  13 -22 697.475 940.393   1
  -4  13 -22 1262.96 1535.46   1
  -4 -13 -22-126.511 1651.84   1
   4  13 -23 1087.08 686.351   1
  -4  13 -23 1896.84 1546.17   1
  -4 -13 -23-318.749 1452.30   1
   4  13 -24 1490.44 1148.89   1
  -4  13 -24 49.8526 1405.19   1
  -4 -13 -24 3100.50 1796.08   1
   4  13 -25 561.232 562.053   1
  -4  13 -25 843.438 1530.71   1
  -4 -13 -25 3809.81 2888.73   1
   4  13 -26 1205.97 1188.90   1
  -4  13 -26 3115.06 2172.13   1
  -4 -13 -26 3155.96 2111.53   1
   4  13 -27 698.162 931.579   1
  -4  13 -27 2939.39 1810.15   1
  -4 -13 -27 2025.92 2636.59   1
   4  13 -28  247.93 423.442   1
  -4 -13 -28 1493.54 2382.70   1
  -4 -13 -29 2842.08 2001.00   1
  -4  14   0-395.694 718.285   1
  -4 -14   0 95.0965 1684.42   1
  -4  14   1 3120.30 1430.16   1
  -4  14  -1 2506.00 975.228   1
  -4 -14  -1 3985.84 1842.77   1
  -4  14   2 334.173 604.803   1
  -4  14  -2 1869.93 1240.47   1
  -4 -14  -2 975.695 1626.06   1
  -4  14  -3 444.188 838.076   1
  -4 -14  -3 782.938 1508.15   1
  -4  14  -4 6942.57 2277.34   1
  -4 -14  -4 3549.98 1721.06   1
  -4  14  -5 2220.21 1548.27   1
  -4 -14  -5 675.775 1452.63   1
  -4  14  -6 2217.94 1187.31   1
  -4 -14  -6  165.58 1447.95   1
  -4  14  -7 2710.76 1456.06   1
  -4 -14  -7 2331.99 1662.99   1
  -4  14  -8 3363.10 1599.95   1
  -4 -14  -8 71.6846 1456.52   1
  -4  14  -9 2218.96 1136.78   1
  -4 -14  -9 3812.90 1956.67   1
   4  14 -10 1216.98  953.57   1
  -4  14 -10 255.325  992.58   1
  -4 -14 -10 -11.268 1589.21   1
   4  14 -11 281.002 638.906   1
  -4  14 -11-690.095 985.662   1
  -4 -14 -11 3357.63 2032.32   1
   4  14 -12 880.646 750.964   1
  -4  14 -12 426.752 983.957   1
  -4 -14 -12 4185.39 2649.23   1
   4  14 -13 2278.71 1350.33   1
  -4  14 -13 1269.60 1107.62   1
  -4 -14 -13-2521.48 1723.99   1
   4  14 -14 335.729 798.121   1
  -4  14 -14 3322.44 1494.17   1
  -4 -14 -14 2238.75 1865.73   1
   4  14 -15 757.781 531.354   1
  -4  14 -15 3554.94 1745.99   1
  -4 -14 -15 1991.05 2140.36   1
   4  14 -16-381.549 668.074   1
  -4  14 -16 421.521 1040.42   1
  -4 -14 -16 141.594 1874.35   1
   4  14 -17 -647.49 713.865   1
  -4  14 -17 3649.19 1837.46   1
  -4 -14 -17 718.724 1944.81   1
   4  14 -18 413.983 650.808   1
  -4  14 -18-79.7582 1103.13   1
  -4 -14 -18 1137.41 1982.61   1
   4  14 -19 425.077 923.817   1
  -4  14 -19 2629.65 2071.98   1
  -4 -14 -19 947.813 1757.57   1
   4  14 -20-76.3281 717.884   1
  -4  14 -20 386.268 1179.76   1
  -4 -14 -20 2646.02 2058.63   1
   4  14 -21 769.773 724.038   1
  -4  14 -21 2563.49 1838.00   1
  -4 -14 -21 4580.47 2434.55   1
   4  14 -22 342.998 919.299   1
  -4  14 -22 1948.06 1995.49   1
  -4 -14 -22 1721.60 2134.73   1
   4  14 -23 457.938 499.515   1
  -4  14 -23  517.30 1208.39   1
  -4 -14 -23 373.759 1621.93   1
   4  14 -24 1416.21 865.798   1
  -4  14 -24 2546.22 2133.70   1
  -4 -14 -24 1233.29 1610.69   1
   4  14 -25 394.936 430.026   1
  -4  14 -25 3015.45 1621.74   1
  -4 -14 -25 401.783 1700.15   1
   4  14 -26-161.558 674.607   1
  -4  14 -26 1293.14 1458.83   1
  -4 -14 -26 2431.51 1906.54   1
   4  14 -27 557.748 596.449   1
  -4 -14 -27 3629.77 2810.41   1
   4  14 -28  734.09 592.686   1
  -4 -14 -28 452.329 1722.59   1
  -4  15   0 1881.92 1092.24   1
  -4 -15   0 2235.02 1636.48   1
  -4  15   1 4135.33 1926.68   1
  -4  15  -1 2941.65 1430.93   1
  -4 -15  -1 5159.18 2679.46   1
  -4  15  -2 1784.07 1503.91   1
  -4 -15  -2 529.162 1390.16   1
  -4  15  -3 5620.53 2289.29   1
  -4 -15  -3 119.748 1398.48   1
  -4  15  -4 1666.20 1011.75   1
  -4 -15  -4 2116.51 1696.41   1
  -4  15  -5-152.456 814.505   1
  -4 -15  -5 2587.38 1797.69   1
  -4  15  -6 1639.48 1012.49   1
  -4 -15  -6-2010.29 1457.95   1
  -4  15  -7-75.4158 804.836   1
  -4 -15  -7-111.736 1399.47   1
  -4  15  -8 1546.13 1246.26   1
  -4 -15  -8 3131.95 2364.94   1
  -4  15  -9 1231.03 1393.92   1
  -4 -15  -9 5862.99 3035.70   1
   4  15 -10 1089.72 1122.65   1
  -4  15 -10 2737.05 1616.70   1
  -4 -15 -10 1096.19 1592.69   1
   4  15 -11 1198.71 1068.71   1
  -4  15 -11 1699.22 1188.78   1
  -4 -15 -11 1244.63 1699.70   1
   4  15 -12-31.8586 735.873   1
  -4  15 -12 2682.45 1632.88   1
  -4 -15 -12 6957.57 3271.93   1
   4  15 -13 1037.92 843.636   1
  -4  15 -13-1336.15 901.476   1
  -4 -15 -13-1411.45 1586.96   1
   4  15 -14 824.068 543.725   1
  -4  15 -14 175.429 958.874   1
  -4 -15 -14-2061.42 1845.75   1
   4  15 -15 979.656 848.303   1
  -4  15 -15 2653.58 1293.29   1
  -4 -15 -15 4957.11 2440.98   1
   4  15 -16-74.1265 791.277   1
  -4  15 -16 238.349 1081.11   1
  -4 -15 -16 2200.16 1956.86   1
   4  15 -17 781.629 577.122   1
  -4  15 -17 2078.59 1252.71   1
  -4 -15 -17 4710.54 2306.50   1
   4  15 -18 348.685 665.622   1
  -4  15 -18 3904.14 2552.19   1
  -4 -15 -18 1191.68 1815.36   1
   4  15 -19 1627.55 1197.91   1
  -4  15 -19-818.256 1140.75   1
  -4 -15 -19 1685.01 2377.05   1
   4  15 -20-84.6845 721.606   1
  -4  15 -20 3657.61 2298.96   1
  -4 -15 -20-1435.43 1535.33   1
   4  15 -21 973.269 1064.94   1
  -4  15 -21 2104.83 1306.36   1
  -4 -15 -21 863.035 1431.75   1
   4  15 -22 498.071 870.686   1
  -4  15 -22-1087.33 1070.94   1
  -4 -15 -22 2904.15 1808.49   1
   4  15 -23 836.582 1008.84   1
  -4  15 -23 2194.76 1481.14   1
  -4 -15 -23 1736.53 1755.41   1
   4  15 -24 361.976  377.28   1
  -4  15 -24 2197.06 1558.12   1
  -4 -15 -24 2685.88 1899.15   1
   4  15 -25 1048.98 613.955   1
  -4  15 -25 744.704 1364.21   1
  -4 -15 -25 1715.85 1812.22   1
   4  15 -26 1185.26 715.338   1
  -4 -15 -26 2420.91 1827.12   1
   4  15 -27 936.519 561.331   1
  -4 -15 -27 4158.89 2964.34   1
   4  15 -28 800.874  877.80   1
  -4 -15 -28 2743.10 2835.72   1
  -4  16   0 3401.01 1594.16   1
  -4 -16   0 106.368 1582.87   1
  -4  16  -1 3147.52 1578.61   1
  -4 -16  -1 2236.62 2426.42   1
  -4  16  -2 76.2734  782.30   1
  -4 -16  -2 2308.92 1751.62   1
  -4  16  -3 2720.65 1448.07   1
  -4 -16  -3 1618.73 2156.53   1
  -4  16  -4 1682.58 1037.08   1
  -4 -16  -4 4102.08 2528.37   1
  -4  16  -5 2189.20 1412.01   1
  -4 -16  -5-596.892 1499.71   1
  -4  16  -6 3053.03 1713.00   1
  -4 -16  -6  725.62 1533.43   1
  -4  16  -7 2057.66 1725.98   1
  -4 -16  -7-684.105 1489.93   1
  -4  16  -8 896.026 969.171   1
  -4 -16  -8 1044.44 1488.64   1
  -4  16  -9  209.45 919.868   1
  -4 -16  -9 1694.20 1653.32   1
   4  16 -10 1149.79 1012.52   1
  -4  16 -10 1425.94 1115.94   1
  -4 -16 -10-6.34468 1615.27   1
   4  16 -11 2560.90 1389.23   1
  -4  16 -11-139.995 988.114   1
  -4 -16 -11  610.61 1692.84   1
   4  16 -12 2312.33 1513.90   1
  -4  16 -12 2677.19 1697.98   1
  -4 -16 -12 768.294 1686.06   1
   4  16 -13 1805.08 1264.29   1
  -4  16 -13-169.683 1064.99   1
  -4 -16 -13 3003.63 1965.15   1
   4  16 -14 880.817 753.524   1
  -4  16 -14-878.311 1038.65   1
  -4 -16 -14 -594.45 1854.11   1
   4  16 -15 231.687 666.762   1
  -4  16 -15 3799.11 1613.69   1
  -4 -16 -15 1217.52 1798.67   1
   4  16 -16-325.366 845.144   1
  -4  16 -16-433.603 1150.27   1
  -4 -16 -16-3428.46 1694.54   1
   4  16 -17-570.124 815.413   1
  -4  16 -17 4754.37 3064.92   1
  -4 -16 -17-60.0227 1601.21   1
   4  16 -18-30.5629 746.836   1
  -4  16 -18-225.277 1116.07   1
  -4 -16 -18 1148.83 1656.99   1
   4  16 -19 176.834 576.396   1
  -4  16 -19 5173.33 2141.81   1
  -4 -16 -19 2675.41 1729.24   1
   4  16 -20 1272.98 778.077   1
  -4  16 -20-1956.60 1066.96   1
  -4 -16 -20 508.003 1497.69   1
   4  16 -21 990.839 647.683   1
  -4  16 -21-896.229 965.145   1
  -4 -16 -21 1204.29 1638.22   1
   4  16 -22 846.587  818.01   1
  -4  16 -22-2077.78 1022.47   1
  -4 -16 -22 4673.22 3399.92   1
   4  16 -23 895.315 626.767   1
  -4  16 -23 2102.91 1540.73   1
  -4 -16 -23-838.952 1650.80   1
   4  16 -24 596.923 554.608   1
  -4  16 -24-862.731 1109.03   1
  -4 -16 -24-718.156 1596.10   1
   4  16 -25 813.528 862.019   1
  -4  16 -25-584.338 1112.42   1
  -4 -16 -25 364.025 1603.82   1
   4  16 -26-185.023 645.098   1
  -4 -16 -26 1262.24 1762.84   1
   4  16 -27-107.427 752.183   1
  -4 -16 -27 3503.09 2270.82   1
   4  16 -28 951.562 792.133   1
  -4  17  -1 3071.24 1589.98   1
  -4 -17  -1 4361.51 2298.94   1
  -4  17  -2 5365.56 2327.47   1
  -4 -17  -2 3150.50 1967.84   1
  -4  17  -3 1966.18 1465.99   1
  -4 -17  -3 1668.53 1726.69   1
  -4  17  -4 3259.06 1661.00   1
  -4 -17  -4 379.431 1542.51   1
  -4  17  -5  710.06 961.543   1
  -4 -17  -5 461.335 1575.97   1
  -4  17  -6 353.842 934.049   1
  -4 -17  -6 4705.81 2743.29   1
  -4  17  -7 672.163 1010.81   1
  -4 -17  -7 2307.34 2354.75   1
  -4  17  -8 1175.37 1169.19   1
  -4 -17  -8 1647.71 1762.41   1
  -4  17  -9-487.204 1172.58   1
  -4 -17  -9 1210.99 2336.67   1
   4  17 -10 2220.78 1368.72   1
  -4  17 -10 -404.72 1146.64   1
  -4 -17 -10 1053.25 1654.27   1
   4  17 -11 196.841 839.754   1
  -4  17 -11 1520.02 1356.51   1
  -4 -17 -11 3736.76 2050.92   1
   4  17 -12  979.38 872.527   1
  -4  17 -12 2042.42 1450.59   1
  -4 -17 -12-126.854 1571.21   1
   4  17 -13 1244.77 1209.07   1
  -4  17 -13 1213.94 1351.42   1
  -4 -17 -13-505.291 1685.86   1
   4  17 -14 1519.95 801.078   1
  -4  17 -14-362.153 1219.16   1
  -4 -17 -14-998.105 1568.05   1
   4  17 -15-1517.11 802.644   1
  -4  17 -15 2144.59 1206.76   1
  -4 -17 -15 2022.14 2776.36   1
   4  17 -16 277.311 632.101   1
  -4  17 -16-370.601 1045.54   1
  -4 -17 -16 4323.68 2909.40   1
   4  17 -17 130.633  381.27   1
  -4  17 -17 508.723 1067.38   1
  -4 -17 -17 3382.72 2289.40   1
   4  17 -18-487.948  673.87   1
  -4  17 -18 1600.30 1158.98   1
  -4 -17 -18 1668.61 1569.77   1
   4  17 -19 229.316 827.496   1
  -4  17 -19 6057.69 2963.41   1
  -4 -17 -19 1257.33 1443.23   1
   4  17 -20-382.824 644.553   1
  -4  17 -20 -82.226 1157.41   1
  -4 -17 -20 768.591 1630.90   1
   4  17 -21 337.663 785.445   1
  -4  17 -21 3074.93 2419.55   1
  -4 -17 -21 2774.03 2018.90   1
   4  17 -22 417.161 585.583   1
  -4  17 -22 2030.00 1514.13   1
  -4 -17 -22 1255.45 1606.08   1
   4  17 -23 546.859 721.958   1
  -4  17 -23-1743.15 1169.63   1
  -4 -17 -23 873.528 1641.71   1
   4  17 -24-296.272 656.824   1
  -4  17 -24-122.886 1016.79   1
  -4 -17 -24-43.1552 1528.89   1
   4  17 -25 546.009  564.21   1
  -4 -17 -25 3944.99 2236.00   1
   4  17 -26 516.631 856.007   1
  -4 -17 -26 8400.81 4378.16   1
   4  17 -27  808.93 962.412   1
  -4 -18  -1 2154.76 2138.80   1
  -4  18  -2 1355.21 872.692   1
  -4 -18  -2 1522.58 1797.06   1
  -4  18  -3 4145.14 1958.46   1
  -4 -18  -3 3140.67 1984.55   1
  -4  18  -4 1923.57 1403.34   1
  -4 -18  -4 3641.64 2645.83   1
  -4  18  -5 489.968 939.597   1
  -4 -18  -5 -317.78 1742.72   1
  -4  18  -6 119.412 972.637   1
  -4 -18  -6 2295.00 1815.80   1
  -4  18  -7-509.787 1067.38   1
  -4 -18  -7-2212.89 1577.68   1
  -4  18  -8 3073.48 1890.64   1
  -4 -18  -8 5688.46 2861.95   1
  -4  18  -9 2459.59 1403.23   1
  -4 -18  -9 783.743 1539.07   1
   4  18 -10 2072.31 991.495   1
  -4  18 -10 834.372 1236.38   1
  -4 -18 -10 1522.21 1693.04   1
   4  18 -11-284.926 748.855   1
  -4  18 -11 3551.88 2023.27   1
  -4 -18 -11-959.926 1626.90   1
   4  18 -12 874.541 831.369   1
  -4  18 -12 1979.85 1284.86   1
  -4 -18 -12-126.967 1571.51   1
   4  18 -13 1196.09 938.685   1
  -4  18 -13 2247.89 1653.03   1
  -4 -18 -13 1125.03 1506.88   1
   4  18 -14 215.151 857.987   1
  -4  18 -14 4668.35 2850.45   1
  -4 -18 -14 673.491 1359.84   1
   4  18 -15-123.356 660.371   1
  -4  18 -15 2514.26 1774.11   1
  -4 -18 -15 4588.79 2446.12   1
   4  18 -16 568.184 625.466   1
  -4  18 -16 1030.53 1207.09   1
  -4 -18 -16 2607.28 2000.75   1
   4  18 -17 695.551  641.47   1
  -4  18 -17 2472.50 1758.08   1
  -4 -18 -17 363.968 1397.98   1
   4  18 -18-37.2517 649.161   1
  -4  18 -18 1072.80 1179.98   1
  -4 -18 -18 5976.50 3202.62   1
   4  18 -19 508.581 702.192   1
  -4  18 -19 1386.49 1768.88   1
  -4 -18 -19 2322.91 1834.75   1
   4  18 -20-639.578 621.769   1
  -4  18 -20 9.41373 1213.53   1
  -4 -18 -20 2828.76 2016.26   1
   4  18 -21 78.2203 837.125   1
  -4  18 -21 502.495 1199.05   1
  -4 -18 -21 4201.93 2225.28   1
   4  18 -22 349.906 346.998   1
  -4  18 -22 200.345 1096.79   1
  -4 -18 -22 2648.81 1945.05   1
   4  18 -23 1483.75 1059.73   1
  -4  18 -23-114.117 1163.93   1
  -4 -18 -23 1074.01 1568.28   1
   4  18 -24 365.919 624.081   1
  -4 -18 -24-222.767 1657.25   1
   4  18 -25 93.1512 631.088   1
  -4 -18 -25 366.897 1714.34   1
  -4 -19  -1 611.264 1943.26   1
  -4 -19  -2 3302.36 2105.88   1
  -4  19  -3 1025.13 1286.27   1
  -4 -19  -3 1152.75 1890.12   1
  -4  19  -4 1368.66 1054.51   1
  -4 -19  -4 8287.88 4629.77   1
  -4  19  -5 2727.79 1897.66   1
  -4 -19  -5 259.487 1740.10   1
  -4  19  -6-105.947 1072.44   1
  -4 -19  -6 2370.26 1891.84   1
  -4  19  -7-304.705 1078.89   1
  -4 -19  -7 3286.81 1921.44   1
  -4  19  -8  165.41 1143.03   1
  -4 -19  -8 2994.48 1748.67   1
  -4  19  -9 1497.62 1086.08   1
  -4 -19  -9 280.922 1561.62   1
   4  19 -10 441.152 714.529   1
  -4  19 -10 875.235 1109.00   1
  -4 -19 -10 2567.22 1922.81   1
   4  19 -11-91.2893 708.031   1
  -4  19 -11 4342.11 2715.42   1
  -4 -19 -11 690.921 1484.19   1
   4  19 -12-108.489 660.177   1
  -4  19 -12 3040.31 2122.00   1
  -4 -19 -12 2545.56 1883.58   1
   4  19 -13-799.545 713.561   1
  -4  19 -13 4147.56 1889.88   1
  -4 -19 -13 2046.97 1583.59   1
   4  19 -14 390.028 691.073   1
  -4  19 -14-158.166 1069.05   1
  -4 -19 -14 340.233 1346.53   1
   4  19 -15-9.56084 677.654   1
  -4  19 -15-1196.04 1071.93   1
  -4 -19 -15-317.331 1358.00   1
   4  19 -16 888.784 446.505   1
  -4  19 -16 1411.99 1652.14   1
  -4 -19 -16 1381.05 1931.24   1
   4  19 -17  778.08 586.253   1
  -4  19 -17-1514.28 1115.75   1
  -4 -19 -17 3949.85 2440.82   1
   4  19 -18 704.311 789.604   1
  -4  19 -18 1138.39 1263.35   1
  -4 -19 -18-1722.93 1396.64   1
   4  19 -19-365.734 1091.40   1
  -4  19 -19-304.792 1094.62   1
  -4 -19 -19 2169.58 1868.40   1
   4  19 -20-180.665 784.026   1
  -4  19 -20 3026.89 1912.43   1
  -4 -19 -20 484.322 1599.01   1
   4  19 -21 521.196 807.835   1
  -4  19 -21 1031.75 1100.38   1
  -4 -19 -21 2675.31 1867.69   1
   4  19 -22 502.315 779.017   1
  -4  19 -22 2804.96 1559.04   1
  -4 -19 -22-1488.66 1600.85   1
   4  19 -23-347.292 738.847   1
  -4 -19 -23-2067.77 1751.05   1
  -4 -20  -1 3034.52 2291.74   1
  -4 -20  -2 884.005 2117.65   1
  -4 -20  -3-49.9138 1922.45   1
  -4 -20  -4 1363.42 2152.19   1
  -4  20  -5 1549.42 1158.10   1
  -4 -20  -5-1727.57 1709.11   1
  -4  20  -6 342.413 1048.64   1
  -4 -20  -6-407.956 1664.22   1
  -4  20  -7 1064.47 1153.48   1
  -4 -20  -7 1373.94 1726.44   1
  -4  20  -8 2137.03 1851.19   1
  -4 -20  -8-77.4395 1528.73   1
  -4  20  -9-520.759 1079.11   1
  -4 -20  -9 6319.06 2387.64   1
  -4  20 -10-376.937 1097.74   1
  -4 -20 -10 5208.95 3241.85   1
   4  20 -11 391.297 721.607   1
  -4  20 -11 158.953 1121.20   1
  -4 -20 -11-401.005 1275.58   1
   4  20 -12 1417.72 829.237   1
  -4  20 -12 146.819 1139.50   1
  -4 -20 -12 1699.97 1381.26   1
   4  20 -13 996.587 1290.49   1
  -4  20 -13 143.302 1079.42   1
  -4 -20 -13 1775.43 1383.12   1
   4  20 -14-743.584 672.585   1
  -4  20 -14 1930.40 1299.07   1
  -4 -20 -14 2810.13 2055.24   1
   4  20 -15 1979.68 1292.07   1
  -4  20 -15 3789.45 1967.27   1
  -4 -20 -15  793.49 1316.25   1
   4  20 -16 516.348 821.196   1
  -4  20 -16-423.622 1056.79   1
  -4 -20 -16 2797.82 2444.94   1
   4  20 -17 2677.06 1816.37   1
  -4  20 -17 1947.70 1329.33   1
  -4 -20 -17 3517.27 2177.72   1
   4  20 -18 743.443 955.889   1
  -4  20 -18  138.14 899.709   1
  -4 -20 -18 1844.24 1878.50   1
   4  20 -19-338.651 821.068   1
  -4  20 -19-1032.74  959.30   1
  -4 -20 -19-937.121 1528.72   1
   4  20 -20 302.754 593.534   1
  -4  20 -20 762.642 1131.81   1
  -4 -20 -20-1566.64 1562.77   1
   4  20 -21-41.1428 527.198   1
  -4  20 -21  381.42 985.754   1
  -4 -20 -21-350.942 1557.46   1
  -4 -20 -22 3755.46 2279.11   1
  -4 -21  -1-1029.74 2228.55   1
  -4 -21  -2 3118.17 2574.33   1
  -4 -21  -3 3203.54 2525.95   1
  -4 -21  -4 3730.29 2581.63   1
  -4 -21  -5-296.856 1638.56   1
  -4  21  -6 2398.45 2130.31   1
  -4 -21  -6 3654.07 2828.73   1
  -4  21  -7 1360.40 1255.63   1
  -4 -21  -7 1559.16 1612.28   1
  -4  21  -8 2241.96 1372.28   1
  -4 -21  -8 1515.25 1552.72   1
  -4  21  -9 5743.10 2635.82   1
  -4 -21  -9 1562.12 1429.88   1
  -4  21 -10-194.179 1169.13   1
  -4 -21 -10 1274.20 1426.75   1
   4  21 -11 -514.65  800.01   1
  -4  21 -11-713.757 1184.27   1
  -4 -21 -11 3376.97 2440.59   1
   4  21 -12 34.2959 752.304   1
  -4  21 -12 2108.49 1433.83   1
  -4 -21 -12 2956.12 1579.26   1
   4  21 -13 1403.82 1442.48   1
  -4  21 -13 2561.11 1907.59   1
  -4 -21 -13-187.018 1230.50   1
   4  21 -14 1299.40 1198.95   1
  -4  21 -14 1803.62 1377.59   1
  -4 -21 -14 1717.44 1494.59   1
   4  21 -15 621.594 625.701   1
  -4  21 -15 2875.92 2019.95   1
  -4 -21 -15-101.381 1413.53   1
   4  21 -16 542.091 629.877   1
  -4  21 -16 398.813 1074.19   1
  -4 -21 -16 1695.80 1753.63   1
   4  21 -17 2032.62 1758.20   1
  -4  21 -17 1394.15 1614.18   1
  -4 -21 -17 724.187 2225.30   1
   4  21 -18 841.893 1201.20   1
  -4  21 -18 1601.31 1302.69   1
  -4 -21 -18-2071.39 1570.94   1
   4  21 -19-537.948 799.689   1
  -4  21 -19 876.263 1042.73   1
  -4 -21 -19 359.145 1518.85   1
  -4  21 -20-2141.77 978.522   1
  -4 -21 -20 1366.52 1734.97   1
  -4 -21 -21 1755.64 1868.38   1
  -4 -22  -1 3388.65 2388.64   1
  -4 -22  -2 3056.33 2148.39   1
  -4 -22  -3 -63.877 1772.38   1
  -4 -22  -4 570.428 1774.74   1
  -4 -22  -5-205.373 1654.65   1
  -4 -22  -6-1370.34 1591.08   1
  -4 -22  -7 1956.54 2250.44   1
  -4  22  -8-518.199 1085.37   1
  -4 -22  -8 616.482 1400.22   1
  -4  22  -9-184.458 1120.31   1
  -4 -22  -9-27.1227 1281.57   1
  -4  22 -10-891.336 1112.06   1
  -4 -22 -10 928.601 1286.37   1
   4  22 -11 511.274 861.606   1
  -4  22 -11 2972.18 2117.99   1
  -4 -22 -11-618.914 1379.00   1
   4  22 -12 438.813 875.444   1
  -4  22 -12-430.993 1127.90   1
  -4 -22 -12-459.018 1317.71   1
   4  22 -13-1008.12 808.791   1
  -4  22 -13 3582.47 2276.61   1
  -4 -22 -13 3134.39 2383.48   1
   4  22 -14 847.287 1279.82   1
  -4  22 -14 2026.25 1867.94   1
  -4 -22 -14-2.23266 1437.14   1
   4  22 -15 132.545 888.908   1
  -4  22 -15 1029.44 1118.09   1
  -4 -22 -15-2401.05 1436.48   1
   4  22 -16 989.465 1070.03   1
  -4  22 -16 3905.33 2112.09   1
  -4 -22 -16 3013.98 2421.49   1
   4  22 -17 485.373 727.378   1
  -4  22 -17 3475.22 2006.77   1
  -4 -22 -17 4680.90 2265.93   1
  -4  22 -18 376.246 1013.35   1
  -4 -22 -18 1876.05 1846.75   1
  -4  22 -19 1249.85 1094.81   1
  -4 -22 -19-672.786 2279.16   1
  -4 -23  -1 3855.11 3363.99   1
  -4 -23  -2  721.39 1982.28   1
  -4 -23  -3 2713.14 2008.38   1
  -4 -23  -4 1892.98 1930.35   1
  -4 -23  -5-1598.89 1562.25   1
  -4 -23  -6 1004.57 1659.59   1
  -4 -23  -7-252.508 1465.16   1
  -4 -23  -8 1391.40 1562.89   1
  -4 -23  -9 324.365 1383.84   1
  -4  23 -10 2386.02 1984.28   1
  -4 -23 -10 2361.34 2136.08   1
  -4  23 -11 578.866 1200.72   1
  -4 -23 -11 1545.90 1691.57   1
   4  23 -12 474.352 778.802   1
  -4  23 -12 734.096 1258.38   1
  -4 -23 -12 2220.50 1814.57   1
   4  23 -13 1324.79 1124.46   1
  -4  23 -13 1992.38 1538.07   1
  -4 -23 -13 1724.38 1676.39   1
   4  23 -14 431.508 802.219   1
  -4  23 -14 769.743 1241.72   1
  -4 -23 -14 2416.10 1792.90   1
   4  23 -15 2023.22 1297.52   1
  -4  23 -15 562.719 1540.29   1
  -4 -23 -15  702.91 1479.66   1
  -4  23 -16-428.358 955.449   1
  -4 -23 -16 1967.70 1750.59   1
  -4  23 -17 965.506 1069.32   1
  -4 -23 -17 2428.57 1862.07   1
  -4  23 -18-311.109 941.107   1
  -4 -24  -1-1702.70 2042.64   1
  -4 -24  -2-1666.18 2014.72   1
  -4 -24  -3 2842.62 2320.33   1
  -4 -24  -4 866.614 2100.59   1
  -4 -24  -5 1012.61 1885.79   1
  -4 -24  -6 2066.43 1982.86   1
  -4 -24  -7-2799.14 1704.37   1
  -4 -24  -8 1363.54 1862.80   1
  -4 -24  -9 2662.32 1890.70   1
  -4 -24 -10 219.697 1676.59   1
  -4  24 -11 2912.92 1580.27   1
  -4 -24 -11 389.102 1545.82   1
  -4  24 -12-977.066 1124.31   1
  -4 -24 -12-1213.27 1451.47   1
  -4  24 -13 133.866 1116.04   1
  -4 -24 -13 5139.62 2825.50   1
  -4  24 -14 907.501 1917.15   1
  -4 -24 -14 3827.46 2068.97   1
  -4  24 -15 1575.28 1391.13   1
  -4  24 -16  655.72 1180.20   1
  -4  24 -17-1021.69 1009.38   1
  -4 -25  -1 203.147 1914.74   1
  -4 -25  -2 646.914 2145.21   1
  -4 -25  -3 1966.98 2375.21   1
  -4 -25  -4-1249.90 2097.48   1
  -4 -25  -5-470.087 1984.66   1
  -4 -25  -6 601.324 1951.96   1
  -4 -25  -7 112.692 1801.95   1
  -4 -25  -8 2421.92 2067.98   1
  -4 -25  -9-264.992 1608.67   1
  -4 -25 -10 1313.73 1728.77   1
  -4 -25 -11 189.421 1431.65   1
  -4  25 -12-1368.13 1074.19   1
  -4  25 -13-170.459 1031.15   1
  -4  25 -14 2540.05 1766.73   1
  -4  25 -15 2840.55 1908.50   1
  -5   0   0 3656.07 1843.22   1
  -5   0  -1 2488.50 1777.49   1
  -5   0   1-563.628 1610.71   1
  -5   0  -2 6237.09 2651.05   1
  -5   0   2 2430.46 1807.00   1
  -5   0  -3 2585.94 2130.90   1
  -5   0   3 112.791 1560.59   1
  -5   0  -4 4833.81 2143.35   1
  -5   0   4 5819.21 2271.69   1
  -5   0  -5 2134.34 3016.71   1
  -5   0   5 513.265 1393.63   1
  -5   0  -6 2042.23 2361.06   1
  -5   0   6-878.475 1264.29   1
  -5   0  -7 1775.55 2486.50   1
  -5   0   7-524.322 1264.58   1
  -5   0  -814664.50 5922.76   1
  -5   0   814391.70 4967.43   1
  -5   0  -9 627.623 2352.89   1
  -5   0   9 91.9356 1142.82   1
  -5   0 -10 3764.05 2439.16   1
  -5   0  10-369.999 1189.73   1
  -5   0 -11 777.552 2386.29   1
  -5   0  11 398.366 1151.70   1
  -5   0 -12-1044.88 2413.36   1
  -5   0  12 3329.74 1758.24   1
  -5   0 -13 2786.35 2441.75   1
  -5   0  13-492.563 1112.07   1
  -5   0 -14 2457.65 2502.55   1
  -5   0 -15 2183.51 2613.08   1
  -5   0 -16 6120.78 3915.62   1
  -5   0 -17 1717.33 2270.25   1
  -5   0 -18 2097.37 2290.75   1
  -5   0 -19 1137.53 2135.96   1
  -5   0 -20 5401.18 2598.51   1
  -5   0 -21-1937.69 1791.78   1
  -5   0 -22 7181.34 2241.87   1
  -5   0 -23-2260.35 1613.50   1
  -5   0 -24 4986.21 3232.83   1
  -5   0 -25 1503.96 1886.82   1
  -5   0 -26 218.818 1678.97   1
  -5   0 -27 1499.14 1880.12   1
  -5   0 -28 2926.05 2032.22   1
  -5   1   0 1769.15 1690.29   1
  -5  -1   0 110.548 1801.16   1
  -5   1  -1 9521.28 2918.27   1
  -5   1   1 7516.76 2885.16   1
  -5  -1  -111536.20 3692.17   1
  -5  -1   1 9936.65 2995.26   1
  -5   1  -2-80.2757 1607.53   1
  -5   1   2 421.704 1472.49   1
  -5  -1  -2 7304.85 3068.45   1
  -5  -1   2 2600.92 1863.48   1
  -5   1  -3 1903.14 1813.77   1
  -5  -1  -3 2963.67 2406.64   1
  -5   1   3 1436.98 1610.53   1
  -5  -1   3-1826.89 1505.34   1
  -5   1  -4 2690.86 2109.87   1
  -5  -1  -4 1295.17 2149.15   1
  -5   1   4 163.497 1378.36   1
  -5  -1   4 505.598 1448.58   1
  -5   1  -5 1492.41 2028.38   1
  -5  -1  -5 185.615 2177.36   1
  -5   1   5 4967.48 2487.01   1
  -5  -1   5 1308.02 1513.68   1
  -5   1  -6 2700.29 2383.86   1
  -5  -1  -6 2718.39 2437.22   1
  -5   1   6 1707.65 2061.64   1
  -5  -1   6 2328.82 1838.31   1
  -5   1  -7 5957.30 3593.80   1
  -5  -1  -7 2671.65 4084.69   1
  -5   1   7 1387.42 1310.01   1
  -5  -1   7 1040.17 1255.24   1
  -5   1  -8 781.443 2300.18   1
  -5  -1  -8 1519.26 2560.98   1
  -5   1   8-89.3966 1170.85   1
  -5  -1   8  123.15 1227.62   1
  -5   1  -9 7888.41 4093.99   1
  -5  -1  -910580.20 4626.58   1
  -5   1   9 3064.09 1853.94   1
  -5  -1   9 6724.81 2894.52   1
  -5   1 -10 2845.06 3379.98   1
  -5  -1 -10 922.983 2248.69   1
  -5   1  10 198.697 1120.07   1
  -5  -1  10 2484.23 1693.95   1
  -5   1 -11 3786.04 3217.42   1
  -5  -1 -11 2956.06 2355.26   1
  -5   1  11-140.991 1107.07   1
  -5  -1  11 6832.94 2638.05   1
  -5   1 -12 850.429 2286.93   1
  -5  -1 -12 1492.84 2426.39   1
  -5   1  12-682.592 1082.06   1
  -5  -1  12 2981.31 1939.64   1
  -5   1 -13 1381.55 2466.32   1
  -5  -1 -13 257.527 2549.06   1
  -5  -1  13 3268.48 2282.72   1
  -5   1 -14 1386.81 2499.16   1
  -5  -1 -14 2996.36 2621.87   1
  -5  -1  14 2475.23 1868.06   1
  -5   1 -15 1541.16 2313.19   1
  -5  -1 -15-961.844 2448.45   1
  -5   1 -16-181.646 2243.14   1
  -5  -1 -16 4577.08 2907.41   1
  -5   1 -17-926.536 2211.95   1
  -5  -1 -17-1116.45 2100.74   1
  -5   1 -18 3098.75 2408.66   1
  -5  -1 -18-1837.82 2247.22   1
  -5   1 -19 1719.59 2091.38   1
  -5  -1 -19 5424.44 3541.93   1
  -5   1 -20 39.1834 1940.10   1
  -5  -1 -20 2541.63 2126.52   1
  -5   1 -21 274.481 1797.58   1
  -5  -1 -21 2686.21 2086.73   1
  -5   1 -22 3276.47 2937.28   1
  -5  -1 -22 448.759 1762.56   1
  -5   1 -23 1971.99 1704.48   1
  -5  -1 -23 2033.88 1907.84   1
  -5   1 -24-359.684 1368.20   1
  -5  -1 -24 413.248 1936.21   1
  -5   1 -25 2772.31 2431.13   1
  -5  -1 -25 1621.49 1899.39   1
  -5   1 -26  896.93 1864.88   1
  -5  -1 -26-182.562 1728.43   1
  -5   1 -27-2670.03 1791.31   1
  -5  -1 -27-1293.62 1491.48   1
  -5   1 -28-1325.37 1928.87   1
  -5   2   0 3016.14 2315.36   1
  -5  -2   0 3176.99 2728.83   1
  -5   2   1  846.81 1464.85   1
  -5   2  -1 2874.90 1761.53   1
  -5  -2  -1 466.464 1928.04   1
  -5  -2   1 2359.52 1891.40   1
  -5   2  -2 -793.55 1634.93   1
  -5   2   2-1124.47 1430.27   1
  -5  -2  -2 2679.36 2134.52   1
  -5  -2   2 1481.54 1743.84   1
  -5   2  -3 2445.62 1810.14   1
  -5   2   3 4567.37 1626.79   1
  -5  -2  -3 8834.16 4030.30   1
  -5  -2   3 3447.90 2308.29   1
  -5   2  -4 5491.50 1912.59   1
  -5  -2  -4 7714.55 3462.25   1
  -5   2   4 6427.48 2286.80   1
  -5  -2   4 6965.53 2447.98   1
  -5   2  -518000.2011499.70   1
  -5   2   518217.6011491.70   1
  -5  -2  -5 9134.00 4346.53   1
  -5  -2   511744.40 4186.04   1
  -5   2  -6 7146.69 3769.20   1
  -5  -2  -6 1786.19 2442.68   1
  -5   2   6 5102.46 2393.31   1
  -5  -2   6 -871.75 1259.23   1
  -5   2  -7 539.678 2265.48   1
  -5  -2  -7-28.0524 2315.76   1
  -5   2   7-1457.12 1215.10   1
  -5   2  -8-50.6715 2248.54   1
  -5  -2  -8 1794.48 2431.25   1
  -5   2   8 1134.57 1269.83   1
  -5  -2   8 2627.36 1730.66   1
  -5   2  -9 7581.93 3529.74   1
  -5  -2  -9 1018.64 2380.90   1
  -5   2   9 5620.73 2392.34   1
  -5  -2   9 4554.22 2294.72   1
  -5   2 -10 1953.46 2189.01   1
  -5  -2 -10-2456.84 2370.40   1
  -5   2  10 1845.21 1888.89   1
  -5  -2  10 88.8738 1169.42   1
  -5   2 -11 3379.63 2299.78   1
  -5  -2 -11 3829.18 2510.81   1
  -5   2  11 76.0253 1027.04   1
  -5  -2  11 3325.88 1862.63   1
  -5   2 -12 1885.28 2169.66   1
  -5  -2 -1211426.50 4909.83   1
  -5  -2  12 1838.32 1381.17   1
  -5   2 -13 1113.78 2104.13   1
  -5  -2 -13 969.009 2424.60   1
  -5  -2  13 319.293 1209.70   1
  -5   2 -14-898.349 2142.18   1
  -5  -2 -14 1287.17 2504.73   1
  -5  -2  14 3560.07 1961.90   1
  -5   2 -15 943.779 2179.01   1
  -5  -2 -15-1572.24 2516.08   1
  -5  -2  15 1476.79 1295.22   1
  -5   2 -16 4310.03 4053.71   1
  -5  -2 -16 6488.00 4201.12   1
  -5   2 -17 -233.26 2048.06   1
  -5  -2 -17 2382.75 2494.54   1
  -5   2 -18 1033.27 1953.95   1
  -5  -2 -18 2560.20 2383.91   1
  -5   2 -19 2223.30 2006.18   1
  -5  -2 -19 2.03321 2065.40   1
  -5   2 -20 1450.31 1820.64   1
  -5  -2 -20 2724.76 2158.43   1
  -5   2 -21-715.554 1636.50   1
  -5  -2 -21-1599.87 2011.52   1
  -5   2 -22 1378.20 1720.05   1
  -5  -2 -22 1996.32 2188.89   1
  -5   2 -23 3658.47 1846.01   1
  -5  -2 -23 3164.30 3211.25   1
  -5   2 -24-522.799 1434.78   1
  -5  -2 -24 1616.15 2200.36   1
  -5   2 -25 1441.15 1598.64   1
  -5  -2 -25-182.659 1934.93   1
  -5   2 -26 2596.55 2571.03   1
  -5  -2 -26-16.0981 1592.72   1
  -5   2 -27-336.015 1907.60   1
  -5  -2 -27 4142.05 2633.58   1
  -5   2 -28 3916.34 2475.46   1
  -5  -2 -28 4395.20 2307.28   1
  -5   3   0 3505.12 1583.27   1
  -5  -3   0 5909.84 2717.97   1
  -5   3  -1 6021.40 2352.57   1
  -5   3   1 2918.03 1714.36   1
  -5  -3  -1 4431.70 2095.13   1
  -5  -3   1 2291.49 1815.95   1
  -5   3  -2 8391.59 3017.28   1
  -5   3   2 5815.51 2545.64   1
  -5  -3  -2 3300.69 2247.09   1
  -5  -3   2 4629.53 2355.90   1
  -5   3  -3 7568.73 2705.33   1
  -5   3   3 4016.23 1990.42   1
  -5  -3  -3 5786.67 3221.41   1
  -5  -3   3 1300.73 2252.84   1
  -5   3  -4 1325.86 1785.15   1
  -5   3   4 1388.18 1364.03   1
  -5  -3  -4 530.764 2249.52   1
  -5  -3   4-167.984 1499.76   1
  -5   3  -5 6480.51 3190.46   1
  -5   3   5 2891.44 1482.59   1
  -5  -3  -5 5463.43 3651.37   1
  -5  -3   5 5265.49 2977.53   1
  -5   3  -6 882.067 1719.08   1
  -5   3   6 6244.77 2990.94   1
  -5  -3  -6 9353.24 4400.56   1
  -5  -3   6 3734.09 2649.63   1
  -5   3  -7 7065.16 3612.58   1
  -5   3   7 7028.48 3126.66   1
  -5  -3  -7 7860.83 4180.14   1
  -5  -3   7 5158.13 2468.49   1
  -5   3  -8 3971.02 3143.62   1
  -5  -3  -8 271.042 2317.64   1
  -5   3   8 2029.80 1701.74   1
  -5  -3   8 2491.86 1412.33   1
  -5   3  -9  26.948 2035.38   1
  -5  -3  -910697.60 4977.26   1
  -5   3   9 604.546 1150.10   1
  -5  -3   9 366.056 1155.98   1
  -5   3 -10-420.591 2038.34   1
  -5  -3 -10 4900.03 3440.01   1
  -5   3  10 4676.40 2107.87   1
  -5  -3  10 4135.16 2036.14   1
  -5   3 -11 3269.44 2212.72   1
  -5  -3 -11 3808.40 2634.75   1
  -5  -3  11 3361.91 2141.80   1
  -5   3 -12 349.111 2081.39   1
  -5  -3 -12 2862.60 2466.38   1
  -5  -3  12-277.946 1158.04   1
  -5   3 -13 844.463 1940.17   1
  -5  -3 -13 3369.57 2582.48   1
  -5  -3  13 -489.45 1243.37   1
  -5   3 -14 1106.50 1946.55   1
  -5  -3 -14  892.64 2510.37   1
  -5  -3  14 72.7909 1143.17   1
  -5   3 -15 2805.85 2254.47   1
  -5  -3 -15 1889.75 2421.10   1
  -5   3 -16 4209.44 3279.10   1
  -5  -3 -16 2381.99 2597.02   1
  -5   3 -17 3549.06 2248.73   1
  -5  -3 -17-3953.97 2368.24   1
  -5   3 -18 3491.28 2200.79   1
  -5  -3 -18 5438.95 3559.65   1
  -5   3 -19 2247.52 1991.12   1
  -5  -3 -19 6466.89 3766.56   1
  -5   3 -20 3504.51 2000.31   1
  -5  -3 -20 764.946 2108.87   1
  -5   3 -21 1844.59 1873.23   1
  -5  -3 -21 5062.31 3920.12   1
  -5   3 -22 51.5299 1593.68   1
  -5  -3 -22-602.187 2234.72   1
  -5   3 -23 2198.79 1666.11   1
  -5  -3 -23 174.489 2175.78   1
  -5   3 -24 614.484 1403.98   1
  -5  -3 -24 3626.32 2405.87   1
  -5   3 -25 3560.07 2377.05   1
  -5  -3 -25 638.643 1855.26   1
  -5   3 -26-494.471 1571.57   1
  -5  -3 -26 2220.12 1924.79   1
  -5   3 -27 1541.96 1923.21   1
  -5  -3 -27 1029.32 1484.58   1
  -5  -3 -28 796.435 1559.29   1
  -5   4   0 513.212 1403.31   1
  -5  -4   0 1283.08 1946.89   1
  -5   4  -1 3723.92 2592.19   1
  -5   4   1 3867.53 2082.23   1
  -5  -4  -1-1420.59 1895.34   1
  -5  -4   1 5996.58 3061.07   1
  -5   4  -2-217.328 1541.77   1
  -5   4   2 677.864 1454.36   1
  -5  -4  -2 2820.90 2322.99   1
  -5  -4   2 562.422 1588.21   1
  -5   4  -3 5508.78 3155.40   1
  -5   4   3-582.983 1310.96   1
  -5  -4  -3 494.648 2069.83   1
  -5  -4   3 2876.15 2402.26   1
  -5   4  -4 4283.90 2530.09   1
  -5   4   4 4951.94 2351.19   1
  -5  -4  -4 4484.55 3541.08   1
  -5  -4   4 5813.71 2787.77   1
  -5   4  -5 1991.11 1651.94   1
  -5   4   5 4141.72 2109.81   1
  -5  -4  -5 1895.32 2519.27   1
  -5  -4   5 605.356 1539.29   1
  -5   4  -613769.80 4936.30   1
  -5   4   612077.90 4320.92   1
  -5  -4  -620405.5013332.50   1
  -5  -4   6 6453.84 2821.55   1
  -5   4  -7 4100.77 2686.35   1
  -5   4   7 1768.95 1293.07   1
  -5  -4  -7 1017.96 2383.40   1
  -5  -4   7-1752.79 1325.79   1
  -5   4  -8 690.556 1959.16   1
  -5   4   8 2072.51 1110.48   1
  -5  -4  -8 578.267 2425.72   1
  -5  -4   8 2734.35 2318.04   1
  -5   4  -9-432.448 1898.47   1
  -5  -4  -9-751.859 2368.27   1
  -5  -4   9 886.133 1204.76   1
  -5   4 -10 5050.95 2229.52   1
  -5  -4 -10 4610.03 3651.90   1
  -5  -4  10 4983.07 2017.68   1
  -5   4 -11 3633.21 2739.89   1
  -5  -4 -11-1061.28 2293.36   1
  -5  -4  11 2991.97 1809.92   1
  -5   4 -12 2969.89 2017.03   1
  -5  -4 -12 3083.18 2557.27   1
  -5  -4  12 3482.06 2017.41   1
  -5   4 -13 -70.901 1786.54   1
  -5  -4 -13-1682.13 2271.08   1
  -5   4 -14 246.511 1815.74   1
  -5  -4 -14 3709.84 3409.71   1
  -5   4 -15 102.064 1838.20   1
  -5  -4 -15 1355.76 2476.66   1
  -5   4 -16 1624.57 1894.07   1
  -5  -4 -16 2179.37 3269.11   1
  -5   4 -17 204.043 1777.38   1
  -5  -4 -17 3502.20 2552.98   1
  -5   4 -18 5181.23 2926.51   1
  -5  -4 -18 4481.94 2761.03   1
  -5   4 -19 1962.83 1833.44   1
  -5  -4 -19-1302.31 2185.47   1
  -5   4 -20 31.5051 1738.10   1
  -5  -4 -20 5382.06 3723.68   1
  -5   4 -21-1318.17 1640.95   1
  -5  -4 -21 1320.58 2486.52   1
  -5   4 -22-249.241 1596.79   1
  -5  -4 -22 3854.17 3204.01   1
  -5   4 -23-799.266 1513.08   1
  -5  -4 -23-416.858 2503.46   1
  -5   4 -24 845.815 1563.24   1
  -5  -4 -24 6692.65 3735.63   1
  -5   4 -25 2219.19 2353.74   1
  -5  -4 -25 4390.44 3299.11   1
  -5   4 -26-60.0291 1566.02   1
  -5  -4 -26-49.7702 1476.50   1
  -5   4 -27-682.904 1666.62   1
  -5  -4 -27  436.14 1615.62   1
  -5   5   0 6907.71 3301.77   1
  -5  -5   0 3830.05 2155.05   1
  -5   5  -112439.10 4599.39   1
  -5   5   110427.90 3987.49   1
  -5  -5  -1 7750.03 3678.20   1
  -5  -5   1 3622.96 2133.44   1
  -5   5  -2 1699.64 1567.55   1
  -5   5   2 2994.62 1975.45   1
  -5  -5  -2 676.117 2125.25   1
  -5  -5   2 5933.74 2988.61   1
  -5   5  -3 2453.82 1551.38   1
  -5   5   3 1024.47 1458.82   1
  -5  -5  -313280.00 5636.16   1
  -5  -5   3 2114.75 1786.16   1
  -5   5  -4 2312.77 1628.62   1
  -5   5   4 4075.21 1839.54   1
  -5  -5  -4-853.369 2087.22   1
  -5  -5   4 69.3548 1498.42   1
  -5   5  -5 150.474 1352.34   1
  -5   5   5 6603.59 2993.49   1
  -5  -5  -5 5900.63 3740.34   1
  -5  -5   5-220.759 1514.64   1
  -5   5  -6 2225.99 1516.66   1
  -5   5   6 4611.98 2840.87   1
  -5  -5  -6 708.456 2317.43   1
  -5  -5   6 4872.59 2504.88   1
  -5   5  -7 9780.16 3278.18   1
  -5   5   7 4938.13 2017.02   1
  -5  -5  -7 1231.09 2346.28   1
  -5  -5   7 2456.67 1399.42   1
  -5   5  -8 1658.15 1504.71   1
  -5  -5  -8 4013.83 3261.98   1
  -5  -5   8 2062.94 1343.27   1
  -5   5  -9 3481.11 1897.27   1
  -5  -5  -9 1742.49 2578.64   1
  -5  -5   9 5615.36 2496.54   1
  -5   5 -10 524.562 1709.69   1
  -5  -5 -10 493.311 2459.26   1
  -5  -5  10 1220.85 1250.86   1
  -5   5 -11 300.878 1759.22   1
  -5  -5 -11  540.59 2240.09   1
  -5  -5  11 2246.13 1740.72   1
  -5   5 -12 3354.77 1998.24   1
  -5  -5 -12 2781.83 2538.22   1
  -5   5 -13 2382.16 1822.44   1
  -5  -5 -13 2008.39 2348.09   1
  -5   5 -14 2446.91 1829.43   1
  -5  -5 -14 180.478 2365.24   1
  -5   5 -15 329.458 1575.02   1
  -5  -5 -15 4587.44 2805.11   1
  -5   5 -16 2560.26 1866.81   1
  -5  -5 -16 4049.24 2565.42   1
  -5   5 -17-882.992 1711.36   1
  -5  -5 -17 3285.70 2527.74   1
  -5   5 -18 2857.91 2502.88   1
  -5  -5 -18 3827.23 2463.08   1
  -5   5 -19 2149.92 1752.79   1
  -5  -5 -19 3031.05 2497.91   1
  -5   5 -20 6321.61 3024.46   1
  -5  -5 -20-212.879 2477.53   1
  -5   5 -21 1671.28 1762.11   1
  -5  -5 -21 1080.74 2591.34   1
  -5   5 -22 960.139 1649.05   1
  -5  -5 -22-1043.06 2565.19   1
  -5   5 -23 2012.73 1682.98   1
  -5  -5 -23 1131.88 4000.43   1
  -5   5 -24 887.506 1625.81   1
  -5  -5 -24-847.257 1911.03   1
  -5   5 -25 1939.78 1790.43   1
  -5  -5 -25-2264.42 1713.92   1
  -5   5 -26 5270.39 2762.28   1
  -5  -5 -26 1432.51 1720.43   1
  -5   5 -27  620.61 1648.73   1
  -5  -5 -27 2739.69 1823.43   1
  -5   6   0 388.968 1256.02   1
  -5  -6   0-1045.21 1951.14   1
  -5   6   1 1992.77 1357.21   1
  -5   6  -1 1701.88 1434.13   1
  -5  -6  -110762.80 4752.03   1
  -5  -6   1 5661.04 3556.37   1
  -5   6  -212043.60 4514.99   1
  -5  -6  -2 8646.57 4370.55   1
  -5  -6   2 8953.61 4110.57   1
  -5   6  -314064.40 5030.96   1
  -5   6   317800.5011303.90   1
  -5  -6  -3 5704.52 3407.18   1
  -5  -6   3 8341.94 3831.66   1
  -5   6  -412386.30 4489.02   1
  -5  -6   411190.20 4538.23   1
  -5   6  -5 -936.71 1345.15   1
  -5   6   5 4178.80 2204.20   1
  -5  -6  -5 1285.01 2133.23   1
  -5  -6   5 5434.73 3187.80   1
  -5   6  -6 3451.83 2391.53   1
  -5   6   6 717.849 1263.46   1
  -5  -6  -6 3049.63 2363.03   1
  -5  -6   6 4708.42 2729.17   1
  -5   6  -7 2562.45 2080.99   1
  -5  -6  -7 4251.21 3193.56   1
  -5  -6   7 1774.09 2040.64   1
  -5   6  -8 3201.55 2027.80   1
  -5  -6  -8 2283.44 3193.64   1
  -5  -6   8 3037.34 1967.34   1
  -5   6  -9 1412.98 1472.82   1
  -5  -6  -9 3514.15 2588.23   1
  -5  -6   9 1063.94 1300.47   1
  -5   6 -10 2613.08 1808.91   1
  -5  -6 -10-956.836 2303.69   1
  -5  -6  10 2334.81 1823.79   1
  -5   6 -11 3791.24 2535.67   1
  -5  -6 -11 3958.14 2584.04   1
  -5   6 -12 2508.53 1729.33   1
  -5  -6 -12 3705.76 4321.78   1
  -5   6 -13 4030.91 2539.73   1
  -5  -6 -13 3538.62 2626.96   1
  -5   6 -14 1103.97 1625.95   1
  -5  -6 -14-1432.88 2233.78   1
  -5   6 -15 1244.01 1511.99   1
  -5  -6 -15 3533.34 2511.32   1
  -5   6 -16 4685.26 2195.63   1
  -5  -6 -16-631.221 2040.22   1
  -5   6 -17 1969.12 1674.94   1
  -5  -6 -17 4435.63 3240.29   1
  -5   6 -18 2783.11 1717.34   1
  -5  -6 -18 6107.07 3665.03   1
  -5   6 -19 753.577 1682.05   1
  -5  -6 -19 1110.79 2443.43   1
  -5   6 -20 5874.24 2439.65   1
  -5  -6 -20 2716.07 2890.47   1
  -5   6 -21 2076.65 1772.95   1
  -5  -6 -21 1838.02 2852.92   1
  -5   6 -22-572.125 1594.48   1
  -5  -6 -22 5884.25 3025.79   1
  -5   6 -23 554.533 1672.29   1
  -5  -6 -23 6088.37 3135.98   1
  -5   6 -24 1804.05 1799.15   1
  -5  -6 -24 2301.60 2190.84   1
  -5   6 -25 5442.84 2984.28   1
  -5  -6 -25 1851.18 2715.26   1
  -5   6 -26 651.245 1561.63   1
  -5  -6 -26 590.256 1747.82   1
  -5   6 -27 978.744 1353.11   1
  -5  -6 -27 4390.69 2836.57   1
  -5   7   011328.30 4235.69   1
  -5  -7   0 8987.31 4280.20   1
  -5   7  -1 4357.92 2201.83   1
  -5   7   1 4201.28 2243.01   1
  -5  -7  -1 2842.04 2031.18   1
  -5  -7   1 943.276 1836.89   1
  -5   7  -2 6768.43 2759.23   1
  -5   7   211999.10 4277.02   1
  -5  -7  -2 6231.78 3397.79   1
  -5  -7   2 5778.88 3634.63   1
  -5   7  -3 971.413 1773.56   1
  -5   7   3 66.2105 1284.22   1
  -5  -7  -3 1242.10 2017.56   1
  -5  -7   3 6523.98 3582.89   1
  -5   7  -4 2413.32 1307.17   1
  -5   7   4 1176.21 1734.59   1
  -5  -7  -4 782.525 2068.65   1
  -5  -7   4-2109.97 1690.42   1
  -5   7  -5 2950.52 1850.75   1
  -5   7   5 93.6377 1061.08   1
  -5  -7  -5 1014.17 2108.39   1
  -5  -7   5 1345.74 1708.77   1
  -5   7  -6 3136.00 1839.94   1
  -5  -7  -6 4660.07 2983.57   1
  -5  -7   6 3681.98 2295.33   1
  -5   7  -7 4183.68 1940.17   1
  -5  -7  -7 4464.07 2294.63   1
  -5  -7   7 848.035 1500.49   1
  -5   7  -8 693.299 1314.68   1
  -5  -7  -8 7938.06 4085.08   1
  -5  -7   8 1729.90 1398.82   1
  -5   7  -9 351.902 1784.98   1
  -5  -7  -9-1700.82 2308.10   1
  -5  -7   9 2913.91 1584.95   1
  -5   7 -10 1661.94 1516.48   1
  -5  -7 -10 6272.65 3813.08   1
  -5   7 -11 3110.06 1703.74   1
  -5  -7 -11-3204.42 2353.12   1
  -5   7 -12-2218.93 1310.00   1
  -5  -7 -12-1229.06 2193.00   1
  -5   7 -13 3472.99 1847.51   1
  -5  -7 -13 2895.98 2526.15   1
  -5   7 -14 3687.43 2298.87   1
  -5  -7 -14 177.845 2117.80   1
  -5   7 -15 5363.05 2629.74   1
  -5  -7 -15 6457.10 3513.26   1
  -5   7 -16 2652.19 2133.30   1
  -5  -7 -16 2846.56 2232.73   1
  -5   7 -17 1184.34 1440.93   1
  -5  -7 -17 6237.51 2856.74   1
  -5   7 -18 724.549 1437.28   1
  -5  -7 -18-1481.13 2277.05   1
  -5   7 -19 1791.40 1536.63   1
  -5  -7 -19-2105.52 2431.41   1
  -5   7 -20 492.513 1652.23   1
  -5  -7 -20 1220.17 2619.55   1
  -5   7 -21 3185.76 2774.48   1
  -5  -7 -21 2298.88 2805.51   1
  -5   7 -22 1495.07 1810.41   1
  -5  -7 -22 7085.08 5985.63   1
  -5   7 -23-976.574 1751.59   1
  -5  -7 -23 3672.53 3782.84   1
  -5   7 -24 3760.05 2413.41   1
  -5  -7 -24 3585.64 3318.16   1
  -5   7 -25 1357.53 1777.34   1
  -5  -7 -25 1196.53 1944.10   1
  -5   7 -26 2058.59 1804.82   1
  -5  -7 -26 1830.45 1886.56   1
  -5  -7 -27 1164.94 1915.20   1
  -5   8   0-23.6726 1257.59   1
  -5  -8   0 466.574 1810.56   1
  -5   8   1 3156.43 1967.29   1
  -5   8  -1 1578.12 1275.65   1
  -5  -8  -1 1801.08 1802.76   1
  -5  -8   1-396.868 1800.25   1
  -5   8  -212026.20 3993.62   1
  -5  -8  -210779.00 3705.37   1
  -5  -8   2 7824.70 3292.09   1
  -5   8   3 5583.10 2224.23   1
  -5   8  -3 7561.03 2875.97   1
  -5  -8  -3 7739.46 3828.18   1
  -5  -8   3 2461.28 1913.25   1
  -5   8   4 6466.46 2231.78   1
  -5   8  -4 8767.11 3041.52   1
  -5  -8  -4 4492.73 2201.00   1
  -5  -8   4 4709.94 2749.92   1
  -5   8  -5-56.6546 1180.77   1
  -5  -8  -5 133.003 2016.98   1
  -5  -8   5 1989.26 1785.06   1
  -5   8  -6 1140.36 1248.08   1
  -5  -8  -6 2312.17 2052.77   1
  -5  -8   6 1515.29 2508.49   1
  -5   8  -7-390.581 1134.15   1
  -5  -8  -7  478.02 2142.08   1
  -5  -8   7 48.5246 1479.08   1
  -5   8  -8 1618.15 1297.42   1
  -5  -8  -8 3795.93 2475.70   1
  -5  -8   8 1474.67 1595.38   1
  -5   8  -9 2837.81 2050.07   1
  -5  -8  -9 6690.28 3760.23   1
  -5   8 -10 947.372 1313.83   1
  -5  -8 -10 2230.21 2404.08   1
  -5   8 -11 5166.68 2265.10   1
  -5  -8 -11-210.622 2243.25   1
  -5   8 -12 2007.60 1427.19   1
  -5  -8 -12 2210.48 2225.79   1
  -5   8 -13 995.161 1324.20   1
  -5  -8 -13 2948.63 2293.80   1
  -5   8 -14 1513.10 1367.19   1
  -5  -8 -14 2568.04 2217.83   1
  -5   8 -15 3418.91 1656.07   1
  -5  -8 -15 5261.73 3301.03   1
  -5   8 -16 1610.97 1371.24   1
  -5  -8 -16 1129.16 1957.59   1
  -5   8 -17  531.11 1271.58   1
  -5  -8 -17-855.758 2016.95   1
  -5   8 -18 3326.52 2213.62   1
  -5  -8 -18 1197.50 3390.83   1
  -5   8 -19 2877.52 1975.13   1
  -5  -8 -19 5368.16 2715.51   1
  -5   8 -20 875.429 1541.56   1
  -5  -8 -20 4544.25 3386.94   1
  -5   8 -21 1426.64 1709.91   1
  -5  -8 -21 2379.96 3376.73   1
  -5   8 -22 2955.28 2426.75   1
  -5  -8 -22 6729.13 3212.51   1
  -5   8 -23 4107.03 2645.75   1
  -5  -8 -23 6812.92 3803.67   1
  -5   8 -24 3830.74 2798.04   1
  -5  -8 -24-324.652 1929.45   1
  -5   8 -25 3786.08 2603.72   1
  -5  -8 -25 -110.99 1927.14   1
  -5   8 -26 1730.61 1739.88   1
  -5  -8 -26 4195.04 2420.90   1
  -5   9   0 3581.39 2346.95   1
  -5  -9   0 271.239 1744.82   1
  -5   9  -1 7687.35 3155.07   1
  -5   9   1 484.294 1254.59   1
  -5  -9  -1-341.715 1746.12   1
  -5  -9   1-204.715 1797.17   1
  -5   9  -2-756.003 1153.46   1
  -5   9   2-404.825 1201.45   1
  -5  -9  -2 369.844 1747.76   1
  -5  -9   2 1408.59 1889.20   1
  -5   9  -3 6520.74 2574.02   1
  -5   9   3 1759.16 1594.30   1
  -5  -9  -3 5501.50 2889.34   1
  -5  -9   3 844.803 1878.97   1
  -5   9  -4 1543.84 1609.81   1
  -5  -9  -4 1527.59 2044.34   1
  -5  -9   4 3337.58 2764.24   1
  -5   9  -5 1032.46 1598.29   1
  -5  -9  -5 1328.64 1851.32   1
  -5  -9   5 5116.26 2893.18   1
  -5   9  -6 1828.55 1326.97   1
  -5  -9  -6 5035.85 3223.21   1
  -5  -9   6 3234.71 1997.22   1
  -5   9  -7 1337.48 1136.85   1
  -5  -9  -7 2035.05 2196.96   1
  -5  -9   7 2174.86 1805.65   1
  -5   9  -8 6591.75 2529.07   1
  -5  -9  -8 4095.54 2425.14   1
  -5  -9   8 2760.78 1723.38   1
  -5   9  -9 883.683 1213.23   1
  -5  -9  -9 6788.53 4295.62   1
  -5   9 -10 258.669 1196.00   1
  -5  -9 -10-1266.46 2004.92   1
  -5   9 -11-42.6783 1164.61   1
  -5  -9 -11 1121.36 2124.53   1
  -5   9 -12 294.371 1096.36   1
  -5  -9 -12 989.112 2133.64   1
  -5   9 -13 2440.77 1736.17   1
  -5  -9 -13 1241.90 2697.69   1
  -5   9 -14 1105.36 1244.48   1
  -5  -9 -14 4024.56 3165.08   1
  -5   9 -15-41.9821 1170.97   1
  -5  -9 -15 3117.12 2987.54   1
  -5   9 -16 3092.35 1981.62   1
  -5  -9 -16 2656.28 2430.30   1
  -5   9 -17 3049.24 1961.89   1
  -5  -9 -17 3866.08 3402.21   1
  -5   9 -18 2843.89 1530.76   1
  -5  -9 -18 2322.71 2488.64   1
  -5   9 -19 4412.44 2921.69   1
  -5  -9 -19-617.032 2424.47   1
  -5   9 -20-1162.74 1523.02   1
  -5  -9 -20 432.124 2377.80   1
  -5   9 -21 1964.97 2190.58   1
  -5  -9 -21 803.074 2335.63   1
  -5   9 -22 1836.19 1621.43   1
  -5  -9 -22-933.042 2164.24   1
  -5   9 -23 4308.48 2766.38   1
  -5  -9 -23-1020.65 2068.85   1
  -5   9 -24 2251.45 1806.24   1
  -5  -9 -24 2477.17 2352.06   1
  -5   9 -25-715.956 1426.44   1
  -5  -9 -25-64.6779 1912.09   1
  -5   9 -26 1178.08 1508.76   1
  -5  -9 -26 2545.18 2169.30   1
  -5  10   0 -76.127 1211.44   1
  -5 -10   0 581.555 1795.71   1
  -5  10  -1 1511.45 1337.90   1
  -5  10   1 2711.34 2210.78   1
  -5 -10  -1-407.383 1748.34   1
  -5 -10   1 2369.46 2007.20   1
  -5  10   2 511.621 1166.10   1
  -5  10  -2 2865.55 1922.58   1
  -5 -10  -2  471.27 1711.98   1
  -5 -10   2 2875.17 2039.44   1
  -5  10  -3 3638.94 1964.46   1
  -5 -10  -3 3756.58 2825.18   1
  -5 -10   3 2527.72 2770.42   1
  -5  10  -4 1404.48 1593.84   1
  -5 -10  -4 745.515 1793.44   1
  -5 -10   4 2503.67 1969.51   1
  -5 -10  -5 2774.01 2658.85   1
  -5  10  -6 1397.05 1231.49   1
  -5 -10  -6 3533.52 2842.51   1
  -5 -10   6 909.147 1701.73   1
  -5  10  -7 1285.36 1064.40   1
  -5 -10  -7 4237.17 2277.92   1
  -5 -10   7 3311.51 1858.61   1
  -5  10  -8 64.3008 1008.23   1
  -5 -10  -8 839.133 2033.28   1
  -5  10  -9 3762.71 2009.64   1
  -5 -10  -9 2588.37 2812.84   1
  -5  10 -10 633.024 1149.57   1
  -5 -10 -10 555.147 1894.70   1
  -5  10 -11-167.089 1072.07   1
  -5 -10 -11 1719.08 2055.36   1
  -5  10 -12 1089.39 1554.35   1
  -5 -10 -12 2007.68 2067.50   1
  -5  10 -13 408.287 1138.93   1
  -5 -10 -13 2820.95 2144.66   1
  -5  10 -14-232.076 1056.08   1
  -5 -10 -14 4105.25 2420.66   1
  -5  10 -15 1938.29 1317.35   1
  -5 -10 -15-1076.60 2052.10   1
  -5  10 -16-887.395 1226.28   1
  -5 -10 -16 3280.90 3285.36   1
  -5  10 -17 986.056 1288.31   1
  -5 -10 -17 2329.16 2387.29   1
  -5  10 -18-98.3504 1291.01   1
  -5 -10 -18 5153.88 4170.22   1
  -5  10 -19 3289.96 2094.16   1
  -5 -10 -19-1157.35 2277.85   1
   5  10 -20 2480.85 1131.82   1
  -5  10 -20 975.179 1278.83   1
  -5 -10 -20 1767.36 3357.44   1
   5  10 -21 3114.80 1516.94   1
  -5  10 -21 3550.53 1717.67   1
  -5 -10 -21 4700.58 2588.03   1
  -5  10 -22 3667.19 2161.10   1
  -5 -10 -22 6317.87 3866.02   1
  -5  10 -23 4472.07 2418.80   1
  -5 -10 -23 3481.75 2568.62   1
  -5  10 -24 826.964 1448.34   1
  -5 -10 -24 4454.17 3337.60   1
  -5  10 -25 6859.29 3609.42   1
  -5 -10 -25 2340.97 3054.53   1
  -5  11   0 1208.61 1118.08   1
  -5 -11   0-282.946 1727.43   1
  -5  11  -1 2038.50 1757.30   1
  -5  11   1 931.137 1074.83   1
  -5 -11  -1  59.087 1755.10   1
  -5 -11   1 4467.47 2897.49   1
  -5  11  -2 3309.66 2299.79   1
  -5 -11  -2 5902.71 3056.89   1
  -5 -11   2 274.781 1856.82   1
  -5  11  -3 1772.28 1868.07   1
  -5 -11  -3 1778.12 1785.86   1
  -5 -11   3 1382.68 1900.50   1
  -5  11  -4-243.542 1232.85   1
  -5 -11  -4-1375.03 1799.17   1
  -5 -11   4 539.907 1808.49   1
  -5  11  -5 797.569 1254.43   1
  -5 -11  -5 3059.35 2649.34   1
  -5 -11   5 905.724 1738.71   1
  -5  11  -6 3606.16 2378.74   1
  -5 -11  -6 4630.04 3022.05   1
  -5 -11   6 293.923 2453.18   1
  -5  11  -7 741.357 1164.90   1
  -5 -11  -7-1016.04 1754.69   1
  -5  11  -8 1098.38 1289.34   1
  -5 -11  -8-283.551 1789.67   1
  -5  11  -9 872.045 1251.53   1
  -5 -11  -9 2545.25 2026.97   1
  -5  11 -10 1433.16 1299.75   1
  -5 -11 -10 261.677 1728.87   1
  -5  11 -11 1189.31 1320.46   1
  -5 -11 -11-301.418 1864.89   1
  -5  11 -12-3.01435 1163.09   1
  -5 -11 -12-298.902 1622.41   1
  -5  11 -13-11.1888 1041.11   1
  -5 -11 -13-316.624 1829.15   1
  -5  11 -14 3116.28 1992.72   1
  -5 -11 -14 3059.63 2251.29   1
  -5  11 -15 3289.83 1588.81   1
  -5 -11 -15 3384.98 2277.95   1
  -5  11 -16 851.645 1248.03   1
  -5 -11 -16 3961.88 2572.19   1
  -5  11 -17 555.616 1286.03   1
  -5 -11 -17 2656.41 2654.84   1
  -5  11 -18 1283.35 1271.76   1
  -5 -11 -18 7252.65 3378.30   1
  -5  11 -19 1306.79 1336.78   1
  -5 -11 -19 5039.02 3244.58   1
   5  11 -20 789.541 636.668   1
  -5  11 -20 1376.13 1719.97   1
  -5 -11 -20-86.5918 2047.78   1
   5  11 -21 2095.68 1520.73   1
  -5  11 -21 2293.12 1463.02   1
  -5 -11 -21-2290.82 1915.69   1
   5  11 -22  791.68 943.226   1
  -5  11 -22-550.669 1086.89   1
  -5 -11 -22 4234.79 3362.06   1
  -5  11 -23 5150.51 2093.04   1
  -5 -11 -23 2147.58 2379.05   1
  -5  11 -24 1198.77 1323.25   1
  -5 -11 -24 196.327 1968.86   1
  -5  11 -25 735.494 1811.35   1
  -5 -11 -25 6601.12 3961.85   1
  -5  12   0 2.11765 941.062   1
  -5 -12   0 1085.14 1884.08   1
  -5  12  -1 2152.85 1592.91   1
  -5 -12  -1 2635.86 3258.91   1
  -5 -12   1 353.657 1765.15   1
  -5  12  -2 4549.62 2453.67   1
  -5 -12  -2 1873.93 1989.00   1
  -5 -12   2 259.262 1780.50   1
  -5  12  -3 7221.63 3452.63   1
  -5 -12  -3 1411.03 1808.67   1
  -5 -12   3 257.172 1943.26   1
  -5  12  -4 4601.17 2378.56   1
  -5 -12  -4-31.7086 1805.38   1
  -5 -12   4 6045.30 2848.09   1
  -5  12  -5 4041.08 2619.68   1
  -5 -12  -5 3230.38 2037.24   1
  -5 -12   5  452.98 1713.87   1
  -5  12  -6 1659.53 1322.43   1
  -5 -12  -6  572.44 1723.85   1
  -5 -12   6 -367.41 1689.86   1
  -5  12  -7 1633.50 1785.85   1
  -5 -12  -7-200.856 1683.76   1
  -5  12  -8 2941.69 1626.09   1
  -5 -12  -8 4043.31 2199.07   1
  -5  12  -9 125.494 1259.86   1
  -5 -12  -9 432.797 1613.64   1
  -5  12 -10 2823.70 1553.51   1
  -5 -12 -10-1580.98 1733.63   1
  -5  12 -11 4643.98 2380.90   1
  -5 -12 -11 1522.73 1770.38   1
  -5  12 -12 3949.17 2295.15   1
  -5 -12 -12 2278.34 2770.46   1
  -5  12 -13-142.684 1322.44   1
  -5 -12 -13 902.536 2017.01   1
  -5  12 -14 2014.40 1432.65   1
  -5 -12 -14 522.729 2056.09   1
  -5  12 -15 2707.42 1555.64   1
  -5 -12 -15 2747.70 3210.36   1
  -5  12 -16 2572.99 1780.76   1
  -5 -12 -16-655.046 2143.73   1
  -5  12 -17 733.099 1120.44   1
  -5 -12 -17 103.326 2069.66   1
  -5  12 -18 367.592 1103.94   1
  -5 -12 -18 2694.17 2149.04   1
   5  12 -19 683.812  705.77   1
  -5  12 -19 786.395 1535.78   1
  -5 -12 -19-716.295 1881.98   1
   5  12 -20 2063.03 1331.88   1
  -5  12 -20 1927.37 1308.38   1
  -5 -12 -20-295.868 1937.17   1
   5  12 -21-437.538 625.772   1
  -5  12 -21 2476.78 1572.37   1
  -5 -12 -21 757.735 1964.08   1
   5  12 -22 222.187 682.895   1
  -5  12 -22 -570.88 1123.19   1
  -5 -12 -22 1239.57 1914.91   1
   5  12 -23 1798.55 1278.72   1
  -5  12 -23-795.473 1162.90   1
  -5 -12 -23  180.85 2062.79   1
  -5  12 -24 385.719 1158.50   1
  -5 -12 -24 550.921 2200.60   1
  -5 -13   0 2572.59 2855.15   1
  -5 -13  -1 2470.10 2074.28   1
  -5 -13   1 1513.50 1962.02   1
  -5  13  -2  989.54 1088.38   1
  -5 -13  -2 5066.47 3066.88   1
  -5 -13   2 597.522 2037.15   1
  -5  13  -3  136.45 1065.41   1
  -5 -13  -3 4164.58 2829.74   1
  -5 -13   3-458.544 1969.61   1
  -5  13  -4 1741.48 1319.32   1
  -5 -13  -4 1515.59 1885.08   1
  -5 -13   4 30.6519 1927.91   1
  -5  13  -5-137.214 1176.08   1
  -5 -13  -5 2424.72 2531.77   1
  -5 -13   5-1973.09 1704.11   1
  -5  13  -6 8463.00 3709.39   1
  -5 -13  -6 6964.47 3711.82   1
  -5  13  -7 4066.41 2223.16   1
  -5 -13  -7-552.945 1566.17   1
  -5  13  -8 677.092 1373.79   1
  -5 -13  -8-2388.42 1627.70   1
  -5  13  -9-595.351 1498.94   1
  -5 -13  -9-1121.58 1627.52   1
  -5  13 -10 1756.40 1631.52   1
  -5 -13 -10 1996.33 1754.25   1
  -5  13 -11 1990.01 1663.58   1
  -5 -13 -11 867.037 1814.11   1
  -5  13 -12 2625.56 2207.99   1
  -5 -13 -12-303.972 1870.23   1
  -5  13 -13-137.507 1472.62   1
  -5 -13 -13 1767.04 2156.89   1
  -5  13 -14 2610.12 1912.12   1
  -5 -13 -14 1657.41 2225.71   1
  -5  13 -15 793.573 1382.88   1
  -5 -13 -15-167.568 2190.73   1
  -5  13 -16 52.4421 1268.45   1
  -5 -13 -16 1136.80 2057.51   1
  -5  13 -17 4945.54 2501.15   1
  -5 -13 -17 827.064 2040.93   1
  -5  13 -18 255.285 1195.51   1
  -5 -13 -18 6299.83 2855.44   1
   5  13 -19-202.867 586.161   1
  -5  13 -19 928.116 1259.48   1
  -5 -13 -19 159.127 1902.38   1
   5  13 -20  182.47 786.547   1
  -5  13 -20 32.9385 1188.14   1
  -5 -13 -20-992.909 1824.84   1
   5  13 -21 1665.24 984.131   1
  -5  13 -21 1174.42 1370.51   1
  -5 -13 -21 3617.85 2507.88   1
   5  13 -22 1096.00 922.788   1
  -5  13 -22 1113.10 1852.70   1
  -5 -13 -22 3415.20 3009.00   1
   5  13 -23  641.55 797.991   1
  -5  13 -23 3865.56 2575.53   1
  -5 -13 -23 332.936 1987.59   1
  -5  13 -24 5657.69 2903.85   1
  -5 -14   0 320.137 1947.34   1
  -5 -14  -1 4311.44 2915.62   1
  -5 -14   1 3612.07 3040.08   1
  -5 -14  -2 4356.27 2845.66   1
  -5 -14   2 2192.51 2022.76   1
  -5  14  -3 445.888 1059.61   1
  -5 -14  -3 427.849 1719.75   1
  -5 -14   3 1221.57 1996.59   1
  -5  14  -4 -777.40 1128.18   1
  -5 -14  -4 2952.32 2592.18   1
  -5 -14   4 1526.58 2015.53   1
  -5  14  -5 2209.09 1852.58   1
  -5 -14  -5 2618.44 2405.87   1
  -5 -14   5-59.8481 2021.84   1
  -5  14  -6-927.267 1222.33   1
  -5 -14  -6 3153.24 2450.28   1
  -5  14  -7 408.416 1372.79   1
  -5 -14  -7 319.518 1604.86   1
  -5  14  -8 2722.32 2192.10   1
  -5 -14  -8-336.335 1581.72   1
  -5  14  -9 773.644 1421.63   1
  -5 -14  -9 3824.88 2519.74   1
  -5  14 -10 5791.63 2741.99   1
  -5 -14 -10 1077.93 1717.10   1
  -5  14 -11 8732.54 7341.55   1
  -5 -14 -11 4045.16 2961.70   1
  -5  14 -12 3002.54 2113.00   1
  -5 -14 -12 3828.37 2301.94   1
  -5  14 -13 1111.11 1363.41   1
  -5 -14 -13 946.005 2233.64   1
  -5  14 -14 1069.86 1332.44   1
  -5 -14 -14 1806.40 2299.88   1
  -5  14 -15 2090.84 1432.37   1
  -5 -14 -15 2867.15 2173.69   1
  -5  14 -16 1030.35 1289.12   1
  -5 -14 -16 2535.17 1967.60   1
  -5  14 -17 1146.02 1355.79   1
  -5 -14 -17 9093.49 9089.43   1
  -5  14 -18 4105.35 2553.13   1
  -5 -14 -18 3826.76 2860.08   1
   5  14 -19 1272.80 1077.53   1
  -5  14 -19 3611.81 2448.17   1
  -5 -14 -19 3305.81 2349.09   1
   5  14 -20 1683.15 1262.44   1
  -5  14 -20 1283.96 1464.08   1
  -5 -14 -20 2024.52 2098.09   1
   5  14 -21 1021.47 874.659   1
  -5  14 -21-401.496 1212.59   1
  -5 -14 -21-454.355 1865.86   1
   5  14 -22 152.027  617.19   1
  -5  14 -22-1042.12 1208.08   1
  -5 -14 -22 1776.74 2208.07   1
   5  14 -23-30.2124 636.873   1
  -5  14 -23 2029.15 1609.61   1
  -5 -14 -23 2537.29 2236.37   1
   5  14 -24 1113.37 949.552   1
  -5 -15   0 6225.82 3823.98   1
  -5 -15  -1 3744.43 2056.18   1
  -5 -15   1 4029.53 2400.65   1
  -5 -15  -2 2135.33 2627.18   1
  -5 -15   2 285.642 1948.62   1
  -5 -15  -3-1190.78 1734.00   1
  -5 -15   3 495.458 1982.25   1
  -5  15  -4-29.2786 1187.30   1
  -5 -15  -4 4273.42 2611.14   1
  -5 -15   4-973.364 1959.85   1
  -5  15  -5 4876.44 2354.31   1
  -5 -15  -5 1681.60 1642.67   1
  -5  15  -6 2883.87 1638.72   1
  -5 -15  -6 704.398 1525.42   1
  -5  15  -7 3428.47 2277.71   1
  -5 -15  -7 1108.04 1604.98   1
  -5  15  -8 4678.33 2365.77   1
  -5 -15  -8 367.486 1656.26   1
  -5  15  -9 5589.79 3240.09   1
  -5 -15  -9-90.6483 1616.20   1
  -5  15 -10 2771.39 1435.37   1
  -5 -15 -10 1189.47 1901.69   1
  -5  15 -11 981.442 1252.83   1
  -5 -15 -11 3677.64 2636.10   1
  -5  15 -12 1558.25 1731.11   1
  -5 -15 -12 1136.74 2117.13   1
  -5  15 -13 4158.97 2893.46   1
  -5 -15 -13 783.059 1940.25   1
  -5  15 -14-1137.29 1113.33   1
  -5 -15 -14 3276.42 2195.40   1
  -5  15 -15 150.023 1110.95   1
  -5 -15 -15-3778.37 1944.20   1
  -5  15 -16 2509.18 1552.67   1
  -5 -15 -16 1550.61 2632.87   1
  -5  15 -17 1740.17 1380.25   1
  -5 -15 -17-1096.89 1803.37   1
  -5  15 -18 1211.16 1343.49   1
  -5 -15 -18 2300.87 2092.25   1
   5  15 -19-75.2721 774.387   1
  -5  15 -19 2071.24 1957.35   1
  -5 -15 -19 1317.91 1895.95   1
   5  15 -20 433.012 672.593   1
  -5  15 -20 4161.74 2115.45   1
  -5 -15 -20 2417.41 2100.33   1
  -5  15 -21 1922.47 1468.51   1
  -5 -15 -21 314.279 2044.55   1
   5  15 -22 155.011 611.478   1
  -5  15 -22 1944.80 1543.59   1
   5  15 -23 2015.37 1307.85   1
   5  15 -24  450.69 631.063   1
  -5 -16   0 165.801 1748.78   1
  -5 -16  -1 425.232 1752.39   1
  -5 -16   1 1818.64 2039.36   1
  -5 -16  -2 1002.02 1643.29   1
  -5 -16   2-566.312 1836.47   1
  -5 -16  -3 472.815 1592.32   1
  -5 -16   3 2190.69 2053.88   1
  -5 -16  -4 2295.32 1787.50   1
  -5 -16   4 5390.88 3729.34   1
  -5  16  -5 1022.35 1343.59   1
  -5 -16  -5-1279.34 1628.11   1
  -5  16  -6 947.232 1420.83   1
  -5 -16  -6-426.303 1566.63   1
  -5  16  -7-834.991 1303.21   1
  -5 -16  -7 1999.29 1755.05   1
  -5  16  -8 2106.40 1446.17   1
  -5 -16  -8-1749.43 1733.22   1
  -5  16  -9 808.092 1446.78   1
  -5 -16  -9 791.498 1838.30   1
  -5  16 -10 1786.55 1560.51   1
  -5 -16 -10 1482.87 1996.22   1
  -5  16 -11 2205.31 2081.16   1
  -5 -16 -11 698.708 2767.14   1
  -5  16 -12 3447.39 1947.84   1
  -5 -16 -12 -823.70 1898.08   1
  -5  16 -13 2284.96 1475.73   1
  -5 -16 -13 1593.64 2648.71   1
  -5  16 -14-19.2969 1240.68   1
  -5 -16 -14 2039.20 1942.66   1
  -5  16 -15 2980.65 1557.49   1
  -5 -16 -15-661.427 1736.27   1
  -5  16 -16 3494.66 2238.15   1
  -5 -16 -16 2132.08 1984.82   1
  -5  16 -17 960.939 1276.63   1
  -5 -16 -17 3261.03 2335.15   1
  -5  16 -18 805.661 1124.58   1
  -5 -16 -18 544.951 1985.48   1
   5  16 -19  944.64 950.947   1
  -5  16 -19 2135.85 1738.18   1
  -5 -16 -19 4061.97 2449.78   1
   5  16 -20 1863.96 1299.17   1
  -5  16 -20-511.912 1073.08   1
  -5 -16 -20 2465.87 2121.30   1
   5  16 -21-51.4026 556.436   1
  -5  16 -21 3162.10 1612.25   1
  -5 -16 -21-216.167 1918.78   1
   5  16 -22 1656.80 1037.39   1
  -5  16 -22 865.469 1102.47   1
   5  16 -23 490.677 688.955   1
   5  16 -24 382.628 683.229   1
  -5 -17   0 951.614 1721.67   1
  -5 -17   1 1692.05 1838.92   1
  -5 -17  -1 3026.97 1878.50   1
  -5 -17  -2 225.368 1643.04   1
  -5 -17   2 306.231 1807.47   1
  -5 -17  -3 2284.24 2367.69   1
  -5 -17   3 2899.72 2119.27   1
  -5 -17  -4  219.08 1574.30   1
  -5 -17   4 337.232 1968.38   1
  -5 -17  -5 2417.75 2592.07   1
  -5 -17  -6 527.823 1681.92   1
  -5  17  -7 2363.64 1821.64   1
  -5 -17  -7 2021.71 1944.83   1
  -5  17  -8-326.748 1401.32   1
  -5 -17  -8 2745.70 2308.02   1
  -5  17  -9-362.629 1369.12   1
  -5 -17  -9 3060.70 2124.93   1
  -5  17 -10-2016.34 1399.38   1
  -5 -17 -10 2128.07 1947.51   1
  -5  17 -11 311.558 1394.40   1
  -5 -17 -11 2276.22 1954.56   1
  -5  17 -12 2625.88 1741.31   1
  -5 -17 -12 1024.38 1699.86   1
  -5  17 -13 2666.07 3207.73   1
  -5 -17 -13-1325.50 1795.48   1
  -5  17 -14 2852.45 1655.02   1
  -5 -17 -14 945.589 1595.81   1
  -5  17 -15 3902.72 2198.10   1
  -5 -17 -15-3018.61 1698.92   1
  -5  17 -16 89.6836 1247.86   1
  -5 -17 -16-763.668 1743.25   1
  -5  17 -17 2020.36 1615.32   1
  -5 -17 -17-870.385 1847.18   1
  -5  17 -18-521.078 1112.70   1
  -5 -17 -18 1316.71 1874.01   1
   5  17 -19 624.773 737.059   1
  -5  17 -19 2025.84 1552.62   1
  -5 -17 -19 437.256 1962.52   1
   5  17 -20 629.995 723.248   1
  -5  17 -20-49.0436 1125.19   1
   5  17 -21 1799.64 1269.50   1
  -5  17 -21 155.179 1023.52   1
   5  17 -22 1213.14 839.286   1
   5  17 -23 1003.56  766.85   1
  -5 -18   0 1689.40 1737.11   1
  -5 -18  -1 3486.13 2853.69   1
  -5 -18   1-434.355 1715.76   1
  -5 -18  -2 1426.79 1624.12   1
  -5 -18   2-962.413 1721.94   1
  -5 -18  -3 2063.70 1778.91   1
  -5 -18   3-1835.53 1881.36   1
  -5 -18  -4 4395.55 3165.67   1
  -5 -18   4 2867.44 3240.76   1
  -5 -18  -5 1058.16 1724.14   1
  -5 -18  -610276.30 7804.67   1
  -5 -18  -7 1737.18 1989.83   1
  -5  18  -8 1799.33 1476.29   1
  -5 -18  -8 1742.52 2007.08   1
  -5  18  -9 5054.76 2964.70   1
  -5 -18  -9 1586.37 1862.89   1
  -5  18 -10-382.279 1407.35   1
  -5 -18 -10 1460.87 1735.31   1
  -5  18 -11 508.999 1416.70   1
  -5 -18 -11  670.24 1661.03   1
  -5  18 -12-780.945 1353.01   1
  -5 -18 -12 1886.20 1717.20   1
  -5  18 -13-14.3871 1289.93   1
  -5 -18 -13 741.062 1738.15   1
  -5  18 -14  616.54 1373.79   1
  -5 -18 -14-334.127 1576.59   1
  -5  18 -15 360.923 1237.74   1
  -5 -18 -15 2227.36 2071.99   1
  -5  18 -16 3191.13 2091.63   1
  -5 -18 -16 5458.59 2552.70   1
  -5  18 -17-590.289 1262.62   1
  -5 -18 -17 1770.54 2044.49   1
  -5  18 -18 2794.80 2364.91   1
  -5 -18 -18-579.687 1756.70   1
   5  18 -19-293.512 584.199   1
  -5  18 -19 445.108 1207.49   1
   5  18 -20 248.572 618.601   1
  -5  18 -20 197.369 1116.86   1
   5  18 -21 53.6387 648.638   1
  -5 -19   0 398.066 1516.65   1
  -5 -19  -1 3999.84 2899.49   1
  -5 -19   1 431.596 1600.48   1
  -5 -19  -2 387.669 1590.14   1
  -5 -19   2 1270.29 1793.10   1
  -5 -19  -3 499.393 1575.41   1
  -5 -19   3 982.495 1868.88   1
  -5 -19  -4 3034.45 1918.80   1
  -5 -19  -5-220.176 1710.28   1
  -5 -19  -6 4462.30 3004.95   1
  -5 -19  -7 2339.68 2655.45   1
  -5 -19  -8-2016.07 1685.39   1
  -5 -19  -9 3945.90 2660.94   1
  -5  19 -10 88.7209 1377.36   1
  -5 -19 -10 1466.40 1653.44   1
  -5  19 -11 3182.68 2387.88   1
  -5 -19 -11 1828.94 1756.84   1
  -5  19 -12 2679.64 1819.60   1
  -5 -19 -12 -321.65 1527.59   1
  -5  19 -13 1483.95 1535.87   1
  -5 -19 -13 2703.60 1896.37   1
  -5  19 -14 318.271 1311.77   1
  -5 -19 -14 5462.16 2401.72   1
  -5  19 -15 2734.26 1602.94   1
  -5 -19 -15 2890.09 2553.18   1
  -5  19 -16 2520.02 1472.31   1
  -5 -19 -16 347.306 1729.79   1
  -5  19 -17-608.832 1119.23   1
  -5  19 -18  607.74 1216.14   1
  -5  19 -19 1749.77 1497.69   1
  -5 -20   0 -422.01 1538.35   1
  -5 -20  -1-707.203 1567.66   1
  -5 -20   1-1711.74 1634.61   1
  -5 -20  -2 4744.59 2826.70   1
  -5 -20   2 485.658 1814.62   1
  -5 -20  -3 2580.07 1953.73   1
  -5 -20   3 1235.11 1934.79   1
  -5 -20  -4 1669.50 1863.87   1
  -5 -20  -5-339.091 1612.73   1
  -5 -20  -6  322.77 1633.34   1
  -5 -20  -7 5740.88 4219.32   1
  -5 -20  -8-441.924 1467.84   1
  -5 -20  -9-142.234 1443.39   1
  -5 -20 -10 271.634 1406.83   1
  -5  20 -11  796.06 1483.26   1
  -5 -20 -11 664.408 1559.44   1
  -5  20 -12 3774.88 2333.87   1
  -5 -20 -12 1112.35 1592.32   1
  -5  20 -13  608.71 1366.69   1
  -5 -20 -13-1435.18 1679.74   1
  -5  20 -14 1874.23 2469.19   1
  -5 -20 -14 3251.20 2197.97   1
  -5  20 -15-1263.67 1303.08   1
  -5 -20 -15 4170.45 2297.01   1
  -5  20 -16 728.993 1353.41   1
  -5  20 -17-1319.37 1205.54   1
  -5  20 -18 1836.38 1791.12   1
  -5  20 -19-1728.77 969.598   1
  -5 -21   0 1225.06 1858.94   1
  -5 -21  -1 291.053 1787.92   1
  -5 -21   1-519.334 1840.59   1
  -5 -21  -2 944.259 1995.16   1
  -5 -21   2 53.4082 1835.55   1
  -5 -21  -3 5192.22 3356.14   1
  -5 -21   3-750.008 1978.25   1
  -5 -21  -4-421.864 1561.54   1
  -5 -21  -5 3123.13 2039.63   1
  -5 -21  -6 2746.91 1905.06   1
  -5 -21  -7-2372.23 1380.38   1
  -5 -21  -8 1871.96 2253.46   1
  -5 -21  -9 1884.20 1670.17   1
  -5 -21 -10 402.567 1388.14   1
  -5 -21 -11 441.712 1623.89   1
  -5 -21 -12 3836.32 2654.13   1
  -5  21 -13 1379.82 1948.86   1
  -5 -21 -13-174.337 1557.82   1
  -5  21 -14-21.2537 1297.04   1
  -5  21 -15 2057.18 1694.15   1
  -5  21 -16 819.569 1335.66   1
  -5  21 -17 2221.53 1533.13   1
  -5  21 -18 1899.73 1951.68   1
  -5 -22   0 1964.75 2271.88   1
  -5 -22  -1 2039.09 2258.43   1
  -5 -22   1-574.855 2009.33   1
  -5 -22  -2-152.118 2004.02   1
  -5 -22   2-486.399 1961.88   1
  -5 -22  -3 4629.23 2352.44   1
  -5 -22   3-1059.11 1994.10   1
  -5 -22  -4 4211.15 2640.37   1
  -5 -22  -5 2588.07 1807.57   1
  -5 -22  -6-1350.38 1415.23   1
  -5 -22  -7 2589.76 1767.48   1
  -5 -22  -8 1115.61 1551.97   1
  -5  22 -15   43.25 1171.69   1
  -5  22 -16 2541.09 1626.80   1
  -6   0   0 6933.92 3368.41   1
  -6   0   1 1272.82 1346.34   1
  -6   0  -1 662.591 1262.02   1
  -6   0  -2 3141.51 1761.26   1
  -6   0   2 5401.33 2349.11   1
  -6   0  -3-697.763 1294.08   1
  -6   0   3 357.098 1273.30   1
  -6   0  -4 4389.79 2082.25   1
  -6   0   4 4650.60 2874.87   1
  -6   0  -5 2266.60 1549.00   1
  -6   0   5 1306.32 1626.32   1
  -6   0  -6 7765.91 3477.24   1
  -6   0   6 5706.55 2819.36   1
  -6   0  -7 668.593 1453.05   1
  -6   0   7-677.931 1168.02   1
  -6   0  -8 8572.76 3619.61   1
  -6   0  -9 75.8921 1526.62   1
  -6   0 -10 904.443 1646.74   1
  -6   0 -11 3767.75 2661.87   1
  -6   0 -12 5193.96 2944.16   1
  -6   0 -13 3187.32 2009.85   1
  -6   0 -14 5313.99 3424.05   1
  -6   0 -15 3134.11 2989.07   1
  -6   0 -16 1742.02 2068.65   1
  -6   0 -17 2056.87 2061.20   1
  -6   0 -18 3106.70 3029.93   1
  -6   0 -19 1394.17 2244.87   1
  -6   0 -20 8240.19 8237.69   1
  -6   0 -21 4118.30 2746.27   1
  -6   0 -22 4277.86 3209.35   1
  -6   0 -23 683.976 1863.26   1
  -6   1   0 822.304 1294.65   1
  -6  -1   0-674.116 1222.78   1
  -6   1   1 2349.44 2132.28   1
  -6   1  -1-446.484 1249.76   1
  -6  -1   1-457.987 1190.31   1
  -6  -1  -1 2423.46 1576.12   1
  -6   1  -210212.70 4286.57   1
  -6  -1  -2 5702.05 2836.77   1
  -6  -1   2 7466.03 3498.89   1
  -6   1  -3 5619.83 3128.10   1
  -6   1   3-866.691 1201.05   1
  -6  -1  -3 -936.21 1375.62   1
  -6  -1   3 973.285 1436.18   1
  -6   1  -4-1246.82 1236.38   1
  -6  -1  -4 3123.27 2222.96   1
  -6   1   4 2761.10 1938.41   1
  -6  -1   4 807.627 1417.02   1
  -6   1  -5 3527.37 2328.22   1
  -6  -1  -5 2926.31 1721.19   1
  -6   1   5 2558.99 1449.45   1
  -6  -1   5-1182.87 1303.17   1
  -6   1  -6 3802.61 2482.23   1
  -6  -1  -6 203.642 1518.75   1
  -6   1   6 2661.60 2137.79   1
  -6  -1   6 2133.65 2105.94   1
  -6   1  -7 260.543 1462.16   1
  -6  -1  -7-1030.02 1483.36   1
  -6   1   7 4900.88 2543.30   1
  -6  -1   7 638.308 1205.78   1
  -6   1  -8 2918.21 1736.75   1
  -6  -1  -8 2972.60 1850.94   1
  -6  -1   8-808.411 1137.96   1
  -6   1  -9-1288.63 1455.43   1
  -6  -1  -9 903.938 1713.62   1
  -6  -1   9 3064.21 1815.06   1
  -6   1 -10 3683.63 1994.19   1
  -6  -1 -10 3631.45 2161.46   1
  -6   1 -11 1008.22 1522.16   1
  -6  -1 -11 -365.72 1791.99   1
  -6   1 -12 336.734 1629.13   1
  -6  -1 -12 1218.77 1924.86   1
  -6   1 -13 693.284 1688.39   1
  -6  -1 -13-1702.00 1809.50   1
  -6   1 -14 549.154 1661.35   1
  -6  -1 -14 986.853 1946.29   1
  -6   1 -15 2955.45 2925.16   1
  -6  -1 -15-323.344 2099.07   1
  -6   1 -16 3653.97 3164.31   1
  -6  -1 -16 857.745 2009.32   1
  -6   1 -17 2805.95 2661.68   1
  -6  -1 -17 1283.22 2182.55   1
  -6   1 -18 6246.63 5101.45   1
  -6  -1 -18 2410.20 2283.39   1
  -6   1 -19 1858.13 2038.02   1
  -6  -1 -19 5045.78 3551.94   1
  -6   1 -20-1044.20 1892.41   1
  -6  -1 -20-48.9703 2271.69   1
  -6   1 -21-129.785 1744.08   1
  -6  -1 -21 2956.10 3164.59   1
  -6   1 -22 2160.16 2085.20   1
  -6  -1 -22 3021.51 2213.93   1
  -6   1 -23-945.443 1822.98   1
  -6  -1 -23 2209.91 2117.75   1
  -6   2   0-57.4335 1292.28   1
  -6  -2   0 1203.41 1344.43   1
  -6   2   1 2024.61 1923.38   1
  -6   2  -1 256.284 1250.34   1
  -6  -2   1-992.416 1306.39   1
  -6  -2  -1-60.0874 1319.43   1
  -6   2  -2 3936.78 2368.45   1
  -6   2   2 4890.89 2501.89   1
  -6  -2  -2 5933.75 2907.85   1
  -6  -2   2 4492.15 2440.30   1
  -6   2  -3 1407.00 1413.25   1
  -6   2   3 1325.50 1347.11   1
  -6  -2  -3  691.05 1503.48   1
  -6  -2   3 1641.69 1909.60   1
  -6   2  -4 650.856 1384.95   1
  -6   2   4 2204.76 1372.27   1
  -6  -2  -4 5212.58 2835.89   1
  -6  -2   4 2735.92 2478.51   1
  -6   2  -5 811.433 1336.92   1
  -6   2   5 264.121 1103.56   1
  -6  -2  -5 3580.22 2860.95   1
  -6  -2   5-25.5549 1291.74   1
  -6   2  -6-372.582 1446.74   1
  -6  -2  -6 1588.17 1688.38   1
  -6   2   6-463.105 1086.79   1
  -6  -2   6 1994.71 1465.48   1
  -6   2  -7 3973.58 2377.56   1
  -6  -2  -7 1842.96 1795.31   1
  -6  -2   7-471.691 1195.86   1
  -6   2  -8 348.997 1463.15   1
  -6  -2  -8-618.086 1659.32   1
  -6  -2   8-1441.39 1148.06   1
  -6   2  -9 3046.41 1718.08   1
  -6  -2  -9 151.505 1749.77   1
  -6  -2   9-860.668 1179.47   1
  -6   2 -10-231.433 1361.51   1
  -6  -2 -10 1511.47 1881.93   1
  -6  -2  10 5429.96 2686.79   1
  -6   2 -11 3085.87 2212.83   1
  -6  -2 -11-740.186 1798.77   1
  -6   2 -12 907.434 1549.29   1
  -6  -2 -12-1490.31 1787.66   1
  -6   2 -13 1712.85 1633.58   1
  -6  -2 -13 2631.24 2157.84   1
  -6   2 -14 1891.17 1632.75   1
  -6  -2 -14-1356.21 2217.19   1
  -6   2 -15 265.928 1752.74   1
  -6  -2 -15 2820.77 2588.21   1
  -6   2 -16 1057.89 1839.12   1
  -6  -2 -16-1052.37 2085.92   1
  -6   2 -17 1160.08 1776.99   1
  -6  -2 -17 7261.57 5996.47   1
  -6   2 -18 1824.11 1896.99   1
  -6  -2 -18  333.45 2200.59   1
  -6   2 -19 3994.90 2792.90   1
  -6  -2 -19 1685.76 2246.41   1
  -6   2 -20 1531.50 1804.25   1
  -6  -2 -20 2070.89 2350.41   1
  -6   2 -21 1410.20 1724.44   1
  -6  -2 -21  21.078 2069.35   1
  -6   2 -22-498.648 1579.20   1
  -6  -2 -22 1264.38 2001.72   1
  -6   2 -23 1785.76 2025.24   1
  -6  -2 -23 482.075 1870.34   1
  -6   3   0-391.636 1227.40   1
  -6  -3   0 3146.30 2132.65   1
  -6   3  -1-949.954 1356.53   1
  -6   3   1 3588.41 1754.64   1
  -6  -3  -1-251.116 1311.44   1
  -6  -3   1 3141.61 1755.68   1
  -6   3  -2-1959.36 1375.25   1
  -6   3   2 766.161 1307.73   1
  -6  -3  -2-575.523 1433.43   1
  -6  -3   2 2873.20 1619.25   1
  -6   3  -3 359.157 1305.17   1
  -6   3   3 2863.87 1604.15   1
  -6  -3  -3-182.801 1537.62   1
  -6  -3   3 2156.64 1521.88   1
  -6   3  -4 3602.73 2249.32   1
  -6   3   4 1769.67 1365.31   1
  -6  -3  -4 1515.74 2298.40   1
  -6  -3   4 1084.92 1328.82   1
  -6   3  -519704.3012064.60   1
  -6  -3  -511009.60 4638.90   1
  -6  -3   5 8581.55 3547.22   1
  -6   3  -6 3952.08 1914.40   1
  -6  -3  -6 2883.02 1941.28   1
  -6  -3   6 1037.61 1244.34   1
  -6   3  -7 1598.88 1545.99   1
  -6  -3  -7 1646.36 1773.17   1
  -6  -3   7 783.495 1268.71   1
  -6   3  -8 1406.01 1337.97   1
  -6  -3  -8 543.367 1634.69   1
  -6  -3   8-2545.18 1257.30   1
  -6   3  -9-461.625 1285.42   1
  -6  -3  -9 3921.15 2197.64   1
  -6  -3   9 3930.37 2178.06   1
  -6   3 -10 302.214 1377.54   1
  -6  -3 -10 3932.79 2228.36   1
  -6  -3  10 2295.66 1455.39   1
  -6   3 -11 2793.18 1704.55   1
  -6  -3 -11 1866.47 1987.05   1
  -6  -3  11 6197.43 2985.57   1
  -6   3 -12 2556.36 2120.29   1
  -6  -3 -12 2485.50 2175.25   1
  -6   3 -13 4290.22 2445.43   1
  -6  -3 -13 4447.06 3091.08   1
  -6   3 -14 634.577 1653.54   1
  -6  -3 -14 9925.39 4328.81   1
  -6   3 -15  321.62 1600.44   1
  -6  -3 -15 1885.87 2415.46   1
  -6   3 -16 244.967 1627.01   1
  -6  -3 -16 1484.50 2335.86   1
  -6   3 -17 5986.65 4706.83   1
  -6  -3 -17 4220.82 2603.45   1
  -6   3 -18 178.552 1564.09   1
  -6  -3 -18 3551.57 2503.54   1
  -6   3 -19 2885.59 1816.87   1
  -6  -3 -19-1385.23 2295.22   1
  -6   3 -20 2671.62 2428.24   1
  -6  -3 -20-996.105 2144.15   1
  -6   3 -21 150.305 1524.43   1
  -6  -3 -21 2205.06 2357.99   1
  -6   3 -22 1916.96 1854.36   1
  -6  -3 -22 4126.93 2369.78   1
  -6   3 -23 59.8961 1607.01   1
  -6  -3 -23 3091.08 2907.41   1
  -6   4   0 3004.91 2241.89   1
  -6  -4   0 2502.09 1962.11   1
  -6   4  -1 3203.12 2237.33   1
  -6   4   1 1635.24 1985.21   1
  -6  -4  -1 3325.23 2336.05   1
  -6  -4   1 1236.75 1297.15   1
  -6   4  -2 3846.38 1885.54   1
  -6   4   2 4096.22 2286.31   1
  -6  -4  -2-897.109 1424.64   1
  -6  -4   2 425.337 1247.76   1
  -6   4  -3 4293.76 2418.35   1
  -6   4   3 6967.92 3217.12   1
  -6  -4  -3 7203.76 3511.34   1
  -6  -4   3-245.172 1178.57   1
  -6   4  -4 4879.90 2193.22   1
  -6   4   4 3347.70 1672.07   1
  -6  -4  -4 5997.68 2930.07   1
  -6  -4   4 1310.61 1415.73   1
  -6   4  -5 1146.27 1467.45   1
  -6  -4  -5 3141.21 1924.81   1
  -6  -4   5 2179.49 1976.72   1
  -6   4  -6 239.662 1428.94   1
  -6  -4  -6 1333.67 1791.81   1
  -6  -4   6 765.801 1396.77   1
  -6   4  -7 3930.46 1924.11   1
  -6  -4  -7 3739.49 2219.43   1
  -6  -4   7 5054.57 2511.64   1
  -6   4  -8-531.629 1524.82   1
  -6  -4  -8 2234.37 1917.93   1
  -6  -4   8 4623.93 2333.24   1
  -6   4  -9-504.098 1270.77   1
  -6  -4  -9 4248.08 2926.51   1
  -6  -4   9 321.443 1828.68   1
  -6   4 -10 1844.22 1476.17   1
  -6  -4 -10-1097.66 1902.22   1
  -6  -4  10 776.104 1303.34   1
  -6   4 -11 915.255 1418.35   1
  -6  -4 -11 3700.19 2981.18   1
  -6  -4  11 4814.83 2700.31   1
  -6   4 -12 1361.66 1412.67   1
  -6  -4 -12  873.58 2208.68   1
  -6  -4  12 3134.85 2153.26   1
  -6   4 -13 2116.86 1559.06   1
  -6  -4 -13 3926.09 3265.71   1
  -6   4 -14 6613.64 2583.01   1
  -6  -4 -14 3082.30 2709.54   1
  -6   4 -15 1817.68 1702.44   1
  -6  -4 -15 916.821 2164.88   1
  -6   4 -16 1054.05 1567.83   1
  -6  -4 -16 3496.80 2561.55   1
  -6   4 -17 1150.88 1536.01   1
  -6  -4 -17 180.869 2347.94   1
  -6   4 -18-291.936 1379.30   1
  -6  -4 -18 1998.68 2352.76   1
  -6   4 -19-1608.70 1338.42   1
  -6  -4 -19 2937.30 2412.17   1
  -6   4 -20 229.368 1409.99   1
  -6  -4 -20-77.5051 2015.67   1
  -6   4 -21 2128.08 1684.61   1
  -6  -4 -21-2009.86 2060.51   1
  -6   4 -22 3213.52 1875.44   1
  -6  -4 -22 2427.58 2080.47   1
  -6   4 -23 1070.31 1649.64   1
  -6   5   0 3039.87 2109.75   1
  -6  -5   0 629.023 1332.04   1
  -6   5  -1 1984.53 1511.59   1
  -6   5   1-50.7148 1343.33   1
  -6  -5  -1-2280.00 1251.29   1
  -6  -5   1 2724.92 1998.76   1
  -6   5  -2 31.4255 1311.79   1
  -6   5   2-112.585 1279.80   1
  -6  -5  -2-1351.40 1441.20   1
  -6  -5   2 776.669 1280.94   1
  -6   5  -3 317.016 1365.45   1
  -6  -5  -3 1269.57 1496.36   1
  -6  -5   3 1145.33 1306.62   1
  -6   5  -4 940.457 1531.34   1
  -6  -5  -4 2269.84 1697.02   1
  -6  -5   4 141.126 1223.49   1
  -6   5  -5 4989.90 3087.61   1
  -6  -5  -5 3817.38 2605.13   1
  -6  -5   5 1050.19 1374.14   1
  -6   5  -6 1098.72 1556.12   1
  -6  -5  -6 2495.68 1914.87   1
  -6  -5   6-1836.51 1326.28   1
  -6   5  -7-954.731 1445.84   1
  -6  -5  -7-919.463 1898.63   1
  -6  -5   7-871.271 1347.18   1
  -6   5  -8 1731.03 1607.27   1
  -6  -5  -8 3339.23 2285.04   1
  -6  -5   8 1548.63 1471.70   1
  -6   5  -9 774.881 1572.63   1
  -6  -5  -9 345.521 2064.09   1
  -6  -5   9 1283.41 1438.84   1
  -6   5 -10-219.585 1508.94   1
  -6  -5 -10 5807.20 3473.79   1
  -6  -5  10  729.19 1387.00   1
  -6   5 -11 2718.95 1663.59   1
  -6  -5 -11 1250.12 2975.59   1
  -6  -5  11 573.275 1385.64   1
  -6   5 -12 4203.20 2405.57   1
  -6  -5 -12 1539.97 2187.18   1
  -6  -5  12-650.468 1367.60   1
  -6   5 -13 960.078 2039.30   1
  -6  -5 -13-742.211 2087.97   1
  -6  -5  13-383.927 1387.00   1
  -6   5 -14 1599.11 2134.36   1
  -6  -5 -14 507.587 2216.30   1
  -6   5 -15 2132.35 1432.56   1
  -6  -5 -15-2567.56 2133.50   1
  -6   5 -16 2375.79 1538.11   1
  -6  -5 -16-1201.27 2108.01   1
  -6   5 -17 540.725 1406.39   1
  -6  -5 -17 668.861 2035.18   1
  -6   5 -18-1311.68 1233.92   1
  -6  -5 -18 3217.26 2380.76   1
  -6   5 -19 3939.27 2259.67   1
  -6  -5 -19 825.793 2150.71   1
  -6   5 -20 935.849 1504.92   1
  -6  -5 -20 5950.26 4789.69   1
  -6   5 -21 1177.46 1437.97   1
  -6  -5 -21 1978.61 2358.70   1
  -6   5 -22 2983.10 2399.49   1
  -6  -5 -22 4918.48 2857.25   1
  -6   5 -23 3847.39 2505.73   1
  -6   6   0 386.534 1371.31   1
  -6  -6   0 405.379 1282.94   1
  -6   6   1 3709.09 2200.18   1
  -6   6  -1 6140.69 2773.40   1
  -6  -6  -1 1581.60 2004.04   1
  -6  -6   1 4624.90 2288.54   1
  -6   6  -2 1428.71 1443.82   1
  -6  -6  -2 3163.32 2168.22   1
  -6  -6   2-264.457 1196.70   1
  -6   6  -3 480.158 1331.93   1
  -6  -6  -3 2981.13 2374.08   1
  -6  -6   3 2030.42 1409.73   1
  -6   6  -4 2282.49 1521.07   1
  -6  -6  -4 1495.53 1606.10   1
  -6  -6   4 1152.28 1378.91   1
  -6   6  -5 717.562 1478.30   1
  -6  -6  -5 704.189 1626.29   1
  -6  -6   5 -317.65 1279.26   1
  -6   6  -6 1499.13 1667.99   1
  -6  -6  -6 4765.40 2909.03   1
  -6  -6   6 1223.44 1470.43   1
  -6   6  -7 991.112 1664.49   1
  -6  -6  -7 3108.22 2906.79   1
  -6  -6   7 570.839 1434.16   1
  -6   6  -8 1959.33 1688.51   1
  -6  -6  -8 2421.35 2080.68   1
  -6  -6   8-11.5365 1433.61   1
  -6   6  -9 5739.58 2915.60   1
  -6  -6  -9 2219.51 2925.35   1
  -6  -6   9 3481.85 2230.01   1
  -6   6 -10-1601.85 1527.51   1
  -6  -6 -10 5999.73 3472.22   1
  -6  -6  10 820.394 1397.34   1
  -6   6 -11 2015.35 2326.64   1
  -6  -6 -11 7244.78 3593.01   1
  -6  -6  11-1524.85 1348.94   1
  -6   6 -12 1108.12 1616.29   1
  -6  -6 -12 4612.49 2634.68   1
  -6  -6  12 2933.11 2052.39   1
  -6   6 -13 857.858 1496.84   1
  -6  -6 -13-462.958 2141.08   1
  -6  -6  13 823.926 1412.95   1
  -6   6 -14 3349.06 2220.37   1
  -6  -6 -14 1909.94 2310.06   1
  -6  -6  14-1963.47 1364.98   1
  -6   6 -15 1345.63 1551.08   1
  -6  -6 -15 2346.60 2238.76   1
  -6   6 -16-132.847 1404.38   1
  -6  -6 -16 2121.62 2177.17   1
  -6   6 -17-1086.06 1400.30   1
  -6  -6 -17 356.501 1981.95   1
  -6   6 -18 1825.57 1543.18   1
  -6  -6 -18 1607.19 2035.35   1
  -6   6 -19 2238.10 1675.66   1
  -6  -6 -19-3249.79 1960.65   1
  -6   6 -20 3432.98 2563.27   1
  -6  -6 -20 7070.53 5387.76   1
  -6   6 -21 1045.52 1458.88   1
  -6  -6 -21 8705.36 3036.36   1
  -6   6 -22 2390.25 1631.88   1
  -6  -6 -22 1944.88 2361.66   1
  -6   6 -23 1441.01 1698.19   1
  -6   7   0-1392.25 1366.38   1
  -6  -7   0-1191.23 1250.36   1
  -6   7  -1 2099.58 1644.38   1
  -6  -7  -1 251.695 1299.46   1
  -6  -7   1 626.663 1211.01   1
  -6   7  -2 843.984 1425.41   1
  -6  -7  -2 3230.57 1779.50   1
  -6  -7   2 40.4726 1115.29   1
  -6   7  -3 1375.49 1515.61   1
  -6  -7  -3-1064.55 1586.38   1
  -6  -7   3 522.551 1153.39   1
  -6   7  -4 3892.95 2329.59   1
  -6  -7  -4 2442.00 1687.22   1
  -6  -7   4-479.159 1205.16   1
  -6   7  -5 964.641 1559.27   1
  -6  -7  -5 461.457 1566.40   1
  -6  -7   5-293.925 1229.85   1
  -6   7  -6 3727.15 2561.84   1
  -6  -7  -6 2465.12 2554.11   1
  -6  -7   6 680.433 1394.28   1
  -6   7  -7-1309.89 1676.96   1
  -6  -7  -7 511.087 1741.89   1
  -6  -7   7 986.835 2221.82   1
  -6   7  -8 7333.86 3697.60   1
  -6  -7  -8 5854.49 4039.00   1
  -6  -7   8 2117.29 2375.91   1
  -6   7  -9 486.558 1603.23   1
  -6  -7  -9-1474.40 2101.98   1
  -6  -7   9 544.494 1443.04   1
  -6   7 -10 6568.49 2970.21   1
  -6  -7 -10 7925.71 7053.84   1
  -6  -7  10 9213.48 7693.80   1
  -6   7 -11 1171.18 1613.47   1
  -6  -7 -11 1669.79 2197.62   1
  -6  -7  11 1273.19 1489.04   1
  -6   7 -12 1325.70 1595.29   1
  -6  -7 -12-1028.39 2134.19   1
  -6  -7  12 1026.84 1514.24   1
  -6   7 -13 1281.21 1496.11   1
  -6  -7 -13 428.369 2129.30   1
  -6  -7  13 2165.84 1836.38   1
  -6   7 -14 2628.68 1904.92   1
  -6  -7 -14-908.576 1894.85   1
  -6  -7  14 2724.43 2012.28   1
  -6   7 -15 4522.76 1883.10   1
  -6  -7 -15 5782.75 3287.85   1
  -6  -7  15 2438.50 1626.54   1
  -6   7 -16 5975.32 4525.43   1
  -6  -7 -16 2668.23 2063.42   1
  -6   7 -17-1878.15 1343.37   1
  -6  -7 -17 967.172 2037.62   1
  -6   7 -18-1324.44 1365.74   1
  -6  -7 -18 3157.03 2134.17   1
  -6   7 -19 272.696 1407.15   1
  -6  -7 -19 2332.56 2278.88   1
  -6   7 -20 -858.52 1484.28   1
  -6  -7 -20 3891.37 2534.65   1
  -6   7 -21 2340.38 2254.40   1
  -6  -7 -21 6353.86 2444.40   1
  -6   7 -22 2585.62 1716.12   1
  -6  -8   0-116.252 1219.89   1
  -6   8  -1 1317.33 1465.83   1
  -6  -8  -1-111.357 1303.30   1
  -6  -8   1 415.304 1174.10   1
  -6   8  -2 3426.02 2360.86   1
  -6  -8  -2 1434.58 1520.16   1
  -6  -8   2 2097.14 1755.61   1
  -6   8  -3 1556.04 1631.90   1
  -6  -8  -3 708.508 1510.63   1
  -6  -8   3  133.94 1196.14   1
  -6   8  -4 3679.94 1928.06   1
  -6  -8  -4 2441.33 1772.28   1
  -6  -8   4 3617.30 2013.46   1
  -6   8  -5-2301.29 1555.09   1
  -6  -8  -5 310.667 1544.13   1
  -6  -8   5 1084.92 1445.13   1
  -6   8  -6 1521.14 1633.02   1
  -6  -8  -6 2066.90 1913.60   1
  -6  -8   6  159.86 1480.16   1
  -6   8  -7 2089.66 1749.60   1
  -6  -8  -7 3581.85 2236.14   1
  -6  -8   7 2647.81 2328.06   1
  -6   8  -8 139.222 1573.35   1
  -6  -8  -8 3495.23 2218.88   1
  -6  -8   8 1167.30 1696.09   1
  -6   8  -9 2652.15 1801.86   1
  -6  -8  -9 1575.43 2950.83   1
  -6  -8   9 2085.15 1528.68   1
  -6   8 -10 2664.57 2225.95   1
  -6  -8 -10 413.493 2145.58   1
  -6  -8  10 3332.04 2264.97   1
  -6   8 -11 1712.81 1599.66   1
  -6  -8 -11 1873.04 2467.00   1
  -6  -8  11 2701.17 1917.74   1
  -6   8 -12 1396.60 1585.47   1
  -6  -8 -12 1868.25 2221.09   1
  -6  -8  12 3856.18 2451.33   1
  -6   8 -13 642.922 1413.58   1
  -6  -8 -13 7621.16 3307.43   1
  -6  -8  13 1579.07 1643.41   1
  -6   8 -14 951.231 1459.86   1
  -6  -8 -14 1761.16 2846.32   1
  -6  -8  14 4733.10 3036.85   1
  -6   8 -15 2425.54 1527.99   1
  -6  -8 -15 3257.70 2779.50   1
  -6  -8  15 2294.16 2250.78   1
  -6   8 -16 4301.75 2378.48   1
  -6  -8 -16 1419.60 2007.16   1
  -6  -8  16 249.216 1630.49   1
  -6   8 -17 2889.04 1730.30   1
  -6  -8 -17 1456.78 1839.01   1
  -6   8 -18-678.202 1460.91   1
  -6  -8 -18-2595.65 1979.19   1
  -6   8 -19 4129.05 2792.72   1
  -6  -8 -19 2908.88 2314.57   1
  -6   8 -20-757.653 1482.42   1
  -6  -8 -20 2374.08 2491.48   1
  -6   8 -21 165.493 1347.97   1
  -6  -8 -21  940.48 2411.14   1
  -6   8 -22  968.88 1458.09   1
  -6  -9   0  493.24 1270.82   1
  -6  -9  -1 3631.50 2242.69   1
  -6  -9   1-135.199 1230.88   1
  -6   9  -2 2813.74 1762.50   1
  -6  -9  -2 752.022 1371.64   1
  -6  -9   2 3660.84 2055.99   1
  -6   9  -3 5851.19 2903.79   1
  -6  -9  -3 3613.33 1888.59   1
  -6  -9   3-1670.77 1269.29   1
  -6   9  -4 2101.42 1741.38   1
  -6  -9  -4 1507.50 1621.33   1
  -6  -9   4 1239.46 1395.07   1
  -6   9  -5 1065.45 1746.60   1
  -6  -9  -5 1062.73 1564.12   1
  -6  -9   5 -120.91 1385.18   1
  -6   9  -6 741.314 1664.84   1
  -6  -9  -6 3572.86 2753.38   1
  -6  -9   6-199.272 1462.97   1
  -6   9  -7 2297.95 1717.09   1
  -6  -9  -7 2445.28 2041.11   1
  -6  -9   7-556.072 1628.75   1
  -6   9  -8 607.165 1421.67   1
  -6  -9  -8-1684.89 1930.10   1
  -6  -9   8 3658.45 2527.51   1
  -6   9  -9 1362.64 1464.21   1
  -6  -9  -9 6737.79 4107.09   1
  -6  -9   9 2122.02 2190.46   1
  -6   9 -10 4782.29 2766.04   1
  -6  -9 -10 1429.58 2094.59   1
  -6  -9  10 1382.52 1553.85   1
  -6   9 -11 2852.32 2351.96   1
  -6  -9 -11 104.163 1983.34   1
  -6  -9  11 1406.67 1502.16   1
  -6   9 -12 9526.42 2888.44   1
  -6  -9 -12 5923.63 2278.42   1
  -6  -9  12 15.3553 1326.57   1
  -6   9 -13 1653.90 1450.81   1
  -6  -9 -13 2958.33 2018.72   1
  -6  -9  13 4641.83 2626.51   1
  -6   9 -14 993.576 1359.32   1
  -6  -9 -14 2053.52 1957.55   1
  -6  -9  14 1857.78 2396.34   1
  -6   9 -15 2771.19 2113.88   1
  -6  -9 -15 937.195 1789.32   1
  -6  -9  15-1578.63 1683.33   1
  -6   9 -16 3653.86 2327.71   1
  -6  -9 -16 2411.43 1927.75   1
  -6   9 -17 2279.58 1798.65   1
  -6  -9 -17-176.487 1801.48   1
  -6   9 -18 938.659 1604.48   1
  -6  -9 -18 1683.24 2125.56   1
  -6   9 -19 670.905 1437.05   1
  -6  -9 -19 897.875 2093.48   1
  -6   9 -20 653.028 1372.85   1
  -6  -9 -20 1042.16 2312.25   1
  -6   9 -21-510.726 1266.42   1
  -6   9 -22 1701.01 1710.50   1
  -6 -10   0-515.148 1324.05   1
  -6 -10   1 3655.09 2041.48   1
  -6 -10  -1 2462.65 1875.69   1
  -6 -10  -2 1617.42 1462.19   1
  -6 -10   2 95.1769 1224.75   1
  -6  10  -3 1824.87 1589.60   1
  -6 -10  -3-703.617 1371.47   1
  -6 -10   3 1830.77 1832.75   1
  -6  10  -4 4772.27 2596.77   1
  -6 -10  -4 1373.14 1555.90   1
  -6 -10   4 310.178 1344.31   1
  -6  10  -5 3312.51 2623.25   1
  -6 -10  -5 5451.46 2294.35   1
  -6 -10   5 3148.04 2226.30   1
  -6  10  -6 1306.92 1733.75   1
  -6 -10  -6 545.721 1816.62   1
  -6 -10   6 2236.96 1677.73   1
  -6  10  -712405.8010330.60   1
  -6 -10  -7 4402.00 2796.11   1
  -6 -10   7 2933.33 1923.73   1
  -6  10  -8 4810.87 3193.70   1
  -6 -10  -8 4351.50 2937.95   1
  -6 -10   8 139.473 1595.51   1
  -6  10  -9 8402.51 3041.95   1
  -6 -10  -9 3040.73 2448.44   1
  -6 -10   9 1339.24 1642.30   1
  -6  10 -10 1445.27 1373.15   1
  -6 -10 -10 637.701 1948.55   1
  -6 -10  10 5119.17 2905.25   1
  -6  10 -11-2476.37 1246.33   1
  -6 -10 -11 5853.61 2898.74   1
  -6 -10  11 4644.98 3017.26   1
  -6  10 -12 1752.43 1380.56   1
  -6 -10 -12 3498.53 2903.61   1
  -6 -10  12-196.615 1511.95   1
  -6  10 -13 986.743 1354.30   1
  -6 -10 -13 1829.04 1841.87   1
  -6 -10  13-296.057 1715.64   1
  -6  10 -14 913.139 1328.64   1
  -6 -10 -14 1463.63 1862.85   1
  -6 -10  14 3833.71 2758.65   1
  -6  10 -15 2549.22 1656.03   1
  -6 -10 -1511865.5011437.30   1
  -6  10 -16 2766.60 2232.86   1
  -6 -10 -16 5252.66 3032.32   1
  -6  10 -17-189.728 1273.62   1
  -6 -10 -17 1878.15 2122.06   1
  -6  10 -18 1364.21 1282.17   1
  -6 -10 -18-79.8443 2028.27   1
  -6  10 -19 2196.21 1638.14   1
  -6 -10 -19 5201.73 3095.43   1
  -6  10 -20 4448.10 2440.65   1
  -6 -10 -20 2420.31 2412.92   1
  -6  10 -21 2288.49 1573.67   1
  -6 -11   0 3718.68 2184.54   1
  -6 -11  -1 3461.69 1750.99   1
  -6 -11   1 2099.52 1392.31   1
  -6 -11  -2 3219.66 1759.45   1
  -6 -11   2 2506.95 1558.72   1
  -6 -11  -3  330.93 1419.78   1
  -6 -11   3 4160.47 2259.61   1
  -6 -11  -4 3177.06 1795.67   1
  -6 -11   4 2925.56 1638.55   1
  -6  11  -5-1316.66 1553.40   1
  -6 -11  -5 77.0122 1687.76   1
  -6 -11   5 882.185 1534.82   1
  -6  11  -6 4302.43 3481.16   1
  -6 -11  -6-460.569 1777.11   1
  -6 -11   6 5653.70 2876.47   1
  -6  11  -7 4966.28 3309.41   1
  -6 -11  -7 2854.05 2412.62   1
  -6 -11   7 3439.43 2387.11   1
  -6  11  -8 1044.23 1645.01   1
  -6 -11  -8 3853.14 3241.21   1
  -6 -11   8 1416.46 1735.16   1
  -6  11  -9-68.2822 1548.45   1
  -6 -11  -9 5841.67 3014.01   1
  -6 -11   9 3555.19 2862.43   1
  -6  11 -10-798.847 1497.02   1
  -6 -11 -10 4828.37 2912.09   1
  -6 -11  10 1692.79 1481.74   1
  -6  11 -11 1882.05 1564.34   1
  -6 -11 -11 1357.02 1930.48   1
  -6 -11  11 1927.13 1673.29   1
  -6  11 -12 2192.39 1581.86   1
  -6 -11 -12 1966.07 1866.64   1
  -6 -11  12 1984.59 1759.07   1
  -6  11 -13 2232.09 1615.54   1
  -6 -11 -13 1219.07 1743.00   1
  -6 -11  13 -125.23 1865.39   1
  -6  11 -14 107.707 1291.61   1
  -6 -11 -14 1523.41 1801.57   1
  -6  11 -15 -15.127 1218.70   1
  -6 -11 -15 5313.41 3462.65   1
  -6  11 -16-379.758 1209.24   1
  -6 -11 -16 4975.62 3468.04   1
  -6  11 -17 1702.33 1441.35   1
  -6 -11 -17 4070.53 3278.69   1
  -6  11 -18 812.106 1226.23   1
  -6 -11 -18 1287.88 2062.44   1
  -6  11 -19 1512.38 1341.89   1
  -6 -11 -19 2470.40 3222.07   1
  -6  11 -20 574.739 1208.32   1
  -6  11 -21 560.704 1154.04   1
  -6 -12   0 2704.49 1898.59   1
  -6 -12  -1 4176.63 2886.98   1
  -6 -12   1 4013.34 2436.96   1
  -6 -12  -2 1822.16 1597.74   1
  -6 -12   2-152.507 1403.76   1
  -6 -12  -3 1829.17 1777.47   1
  -6 -12   3 2821.05 2052.91   1
  -6 -12  -4-3446.62 1755.31   1
  -6 -12   4-2087.15 1409.37   1
  -6 -12  -5-1008.46 1664.31   1
  -6 -12   5 -612.41 1571.61   1
  -6  12  -6 4156.06 2546.65   1
  -6 -12  -6 2444.43 2070.98   1
  -6 -12   6-1711.77 1598.73   1
  -6  12  -7 5281.63 2875.78   1
  -6 -12  -7 847.025 1833.72   1
  -6 -12   7 318.051 1572.03   1
  -6  12  -8 5933.37 3205.86   1
  -6 -12  -8 1071.84 1854.05   1
  -6 -12   8  895.24 1678.53   1
  -6  12  -9 4906.48 3097.48   1
  -6 -12  -9 176.435 1776.97   1
  -6 -12   9 4167.48 2619.13   1
  -6  12 -10 3389.72 1854.18   1
  -6 -12 -10-616.082 1671.98   1
  -6 -12  10-525.187 1679.71   1
  -6  12 -11 3698.29 1850.24   1
  -6 -12 -11-326.874 1703.64   1
  -6 -12  11 613.309 1581.79   1
  -6  12 -12 3548.34 2415.23   1
  -6 -12 -12 4346.20 2198.91   1
  -6 -12  12 1954.85 1871.63   1
  -6  12 -13-773.493 1386.77   1
  -6 -12 -13-326.658 1579.38   1
  -6  12 -14 2320.12 1775.99   1
  -6 -12 -14 5120.97 3285.07   1
  -6  12 -15 3739.79 2447.57   1
  -6 -12 -15 4961.25 2914.17   1
  -6  12 -16 1518.07 1862.00   1
  -6 -12 -16 1007.72 1979.11   1
  -6  12 -17 269.484 1236.91   1
  -6 -12 -17 5176.46 3052.88   1
  -6  12 -18 1578.46 1898.95   1
  -6 -12 -18 2529.66 3245.64   1
  -6  12 -19 3880.81 2265.02   1
  -6  12 -20 2113.95 1721.65   1
  -6  12 -21-973.013 1053.17   1
  -6 -13   0 4114.29 2882.49   1
  -6 -13  -1 1224.70 1616.57   1
  -6 -13   1 5153.19 3646.45   1
  -6 -13  -2 1096.05 1662.61   1
  -6 -13   2 2926.26 2070.71   1
  -6 -13  -3 990.016 1702.89   1
  -6 -13   3 2842.49 2080.05   1
  -6 -13  -4-227.447 1632.88   1
  -6 -13   4 1248.68 2220.07   1
  -6 -13  -5 353.298 1714.12   1
  -6 -13   5 982.984 1586.13   1
  -6 -13  -6 4044.26 2113.26   1
  -6 -13   6 748.256 1574.15   1
  -6  13  -7 1677.32 1561.47   1
  -6 -13  -7-911.721 1578.90   1
  -6 -13   7 787.733 1523.39   1
  -6  13  -8  189.85 1534.27   1
  -6 -13  -8 1589.43 1714.98   1
  -6 -13   8 1391.46 1929.52   1
  -6  13  -9 6254.42 5157.40   1
  -6 -13  -9 2784.17 1792.99   1
  -6 -13   9-1463.19 1724.62   1
  -6  13 -10 5006.54 3174.78   1
  -6 -13 -10 4215.66 2714.80   1
  -6 -13  10  995.09 1690.85   1
  -6  13 -11 1979.30 1706.33   1
  -6 -13 -11 411.086 1653.72   1
  -6 -13  11 2009.68 1786.21   1
  -6  13 -12 2723.53 1718.54   1
  -6 -13 -12 1818.53 1783.43   1
  -6 -13  12 3486.69 2045.86   1
  -6  13 -13 2474.21 2115.17   1
  -6 -13 -13 4898.73 3242.30   1
  -6  13 -14 1868.38 2079.65   1
  -6 -13 -14-1666.78 1746.39   1
  -6  13 -15 1476.90 1527.01   1
  -6 -13 -15 727.207 1997.93   1
  -6  13 -16 6181.37 2357.99   1
  -6 -13 -16 3134.74 2449.03   1
  -6  13 -17 1965.49 2008.80   1
  -6 -13 -17 2081.86 2312.81   1
  -6  13 -18-1111.98 1245.09   1
  -6  13 -19 2844.42 2061.31   1
  -6  13 -20 887.355 1232.56   1
  -6 -14   0-603.535 1469.91   1
  -6 -14  -1-217.971 1581.27   1
  -6 -14   1 5271.81 2923.53   1
  -6 -14  -2 2131.46 1731.46   1
  -6 -14   2-1693.19 1424.22   1
  -6 -14  -3 1180.58 1819.28   1
  -6 -14   3 1593.56 1603.09   1
  -6 -14  -4-373.742 1646.31   1
  -6 -14   4 1544.70 1510.32   1
  -6 -14  -5-1530.04 1696.87   1
  -6 -14   5 5190.65 2543.06   1
  -6 -14  -6 1138.33 1733.16   1
  -6 -14   6 440.029 1401.40   1
  -6 -14  -7 583.229 1773.07   1
  -6 -14   7 1667.10 1679.35   1
  -6 -14  -8 2269.12 2417.03   1
  -6 -14   8 1162.46 1669.54   1
  -6  14  -9 3900.17 2535.34   1
  -6 -14  -9  307.52 1550.16   1
  -6 -14   9-978.216 1746.05   1
  -6  14 -10 2478.06 2395.11   1
  -6 -14 -10-1019.61 1521.93   1
  -6 -14  10 2469.59 1985.13   1
  -6  14 -11 1443.93 1598.22   1
  -6 -14 -11-856.306 1459.25   1
  -6 -14  11 1175.92 1786.94   1
  -6  14 -12 2161.67 2269.52   1
  -6 -14 -12 4217.15 2971.99   1
  -6  14 -13-386.799 1317.63   1
  -6 -14 -13 974.234 2669.72   1
  -6  14 -14-240.232 1276.39   1
  -6 -14 -14 3004.33 2218.54   1
  -6  14 -15-545.304 1223.08   1
  -6 -14 -15 345.459 2032.54   1
  -6  14 -16 2175.52 1913.54   1
  -6  14 -17 2709.24 1638.47   1
  -6  14 -18 4492.39 2433.48   1
  -6  14 -19 3665.73 2195.17   1
  -6 -15   0 3807.89 1930.77   1
  -6 -15  -1 2272.77 1914.21   1
  -6 -15   1 3000.80 2432.49   1
  -6 -15  -2 1473.37 1765.33   1
  -6 -15   2 4640.04 2566.20   1
  -6 -15  -3 2236.52 1953.42   1
  -6 -15   3 886.455 1457.07   1
  -6 -15  -4 412.372 1731.24   1
  -6 -15   4-849.625 1349.97   1
  -6 -15  -5-258.211 1628.10   1
  -6 -15   5 1167.98 1504.12   1
  -6 -15  -6 2126.21 1780.30   1
  -6 -15   6 3117.13 1862.55   1
  -6 -15  -7 773.942 1669.72   1
  -6 -15   7 1950.50 1772.00   1
  -6 -15  -8 1676.29 1804.74   1
  -6 -15   8-1755.31 1763.35   1
  -6 -15  -9-1259.50 1397.70   1
  -6 -15   9 722.059 1982.39   1
  -6  15 -10 131.882 1496.16   1
  -6 -15 -10 1191.23 1619.99   1
  -6 -15  10 3658.63 2530.48   1
  -6  15 -11 846.193 1662.80   1
  -6 -15 -11 3564.25 2866.36   1
  -6 -15  11 287.596 1624.34   1
  -6  15 -12 443.231 1461.35   1
  -6 -15 -12-139.098 1727.14   1
  -6  15 -13 3929.54 2836.00   1
  -6 -15 -13 2334.90 2233.57   1
  -6  15 -14 767.638 1440.51   1
  -6 -15 -14 3677.18 2279.46   1
  -6  15 -15 1495.18 1525.72   1
  -6  15 -16-440.995 1210.44   1
  -6  15 -17 5177.52 2561.91   1
  -6  15 -18 635.838 1110.45   1
  -6  15 -19 1176.51 1088.94   1
  -6 -16   0-1542.21 1659.19   1
  -6 -16  -1  397.91 1688.47   1
  -6 -16   1  797.00 1467.75   1
  -6 -16  -2  671.72 1747.43   1
  -6 -16   2 429.365 1481.76   1
  -6 -16  -3-1123.39 1713.81   1
  -6 -16   3 6137.56 2804.51   1
  -6 -16  -4 1754.26 1894.20   1
  -6 -16   4-1107.66 1345.78   1
  -6 -16  -5 2219.01 1953.06   1
  -6 -16   5 723.957 1541.73   1
  -6 -16  -6 530.498 1641.02   1
  -6 -16   6-305.239 1577.47   1
  -6 -16  -7 193.307 1539.95   1
  -6 -16   7 5143.51 3435.32   1
  -6 -16  -8 1259.35 1621.75   1
  -6 -16   8 702.531 1947.96   1
  -6 -16  -9 126.213 1545.76   1
  -6 -16   9 4087.26 2700.35   1
  -6 -16 -10-1911.74 1606.16   1
  -6 -16  10 3031.81 2837.55   1
  -6 -16 -11-888.287 1769.61   1
  -6  16 -12 3310.15 1934.02   1
  -6 -16 -12 6325.86 2605.37   1
  -6  16 -13 1790.16 1699.07   1
  -6  16 -14 309.544 1369.26   1
  -6  16 -15 4915.67 3036.73   1
  -6  16 -16 86.2303 1274.46   1
  -6  16 -17-248.402 1260.32   1
  -6  16 -18 1039.19 1230.39   1
  -6 -17   0 300.498 1578.16   1
  -6 -17   1 1633.01 2226.01   1
  -6 -17  -1 1204.56 1776.48   1
  -6 -17  -2 1574.67 1861.03   1
  -6 -17   2-2719.90 1500.08   1
  -6 -17  -3-518.259 1661.84   1
  -6 -17   3 2555.50 1840.43   1
  -6 -17  -4 1614.21 1821.48   1
  -6 -17   4 533.794 1563.66   1
  -6 -17  -5 1434.56 1688.35   1
  -6 -17   5-2027.25 1524.56   1
  -6 -17  -6 1382.91 1506.98   1
  -6 -17   6 451.304 1698.13   1
  -6 -17  -7 946.234 1573.16   1
  -6 -17   7 2590.13 2729.04   1
  -6 -17  -8 1817.91 1775.89   1
  -6 -17   8 1514.46 2035.89   1
  -6 -17  -9 1231.10 1542.67   1
  -6 -17   9 2234.89 2179.42   1
  -6 -17 -10  9.3202 1818.99   1
  -6 -17  10 852.274 1670.12   1
  -6  17 -13 845.059 1400.21   1
  -6  17 -14 1538.74 1656.51   1
  -6  17 -15 2840.19 2285.23   1
  -6  17 -16-3220.42 1402.28   1
  -6  17 -17 3111.59 1839.00   1
  -6  17 -18 1836.21 1600.72   1
  -6 -18   0 625.329 1573.97   1
  -6 -18  -1 993.031 1622.86   1
  -6 -18   1 5025.74 2306.60   1
  -6 -18  -2-1245.24 1585.01   1
  -6 -18   2-601.843 1574.60   1
  -6 -18  -3-1815.39 1596.54   1
  -6 -18   3 1528.10 1859.46   1
  -6 -18  -4 -608.23 1489.54   1
  -6 -18   4 1864.88 1898.60   1
  -6 -18  -5 2572.93 1736.46   1
  -6 -18   5 2837.33 2652.44   1
  -6 -18  -6 3319.65 2419.33   1
  -6 -18   6 647.827 1853.72   1
  -6 -18  -7 2333.25 1792.10   1
  -6 -18   7 3123.78 2088.81   1
  -6 -18  -8-1015.42 1551.53   1
  -6 -18   8 1006.33 1871.46   1
  -6 -18   9-1280.76 1856.50   1
  -6 -18  10 1952.93 2272.21   1
  -6 -19   0 3876.46 2400.03   1
  -6 -19  -1 1663.25 1887.91   1
  -6 -19   1-260.787 2622.12   1
  -6 -19  -2 1007.10 1627.09   1
  -6 -19   2 918.176 1816.09   1
  -6 -19  -3 1085.46 1575.50   1
  -6 -19   3 202.136 1758.90   1
  -6 -19   4-1743.22 1799.56   1
  -6 -19   5  617.76 1697.02   1
  -6 -19   6 1076.87 1714.38   1
  -6 -19   7 1591.15 1960.66   1
  -6 -19   8-860.364 1969.63   1
  -6 -19   9-1863.48 2000.11   1
  -7   0   0 256.551 1503.96   1
  -7   0  -1 5174.09 2662.88   1
  -7   0   1 861.535 1592.43   1
  -7   0  -2 4042.99 2476.50   1
  -7   0   2 3733.71 1849.16   1
  -7   0  -3 2005.61 1661.75   1
  -7   0  -4 5875.98 2744.08   1
  -7   0  -5 541.194 1452.61   1
  -7   0  -6 110.359 1500.79   1
  -7   0  -7 5730.32 2263.66   1
  -7   0  -8 1536.93 1711.42   1
  -7   0  -9 3913.63 2092.48   1
  -7   0 -10 2075.61 1774.17   1
  -7   0 -11 4420.58 3223.49   1
  -7   0 -12 6900.45 5051.92   1
  -7   0 -13 1059.95 1848.67   1
  -7   0 -14 2965.91 2860.39   1
  -7   0 -15 3146.27 2882.01   1
  -7   0 -16 3667.37 2178.55   1
  -7   0 -17 1645.29 1782.37   1
  -7   0 -18 7178.17 4103.85   1
  -7   1   0-97.7329 1491.38   1
  -7  -1   0 5422.38 2718.86   1
  -7   1  -1 786.434 1626.80   1
  -7   1   1 6714.40 5314.77   1
  -7  -1  -1 697.621 1581.54   1
  -7  -1   1 1561.69 2194.21   1
  -7   1  -2 3853.38 2520.76   1
  -7  -1  -2 1305.21 2280.95   1
  -7  -1   2 1545.11 1631.83   1
  -7   1  -3 751.337 1619.28   1
  -7  -1  -3 840.322 2033.04   1
  -7  -1   3 1261.32 1623.21   1
  -7   1  -4 4581.47 2083.85   1
  -7  -1  -4 3402.39 2643.45   1
  -7   1  -5 2583.72 1764.04   1
  -7  -1  -5 312.893 1478.23   1
  -7   1  -6 2200.44 1785.03   1
  -7  -1  -6 3822.44 2386.48   1
  -7   1  -7 3229.50 2457.85   1
  -7  -1  -7 4292.46 2021.13   1
  -7   1  -8 -442.93 1512.44   1
  -7  -1  -8 -332.28 1631.37   1
  -7   1  -9-686.833 1558.58   1
  -7  -1  -9 2717.83 1974.91   1
  -7   1 -10 5726.51 2995.85   1
  -7  -1 -10 -402.15 1832.31   1
  -7   1 -11 3217.65 2596.66   1
  -7  -1 -11 1233.61 1955.30   1
  -7   1 -12 5410.99 3366.07   1
  -7  -1 -12 1403.06 2009.90   1
  -7   1 -13 7260.05 5318.89   1
  -7  -1 -13 1317.39 2059.46   1
  -7   1 -14 1488.45 1788.68   1
  -7  -1 -14 3274.26 2314.40   1
  -7   1 -15 245.873 1550.79   1
  -7  -1 -15 1700.29 2009.02   1
  -7   1 -16 816.511 1629.10   1
  -7  -1 -16 5859.55 4039.36   1
  -7   1 -17 2260.66 2428.12   1
  -7  -1 -17 787.637 1796.92   1
  -7   1 -18 291.158 1676.50   1
  -7  -1 -18 2279.26 1891.81   1
  -7   2   0-771.168 1473.90   1
  -7  -2   0 2796.51 2433.23   1
  -7   2  -1 2768.65 1820.37   1
  -7  -2  -1 2142.86 1735.93   1
  -7  -2   1 1438.76 1629.38   1
  -7   2  -2 6775.77 5238.88   1
  -7  -2  -2 7089.59 5551.41   1
  -7  -2   2 4053.56 2492.79   1
  -7   2  -3 4728.89 2703.86   1
  -7  -2  -3 995.696 1558.76   1
  -7  -2   3 736.403 1569.44   1
  -7   2  -4 4415.68 2103.86   1
  -7  -2  -4 4064.16 1916.53   1
  -7  -2   4 3873.25 2305.73   1
  -7   2  -5-674.463 1596.47   1
  -7  -2  -5 4457.72 2520.03   1
  -7   2  -6 3438.19 2619.73   1
  -7  -2  -6 2319.23 2295.08   1
  -7   2  -7 4728.10 2618.34   1
  -7  -2  -7 1899.26 1790.59   1
  -7   2  -8-547.732 1599.80   1
  -7  -2  -8-792.682 1797.59   1
  -7   2  -9 2531.29 1813.37   1
  -7  -2  -9 4430.87 2966.45   1
  -7   2 -10 1122.08 1549.10   1
  -7  -2 -10 3677.64 2259.25   1
  -7   2 -11 7256.52 5218.90   1
  -7  -2 -11 167.122 2141.85   1
  -7   2 -12 4521.01 2840.13   1
  -7  -2 -12 6.93812 1987.06   1
  -7   2 -13 3248.86 2841.59   1
  -7  -2 -13 7800.55 5708.61   1
  -7   2 -14 4157.82 2075.09   1
  -7  -2 -14 1277.20 1961.11   1
  -7   2 -15-737.995 1314.59   1
  -7  -2 -15-2710.67 1948.55   1
  -7   2 -16 2639.76 2213.88   1
  -7  -2 -16-877.665 1724.03   1
  -7   2 -17 2922.03 1894.28   1
  -7  -2 -17 2934.56 2066.30   1
  -7   2 -18 2020.74 1868.38   1
  -7  -3   0-311.676 1527.19   1
  -7   3  -1-49.3997 1480.77   1
  -7  -3   1-48.5089 1585.17   1
  -7  -3  -1 5570.19 2711.81   1
  -7   3  -2 7.98717 1538.81   1
  -7  -3  -2 395.573 1478.15   1
  -7  -3   2 1790.33 1634.64   1
  -7   3  -3 7569.78 6126.59   1
  -7  -3  -3-304.852 1507.52   1
  -7  -3   3 552.464 1494.70   1
  -7   3  -4 451.239 1643.08   1
  -7  -3  -4 2954.10 1738.65   1
  -7  -3   4-851.772 1503.13   1
  -7   3  -5 3319.97 1863.38   1
  -7  -3  -5 1044.91 1662.84   1
  -7  -3   5 2835.03 1710.99   1
  -7   3  -6  666.92 1533.94   1
  -7  -3  -6 2110.17 2628.10   1
  -7   3  -7 2232.66 1898.81   1
  -7  -3  -7-156.204 1766.88   1
  -7   3  -8-845.107 1638.53   1
  -7  -3  -8 1980.17 2520.76   1
  -7   3  -9 3802.13 1942.60   1
  -7  -3  -9 3002.85 2129.67   1
  -7   3 -10-166.203 1445.12   1
  -7  -3 -10 1568.56 2079.98   1
  -7   3 -11-656.073 1378.34   1
  -7  -3 -11-2005.66 2060.99   1
  -7   3 -12 3244.13 2398.55   1
  -7  -3 -12 2502.72 2223.71   1
  -7   3 -13 2041.23 1610.17   1
  -7  -3 -13 4470.43 3618.35   1
  -7   3 -14 2390.17 1314.07   1
  -7  -3 -14 2461.94 2169.29   1
  -7   3 -15 2275.08 1766.70   1
  -7  -3 -15 3593.59 2335.40   1
  -7   3 -16 1674.81 1645.26   1
  -7  -3 -16-4153.52 1775.11   1
  -7   3 -17 1080.48 1326.95   1
  -7  -3 -17 1073.98 1812.74   1
  -7   3 -18 3680.05 2030.90   1
  -7  -4   0-586.633 1428.45   1
  -7  -4  -1 4218.14 2480.28   1
  -7  -4   1-1227.08 1540.72   1
  -7  -4  -2 1622.28 1537.80   1
  -7  -4   2 3465.78 2386.99   1
  -7   4  -3-676.697 1534.89   1
  -7  -4  -310330.20 7341.49   1
  -7  -4   3 1872.26 1691.44   1
  -7   4  -4 3748.79 2440.74   1
  -7  -4  -4 2922.04 2436.19   1
  -7  -4   4 4004.23 2450.69   1
  -7   4  -5 4125.09 2546.43   1
  -7  -4  -5 5278.41 2756.68   1
  -7  -4   5 567.934 1449.87   1
  -7   4  -6 1499.51 1634.40   1
  -7  -4  -6 1956.91 1909.33   1
  -7  -4   6 2480.86 2281.49   1
  -7   4  -7 1587.13 1689.15   1
  -7  -4  -7 5088.95 2466.61   1
  -7  -4   7 345.437 1423.46   1
  -7   4  -8 781.501 1604.40   1
  -7  -4  -8 7624.99 7775.81   1
  -7   4  -9 2159.42 1760.83   1
  -7  -4  -9 1587.74 2629.42   1
  -7   4 -10 3914.24 2719.76   1
  -7  -4 -10 1982.07 2078.35   1
  -7   4 -11 1038.05 1523.13   1
  -7  -4 -11 1608.36 1940.58   1
  -7   4 -12 379.502 1371.73   1
  -7  -4 -12 2704.13 2324.83   1
  -7   4 -13-152.989 1266.58   1
  -7  -4 -13 7677.37 3305.60   1
  -7   4 -14 242.928 1295.89   1
  -7  -4 -14 3525.89 2243.43   1
  -7   4 -15 482.018 1334.44   1
  -7  -4 -15 306.668 1947.34   1
  -7   4 -16-254.379 1318.22   1
  -7  -4 -16 3330.98 2325.59   1
  -7   4 -17 615.225 1388.81   1
  -7   4 -18 1384.43 1977.39   1
  -7  -5   0 1960.21 1678.02   1
  -7  -5  -1 2232.67 1583.63   1
  -7  -5   1 2202.76 1749.96   1
  -7  -5  -2 834.949 1597.94   1
  -7  -5   2 3738.32 2541.43   1
  -7   5  -3-2843.05 1536.25   1
  -7  -5  -3 1207.63 1721.84   1
  -7  -5   3 868.096 1514.07   1
  -7   5  -4 1020.09 1572.62   1
  -7  -5  -4 4643.69 2706.12   1
  -7  -5   4 2252.67 1625.25   1
  -7   5  -5 1339.86 1640.09   1
  -7  -5  -5-3.83304 1682.21   1
  -7  -5   5 2324.30 1691.93   1
  -7   5  -6 948.989 1481.08   1
  -7  -5  -6 1338.26 1764.71   1
  -7  -5   6 1263.24 1471.35   1
  -7   5  -7 3269.85 1847.42   1
  -7  -5  -7 5047.61 3450.35   1
  -7  -5   7 2492.43 1717.02   1
  -7   5  -8 3122.22 1820.20   1
  -7  -5  -8 3880.55 2246.99   1
  -7   5  -9 3539.69 1893.61   1
  -7  -5  -9  744.81 1683.57   1
  -7   5 -10 463.765 1528.76   1
  -7  -5 -10-1391.28 1712.19   1
  -7   5 -11 4150.12 2712.80   1
  -7  -5 -11 1459.19 1969.62   1
  -7   5 -12 1572.83 1504.80   1
  -7  -5 -12-804.549 1865.77   1
  -7   5 -13-990.144 1359.12   1
  -7  -5 -13 3748.86 2451.60   1
  -7   5 -14 1246.82 1459.70   1
  -7  -5 -14 5084.12 1891.71   1
  -7   5 -15 393.918 1364.36   1
  -7  -5 -15 2265.31 2055.58   1
  -7   5 -16 352.882 1402.50   1
  -7  -5 -16 1437.94 1937.05   1
  -7   5 -17 220.038 1320.09   1
  -7   5 -18 500.885 1351.59   1
  -7  -6   0 897.164 1521.13   1
  -7  -6   1-25.5464 1458.66   1
  -7  -6  -1 743.046 1478.93   1
  -7  -6  -2 2561.66 2407.03   1
  -7  -6   2 5206.23 2822.02   1
  -7  -6  -3 1622.56 1711.40   1
  -7  -6   3 259.829 1600.61   1
  -7  -6  -4 3688.43 2661.17   1
  -7  -6   4 3241.06 1825.05   1
  -7   6  -5 3564.21 1916.53   1
  -7  -6  -5 4111.90 3023.00   1
  -7  -6   5 2139.85 1668.27   1
  -7   6  -6 3603.93 1904.85   1
  -7  -6  -6-274.021 1763.03   1
  -7  -6   6-713.614 1398.99   1
  -7   6  -7-2237.66 1479.45   1
  -7  -6  -7-390.609 1846.01   1
  -7  -6   7 3398.98 2184.29   1
  -7   6  -8 2213.62 1702.13   1
  -7  -6  -8 2060.72 1901.68   1
  -7  -6   8 2186.91 1625.23   1
  -7   6  -9 888.723 1508.72   1
  -7  -6  -9 1228.02 1916.74   1
  -7   6 -10 2643.03 1816.02   1
  -7  -6 -10 205.941 1672.57   1
  -7   6 -11 1006.24 1338.63   1
  -7  -6 -11 3093.74 2244.29   1
  -7   6 -12-925.704 1327.85   1
  -7  -6 -12-1610.72 1867.88   1
  -7   6 -13 3060.49 1805.68   1
  -7  -6 -13-118.787 1807.90   1
  -7   6 -14 2909.55 2276.53   1
  -7  -6 -14-689.074 1752.68   1
  -7   6 -15 2181.75 1591.84   1
  -7  -6 -15-1394.19 1800.29   1
  -7   6 -16 93.4626 1323.71   1
  -7   6 -17-1938.73 1310.19   1
  -7   6 -18 1669.22 1580.37   1
  -7  -7   0 456.009 1397.35   1
  -7  -7  -1 1069.86 1515.29   1
  -7  -7   1 1089.53 1435.87   1
  -7  -7  -2 5129.61 2323.41   1
  -7  -7   2 1457.36 1608.06   1
  -7  -7  -3 2481.48 1914.33   1
  -7  -7   3 103.997 1442.39   1
  -7  -7  -4-1844.16 1631.86   1
  -7  -7   4 3293.38 1873.56   1
  -7  -7  -5 1128.86 1670.88   1
  -7  -7   5 1018.27 1434.18   1
  -7   7  -6 4615.29 3021.34   1
  -7  -7  -6 2309.36 2001.04   1
  -7  -7   6 1968.74 2033.02   1
  -7   7  -7 3022.80 2063.66   1
  -7  -7  -7 879.087 1892.76   1
  -7  -7   7-382.837 1378.52   1
  -7   7  -8 897.071 1612.92   1
  -7  -7  -8 2729.51 2247.33   1
  -7  -7   8-479.336 1312.49   1
  -7   7  -9 2074.16 1742.05   1
  -7  -7  -9 3030.22 2203.18   1
  -7  -7   9-562.838 1355.50   1
  -7   7 -10 986.457 1487.64   1
  -7  -7 -10 303.295 1851.83   1
  -7   7 -11 2366.57 1836.80   1
  -7  -7 -11 2835.52 2069.06   1
  -7   7 -12 2166.00 1692.98   1
  -7  -7 -12-610.762 1861.63   1
  -7   7 -13-82.8402 1398.55   1
  -7  -7 -13 1308.30 1706.25   1
  -7   7 -14 3430.27 2340.60   1
  -7  -7 -14 5860.38 3482.40   1
  -7   7 -15-521.239 1309.11   1
  -7  -7 -15 3399.16 2233.70   1
  -7   7 -16 2174.99 1551.06   1
  -7   7 -17 495.512 1322.56   1
  -7  -8   0 -602.81 1330.39   1
  -7  -8  -1 2752.56 2223.90   1
  -7  -8   1 2613.00 1716.31   1
  -7  -8  -2 845.336 1513.63   1
  -7  -8   2 795.876 1902.31   1
  -7  -8  -3 111.686 1653.55   1
  -7  -8   3 632.675 1424.01   1
  -7  -8  -4-325.833 1551.58   1
  -7  -8   4 1710.83 2522.49   1
  -7  -8  -5 70.4034 1735.91   1
  -7  -8   5 1142.22 1958.59   1
  -7  -8  -6-1802.98 1838.42   1
  -7  -8   6-744.597 1342.96   1
  -7  -8  -7 1700.31 1936.52   1
  -7  -8   7 434.597 1379.81   1
  -7   8  -8 4068.31 2883.16   1
  -7  -8  -8 6188.04 4709.65   1
  -7  -8   8 742.547 1430.68   1
  -7   8  -9 577.277 1535.22   1
  -7  -8  -9 4804.00 3273.72   1
  -7  -8   9-28.6578 1329.12   1
  -7   8 -10 3435.64 2394.04   1
  -7  -8 -10 1490.92 1882.39   1
  -7  -8  10 436.752 1413.31   1
  -7   8 -11 2398.10 1456.54   1
  -7  -8 -11 1665.97 1994.27   1
  -7   8 -12 5742.68 2009.18   1
  -7  -8 -12 3091.76 2118.35   1
  -7   8 -13 4419.16 2427.24   1
  -7  -8 -13 2231.12 2016.97   1
  -7   8 -14 5143.36 2591.62   1
  -7  -8 -14-812.539 1811.26   1
  -7   8 -15 914.978 1228.74   1
  -7   8 -16 424.687 1222.36   1
  -7   8 -17 960.229 1238.27   1
  -7   8 -18 5187.91 2726.04   1
  -7  -9   0 2475.94 1771.22   1
  -7  -9  -1-1985.19 1578.85   1
  -7  -9   1 1109.67 1964.95   1
  -7  -9  -2 2045.56 1876.10   1
  -7  -9   2 1795.51 1545.03   1
  -7  -9  -3 2090.10 2670.77   1
  -7  -9   3 3383.57 2074.24   1
  -7  -9  -4 -570.17 1559.94   1
  -7  -9   4 2280.90 1756.69   1
  -7  -9  -5-2282.29 1644.54   1
  -7  -9   5 4708.71 2923.57   1
  -7  -9  -6-1050.40 1781.17   1
  -7  -9   6 941.124 1880.21   1
  -7  -9  -7 590.817 1693.77   1
  -7  -9   7 215.513 1348.84   1
  -7  -9  -8 2562.51 2082.01   1
  -7  -9   8-884.869 1319.60   1
  -7   9  -9 1708.58 1807.18   1
  -7  -9  -9-981.827 1646.04   1
  -7  -9   9 5057.00 1866.51   1
  -7   9 -10 627.581 1516.93   1
  -7  -9 -10 3492.16 2160.83   1
  -7  -9  10-1945.41 1344.30   1
  -7   9 -11 4017.47 2504.30   1
  -7  -9 -11-803.408 1732.23   1
  -7  -9  11-545.609 1402.44   1
  -7   9 -12-222.705 1429.93   1
  -7  -9 -12 1777.44 1928.95   1
  -7   9 -13 2323.28 1650.05   1
  -7  -9 -13-274.181 1807.06   1
  -7   9 -14 2419.28 2026.63   1
  -7   9 -15 445.124 1226.57   1
  -7   9 -16 2092.06 1557.54   1
  -7   9 -17 487.966 1165.51   1
  -7 -10   0-208.113 1400.03   1
  -7 -10   1 -499.26 1353.51   1
  -7 -10  -1 2966.07 2544.94   1
  -7 -10  -2 1877.20 1831.36   1
  -7 -10   2 1189.91 1353.85   1
  -7 -10  -3 1887.09 1931.89   1
  -7 -10   3 8478.07 5812.78   1
  -7 -10  -4-888.958 1671.58   1
  -7 -10   4 2426.24 2131.76   1
  -7 -10  -5 6112.87 4891.08   1
  -7 -10   5 2719.23 2327.12   1
  -7 -10  -6 1004.59 1652.64   1
  -7 -10   6 1753.48 1595.42   1
  -7 -10  -7 1959.95 1900.82   1
  -7 -10   7-52.2251 1266.37   1
  -7 -10  -8-1089.73 1605.63   1
  -7 -10   8 2721.75 1659.40   1
  -7 -10  -9  679.49 1779.99   1
  -7 -10   9 2766.10 1705.23   1
  -7  10 -10-1006.40 1553.88   1
  -7 -10 -10 1489.31 1760.63   1
  -7 -10  10 1189.51 1440.11   1
  -7  10 -1112227.80 5402.85   1
  -7 -10 -11-948.876 1598.31   1
  -7 -10  11-277.908 1394.24   1
  -7  10 -12 1529.78 1600.64   1
  -7 -10 -12 878.727 1776.92   1
  -7 -10  12-568.231 1353.12   1
  -7  10 -13 3006.03 1823.62   1
  -7  10 -14 1610.79 1566.75   1
  -7  10 -15 2108.97 2102.29   1
  -7  10 -16 709.078 1280.94   1
  -7  10 -17 3394.08 2057.44   1
  -7 -11   0 2967.24 1978.55   1
  -7 -11  -1 2615.67 1937.39   1
  -7 -11   1 325.424 1315.79   1
  -7 -11  -2 1193.60 1670.03   1
  -7 -11   2 2886.04 1790.61   1
  -7 -11  -3 1141.39 1648.10   1
  -7 -11   3-1117.33 1208.71   1
  -7 -11  -4 577.512 1642.18   1
  -7 -11   4 1134.75 1333.59   1
  -7 -11  -5-843.665 1622.40   1
  -7 -11   5 4065.41 2498.13   1
  -7 -11  -6-182.771 1623.58   1
  -7 -11   6-622.658 1424.24   1
  -7 -11  -7 819.181 1679.96   1
  -7 -11   7 1165.45 1442.89   1
  -7 -11  -8  958.22 1624.88   1
  -7 -11   8 5541.74 1344.99   1
  -7 -11  -9  487.20 1653.54   1
  -7 -11   9 -958.22 1362.45   1
  -7 -11 -10 1756.82 1837.29   1
  -7 -11  10 4860.60 2782.83   1
  -7 -11  11 2535.05 1743.99   1
  -7  11 -12-1897.66 1385.24   1
  -7 -11  12 3414.51 1960.34   1
  -7  11 -13 1241.73 1451.54   1
  -7 -11  13 254.284 1354.62   1
  -7  11 -14 544.482 1436.27   1
  -7  11 -15 2565.11 2170.22   1
  -7  11 -16 3908.72 2018.15   1
  -7  11 -17 2968.82 2130.78   1
  -7 -12   0 2724.80 2058.87   1
  -7 -12  -1 1185.14 1546.04   1
  -7 -12   1 1071.44 1211.46   1
  -7 -12  -2 1050.61 1538.47   1
  -7 -12   2 2591.18 1904.01   1
  -7 -12  -3-31.5724 1569.08   1
  -7 -12   3-910.895 1138.73   1
  -7 -12  -4 2384.18 1542.49   1
  -7 -12   4 2423.83 1578.00   1
  -7 -12  -5-122.349 1515.39   1
  -7 -12   5 6.04431 1426.29   1
  -7 -12  -6-1981.75 1461.69   1
  -7 -12   6 702.057 1529.47   1
  -7 -12  -7 5041.41 3211.61   1
  -7 -12   7 1709.96 1696.52   1
  -7 -12  -8 -362.60 1401.26   1
  -7 -12   8-1430.86 1325.37   1
  -7 -12  -9 894.582 1637.71   1
  -7 -12   9 1393.07 1496.60   1
  -7 -12  10-1522.95 1425.85   1
  -7 -12  11-408.348 1464.50   1
  -7 -12  12 1524.15 2233.91   1
  -7  12 -13 3079.63 2238.98   1
  -7 -12  13-1065.74 1464.66   1
  -7  12 -14 299.362 1284.35   1
  -7  12 -15 6605.90 3197.28   1
  -7  12 -16 2402.96 2492.87   1
  -7 -13   0 809.355 1445.68   1
  -7 -13  -1 200.568 1363.59   1
  -7 -13   1 1872.93 1615.97   1
  -7 -13  -2 2250.14 1705.74   1
  -7 -13   2 3062.89 2127.52   1
  -7 -13  -3 274.487 1412.20   1
  -7 -13   3-312.172 1269.23   1
  -7 -13  -4 2148.73 1559.96   1
  -7 -13   4-201.471 1202.58   1
  -7 -13  -5-343.762 1367.84   1
  -7 -13   5 2251.81 1582.15   1
  -7 -13  -6-962.201 1373.08   1
  -7 -13   6 708.923 1520.49   1
  -7 -13  -7-738.391 1479.50   1
  -7 -13   7 2542.28 1741.94   1
  -7 -13   8-392.033 1394.10   1
  -7 -13   9 2064.92 1698.79   1
  -7 -13  10-607.062 1412.90   1
  -7 -13  11 2023.73 1846.89   1
  -7 -13  12-1106.01 1475.27   1
  -7 -13  13  568.06 1536.00   1
  -7 -14   0 1686.58 1552.77   1
  -7 -14  -1 942.636 1468.94   1
  -7 -14   1 989.305 1301.68   1
  -7 -14  -2 324.326 1376.18   1
  -7 -14   2 331.255 1319.53   1
  -7 -14  -3 -818.62 1442.23   1
  -7 -14   3 1682.24 1632.61   1
  -7 -14  -4 290.766 1379.07   1
  -7 -14   4 545.515 1377.46   1
  -7 -14  -5 3086.10 1806.64   1
  -7 -14   5 1040.32 1439.90   1
  -7 -14   6 2077.13 1852.63   1
  -7 -14   7-260.237 1457.11   1
  -7 -14   8 3069.34 1859.14   1
  -7 -14   9-354.667 1298.34   1
  -7 -14  10 333.845 1347.33   1
  -7 -14  11 2354.11 1822.58   1
  -7 -14  12 -294.25 1577.80   1
  -7 -14  13 1304.80 1739.85   1
  -7 -15   0 944.912 1317.03   1
  -7 -15   1 788.663 1527.03   1
  -7 -15   2 3507.90 1868.04   1
  -7 -15   3-2301.18 1201.21   1
  -7 -15   4-288.522 1255.65   1
  -7 -15   5 1006.26 1425.11   1
  -7 -15   6  499.15 1621.40   1
  -7 -15   7 3360.28 2067.51   1
  -7 -15   8 2025.16 1839.25   1
  -7 -15   9 1084.12 1425.98   1
  -7 -15  10-8.61236 1365.88   1
  -7 -15  11 3500.33 1923.14   1
  -7 -15  12 358.568 1568.34   1
  -8   0  -5 226.577 1523.21   1
  -8   0  -6 127.432 1444.69   1
  -8   0  -7 823.754 1505.75   1
  -8   0  -8 1743.88 1722.28   1
  -8   0  -9 447.454 1533.38   1
  -8   0 -10 1763.04 1994.25   1
  -8   0 -11 853.805 1733.81   1
  -8  -1  -3 -56.376 1384.61   1
  -8  -1  -4-230.648 1381.32   1
  -8  -1  -5 434.977 1498.23   1
  -8   1  -6 3208.45 2405.74   1
  -8  -1  -6 3132.25 1949.49   1
  -8   1  -7-233.512 1449.09   1
  -8  -1  -7 1142.63 1545.01   1
  -8   1  -8 559.272 1429.76   1
  -8  -1  -8 458.365 1605.15   1
  -8   1  -9 2097.15 2143.63   1
  -8  -1  -9-205.492 1315.53   1
  -8   1 -10 4454.18 2665.89   1
  -8  -1 -10-872.613 1282.70   1
  -8   1 -11 2153.14 1640.21   1
  -8  -2  -2-1699.76 1443.07   1
  -8  -2  -3 1045.71 1453.62   1
  -8  -2  -4-365.753 1424.51   1
  -8  -2  -5 3883.36 2103.30   1
  -8  -2  -6 2633.70 1787.76   1
  -8   2  -7 754.946 1430.69   1
  -8  -2  -7 650.977 1558.82   1
  -8   2  -8 90.9237 1363.32   1
  -8  -2  -8 885.264 1492.22   1
  -8   2  -9-1206.38 1375.17   1
  -8  -2  -9-1239.26 1553.53   1
  -8   2 -10 1524.59 1585.58   1
  -8   2 -11 539.115 1383.49   1
  -8   2 -12 2107.64 1652.44   1
  -8  -3  -1 1432.40 1571.32   1
  -8  -3  -2 -946.32 1425.38   1
  -8  -3  -3 2059.42 2344.24   1
  -8  -3  -4 -477.65 1497.23   1
  -8  -3  -5 109.865 1434.04   1
  -8  -3  -6 219.718 1431.14   1
  -8  -3  -7-619.338 1431.02   1
  -8   3  -8 1241.61 1360.11   1
  -8  -3  -8 190.219 1446.57   1
  -8   3  -9-687.328 1295.55   1
  -8  -3  -9 790.714 1508.47   1
  -8   3 -10-622.331 1296.78   1
  -8   3 -11 750.496 1452.24   1
  -8   3 -12 1443.22 1546.76   1
  -8  -4   0 1121.02 1431.05   1
  -8  -4  -1 602.571 1465.94   1
  -8  -4  -2 1961.91 2229.59   1
  -8  -4  -3 6617.39 3351.61   1
  -8  -4  -4 1289.97 1580.06   1
  -8  -4  -5-270.057 1471.52   1
  -8  -4  -6 1073.27 1464.21   1
  -8  -4  -7-1731.51 1296.66   1
  -8  -4  -8 1423.60 1604.50   1
  -8  -5   0 53.5443 1403.98   1
  -8  -5  -1 5119.67 2895.92   1
  -8  -5   1 2227.73 1604.12   1
  -8  -5  -2 3023.71 2409.95   1
  -8  -5  -3 3566.22 2494.36   1
  -8  -5  -4 1021.51 1522.85   1
  -8  -5  -5-812.259 1350.45   1
  -8  -5  -6 60.3318 1412.93   1
  -8  -5  -7 224.377 1394.68   1
  -8  -5  -8 1867.95 1799.40   1
  -8  -6   0 810.733 1508.05   1
  -8  -6  -1-247.535 1431.89   1
  -8  -6   1-244.217 1385.49   1
  -8  -6  -2 2870.41 1847.43   1
  -8  -6   2 612.993 1370.91   1
  -8  -6  -3 2922.96 2384.61   1
  -8  -6  -4 4432.67 2168.57   1
  -8  -6  -5 1901.64 1671.27   1
  -8  -6  -6-136.213 1405.83   1
  -8  -7   0 3525.60 1975.72   1
  -8  -7  -1 1997.44 1768.10   1
  -8  -7   1 926.805 1412.60   1
  -8  -7  -2 7087.17 3761.35   1
  -8  -7   2 1277.83 1440.69   1
  -8  -7  -3-300.722 1345.69   1
  -8  -7   3 4374.47 2510.07   1
  -8  -7  -4 3314.02 1824.26   1
  -8  -7  -5 2096.03 1608.45   1
  -8  -8   0 2349.20 1699.23   1
  -8  -8  -1 931.201 1295.73   1
  -8  -8   1 4060.71 2883.76   1
  -8  -8  -2 2093.67 1493.50   1
  -8  -8   2 65.9736 1371.51   1
  -8  -8  -3 2055.49 1700.68   1
  -8  -8   3 2264.78 1648.54   1
  -8  -9   0 4524.86 2659.91   1
  -8  -9  -1-683.529 1196.93   1
  -8  -9   1 2914.93 1835.05   1
  -8  -9  -2 3754.41 2342.02   1
  -8  -9   2 4739.43 2370.00   1
  -8  -9   3 2770.68 1758.68   1
  -8 -10   3 2582.49 2186.94   1
  -8 -10   4  413.69 1500.19   1
   0   0   0    0.00    0.00   1
;
_shelx_hkl_checksum              13122
loop_
_space_group_symop_operation_xyz
'x, y, z'
'x+1/2, -y, -z'
'x, -y+1/2, z+1/2'
'x+1/2, y+1/2, -z+1/2'
loop_
_atom_site_label
_atom_site_type_symbol
_atom_site_fract_x
_atom_site_fract_y
_atom_site_fract_z
_atom_site_U_iso_or_equiv
_atom_site_adp_type
_atom_site_occupancy
_atom_site_site_symmetry_order
_atom_site_calc_flag
_atom_site_refinement_flags_posn
_atom_site_refinement_flags_adp
_atom_site_refinement_flags_occupancy
_atom_site_disorder_assembly
_atom_site_disorder_group
C1 C 0.602(11) 0.046(2) 0.915(2) 0.072(18) Uiso 1 1 d . . . . .
C2 C 0.433(11) 0.071(2) 0.937(2) 0.08(2) Uiso 1 1 d . . . . .
H2 H 0.3121 0.0813 0.9248 0.099 Uiso 1 1 calc R U . . .
C3 C 0.488(15) 0.076(3) 0.984(3) 0.15(3) Uiso 1 1 d . . . . .
H3 H 0.4034 0.0903 1.0053 0.178 Uiso 1 1 calc R U . . .
C4 C 0.694(9) 0.0569(16) 0.9921(18) 0.058(15) Uiso 1 1 d . . . . .
H4 H 0.7351 0.0596 1.0209 0.070 Uiso 1 1 calc R U . . .
C5 C 0.831(11) 0.0367(19) 0.9664(19) 0.075(17) Uiso 1 1 d . . . . .
H5 H 0.9552 0.0255 0.9774 0.090 Uiso 1 1 calc R U . . .
C6 C 0.782(8) 0.0317(14) 0.9175(14) 0.031(11) Uiso 1 1 d . . . . .
C7 C 0.938(10) 0.0104(19) 0.8952(18) 0.061(16) Uiso 1 1 d . . . . .
H7 H 1.0527 -0.0011 0.9101 0.073 Uiso 1 1 calc R U . . .
C8 C 1.09(2) -0.004(4) 0.819(3) 0.19(5) Uiso 1 1 d . . . . .
H8A H 1.1480 0.0303 0.8121 0.232 Uiso 1 1 calc R U . . .
H8B H 1.1866 -0.0255 0.8334 0.232 Uiso 1 1 calc R U . . .
C9 C 1.025(13) -0.028(3) 0.781(3) 0.12(3) Uiso 1 1 d . . . . .
H9C H 0.9969 -0.0655 0.7868 0.147 Uiso 1 1 calc R U . . .
H9D H 1.1322 -0.0260 0.7598 0.147 Uiso 1 1 calc R U . . .
C10 C 0.819(14) 0.004(3) 0.726(3) 0.12(3) Uiso 1 1 d . . . . .
H10 H 0.9178 -0.0071 0.7068 0.144 Uiso 1 1 calc R U . . .
C11 C 0.646(6) 0.0266(10) 0.7100(10) 0.001 Uiso 1 1 d . U . . .
C12 C 0.639(8) 0.0363(15) 0.6608(15) 0.036(11) Uiso 1 1 d . . . . .
H12 H 0.7403 0.0249 0.6420 0.043 Uiso 1 1 calc R U . . .
C13 C 0.476(8) 0.0620(16) 0.6474(16) 0.043(13) Uiso 1 1 d . . . . .
H13 H 0.4912 0.0768 0.6199 0.052 Uiso 1 1 calc R U . . .
C14 C 0.286(9) 0.0719(17) 0.6659(17) 0.058(15) Uiso 1 1 d . . . . .
H14 H 0.1634 0.0786 0.6519 0.070 Uiso 1 1 calc R U . . .
C15 C 0.325(9) 0.0693(16) 0.7103(17) 0.050 Uiso 1 1 d . U . . .
H15 H 0.2240 0.0796 0.7297 0.060 Uiso 1 1 calc R U . . .
C16 C 0.501(9) 0.0526(18) 0.7261(17) 0.052(14) Uiso 1 1 d . . . . .
C17 C 0.035(5) -0.2907(10) 1.2512(11) 0.001 Uiso 1 1 d . U . . .
C18 C 0.192(9) -0.2916(18) 1.2732(16) 0.052(14) Uiso 1 1 d . . . . .
H18 H 0.2893 -0.3165 1.2653 0.062 Uiso 1 1 calc R U . . .
C19 C 0.235(9) -0.260(2) 1.3072(19) 0.075(19) Uiso 1 1 d . . . . .
H19 H 0.3552 -0.2651 1.3223 0.090 Uiso 1 1 calc R U . . .
C20 C 0.084(10) -0.215(2) 1.322(2) 0.08(2) Uiso 1 1 d . . . . .
H20 H 0.1103 -0.1894 1.3434 0.098 Uiso 1 1 calc R U . . .
C21 C -0.112(13) -0.220(3) 1.296(2) 0.11(2) Uiso 1 1 d . . . . .
H21 H -0.2333 -0.2040 1.3046 0.127 Uiso 1 1 calc R U . . .
C22 C -0.093(11) -0.251(2) 1.256(2) 0.08(2) Uiso 1 1 d . . . . .
C23 C -0.291(9) -0.2464(19) 1.2261(17) 0.056(15) Uiso 1 1 d . . . . .
H23 H -0.3791 -0.2197 1.2349 0.067 Uiso 1 1 calc R U . . .
C24 C -0.537(12) -0.258(3) 1.171(2) 0.11(3) Uiso 1 1 d . . . . .
H24A H -0.6409 -0.2460 1.1912 0.133 Uiso 1 1 calc R U . . .
H24B H -0.5166 -0.2307 1.1489 0.133 Uiso 1 1 calc R U . . .
C25 C -0.582(10) -0.309(2) 1.153(2) 0.09(2) Uiso 1 1 d . . . . .
H25A H -0.6629 -0.3283 1.1735 0.104 Uiso 1 1 calc R U . . .
H25B H -0.6652 -0.3030 1.1271 0.104 Uiso 1 1 calc R U . . .
C26 C -0.380(11) -0.379(2) 1.114(2) 0.08(2) Uiso 1 1 d . . . . .
H26 H -0.5080 -0.3908 1.1053 0.099 Uiso 1 1 calc R U . . .
C27 C -0.250(10) -0.412(2) 1.091(2) 0.070(18) Uiso 1 1 d . . . . .
C28 C -0.320(10) -0.4554(18) 1.0588(17) 0.065(16) Uiso 1 1 d . . . . .
H28 H -0.4521 -0.4591 1.0490 0.078 Uiso 1 1 calc R U . . .
C29 C -0.171(8) -0.4858(14) 1.0468(14) 0.031(10) Uiso 1 1 d . . . . .
H29 H -0.2006 -0.5068 1.0227 0.038 Uiso 1 1 calc R U . . .
C30 C 0.017(8) -0.4932(17) 1.0621(15) 0.040(12) Uiso 1 1 d . . . . .
H30 H 0.1076 -0.5190 1.0525 0.048 Uiso 1 1 calc R U . . .
C31 C 0.051(11) -0.458(2) 1.093(2) 0.08(2) Uiso 1 1 d . . . . .
H31 H 0.1837 -0.4575 1.1030 0.099 Uiso 1 1 calc R U . . .
C32 C -0.076(11) -0.422(3) 1.112(2) 0.08(2) Uiso 1 1 d . . . . .
C33 C 0.002(8) -0.2371(18) 1.1187(16) 0.044(13) Uiso 1 1 d . . . . .
C34 C 0.160(11) -0.229(2) 1.0816(19) 0.071(17) Uiso 1 1 d . . . . .
C35 C 0.197(8) -0.2612(15) 1.0475(14) 0.037(12) Uiso 1 1 d . . . . .
H35 H 0.1302 -0.2935 1.0439 0.045 Uiso 1 1 calc R U . . .
C36 C 0.348(10) -0.2424(18) 1.0166(18) 0.061(15) Uiso 1 1 d . . . . .
C37 C 0.434(5) -0.1983(10) 1.0313(10) 0.001 Uiso 1 1 d . U . . .
C38 C 0.633(9) -0.1679(18) 1.0085(18) 0.066(16) Uiso 1 1 d . . . . .
H38A H 0.6661 -0.1366 1.0249 0.099 Uiso 1 1 calc R U . . .
H38B H 0.5996 -0.1580 0.9791 0.099 Uiso 1 1 calc R U . . .
H38C H 0.7463 -0.1918 1.0083 0.099 Uiso 1 1 calc R U . . .
C39 C 0.425(9) -0.278(2) 0.9786(19) 0.067(17) Uiso 1 1 d . . . . .
C40 C 0.461(10) -0.332(2) 0.988(2) 0.069(17) Uiso 1 1 d . . . . .
C41 C 0.564(12) -0.356(2) 0.938(2) 0.080(19) Uiso 1 1 d . . . . .
C42 C 0.617(12) -0.296(2) 0.912(2) 0.08(2) Uiso 1 1 d . . . . .
C43 C 0.465(7) -0.2559(14) 0.9378(14) 0.026(10) Uiso 1 1 d . . . . .
C44 C 0.086(7) -0.1886(14) 0.9453(14) 0.030(11) Uiso 1 1 d . . . . .
H44A H 0.0093 -0.1565 0.9413 0.046 Uiso 1 1 calc R U . . .
H44B H 0.1195 -0.1927 0.9755 0.046 Uiso 1 1 calc R U . . .
H44C H 0.0072 -0.2187 0.9359 0.046 Uiso 1 1 calc R U . . .
C45 C 0.295(12) -0.185(2) 0.916(2) 0.09(2) Uiso 1 1 d . . . . .
C46 C 0.450(6) -0.2134(11) 0.9148(11) 0.005 Uiso 1 1 d . U . . .
C47 C 0.575(8) -0.1822(16) 0.8844(16) 0.052(14) Uiso 1 1 d . . . . .
H47 H 0.7021 -0.1950 0.8765 0.062 Uiso 1 1 calc R U . . .
C48 C 0.516(7) -0.1399(14) 0.8693(13) 0.027(10) Uiso 1 1 d . . . . .
C49 C 0.591(11) -0.099(2) 0.835(2) 0.078(19) Uiso 1 1 d . . . . .
N1 N 0.929(7) 0.0053(14) 0.8478(13) 0.043(10) Uiso 1 1 d . . . . .
N2 N 0.851(9) -0.0023(18) 0.7661(18) 0.083(16) Uiso 1 1 d . . . . .
N3 N -0.415(7) -0.3410(16) 1.1406(15) 0.064(14) Uiso 1 1 d . . . . .
N4 N -0.351(6) -0.2719(11) 1.1929(11) 0.029(8) Uiso 1 1 d . . . . .
O1 O 0.535(6) 0.0478(11) 0.8666(11) 0.054(9) Uiso 1 1 d . . . . .
O2 O 0.479(5) 0.0445(12) 0.7756(11) 0.057(10) Uiso 1 1 d . . . . .
O3 O 0.051(5) -0.3163(12) 1.2124(11) 0.056(10) Uiso 1 1 d . . . . .
O4 O -0.044(10) -0.389(2) 1.1488(19) 0.14(2) Uiso 1 1 d . . . . .
O5 O -0.048(7) -0.2832(17) 1.1185(15) 0.101(15) Uiso 1 1 d . . . . .
O6 O 0.021(8) -0.1937(16) 1.1441(14) 0.098(14) Uiso 1 1 d . . . . .
O7 O 0.560(5) -0.0531(11) 0.8288(10) 0.040(8) Uiso 1 1 d . . . . .
O8 O 0.740(6) -0.1257(14) 0.8141(13) 0.076(12) Uiso 1 1 d . . . . .
O9 O 0.801(7) 0.1073(13) 0.8134(12) 0.078(12) Uiso 1 1 d . . . . .
O10 O -0.320(8) -0.3809(15) 1.2226(15) 0.101(15) Uiso 1 1 d . . . . .
F1 F 0.646(7) -0.3330(12) 1.0129(12) 0.101(12) Uiso 1 1 d . . . . .
F2 F 0.344(6) -0.3634(11) 1.0029(10) 0.075(9) Uiso 1 1 d . . . . .
F3 F 0.718(6) -0.3860(12) 0.9409(11) 0.086(10) Uiso 1 1 d . . . . .
F4 F 0.401(8) -0.3745(16) 0.9246(14) 0.130(16) Uiso 1 1 d . . . . .
F5 F 0.796(6) -0.2937(11) 0.9175(10) 0.077(9) Uiso 1 1 d . . . . .
F6 F 0.527(6) -0.3083(11) 0.8724(11) 0.082(10) Uiso 1 1 d . . . . .
S1 S 0.316(3) -0.1757(5) 1.0766(5) 0.065(4) Uiso 1 1 d . . . . .
S2 S 0.280(3) -0.1222(5) 0.8893(5) 0.064(4) Uiso 1 1 d . . . . .
Mn01 Mn 0.6783(16) 0.0204(3) 0.8159(3) 0.071(3) Uiso 1 1 d . . . . .
Mn02 Mn -0.1610(17) -0.3324(3) 1.1730(3) 0.075(3) Uiso 1 1 d . . . . .
loop_
_atom_type_symbol
_atom_type_description
_atom_type_scat_dispersion_real
_atom_type_scat_dispersion_imag
_atom_type_scat_source
C C 0.0033 0.0016 'International Tables Vol C Tables 4.2.6.8 and 6.1.1.4'
H H 0.0000 0.0000 'International Tables Vol C Tables 4.2.6.8 and 6.1.1.4'
N N 0.0061 0.0033 'International Tables Vol C Tables 4.2.6.8 and 6.1.1.4'
O O 0.0106 0.0060 'International Tables Vol C Tables 4.2.6.8 and 6.1.1.4'
F F 0.0171 0.0103 'International Tables Vol C Tables 4.2.6.8 and 6.1.1.4'
S S 0.1246 0.1234 'International Tables Vol C Tables 4.2.6.8 and 6.1.1.4'
Mn Mn 0.3368 0.7283 'International Tables Vol C Tables 4.2.6.8 and 6.1.1.4'
loop_
_geom_angle_atom_site_label_1
_geom_angle_atom_site_label_2
_geom_angle_atom_site_label_3
_geom_angle
_geom_angle_site_symmetry_1
_geom_angle_site_symmetry_3
C6 C1 C2 146(6) . .
C6 C1 O1 109(5) . .
C2 C1 O1 103(5) . .
C1 C2 C3 108(7) . .
C4 C3 C2 111(8) . .
C5 C4 C3 132(7) . .
C4 C5 C6 118(6) . .
C1 C6 C7 145(6) . .
C1 C6 C5 103(5) . .
C7 C6 C5 112(5) . .
C6 C7 N1 121(5) . .
C9 C8 N1 113(10) . .
C8 C9 N2 108(8) . .
N2 C10 C11 123(8) . .
C16 C11 C10 135(5) . .
C16 C11 C12 106(4) . .
C10 C11 C12 117(5) . .
C13 C12 C11 114(4) . .
C12 C13 C14 134(5) . .
C15 C14 C13 103(5) . .
C16 C15 C14 122(6) . .
C11 C16 C15 133(5) . .
C11 C16 O2 113(4) . .
C15 C16 O2 108(5) . .
C18 C17 C22 120(5) . .
C18 C17 O3 114(4) . .
C22 C17 O3 120(4) . .
C17 C18 C19 126(6) . .
C18 C19 C20 121(6) . .
C21 C20 C19 109(5) . .
C22 C21 C20 114(7) . .
C17 C22 C21 124(6) . .
C17 C22 C23 121(5) . .
C21 C22 C23 112(6) . .
N4 C23 C22 133(5) . .
C25 C24 N4 98(5) . .
N3 C25 C24 117(6) . .
N3 C26 C27 152(7) . .
N3 C26 Mn02 47(3) . .
C27 C26 Mn02 106(5) . .
C32 C27 C26 114(7) . .
C32 C27 C28 116(6) . .
C26 C27 C28 124(6) . .
C29 C28 C27 112(6) . .
C28 C29 C30 133(5) . .
C31 C30 C29 109(5) . .
C30 C31 C32 131(7) . .
C27 C32 C31 116(7) . .
C27 C32 O4 114(6) . .
C31 C32 O4 130(7) . .
O5 C33 O6 144(6) . .
O5 C33 C34 108(5) . .
O6 C33 C34 104(4) . .
C35 C34 C33 127(5) . .
C35 C34 S1 107(4) . .
C33 C34 S1 126(4) . .
C34 C35 C36 116(5) . .
C37 C36 C35 110(4) . .
C37 C36 C39 126(5) . .
C35 C36 C39 122(4) . .
C36 C37 C38 125(4) . .
C36 C37 S1 111(3) . .
C38 C37 S1 124(2) . .
C43 C39 C40 122(5) . .
C43 C39 C36 121(4) . .
C40 C39 C36 116(5) . .
F2 C40 C39 127(6) . .
F2 C40 F1 110(5) . .
C39 C40 F1 106(5) . .
F2 C40 C41 111(5) . .
C39 C40 C41 101(5) . .
F1 C40 C41 97(5) . .
F4 C41 F3 119(6) . .
F4 C41 C42 111(6) . .
F3 C41 C42 113(6) . .
F4 C41 C40 95(5) . .
F3 C41 C40 116(5) . .
C42 C41 C40 101(4) . .
F5 C42 F6 124(6) . .
F5 C42 C43 120(6) . .
F6 C42 C43 107(5) . .
F5 C42 C41 100(5) . .
F6 C42 C41 98(5) . .
C43 C42 C41 101(5) . .
C46 C43 C39 144(4) . .
C46 C43 C42 107(4) . .
C39 C43 C42 108(4) . .
C46 C45 C44 133(5) . .
C46 C45 S2 122(5) . .
C44 C45 S2 104(4) . .
C45 C46 C43 121(5) . .
C45 C46 C47 101(4) . .
C43 C46 C47 138(4) . .
C48 C47 C46 122(5) . .
C47 C48 C49 137(5) . .
C47 C48 S2 112(4) . .
C49 C48 S2 111(4) . .
O7 C49 O8 121(6) . .
O7 C49 C48 135(6) . .
O8 C49 C48 104(5) . .
C8 N1 C7 128(7) . .
C8 N1 Mn01 110(6) . .
C7 N1 Mn01 121(4) . .
C10 N2 C9 122(8) . .
C10 N2 Mn01 128(7) . .
C9 N2 Mn01 110(5) . .
C26 N3 C25 137(6) . .
C26 N3 Mn02 105(4) . .
C25 N3 Mn02 118(4) . .
C23 N4 C24 121(5) . .
C23 N4 Mn02 115(4) . .
C24 N4 Mn02 124(4) . .
C1 O1 Mn01 128(3) . .
C16 O2 Mn01 128(3) . .
C17 O3 Mn02 127(3) . .
C32 O4 Mn02 137(5) . .
C33 O5 Mn02 129(4) . .
C49 O7 Mn01 147(4) . .
C34 S1 C37 95(2) . .
C48 S2 C45 84(3) . .
O2 Mn01 O1 94.2(15) . .
O2 Mn01 N1 165.7(17) . .
O1 Mn01 N1 94.5(16) . .
O2 Mn01 N2 89(2) . .
O1 Mn01 N2 173(2) . .
N1 Mn01 N2 81(2) . .
O2 Mn01 O7 98.5(14) . .
O1 Mn01 O7 88.7(13) . .
N1 Mn01 O7 93.0(14) . .
N2 Mn01 O7 96.4(16) . .
O2 Mn01 O9 85.5(14) . .
O1 Mn01 O9 82.3(13) . .
N1 Mn01 O9 84.4(15) . .
N2 Mn01 O9 92.4(17) . .
O7 Mn01 O9 170.4(14) . .
O4 Mn02 O3 97(2) . .
O4 Mn02 N3 94(2) . .
O3 Mn02 N3 168.4(18) . .
O4 Mn02 N4 167(2) . .
O3 Mn02 N4 96.1(15) . .
N3 Mn02 N4 73.1(18) . .
O4 Mn02 O5 89(2) . .
O3 Mn02 O5 96.5(17) . .
N3 Mn02 O5 88.0(18) . .
N4 Mn02 O5 91.1(15) . .
O4 Mn02 O10 93(2) . .
O3 Mn02 O10 91.8(16) . .
N3 Mn02 O10 83.2(19) . .
N4 Mn02 O10 84.9(15) . .
O5 Mn02 O10 171.1(19) . .
O4 Mn02 C26 66(3) . .
O3 Mn02 C26 162.3(18) . .
N3 Mn02 C26 28.5(18) . .
N4 Mn02 C26 101.6(19) . .
O5 Mn02 C26 84.9(18) . .
O10 Mn02 C26 88.2(19) . .
loop_
_geom_bond_atom_site_label_1
_geom_bond_atom_site_label_2
_geom_bond_distance
_geom_bond_site_symmetry_2
C1 C6 1.25(7) .
C1 C2 1.45(8) .
C1 O1 1.56(7) .
C2 C3 1.48(9) .
C3 C4 1.47(10) .
C4 C5 1.30(7) .
C5 C6 1.54(7) .
C6 C7 1.35(7) .
C7 N1 1.47(6) .
C8 C9 1.38(11) .
C8 N1 1.38(12) .
C9 N2 1.41(9) .
C10 N2 1.25(7) .
C10 C11 1.37(9) .
C11 C16 1.26(6) .
C11 C12 1.53(5) .
C12 C13 1.32(6) .
C13 C14 1.41(7) .
C14 C15 1.39(6) .
C15 C16 1.33(7) .
C16 O2 1.54(6) .
C17 C18 1.24(6) .
C17 C22 1.31(7) .
C17 O3 1.36(4) .
C18 C19 1.34(7) .
C19 C20 1.58(8) .
C20 C21 1.54(9) .
C21 C22 1.47(8) .
C22 C23 1.60(8) .
C23 N4 1.27(5) .
C24 C25 1.43(8) .
C24 N4 1.45(8) .
C25 N3 1.42(7) .
C26 N3 1.29(6) .
C26 C27 1.38(7) .
C26 Mn02 2.61(7) .
C27 C32 1.34(8) .
C27 C28 1.55(7) .
C28 C29 1.30(7) .
C29 C30 1.34(6) .
C30 C31 1.31(7) .
C31 C32 1.37(8) .
C32 O4 1.42(7) .
C33 O5 1.20(5) .
C33 O6 1.34(5) .
C33 C34 1.56(8) .
C34 C35 1.35(6) .
C34 S1 1.69(6) .
C35 C36 1.46(7) .
C36 C37 1.32(6) .
C36 C39 1.55(7) .
C37 C38 1.67(6) .
C37 S1 1.69(4) .
C39 C43 1.39(6) .
C39 C40 1.42(7) .
C40 F2 1.19(6) .
C40 F1 1.43(7) .
C40 C41 1.80(8) .
C41 F4 1.25(7) .
C41 F3 1.27(7) .
C41 C42 1.72(8) .
C42 F5 1.20(7) .
C42 F6 1.39(7) .
C42 C43 1.63(7) .
C43 C46 1.28(5) .
C44 C45 1.64(8) .
C45 C46 1.25(7) .
C45 S2 1.79(6) .
C46 C47 1.47(6) .
C47 C48 1.22(5) .
C48 C49 1.54(7) .
C48 S2 1.74(5) .
C49 O7 1.19(6) .
C49 O8 1.35(7) .
N1 Mn01 1.96(4) .
N2 Mn01 1.99(6) .
N3 Mn02 1.97(5) .
N4 Mn02 2.06(3) .
O1 Mn01 1.95(4) .
O2 Mn01 1.90(4) .
O3 Mn02 1.90(4) .
O4 Mn02 1.77(6) .
O5 Mn02 2.21(5) .
O7 Mn01 2.04(3) .
O9 Mn01 2.33(4) .
O10 Mn02 2.22(5) .
