#------------------------------------------------------------------------------
#$Date: 2019-11-17 08:05:47 +0200 (Sun, 17 Nov 2019) $
#$Revision: 228800 $
#$URL: file:///home/coder/svn-repositories/cod/cif/1/54/88/1548887.cif $
#------------------------------------------------------------------------------
#
# This file is available in the Crystallography Open Database (COD),
# http://www.crystallography.net/
#
# All data on this site have been placed in the public domain by the
# contributors.
#
data_1548887
loop_
_publ_author_name
'Chantarojsiri, Teera'
'Ziller, Joseph W.'
'Yang, Jenny Y.'
_publ_section_title
;
 Incorporation of redox-inactive cations promotes iron catalyzed aerobic
 C-H oxidation at mild potentials.
;
_journal_issue                   9
_journal_name_full               'Chemical science'
_journal_page_first              2567
_journal_page_last               2574
_journal_paper_doi               10.1039/c7sc04486k
_journal_volume                  9
_journal_year                    2018
_chemical_formula_sum            'C26 H27 Ba F6 Fe N3 O12.5 S2'
_chemical_formula_weight         952.81
_space_group_crystal_system      orthorhombic
_space_group_IT_number           57
_space_group_name_Hall           '-P 2c 2b'
_space_group_name_H-M_alt        'P b c m'
_symmetry_space_group_name_Hall  '-P 2c 2b'
_symmetry_space_group_name_H-M   'P b c m'
_atom_sites_solution_hydrogens   geom
_atom_sites_solution_primary     dual
_atom_sites_solution_secondary   difmap
_audit_creation_method           SHELXL-2014/7
_audit_update_record
;
2017-10-16 deposited with the CCDC.
2018-01-29 downloaded from the CCDC.
;
_cell_angle_alpha                90
_cell_angle_beta                 90
_cell_angle_gamma                90
_cell_formula_units_Z            8
_cell_length_a                   9.5075(4)
_cell_length_b                   27.3543(12)
_cell_length_c                   28.8412(12)
_cell_measurement_reflns_used    9791
_cell_measurement_temperature    88(2)
_cell_measurement_theta_max      27.44
_cell_measurement_theta_min      2.27
_cell_volume                     7500.8(6)
_computing_cell_refinement       'Bruker SAINT 8.34a, 2013'
_computing_data_collection       'Bruker APEX2 2014.11-0, 2014'
_computing_data_reduction        'Bruker SAINT 8.34a, 2013'
_computing_molecular_graphics    'Bruker SHELXTL'
_computing_publication_material  'Bruker SHELXTL'
_computing_structure_refinement  'SHELXL-2014/7 (Sheldrick, 2014)'
_computing_structure_solution    'Bruker SHELXTL 2014/4'
_diffrn_ambient_temperature      88(2)
_diffrn_measured_fraction_theta_full 0.999
_diffrn_measured_fraction_theta_max 0.961
_diffrn_measurement_device_type  'Bruker SMART APEX II CCD'
_diffrn_measurement_method       '\f and \w scans'
_diffrn_radiation_type           MoK\a
_diffrn_radiation_wavelength     0.71073
_diffrn_reflns_av_R_equivalents  0.0457
_diffrn_reflns_av_unetI/netI     0.0271
_diffrn_reflns_Laue_measured_fraction_full 0.999
_diffrn_reflns_Laue_measured_fraction_max 0.961
_diffrn_reflns_limit_h_max       12
_diffrn_reflns_limit_h_min       -12
_diffrn_reflns_limit_k_max       35
_diffrn_reflns_limit_k_min       -36
_diffrn_reflns_limit_l_max       39
_diffrn_reflns_limit_l_min       -37
_diffrn_reflns_number            89405
_diffrn_reflns_point_group_measured_fraction_full 0.999
_diffrn_reflns_point_group_measured_fraction_max 0.961
_diffrn_reflns_theta_full        25.500
_diffrn_reflns_theta_max         29.033
_diffrn_reflns_theta_min         1.489
_diffrn_source                   'fine-focus sealed tube'
_exptl_absorpt_coefficient_mu    1.631
_exptl_absorpt_correction_T_max  0.6566
_exptl_absorpt_correction_T_min  0.4943
_exptl_absorpt_correction_type   numerical
_exptl_absorpt_process_details   'Bruker SADABS 2014/5'
_exptl_crystal_colour            orange
_exptl_crystal_density_diffrn    1.687
_exptl_crystal_density_meas      ?
_exptl_crystal_density_method    not_measured
_exptl_crystal_description       prism
_exptl_crystal_F_000             3776
_exptl_crystal_size_max          0.284
_exptl_crystal_size_mid          0.190
_exptl_crystal_size_min          0.098
_refine_diff_density_max         3.301
_refine_diff_density_min         -2.011
_refine_diff_density_rms         0.174
_refine_ls_extinction_method     none
_refine_ls_goodness_of_fit_ref   1.025
_refine_ls_hydrogen_treatment    constr
_refine_ls_matrix_type           full
_refine_ls_number_parameters     439
_refine_ls_number_reflns         9791
_refine_ls_number_restraints     11
_refine_ls_restrained_S_all      1.029
_refine_ls_R_factor_all          0.0849
_refine_ls_R_factor_gt           0.0680
_refine_ls_shift/su_max          0.002
_refine_ls_shift/su_mean         0.000
_refine_ls_structure_factor_coef Fsqd
_refine_ls_weighting_details
'w=1/[\s^2^(Fo^2^)+(0.0973P)^2^+56.8214P] where P=(Fo^2^+2Fc^2^)/3'
_refine_ls_weighting_scheme      calc
_refine_ls_wR_factor_gt          0.1813
_refine_ls_wR_factor_ref         0.1950
_reflns_Friedel_coverage         0.000
_reflns_number_gt                7734
_reflns_number_total             9791
_reflns_threshold_expression     'I > 2\s(I)'
_cod_data_source_file            c7sc04486k2.cif
_cod_data_source_block           jyy127
_cod_depositor_comments
;
The following automatic conversions were performed:

'_exptl_crystal_density_meas' value 'not_measured' was changed to '?'
- the value is perceived as not measured.

Automatic conversion script
Id: cif_fix_values 4973 2017-02-22 13:04:09Z antanas 

 Adding full bibliography for 1548883--1548887.cif.
;
_cod_original_formula_sum        'C26 H27 Ba F6 Fe N3 O12.50 S2'
_cod_database_code               1548887
_shelx_shelxl_version_number     2014/7
_shelx_space_group_comment
; 
The symmetry employed for this shelxl refinement is uniquely defined 
by the following loop, which should always be used as a source of 
symmetry information in preference to the above space-group names. 
They are only intended as comments. 
;
_shelx_estimated_absorpt_t_min   0.654
_shelx_estimated_absorpt_t_max   0.856
_exptl_absorpt_special_details
; 
Reflections not merged 
93591 Corrected reflections written to file jyy127s.hkl 
Estimated minimum and maximum transmission:  0.4943  0.6566 
The ratio (0.7528) of these values is more reliable than their absolute values 
Additional spherical absorption correction applied with mu*r =  0.2000 
Lambda/2 correction factor = 0.00150 
;
_shelx_res_file
; 
  
    jyy127.res created by SHELXL-2014/7 
  
  
TITL jyy127x_a.res in Pbcm 
REM Old TITL jyy127x in Pbcm 
  
REM SHELXT solution in Pbcm 
REM R1 0.148,  Rweak 0.006,  Alpha 0.047,  Orientation as input 
REM Formula found by SHELXT:  C52 N11 O9 F22 S3 Fe2 Ba2 
  
CELL 0.71073   9.5075   27.3543   28.8412   90.0000   90.0000   90.0000 
ZERR    8.00   0.0004    0.0012    0.0012    0.0000    0.0000    0.0000 
LATT  1 
SYMM -X, -Y, 1/2+Z 
SYMM -X, 1/2+Y, 1/2-Z 
SYMM X, 1/2-Y, -Z 
SFAC C H N O F S FE BA 
UNIT 208 216 24 100 48 16 8 8 
TEMP -185.000 
SIZE 0.098 0.190 0.284 
  
rem APEX2 2014.11-0, SAINT 8.34a, SADABS 2014/5, SHELXTL 2014/7 
  
omit 2   0   4 
omit 2   2   3 
omit 2   0   2 
omit 2   2   0 
  
EADP S3 > F7 
  
L.S. 16 
FMAP 2 
PLAN 10 
  
ACTA 51 
  
ABIN 
WGHT    0.097300   56.821400 
FVAR       0.04932 
BA1   8    0.673110    0.418905    0.557257    11.00000    0.02367    0.02616 = 
         0.02751    0.00530    0.00163    0.00648 
FE1   7    0.645971    0.308564    0.478858    11.00000    0.03557    0.01773 = 
         0.05824    0.00377   -0.00770   -0.00229 
S1    6    0.561362    0.484079    0.436897    11.00000    0.03269    0.02382 = 
         0.02417   -0.00025   -0.00107    0.00776 
F1    5    0.575423    0.408130    0.382661    11.00000    0.09940    0.02521 = 
         0.05159   -0.01153    0.01036   -0.00092 
F2    5    0.752692    0.455974    0.377399    11.00000    0.05226    0.06438 = 
         0.05161   -0.00292    0.01703    0.02606 
F3    5    0.556410    0.476496    0.346358    11.00000    0.07553    0.05394 = 
         0.02485   -0.00049   -0.00196    0.02248 
O1    4    0.533291    0.340671    0.525976    11.00000    0.02345    0.02690 = 
         0.08928    0.00639    0.01434   -0.00353 
O2    4    0.784082    0.358751    0.489343    11.00000    0.02385    0.02257 = 
         0.03611    0.00469    0.00500   -0.00054 
O3    4    0.957866    0.419218    0.528571    11.00000    0.01980    0.03706 = 
         0.05680   -0.00546   -0.00218   -0.00481 
O4    4    0.871873    0.473327    0.603847    11.00000    0.05386    0.05143 = 
         0.04892   -0.01102   -0.02894    0.01667 
O5    4    0.634464    0.433270    0.651654    11.00000    0.09685    0.08068 = 
         0.02537    0.01392    0.00561    0.04713 
O6    4    0.460838    0.363420    0.608584    11.00000    0.07606    0.03554 = 
         0.09382    0.02530    0.06132    0.02913 
O7    4    0.691836    0.250000    0.500000    10.50000    0.05855    0.01500 = 
         0.07388    0.00737    0.00000    0.00000 
O8    4    0.638468    0.456971    0.470896    11.00000    0.07184    0.05398 = 
         0.02678    0.00109   -0.00681    0.03595 
O9    4    0.604008    0.534623    0.431587    11.00000    0.02833    0.02575 = 
         0.04478   -0.00626   -0.00380    0.00212 
O10   4    0.410415    0.478573    0.437953    11.00000    0.03540    0.03177 = 
         0.04010   -0.00161    0.00739   -0.00193 
N1    3    0.455809    0.300482    0.441533    11.00000    0.05068    0.04190 = 
         0.12783    0.01520   -0.03277   -0.01510 
N2    3    0.718018    0.306533    0.409909    11.00000    0.08365    0.03815 = 
         0.05358   -0.01168   -0.03053    0.02653 
N3    3    0.806670    0.344002    0.616254    11.00000    0.07337    0.06501 = 
         0.08387    0.03407    0.01966    0.03743 
AFIX  66 
C1    1    0.398354    0.331800    0.535684    11.00000    0.02616    0.01830 = 
         0.13908    0.01667    0.02491    0.00695 
C2    1    0.356086    0.343874    0.580377    11.00000    0.03699    0.02344 = 
         0.15722    0.01993    0.03087    0.00265 
C3    1    0.217043    0.336965    0.593752    11.00000    0.06695    0.04109 = 
         0.21035    0.02861    0.08615    0.02095 
AFIX  43 
H3A   2    0.188155    0.345216    0.624298    11.00000   -1.20000 
AFIX  65 
C4    1    0.120266    0.317982    0.562434    11.00000    0.03250    0.03622 = 
         0.23520    0.00714    0.03435   -0.00702 
AFIX  43 
H4A   2    0.025236    0.313260    0.571575    11.00000   -1.20000 
AFIX  65 
C5    1    0.162532    0.305909    0.517740    11.00000    0.03192    0.03525 = 
         0.23176    0.01429   -0.00994    0.00412 
AFIX  43 
H5A   2    0.096389    0.292935    0.496336    11.00000   -1.20000 
AFIX  65 
C6    1    0.301575    0.312817    0.504365    11.00000    0.01324    0.02149 = 
         0.24149    0.04494   -0.00721   -0.00024 
AFIX   0 
C7    1    0.337014    0.299821    0.455165    11.00000    0.06115    0.04128 = 
         0.10752    0.00782   -0.01417   -0.00723 
AFIX  43 
H7A   2    0.263671    0.290899    0.434457    11.00000   -1.20000 
AFIX   0 
C8    1    0.470509    0.291943    0.391846    11.00000    0.11781    0.05268 = 
         0.12461    0.01243   -0.07946   -0.02410 
AFIX  23 
H8A   2    0.402928    0.266642    0.381546    11.00000   -1.20000 
H8B   2    0.451201    0.322428    0.374474    11.00000   -1.20000 
AFIX   0 
C9    1    0.610697    0.276112    0.383489    11.00000    0.18525    0.07224 = 
         0.10596   -0.04797   -0.10441    0.05374 
AFIX  23 
H9A   2    0.630773    0.278281    0.349870    11.00000   -1.20000 
H9B   2    0.619897    0.241435    0.392837    11.00000   -1.20000 
AFIX   0 
C10   1    0.830137    0.325174    0.393668    11.00000    0.08193    0.05016 = 
         0.03491    0.00666    0.00633    0.02560 
AFIX  43 
H10A  2    0.852004    0.318989    0.362067    11.00000   -1.20000 
AFIX   0 
C11   1    0.923705    0.354221    0.419174    11.00000    0.06576    0.04191 = 
         0.03620    0.01468    0.01558    0.01629 
C12   1    1.053073    0.369935    0.396886    11.00000    0.09754    0.07809 = 
         0.05907    0.04252    0.05065    0.04576 
AFIX  43 
H12A  2    1.073763    0.358961    0.366388    11.00000   -1.20000 
AFIX   0 
C13   1    1.145978    0.400387    0.419158    11.00000    0.06928    0.05921 = 
         0.11736    0.03658    0.05667    0.00798 
AFIX  43 
H13A  2    1.231725    0.409476    0.404609    11.00000   -1.20000 
AFIX   0 
C14   1    1.114313    0.417377    0.462089    11.00000    0.03744    0.05274 = 
         0.10232    0.02683    0.03278   -0.00268 
AFIX  43 
H14A  2    1.177383    0.439412    0.476784    11.00000   -1.20000 
AFIX   0 
C15   1    0.993507    0.403666    0.485042    11.00000    0.02363    0.02855 = 
         0.06602    0.01379    0.01590   -0.00058 
C16   1    0.896812    0.371258    0.464224    11.00000    0.03248    0.02752 = 
         0.03971    0.00757    0.01276    0.00594 
C17   1    1.058173    0.448021    0.555079    11.00000    0.02546    0.04548 = 
         0.09956   -0.00207   -0.02005   -0.00940 
AFIX  23 
H17A  2    1.066519    0.481134    0.541502    11.00000   -1.20000 
H17B  2    1.151922    0.432302    0.554113    11.00000   -1.20000 
AFIX   0 
C18   1    1.008258    0.451567    0.604162    11.00000    0.04614    0.05635 = 
         0.07452   -0.00999   -0.03710    0.00351 
AFIX  23 
H18A  2    1.003809    0.418614    0.618279    11.00000   -1.20000 
H18B  2    1.074004    0.471831    0.622578    11.00000   -1.20000 
AFIX   0 
C19   1    0.823449    0.489994    0.649026    11.00000    0.09425    0.07165 = 
         0.05646   -0.03289   -0.04114    0.02743 
AFIX  23 
H19A  2    0.756772    0.517397    0.644593    11.00000   -1.20000 
H19B  2    0.904917    0.502569    0.666768    11.00000   -1.20000 
AFIX   0 
C20   1    0.752401    0.450566    0.676889    11.00000    0.12433    0.08029 = 
         0.03611   -0.00229   -0.01630    0.04914 
AFIX  23 
H20A  2    0.818918    0.423400    0.682685    11.00000   -1.20000 
H20B  2    0.721625    0.463820    0.707176    11.00000   -1.20000 
AFIX   0 
C21   1    0.539544    0.398114    0.676345    11.00000    0.12720    0.08129 = 
         0.05216    0.03433    0.05121    0.03820 
AFIX  23 
H21A  2    0.593919    0.368319    0.683989    11.00000   -1.20000 
H21B  2    0.509082    0.413117    0.705925    11.00000   -1.20000 
AFIX   0 
C22   1    0.417903    0.384205    0.650774    11.00000    0.06801    0.07414 = 
         0.07348    0.03308    0.04044    0.03424 
AFIX  23 
H22A  2    0.362133    0.360221    0.668742    11.00000   -1.20000 
H22B  2    0.358238    0.413197    0.644834    11.00000   -1.20000 
AFIX   0 
C23   1    0.851217    0.321162    0.646834    11.00000    0.10532    0.05509 = 
         0.09668    0.00489   -0.03510   -0.00253 
C24   1    0.904120    0.291067    0.680748    11.00000    0.25525    0.08087 = 
         0.16318    0.06336   -0.12630   -0.07628 
AFIX 137 
H24A  2    0.826284    0.275407    0.697350    11.00000   -1.50000 
H24B  2    0.960260    0.310393    0.702568    11.00000   -1.50000 
H24C  2    0.963551    0.265932    0.666519    11.00000   -1.50000 
AFIX   0 
C25   1    0.613691    0.454857    0.382488    11.00000    0.05116    0.02766 = 
         0.02793    0.00207    0.00174    0.01273 
S2    6    1.131685    0.392341    0.750000    10.50000    0.05352    0.05708 = 
         0.04747    0.00000    0.00000    0.01952 
O11   4    1.275894    0.373772    0.750000    10.50000    0.08077    0.10513 = 
         0.03335    0.00000    0.00000    0.05061 
O12   4    1.060611    0.382354    0.707236    11.00000    0.12576    0.07817 = 
         0.11943   -0.03304   -0.07541    0.03729 
C26   1    1.155521    0.457996    0.750000    10.50000    0.07219    0.05756 = 
         0.03186    0.00000    0.00000    0.00806 
F4    5    1.220788    0.472767    0.787292    11.00000    0.12809    0.08812 = 
         0.07273   -0.01843   -0.04341    0.00446 
F5    5    1.028336    0.479919    0.750000    10.50000    0.10692    0.06444 = 
         0.07107    0.00000    0.00000    0.03842 
same S2 O11 O12 C26 F4 F5 
S3    6    0.946851    0.324755    0.250000    10.50000    0.20818 
O13   4    0.784080    0.319769    0.250000    10.50000    0.20818 
O14   4    1.036552    0.316448    0.290837    11.00000    0.20818 
C27   1    0.946289    0.392173    0.250000    10.50000    0.20818 
F6    5    0.874788    0.405468    0.287337    11.00000    0.20818 
F7    5    1.072744    0.412662    0.250000    10.50000    0.20818 
  
HKLF 4 
  
REM  jyy127x_a.res in Pbcm 
REM R1 =  0.0680 for    7734 Fo > 4sig(Fo)  and  0.0849 for all    9791 data 
REM    439 parameters refined using     11 restraints 
  
END 
  
WGHT      0.0972     56.8676 
  
REM Highest difference peak  3.301,  deepest hole -2.011,  1-sigma level  0.174 
Q1    1   0.9891  0.3273  0.2500  10.50000  0.05    3.30 
Q2    1   0.7200  0.3266  0.2500  10.50000  0.05    3.20 
Q3    1   0.6744  0.4085  0.5342  11.00000  0.05    2.39 
Q4    1   0.7328  0.4310  0.5560  11.00000  0.05    1.72 
Q5    1   0.7853  0.3274  0.5847  11.00000  0.05    1.54 
Q6    1   0.1525  0.3219  0.6025  11.00000  0.05    1.38 
Q7    1   0.6265  0.4171  0.6864  11.00000  0.05    1.22 
Q8    1   0.5269  0.3739  0.6279  11.00000  0.05    1.20 
Q9    1   0.1713  0.3082  0.5563  11.00000  0.05    1.20 
Q10   1   0.2708  0.3413  0.6268  11.00000  0.05    1.12 
;
_shelx_res_checksum              39554
_shelx_fab_file
; 
    1    0    0   -145.64      0.00 
    2    0    0     -0.38      0.00 
    3    0    0     23.49      0.00 
    4    0    0     -6.30      0.00 
    5    0    0      0.03      0.00 
    6    0    0     -0.19      0.00 
    7    0    0     -2.21      0.00 
    8    0    0     -0.08      0.00 
    9    0    0      1.63      0.00 
   10    0    0      2.17      0.00 
   11    0    0     -0.81      0.00 
   12    0    0     -3.85      0.00 
    1    1    0    -63.23      0.00 
    2    1    0     13.27      0.00 
    3    1    0     24.82      0.00 
    4    1    0    -11.97      0.00 
    5    1    0     -2.44      0.00 
    6    1    0      0.98      0.00 
    7    1    0      0.52      0.00 
    8    1    0      1.78      0.00 
    9    1    0      1.98      0.00 
   10    1    0     -3.03      0.00 
   11    1    0     -0.53      0.00 
   12    1    0     -0.29      0.00 
    0    2    0    -96.23      0.00 
    1    2    0     44.59      0.00 
    2    2    0      1.79      0.00 
    3    2    0      7.62      0.00 
    4    2    0    -10.51      0.00 
    5    2    0      4.10      0.00 
    6    2    0      0.73      0.00 
    7    2    0      0.66      0.00 
    8    2    0     -0.62      0.00 
    9    2    0     -0.68      0.00 
   10    2    0     -1.08      0.00 
   11    2    0      1.21      0.00 
   12    2    0      1.04      0.00 
    1    3    0     26.13      0.00 
    2    3    0     -1.15      0.00 
    3    3    0     -7.67      0.00 
    4    3    0      5.67      0.00 
    5    3    0     -3.21      0.00 
    6    3    0     -3.68      0.00 
    7    3    0      4.11      0.00 
    8    3    0     -0.23      0.00 
    9    3    0     -1.81      0.00 
   10    3    0      0.98      0.00 
   11    3    0      1.18      0.00 
   12    3    0     -0.87      0.00 
    0    4    0     17.94      0.00 
    1    4    0     -0.83      0.00 
    2    4    0     -4.13      0.00 
    3    4    0     -4.85      0.00 
    4    4    0      2.92      0.00 
    5    4    0     -3.54      0.00 
    6    4    0      0.37      0.00 
    7    4    0      2.94      0.00 
    8    4    0     -0.89      0.00 
    9    4    0     -1.54      0.00 
   10    4    0      0.04      0.00 
   11    4    0      1.61      0.00 
   12    4    0     -1.08      0.00 
    1    5    0    -33.68      0.00 
    2    5    0     23.85      0.00 
    3    5    0    -15.64      0.00 
    4    5    0      5.27      0.00 
    5    5    0      4.75      0.00 
    6    5    0     -2.91      0.00 
    7    5    0      0.37      0.00 
    8    5    0      0.08      0.00 
    9    5    0     -2.51      0.00 
   10    5    0      2.82      0.00 
   11    5    0     -0.56      0.00 
   12    5    0     -0.74      0.00 
    0    6    0    -51.88      0.00 
    1    6    0     19.50      0.00 
    2    6    0     15.93      0.00 
    3    6    0    -16.40      0.00 
    4    6    0      5.33      0.00 
    5    6    0      6.70      0.00 
    6    6    0     -7.31      0.00 
    7    6    0     -1.13      0.00 
    8    6    0      4.26      0.00 
    9    6    0      0.28      0.00 
   10    6    0     -1.86      0.00 
   11    6    0      0.22      0.00 
   12    6    0      1.29      0.00 
    1    7    0     27.02      0.00 
    2    7    0    -12.55      0.00 
    3    7    0     -0.16      0.00 
    4    7    0      0.07      0.00 
    5    7    0      0.70      0.00 
    6    7    0     -0.50      0.00 
    7    7    0      0.10      0.00 
    8    7    0      1.45      0.00 
    9    7    0     -0.88      0.00 
   10    7    0     -0.82      0.00 
   11    7    0      0.74      0.00 
   12    7    0     -0.15      0.00 
    0    8    0     36.07      0.00 
    1    8    0    -14.63      0.00 
    2    8    0     -7.52      0.00 
    3    8    0      6.25      0.00 
    4    8    0     -1.42      0.00 
    5    8    0     -3.75      0.00 
    6    8    0      6.54      0.00 
    7    8    0     -2.96      0.00 
    8    8    0     -0.80      0.00 
    9    8    0      0.61      0.00 
   10    8    0     -1.22      0.00 
   11    8    0      2.03      0.00 
   12    8    0     -2.95      0.00 
    1    9    0    -27.46      0.00 
    2    9    0     21.38      0.00 
    3    9    0     -3.75      0.00 
    4    9    0     -4.53      0.00 
    5    9    0      1.97      0.00 
    6    9    0      2.16      0.00 
    7    9    0     -1.30      0.00 
    8    9    0     -2.99      0.00 
    9    9    0      2.74      0.00 
   10    9    0     -0.13      0.00 
   11    9    0     -0.64      0.00 
   12    9    0      0.60      0.00 
    0   10    0    -13.91      0.00 
    1   10    0      4.61      0.00 
    2   10    0      6.68      0.00 
    3   10    0     -7.66      0.00 
    4   10    0      2.24      0.00 
    5   10    0      2.97      0.00 
    6   10    0     -1.61      0.00 
    7   10    0     -1.54      0.00 
    8   10    0     -0.74      0.00 
    9   10    0      2.89      0.00 
   10   10    0      0.87      0.00 
   11   10    0     -2.97      0.00 
   12   10    0      1.74      0.00 
    1   11    0      8.35      0.00 
    2   11    0     -6.67      0.00 
    3   11    0      1.35      0.00 
    4   11    0      1.90      0.00 
    5   11    0     -0.43      0.00 
    6   11    0     -2.46      0.00 
    7   11    0      1.48      0.00 
    8   11    0      1.39      0.00 
    9   11    0     -0.40      0.00 
   10   11    0     -0.44      0.00 
   11   11    0      0.64      0.00 
   12   11    0     -3.28      0.00 
    0   12    0      2.11      0.00 
    1   12    0      3.32      0.00 
    2   12    0    -10.78      0.00 
    3   12    0     10.22      0.00 
    4   12    0     -2.73      0.00 
    5   12    0     -3.38      0.00 
    6   12    0      2.89      0.00 
    7   12    0     -0.05      0.00 
    8   12    0     -0.03      0.00 
    9   12    0      0.21      0.00 
   10   12    0     -3.19      0.00 
   11   12    0      3.02      0.00 
    1   13    0     -6.74      0.00 
    2   13    0      3.31      0.00 
    3   13    0      1.63      0.00 
    4   13    0     -2.07      0.00 
    5   13    0      0.68      0.00 
    6   13    0     -0.38      0.00 
    7   13    0      0.51      0.00 
    8   13    0      0.79      0.00 
    9   13    0     -2.03      0.00 
   10   13    0      1.13      0.00 
   11   13    0     -0.30      0.00 
    0   14    0     -4.98      0.00 
    1   14    0     -2.37      0.00 
    2   14    0     11.71      0.00 
    3   14    0     -9.73      0.00 
    4   14    0      2.80      0.00 
    5   14    0      0.68      0.00 
    6   14    0     -1.63      0.00 
    7   14    0      2.77      0.00 
    8   14    0     -1.39      0.00 
    9   14    0     -2.19      0.00 
   10   14    0      3.31      0.00 
   11   14    0     -1.34      0.00 
    1   15    0     11.90      0.00 
    2   15    0     -9.73      0.00 
    3   15    0      0.08      0.00 
    4   15    0      5.85      0.00 
    5   15    0     -4.63      0.00 
    6   15    0      1.34      0.00 
    7   15    0      0.54      0.00 
    8   15    0     -2.45      0.00 
    9   15    0      1.25      0.00 
   10   15    0      0.17      0.00 
   11   15    0      1.49      0.00 
    0   16    0     -0.66      0.00 
    1   16    0      3.85      0.00 
    2   16    0     -7.87      0.00 
    3   16    0      7.35      0.00 
    4   16    0     -4.23      0.00 
    5   16    0      2.53      0.00 
    6   16    0     -4.20      0.00 
    7   16    0      3.50      0.00 
    8   16    0     -1.50      0.00 
    9   16    0      0.99      0.00 
   10   16    0      0.40      0.00 
   11   16    0     -0.19      0.00 
    1   17    0     -3.90      0.00 
    2   17    0      5.40      0.00 
    3   17    0     -4.13      0.00 
    4   17    0     -0.26      0.00 
    5   17    0      1.56      0.00 
    6   17    0      0.58      0.00 
    7   17    0     -0.20      0.00 
    8   17    0     -0.20      0.00 
    9   17    0      1.22      0.00 
   10   17    0     -1.46      0.00 
    0   18    0     -0.17      0.00 
    1   18    0     -1.55      0.00 
    2   18    0      4.21      0.00 
    3   18    0     -5.42      0.00 
    4   18    0      3.01      0.00 
    5   18    0      1.22      0.00 
    6   18    0      1.21      0.00 
    7   18    0     -3.94      0.00 
    8   18    0      2.48      0.00 
    9   18    0     -0.84      0.00 
   10   18    0     -0.56      0.00 
    1   19    0      0.33      0.00 
    2   19    0      1.76      0.00 
    3   19    0     -2.43      0.00 
    4   19    0      1.92      0.00 
    5   19    0     -0.29      0.00 
    6   19    0     -0.40      0.00 
    7   19    0     -2.56      0.00 
    8   19    0      2.17      0.00 
    9   19    0      0.84      0.00 
   10   19    0     -3.18      0.00 
    0   20    0     -2.64      0.00 
    1   20    0      4.60      0.00 
    2   20    0     -5.24      0.00 
    3   20    0      2.37      0.00 
    4   20    0     -0.31      0.00 
    5   20    0     -0.77      0.00 
    6   20    0     -1.28      0.00 
    7   20    0      1.17      0.00 
    8   20    0      1.21      0.00 
    9   20    0     -0.57      0.00 
   10   20    0      0.04      0.00 
    1   21    0     -1.24      0.00 
    2   21    0     -1.29      0.00 
    3   21    0      3.50      0.00 
    4   21    0     -3.03      0.00 
    5   21    0      1.16      0.00 
    6   21    0     -0.14      0.00 
    7   21    0      1.41      0.00 
    8   21    0     -0.87      0.00 
    9   21    0      0.99      0.00 
   10   21    0     -0.10      0.00 
    0   22    0     -5.82      0.00 
    1   22    0      2.43      0.00 
    2   22    0      2.15      0.00 
    3   22    0     -2.47      0.00 
    4   22    0      1.97      0.00 
    5   22    0     -1.02      0.00 
    6   22    0      0.67      0.00 
    7   22    0     -0.01      0.00 
    8   22    0     -1.08      0.00 
    9   22    0      1.70      0.00 
    1   23    0      2.28      0.00 
    2   23    0     -0.35      0.00 
    3   23    0     -3.26      0.00 
    4   23    0      4.21      0.00 
    5   23    0     -2.06      0.00 
    6   23    0     -0.80      0.00 
    7   23    0      0.32      0.00 
    8   23    0      0.93      0.00 
    9   23    0     -3.17      0.00 
    0   24    0      0.81      0.00 
    1   24    0      0.22      0.00 
    2   24    0     -2.45      0.00 
    3   24    0      2.31      0.00 
    4   24    0     -0.96      0.00 
    5   24    0     -0.34      0.00 
    6   24    0      0.77      0.00 
    7   24    0      0.36      0.00 
    8   24    0     -1.81      0.00 
    9   24    0      1.08      0.00 
    1   25    0      2.43      0.00 
    2   25    0     -3.88      0.00 
    3   25    0      3.61      0.00 
    4   25    0     -1.60      0.00 
    5   25    0     -0.14      0.00 
    6   25    0      1.71      0.00 
    7   25    0     -1.33      0.00 
    8   25    0      1.24      0.00 
    9   25    0     -0.42      0.00 
    0   26    0      0.53      0.00 
    1   26    0      0.38      0.00 
    2   26    0     -0.75      0.00 
    3   26    0      1.11      0.00 
    4   26    0     -0.80      0.00 
    5   26    0     -0.67      0.00 
    6   26    0      1.49      0.00 
    7   26    0     -0.82      0.00 
    8   26    0      0.07      0.00 
    9   26    0     -0.58      0.00 
    1   27    0      1.39      0.00 
    2   27    0     -0.75      0.00 
    3   27    0     -1.29      0.00 
    4   27    0      1.10      0.00 
    5   27    0     -0.93      0.00 
    6   27    0      0.88      0.00 
    7   27    0     -0.03      0.00 
    8   27    0     -1.53      0.00 
    0   28    0      0.84      0.00 
    1   28    0      0.05      0.00 
    2   28    0     -1.63      0.00 
    3   28    0      0.26      0.00 
    4   28    0      2.06      0.00 
    5   28    0     -2.15      0.00 
    6   28    0      1.23      0.00 
    7   28    0     -1.75      0.00 
    1   29    0     -2.07      0.00 
    2   29    0      0.06      0.00 
    3   29    0      3.49      0.00 
    4   29    0     -2.22      0.00 
    5   29    0     -0.01      0.00 
    6   29    0     -0.12      0.00 
    7   29    0      0.19      0.00 
    0   30    0      2.34      0.00 
    1   30    0     -1.96      0.00 
    2   30    0      1.24      0.00 
    3   30    0      0.19      0.00 
    4   30    0     -1.29      0.00 
    5   30    0      0.99      0.00 
    6   30    0      0.34      0.00 
    1   31    0     -0.13      0.00 
    2   31    0      0.19      0.00 
    3   31    0     -0.25      0.00 
    4   31    0     -0.40      0.00 
    5   31    0      1.29      0.00 
    6   31    0     -1.24      0.00 
    0   32    0      1.32      0.00 
    1   32    0     -1.53      0.00 
    2   32    0      1.03      0.00 
    3   32    0      0.45      0.00 
    4   32    0     -1.06      0.00 
    5   32    0      0.25      0.00 
    6   32    0      0.05      0.00 
    1   33    0     -1.93      0.00 
    2   33    0      1.93      0.00 
    3   33    0     -0.97      0.00 
    4   33    0      0.63      0.00 
    5   33    0     -2.63      0.00 
    0   34    0     -0.08      0.00 
    1   34    0     -0.48      0.00 
    2   34    0      0.79      0.00 
    3   34    0     -0.28      0.00 
    4   34    0      0.29      0.00 
    5   34    0     -1.26      0.00 
    1   35    0      0.28      0.00 
    2   35    0      0.34      0.00 
    1    1    1     25.32      0.00 
    2    1    1    -12.67      0.00 
    3    1    1     -6.45      0.00 
    4    1    1      1.22      0.00 
    5    1    1      3.63      0.00 
    6    1    1      1.54      0.00 
    7    1    1     -2.11      0.00 
    8    1    1     -0.60      0.00 
    9    1    1      0.44      0.00 
   10    1    1      0.84      0.00 
   11    1    1     -0.84      0.00 
   12    1    1      0.64      0.00 
    0    2    1     93.16      0.00 
    1    2    1    -55.38      0.00 
    2    2    1     -7.27      0.00 
    3    2    1     20.20      0.00 
    4    2    1     -4.54      0.00 
    5    2    1      2.71      0.00 
    6    2    1     -0.01      0.00 
    7    2    1     -3.95      0.00 
    8    2    1      0.20      0.00 
    9    2    1      1.01      0.00 
   10    2    1      1.74      0.00 
   11    2    1     -0.47      0.00 
   12    2    1     -2.55      0.00 
    1    3    1    -13.34      0.00 
    2    3    1     -7.97      0.00 
    3    3    1     28.18      0.00 
    4    3    1     -9.96      0.00 
    5    3    1     -5.65      0.00 
    6    3    1      2.46      0.00 
    7    3    1     -0.06      0.00 
    8    3    1     -2.13      0.00 
    9    3    1      5.72      0.00 
   10    3    1     -5.72      0.00 
   11    3    1      1.78      0.00 
   12    3    1      0.50      0.00 
    0    4    1     37.19      0.00 
    1    4    1    -27.23      0.00 
    2    4    1      9.02      0.00 
    3    4    1     11.21      0.00 
    4    4    1    -13.39      0.00 
    5    4    1     -2.02      0.00 
    6    4    1      3.10      0.00 
    7    4    1      2.54      0.00 
    8    4    1     -2.28      0.00 
    9    4    1      0.37      0.00 
   10    4    1      0.20      0.00 
   11    4    1     -0.07      0.00 
   12    4    1      0.88      0.00 
    1    5    1     -0.89      0.00 
    2    5    1      0.36      0.00 
    3    5    1     -6.09      0.00 
    4    5    1      1.31      0.00 
    5    5    1      2.37      0.00 
    6    5    1     -1.96      0.00 
    7    5    1      2.47      0.00 
    8    5    1      0.59      0.00 
    9    5    1     -2.93      0.00 
   10    5    1      2.62      0.00 
   11    5    1     -0.86      0.00 
   12    5    1     -0.52      0.00 
    0    6    1    -50.71      0.00 
    1    6    1     37.61      0.00 
    2    6    1    -17.91      0.00 
    3    6    1      1.10      0.00 
    4    6    1      3.61      0.00 
    5    6    1      2.14      0.00 
    6    6    1     -2.57      0.00 
    7    6    1      3.17      0.00 
    8    6    1     -0.72      0.00 
    9    6    1     -2.14      0.00 
   10    6    1      0.10      0.00 
   11    6    1      1.48      0.00 
   12    6    1     -0.98      0.00 
    1    7    1      3.60      0.00 
    2    7    1     -0.18      0.00 
    3    7    1     -1.02      0.00 
    4    7    1      6.82      0.00 
    5    7    1     -2.88      0.00 
    6    7    1     -3.10      0.00 
    7    7    1      1.70      0.00 
    8    7    1     -0.44      0.00 
    9    7    1     -0.60      0.00 
   10    7    1      0.22      0.00 
   11    7    1      0.92      0.00 
   12    7    1      0.40      0.00 
    0    8    1     27.28      0.00 
    1    8    1    -24.29      0.00 
    2    8    1     18.76      0.00 
    3    8    1     -4.38      0.00 
    4    8    1     -3.46      0.00 
    5    8    1      0.97      0.00 
    6    8    1     -1.85      0.00 
    7    8    1     -1.45      0.00 
    8    8    1      3.78      0.00 
    9    8    1     -1.23      0.00 
   10    8    1     -1.42      0.00 
   11    8    1      1.76      0.00 
   12    8    1     -0.52      0.00 
    1    9    1      0.18      0.00 
    2    9    1      3.78      0.00 
    3    9    1     -4.38      0.00 
    4    9    1     -6.03      0.00 
    5    9    1      5.28      0.00 
    6    9    1     -0.49      0.00 
    7    9    1     -0.37      0.00 
    8    9    1      1.16      0.00 
    9    9    1     -0.13      0.00 
   10    9    1     -1.02      0.00 
   11    9    1      0.65      0.00 
   12    9    1      0.30      0.00 
    0   10    1    -14.51      0.00 
    1   10    1     11.99      0.00 
    2   10    1     -7.86      0.00 
    3   10    1     -0.56      0.00 
    4   10    1      1.01      0.00 
    5   10    1      3.94      0.00 
    6   10    1     -1.97      0.00 
    7   10    1      0.64      0.00 
    8   10    1     -0.40      0.00 
    9   10    1      0.96      0.00 
   10   10    1     -0.53      0.00 
   11   10    1     -0.74      0.00 
   12   10    1      0.96      0.00 
    1   11    1     -3.12      0.00 
    2   11    1      1.93      0.00 
    3   11    1     -0.10      0.00 
    4   11    1      2.21      0.00 
    5   11    1     -0.94      0.00 
    6   11    1      2.06      0.00 
    7   11    1      0.14      0.00 
    8   11    1     -3.14      0.00 
    9   11    1      1.13      0.00 
   10   11    1      1.68      0.00 
   11   11    1     -2.89      0.00 
   12   11    1      1.48      0.00 
    0   12    1     13.37      0.00 
    1   12    1    -10.05      0.00 
    2   12    1      4.04      0.00 
    3   12    1      2.02      0.00 
    4   12    1     -0.40      0.00 
    5   12    1     -3.04      0.00 
    6   12    1      5.04      0.00 
    7   12    1     -5.77      0.00 
    8   12    1     -0.18      0.00 
    9   12    1      2.67      0.00 
   10   12    1     -1.47      0.00 
   11   12    1      2.69      0.00 
    1   13    1    -12.22      0.00 
    2   13    1     13.24      0.00 
    3   13    1     -3.16      0.00 
    4   13    1     -4.96      0.00 
    5   13    1      4.02      0.00 
    6   13    1     -3.70      0.00 
    7   13    1     -1.07      0.00 
    8   13    1      2.88      0.00 
    9   13    1      0.91      0.00 
   10   13    1     -1.74      0.00 
   11   13    1      1.06      0.00 
    0   14    1     -7.04      0.00 
    1   14    1      7.19      0.00 
    2   14    1     -4.78      0.00 
    3   14    1      0.68      0.00 
    4   14    1     -2.70      0.00 
    5   14    1      1.97      0.00 
    6   14    1     -0.73      0.00 
    7   14    1      1.65      0.00 
    8   14    1      1.24      0.00 
    9   14    1     -0.03      0.00 
   10   14    1     -1.08      0.00 
   11   14    1     -1.59      0.00 
    1   15    1      5.13      0.00 
    2   15    1    -10.88      0.00 
    3   15    1      7.37      0.00 
    4   15    1     -0.02      0.00 
    5   15    1     -0.74      0.00 
    6   15    1      0.30      0.00 
    7   15    1      3.55      0.00 
    8   15    1     -1.49      0.00 
    9   15    1     -4.20      0.00 
   10   15    1      2.98      0.00 
   11   15    1     -0.11      0.00 
    0   16    1      2.35      0.00 
    1   16    1     -3.71      0.00 
    2   16    1      2.45      0.00 
    3   16    1      1.23      0.00 
    4   16    1      1.56      0.00 
    5   16    1     -2.47      0.00 
    6   16    1      1.56      0.00 
    7   16    1      0.15      0.00 
    8   16    1     -3.43      0.00 
    9   16    1      0.37      0.00 
   10   16    1     -0.50      0.00 
   11   16    1      3.48      0.00 
    1   17    1     -1.47      0.00 
    2   17    1      5.02      0.00 
    3   17    1     -4.11      0.00 
    4   17    1      1.64      0.00 
    5   17    1     -1.83      0.00 
    6   17    1     -0.24      0.00 
    7   17    1     -0.84      0.00 
    8   17    1     -0.41      0.00 
    9   17    1      1.82      0.00 
   10   17    1      1.62      0.00 
    0   18    1     -0.67      0.00 
    1   18    1     -0.52      0.00 
    2   18    1      2.92      0.00 
    3   18    1     -2.12      0.00 
    4   18    1     -3.31      0.00 
    5   18    1      3.72      0.00 
    6   18    1     -3.75      0.00 
    7   18    1      4.15      0.00 
    8   18    1      0.22      0.00 
    9   18    1     -0.46      0.00 
   10   18    1      1.13      0.00 
    1   19    1      4.05      0.00 
    2   19    1     -2.80      0.00 
    3   19    1     -1.54      0.00 
    4   19    1      2.15      0.00 
    5   19    1     -0.49      0.00 
    6   19    1      1.90      0.00 
    7   19    1      0.66      0.00 
    8   19    1     -1.08      0.00 
    9   19    1     -1.10      0.00 
   10   19    1     -0.41      0.00 
    0   20    1      3.13      0.00 
    1   20    1     -0.58      0.00 
    2   20    1     -3.58      0.00 
    3   20    1      4.20      0.00 
    4   20    1     -0.94      0.00 
    5   20    1      1.07      0.00 
    6   20    1     -0.08      0.00 
    7   20    1     -2.73      0.00 
    8   20    1     -0.19      0.00 
    9   20    1      0.96      0.00 
   10   20    1      0.00      0.00 
    1   21    1     -5.54      0.00 
    2   21    1      5.64      0.00 
    3   21    1     -1.50      0.00 
    4   21    1     -1.26      0.00 
    5   21    1      1.38      0.00 
    6   21    1     -1.64      0.00 
    7   21    1     -1.77      0.00 
    8   21    1      0.95      0.00 
    9   21    1      4.23      0.00 
   10   21    1     -3.51      0.00 
    0   22    1     -4.96      0.00 
    1   22    1      1.77      0.00 
    2   22    1      3.44      0.00 
    3   22    1     -5.51      0.00 
    4   22    1      2.59      0.00 
    5   22    1      0.18      0.00 
    6   22    1     -1.07      0.00 
    7   22    1      0.81      0.00 
    8   22    1      2.40      0.00 
    9   22    1     -2.59      0.00 
    1   23    1      0.38      0.00 
    2   23    1      0.13      0.00 
    3   23    1     -1.85      0.00 
    4   23    1      2.52      0.00 
    5   23    1     -0.91      0.00 
    6   23    1      0.61      0.00 
    7   23    1      0.48      0.00 
    8   23    1     -0.02      0.00 
    9   23    1     -2.50      0.00 
    0   24    1      0.28      0.00 
    1   24    1      0.61      0.00 
    2   24    1     -1.27      0.00 
    3   24    1      1.12      0.00 
    4   24    1     -0.88      0.00 
    5   24    1      1.58      0.00 
    6   24    1     -2.27      0.00 
    7   24    1      1.77      0.00 
    8   24    1     -2.44      0.00 
    9   24    1      3.07      0.00 
    1   25    1     -0.88      0.00 
    2   25    1      1.28      0.00 
    3   25    1     -0.60      0.00 
    4   25    1     -0.64      0.00 
    5   25    1      0.68      0.00 
    6   25    1     -1.18      0.00 
    7   25    1      1.43      0.00 
    8   25    1     -0.10      0.00 
    9   25    1     -0.66      0.00 
    0   26    1     -3.87      0.00 
    1   26    1      1.88      0.00 
    2   26    1      1.44      0.00 
    3   26    1     -1.98      0.00 
    4   26    1      0.72      0.00 
    5   26    1     -0.82      0.00 
    6   26    1      1.03      0.00 
    7   26    1     -0.30      0.00 
    8   26    1      0.13      0.00 
    9   26    1      0.05      0.00 
    1   27    1      3.45      0.00 
    2   27    1     -2.09      0.00 
    3   27    1     -1.87      0.00 
    4   27    1      3.74      0.00 
    5   27    1     -2.55      0.00 
    6   27    1      1.03      0.00 
    7   27    1     -1.70      0.00 
    8   27    1      2.14      0.00 
    0   28    1      0.94      0.00 
    1   28    1      0.19      0.00 
    2   28    1     -2.29      0.00 
    3   28    1      1.83      0.00 
    4   28    1      0.01      0.00 
    5   28    1     -0.20      0.00 
    6   28    1     -1.08      0.00 
    7   28    1      2.53      0.00 
    1   29    1      0.88      0.00 
    2   29    1     -0.70      0.00 
    3   29    1      0.55      0.00 
    4   29    1     -0.75      0.00 
    5   29    1      1.14      0.00 
    6   29    1      0.03      0.00 
    7   29    1     -0.05      0.00 
    0   30    1     -0.91      0.00 
    1   30    1      0.94      0.00 
    2   30    1      0.11      0.00 
    3   30    1     -1.66      0.00 
    4   30    1      2.22      0.00 
    5   30    1     -1.11      0.00 
    6   30    1      1.61      0.00 
    1   31    1      0.79      0.00 
    2   31    1     -1.01      0.00 
    3   31    1     -0.07      0.00 
    4   31    1      0.96      0.00 
    5   31    1     -1.06      0.00 
    6   31    1     -1.24      0.00 
    0   32    1      2.37      0.00 
    1   32    1     -2.12      0.00 
    2   32    1      1.21      0.00 
    3   32    1     -0.16      0.00 
    4   32    1     -0.96      0.00 
    5   32    1      0.43      0.00 
    6   32    1     -0.10      0.00 
    1   33    1     -1.23      0.00 
    2   33    1     -0.98      0.00 
    3   33    1      3.14      0.00 
    4   33    1     -2.29      0.00 
    5   33    1      1.07      0.00 
    6   33    1      0.07      0.00 
    0   34    1      0.26      0.00 
    1   34    1     -0.77      0.00 
    2   34    1      1.16      0.00 
    3   34    1     -0.54      0.00 
    4   34    1      0.75      0.00 
    5   34    1     -0.53      0.00 
    1   35    1     -1.25      0.00 
    2   35    1      3.19      0.00 
    1    0    2    132.50      0.00 
    2    0    2     -3.37      0.00 
    3    0    2    -20.11      0.00 
    4    0    2      6.84      0.00 
    5    0    2     -0.16      0.00 
    6    0    2     -0.34      0.00 
    7    0    2      1.94      0.00 
    8    0    2      0.62      0.00 
    9    0    2     -1.68      0.00 
   10    0    2     -1.98      0.00 
   11    0    2      0.73      0.00 
   12    0    2      3.56      0.00 
    1    1    2     52.61      0.00 
    2    1    2    -10.34      0.00 
    3    1    2    -20.34      0.00 
    4    1    2      9.98      0.00 
    5    1    2      1.39      0.00 
    6    1    2     -0.21      0.00 
    7    1    2     -0.33      0.00 
    8    1    2     -1.89      0.00 
    9    1    2     -1.79      0.00 
   10    1    2      2.73      0.00 
   11    1    2      0.46      0.00 
   12    1    2      0.33      0.00 
    0    2    2     84.12      0.00 
    1    2    2    -39.76      0.00 
    2    2    2      0.54      0.00 
    3    2    2     -7.64      0.00 
    4    2    2      8.60      0.00 
    5    2    2     -3.24      0.00 
    6    2    2     -0.52      0.00 
    7    2    2     -0.74      0.00 
    8    2    2      0.39      0.00 
    9    2    2      0.68      0.00 
   10    2    2      0.97      0.00 
   11    2    2     -1.04      0.00 
   12    2    2     -1.03      0.00 
    1    3    2    -22.82      0.00 
    2    3    2      1.19      0.00 
    3    3    2      6.17      0.00 
    4    3    2     -5.46      0.00 
    5    3    2      3.49      0.00 
    6    3    2      3.34      0.00 
    7    3    2     -4.05      0.00 
    8    3    2      0.25      0.00 
    9    3    2      1.74      0.00 
   10    3    2     -0.80      0.00 
   11    3    2     -1.16      0.00 
   12    3    2      0.89      0.00 
    0    4    2    -17.85      0.00 
    1    4    2      2.41      0.00 
    2    4    2      3.01      0.00 
    3    4    2      3.32      0.00 
    4    4    2     -1.47      0.00 
    5    4    2      2.83      0.00 
    6    4    2     -0.20      0.00 
    7    4    2     -2.58      0.00 
    8    4    2      0.63      0.00 
    9    4    2      1.46      0.00 
   10    4    2      0.25      0.00 
   11    4    2     -1.78      0.00 
   12    4    2      1.17      0.00 
    1    5    2     30.54      0.00 
    2    5    2    -22.25      0.00 
    3    5    2     14.60      0.00 
    4    5    2     -4.24      0.00 
    5    5    2     -4.64      0.00 
    6    5    2      2.62      0.00 
    7    5    2     -0.42      0.00 
    8    5    2     -0.13      0.00 
    9    5    2      2.66      0.00 
   10    5    2     -2.67      0.00 
   11    5    2      0.34      0.00 
   12    5    2      0.55      0.00 
    0    6    2     48.00      0.00 
    1    6    2    -18.99      0.00 
    2    6    2    -13.61      0.00 
    3    6    2     15.43      0.00 
    4    6    2     -5.14      0.00 
    5    6    2     -6.53      0.00 
    6    6    2      6.67      0.00 
    7    6    2      1.21      0.00 
    8    6    2     -3.72      0.00 
    9    6    2     -0.27      0.00 
   10    6    2      1.33      0.00 
   11    6    2     -0.18      0.00 
   12    6    2     -0.99      0.00 
    1    7    2    -22.78      0.00 
    2    7    2     10.42      0.00 
    3    7    2      0.14      0.00 
    4    7    2     -0.13      0.00 
    5    7    2     -0.73      0.00 
    6    7    2      0.37      0.00 
    7    7    2      0.41      0.00 
    8    7    2     -1.47      0.00 
    9    7    2      0.42      0.00 
   10    7    2      0.70      0.00 
   11    7    2     -0.32      0.00 
   12    7    2      0.16      0.00 
    0    8    2    -31.59      0.00 
    1    8    2     13.19      0.00 
    2    8    2      5.63      0.00 
    3    8    2     -4.86      0.00 
    4    8    2      1.29      0.00 
    5    8    2      3.14      0.00 
    6    8    2     -5.65      0.00 
    7    8    2      2.69      0.00 
    8    8    2      0.40      0.00 
    9    8    2     -0.49      0.00 
   10    8    2      1.20      0.00 
   11    8    2     -1.39      0.00 
   12    8    2      2.21      0.00 
    1    9    2     25.24      0.00 
    2    9    2    -20.25      0.00 
    3    9    2      4.35      0.00 
    4    9    2      3.56      0.00 
    5    9    2     -1.70      0.00 
    6    9    2     -1.52      0.00 
    7    9    2      0.62      0.00 
    8    9    2      2.86      0.00 
    9    9    2     -2.41      0.00 
   10    9    2      0.45      0.00 
   11    9    2      0.33      0.00 
   12    9    2     -0.89      0.00 
    0   10    2     12.52      0.00 
    1   10    2     -4.08      0.00 
    2   10    2     -6.09      0.00 
    3   10    2      6.93      0.00 
    4   10    2     -2.12      0.00 
    5   10    2     -2.44      0.00 
    6   10    2      1.25      0.00 
    7   10    2      1.31      0.00 
    8   10    2      0.87      0.00 
    9   10    2     -2.53      0.00 
   10   10    2     -0.72      0.00 
   11   10    2      2.03      0.00 
   12   10    2     -1.18      0.00 
    1   11    2     -8.10      0.00 
    2   11    2      6.78      0.00 
    3   11    2     -1.89      0.00 
    4   11    2     -1.32      0.00 
    5   11    2      0.39      0.00 
    6   11    2      1.90      0.00 
    7   11    2     -1.08      0.00 
    8   11    2     -1.23      0.00 
    9   11    2      0.43      0.00 
   10   11    2     -0.05      0.00 
   11   11    2     -0.64      0.00 
   12   11    2      3.80      0.00 
    0   12    2     -1.86      0.00 
    1   12    2     -3.06      0.00 
    2   12    2      9.96      0.00 
    3   12    2     -9.67      0.00 
    4   12    2      2.76      0.00 
    5   12    2      3.02      0.00 
    6   12    2     -2.53      0.00 
    7   12    2     -0.11      0.00 
    8   12    2      0.10      0.00 
    9   12    2     -0.21      0.00 
   10   12    2      2.68      0.00 
   11   12    2     -2.36      0.00 
   12   12    2      0.71      0.00 
    1   13    2      6.19      0.00 
    2   13    2     -3.38      0.00 
    3   13    2     -0.93      0.00 
    4   13    2      1.64      0.00 
    5   13    2     -0.63      0.00 
    6   13    2      0.43      0.00 
    7   13    2     -0.77      0.00 
    8   13    2     -0.34      0.00 
    9   13    2      1.57      0.00 
   10   13    2     -0.91      0.00 
   11   13    2      0.38      0.00 
    0   14    2      4.60      0.00 
    1   14    2      2.04      0.00 
    2   14    2    -10.44      0.00 
    3   14    2      8.74      0.00 
    4   14    2     -2.58      0.00 
    5   14    2     -0.51      0.00 
    6   14    2      1.17      0.00 
    7   14    2     -2.20      0.00 
    8   14    2      1.26      0.00 
    9   14    2      1.90      0.00 
   10   14    2     -3.22      0.00 
   11   14    2      1.58      0.00 
    1   15    2    -11.09      0.00 
    2   15    2      8.97      0.00 
    3   15    2     -0.10      0.00 
    4   15    2     -5.27      0.00 
    5   15    2      4.03      0.00 
    6   15    2     -1.13      0.00 
    7   15    2     -0.23      0.00 
    8   15    2      2.06      0.00 
    9   15    2     -1.43      0.00 
   10   15    2      0.24      0.00 
   11   15    2     -1.26      0.00 
    0   16    2      0.54      0.00 
    1   16    2     -3.79      0.00 
    2   16    2      7.52      0.00 
    3   16    2     -6.55      0.00 
    4   16    2      3.49      0.00 
    5   16    2     -2.24      0.00 
    6   16    2      4.05      0.00 
    7   16    2     -3.07      0.00 
    8   16    2      0.94      0.00 
    9   16    2     -0.87      0.00 
   10   16    2      0.23      0.00 
   11   16    2     -0.33      0.00 
    1   17    2      3.91      0.00 
    2   17    2     -4.92      0.00 
    3   17    2      3.69      0.00 
    4   17    2      0.01      0.00 
    5   17    2     -1.23      0.00 
    6   17    2     -0.27      0.00 
    7   17    2     -0.26      0.00 
    8   17    2      0.22      0.00 
    9   17    2     -0.97      0.00 
   10   17    2      1.43      0.00 
    0   18    2      0.97      0.00 
    1   18    2      1.13      0.00 
    2   18    2     -4.10      0.00 
    3   18    2      5.24      0.00 
    4   18    2     -3.09      0.00 
    5   18    2     -0.71      0.00 
    6   18    2     -1.21      0.00 
    7   18    2      3.13      0.00 
    8   18    2     -1.90      0.00 
    9   18    2      0.77      0.00 
   10   18    2      0.66      0.00 
    1   19    2     -0.72      0.00 
    2   19    2     -1.36      0.00 
    3   19    2      2.02      0.00 
    4   19    2     -1.57      0.00 
    5   19    2      0.53      0.00 
    6   19    2     -0.27      0.00 
    7   19    2      2.61      0.00 
    8   19    2     -1.88      0.00 
    9   19    2     -0.42      0.00 
   10   19    2      2.38      0.00 
    0   20    2      2.31      0.00 
    1   20    2     -4.31      0.00 
    2   20    2      4.86      0.00 
    3   20    2     -2.12      0.00 
    4   20    2      0.60      0.00 
    5   20    2      0.24      0.00 
    6   20    2      1.14      0.00 
    7   20    2     -0.61      0.00 
    8   20    2     -1.13      0.00 
    9   20    2      0.17      0.00 
   10   20    2     -0.10      0.00 
    1   21    2      0.96      0.00 
    2   21    2      1.63      0.00 
    3   21    2     -3.39      0.00 
    4   21    2      2.68      0.00 
    5   21    2     -1.16      0.00 
    6   21    2      0.30      0.00 
    7   21    2     -0.96      0.00 
    8   21    2      0.12      0.00 
    9   21    2     -0.77      0.00 
   10   21    2      0.36      0.00 
    0   22    2      5.18      0.00 
    1   22    2     -1.93      0.00 
    2   22    2     -1.97      0.00 
    3   22    2      1.74      0.00 
    4   22    2     -1.51      0.00 
    5   22    2      1.00      0.00 
    6   22    2     -0.65      0.00 
    7   22    2     -0.02      0.00 
    8   22    2      0.70      0.00 
    9   22    2     -0.94      0.00 
    1   23    2     -2.17      0.00 
    2   23    2      0.10      0.00 
    3   23    2      3.07      0.00 
    4   23    2     -3.61      0.00 
    5   23    2      1.71      0.00 
    6   23    2      0.74      0.00 
    7   23    2     -0.34      0.00 
    8   23    2     -0.50      0.00 
    9   23    2      2.62      0.00 
    0   24    2     -0.95      0.00 
    1   24    2     -0.28      0.00 
    2   24    2      2.48      0.00 
    3   24    2     -2.12      0.00 
    4   24    2      0.98      0.00 
    5   24    2      0.05      0.00 
    6   24    2     -0.58      0.00 
    7   24    2     -0.25      0.00 
    8   24    2      1.63      0.00 
    9   24    2     -1.15      0.00 
    1   25    2     -2.00      0.00 
    2   25    2      3.52      0.00 
    3   25    2     -3.26      0.00 
    4   25    2      1.36      0.00 
    5   25    2      0.02      0.00 
    6   25    2     -1.38      0.00 
    7   25    2      1.14      0.00 
    8   25    2     -1.33      0.00 
    9   25    2      0.54      0.00 
    0   26    2     -0.26      0.00 
    1   26    2     -0.36      0.00 
    2   26    2      0.51      0.00 
    3   26    2     -0.82      0.00 
    4   26    2      0.45      0.00 
    5   26    2      0.75      0.00 
    6   26    2     -1.19      0.00 
    7   26    2      0.41      0.00 
    8   26    2      0.14      0.00 
    9   26    2      0.58      0.00 
    1   27    2     -1.37      0.00 
    2   27    2      0.64      0.00 
    3   27    2      1.12      0.00 
    4   27    2     -0.93      0.00 
    5   27    2      0.97      0.00 
    6   27    2     -0.78      0.00 
    7   27    2     -0.34      0.00 
    8   27    2      1.92      0.00 
    0   28    2     -0.92      0.00 
    1   28    2     -0.10      0.00 
    2   28    2      1.54      0.00 
    3   28    2     -0.16      0.00 
    4   28    2     -1.74      0.00 
    5   28    2      1.89      0.00 
    6   28    2     -1.34      0.00 
    7   28    2      1.93      0.00 
    1   29    2      2.21      0.00 
    2   29    2     -0.03      0.00 
    3   29    2     -3.19      0.00 
    4   29    2      1.82      0.00 
    5   29    2      0.01      0.00 
    6   29    2      0.22      0.00 
    7   29    2     -0.13      0.00 
    0   30    2     -1.76      0.00 
    1   30    2      1.74      0.00 
    2   30    2     -1.10      0.00 
    3   30    2     -0.49      0.00 
    4   30    2      1.17      0.00 
    5   30    2     -0.68      0.00 
    6   30    2     -0.37      0.00 
    1   31    2     -0.30      0.00 
    2   31    2     -0.12      0.00 
    3   31    2      0.31      0.00 
    4   31    2      0.20      0.00 
    5   31    2     -0.65      0.00 
    6   31    2      0.61      0.00 
    0   32    2     -1.40      0.00 
    1   32    2      1.40      0.00 
    2   32    2     -1.01      0.00 
    3   32    2     -0.27      0.00 
    4   32    2      1.08      0.00 
    5   32    2     -0.13      0.00 
    6   32    2     -0.59      0.00 
    1   33    2      1.66      0.00 
    2   33    2     -1.52      0.00 
    3   33    2      0.90      0.00 
    4   33    2     -0.46      0.00 
    5   33    2      1.92      0.00 
    6   33    2     -3.52      0.00 
    0   34    2      0.29      0.00 
    1   34    2      0.24      0.00 
    2   34    2     -0.29      0.00 
    3   34    2     -0.05      0.00 
    4   34    2     -0.53      0.00 
    5   34    2      1.32      0.00 
    1   35    2     -0.23      0.00 
    2   35    2     -0.39      0.00 
    3   35    2      0.32      0.00 
    1    1    3    -18.39      0.00 
    2    1    3      9.68      0.00 
    3    1    3      3.33      0.00 
    4    1    3      0.65      0.00 
    5    1    3     -2.83      0.00 
    6    1    3     -1.83      0.00 
    7    1    3      1.96      0.00 
    8    1    3      0.72      0.00 
    9    1    3     -0.78      0.00 
   10    1    3     -0.68      0.00 
   11    1    3      0.70      0.00 
   12    1    3     -0.36      0.00 
    0    2    3    -71.38      0.00 
    1    2    3     43.87      0.00 
    2    2    3      3.35      0.00 
    3    2    3    -14.75      0.00 
    4    2    3      3.80      0.00 
    5    2    3     -1.85      0.00 
    6    2    3     -0.90      0.00 
    7    2    3      3.32      0.00 
    8    2    3      0.31      0.00 
    9    2    3     -1.18      0.00 
   10    2    3     -1.65      0.00 
   11    2    3      0.79      0.00 
   12    2    3      2.21      0.00 
    1    3    3      7.86      0.00 
    2    3    3      8.04      0.00 
    3    3    3    -21.36      0.00 
    4    3    3      6.42      0.00 
    5    3    3      4.33      0.00 
    6    3    3     -1.65      0.00 
    7    3    3      0.06      0.00 
    8    3    3      1.91      0.00 
    9    3    3     -4.91      0.00 
   10    3    3      5.01      0.00 
   11    3    3     -1.31      0.00 
   12    3    3     -0.77      0.00 
    0    4    3    -36.68      0.00 
    1    4    3     25.82      0.00 
    2    4    3     -6.68      0.00 
    3    4    3    -10.68      0.00 
    4    4    3     10.43      0.00 
    5    4    3      2.32      0.00 
    6    4    3     -1.84      0.00 
    7    4    3     -2.62      0.00 
    8    4    3      1.92      0.00 
    9    4    3     -0.20      0.00 
   10    4    3     -0.03      0.00 
   11    4    3     -0.12      0.00 
   12    4    3     -1.14      0.00 
    1    5    3     -1.81      0.00 
    2    5    3      2.65      0.00 
    3    5    3      3.38      0.00 
    4    5    3     -0.89      0.00 
    5    5    3     -1.36      0.00 
    6    5    3      1.86      0.00 
    7    5    3     -2.53      0.00 
    8    5    3     -0.52      0.00 
    9    5    3      2.63      0.00 
   10    5    3     -2.28      0.00 
   11    5    3      0.29      0.00 
   12    5    3      1.04      0.00 
    0    6    3     38.79      0.00 
    1    6    3    -29.49      0.00 
    2    6    3     15.98      0.00 
    3    6    3     -3.22      0.00 
    4    6    3     -1.32      0.00 
    5    6    3     -1.45      0.00 
    6    6    3      1.11      0.00 
    7    6    3     -2.45      0.00 
    8    6    3      0.34      0.00 
    9    6    3      1.71      0.00 
   10    6    3      0.55      0.00 
   11    6    3     -1.94      0.00 
   12    6    3      1.61      0.00 
    1    7    3     -2.26      0.00 
    2    7    3     -0.93      0.00 
    3    7    3      0.80      0.00 
    4    7    3     -4.38      0.00 
    5    7    3      1.55      0.00 
    6    7    3      2.13      0.00 
    7    7    3     -1.37      0.00 
    8    7    3      0.47      0.00 
    9    7    3      0.87      0.00 
   10    7    3     -0.13      0.00 
   11    7    3     -1.01      0.00 
   12    7    3     -0.48      0.00 
    0    8    3    -21.58      0.00 
    1    8    3     18.86      0.00 
    2    8    3    -15.04      0.00 
    3    8    3      4.58      0.00 
    4    8    3      2.28      0.00 
    5    8    3     -2.03      0.00 
    6    8    3      2.41      0.00 
    7    8    3      1.42      0.00 
    8    8    3     -2.78      0.00 
    9    8    3      0.95      0.00 
   10    8    3      0.55      0.00 
   11    8    3     -1.03      0.00 
   12    8    3      0.39      0.00 
    1    9    3      0.97      0.00 
    2    9    3     -3.65      0.00 
    3    9    3      3.90      0.00 
    4    9    3      3.97      0.00 
    5    9    3     -3.65      0.00 
    6    9    3      0.76      0.00 
    7    9    3      0.66      0.00 
    8    9    3     -1.44      0.00 
    9    9    3     -0.27      0.00 
   10    9    3      0.88      0.00 
   11    9    3      0.18      0.00 
   12    9    3     -0.90      0.00 
    0   10    3     12.34      0.00 
    1   10    3     -9.49      0.00 
    2   10    3      5.65      0.00 
    3   10    3      0.37      0.00 
    4   10    3     -0.19      0.00 
    5   10    3     -3.20      0.00 
    6   10    3      1.44      0.00 
    7   10    3     -0.24      0.00 
    8   10    3     -0.42      0.00 
    9   10    3     -0.76      0.00 
   10   10    3      0.88      0.00 
   11   10    3      0.86      0.00 
   12   10    3     -1.71      0.00 
    1   11    3      3.65      0.00 
    2   11    3     -2.90      0.00 
    3   11    3      0.54      0.00 
    4   11    3     -1.01      0.00 
    5   11    3     -0.23      0.00 
    6   11    3     -1.57      0.00 
    7   11    3     -0.17      0.00 
    8   11    3      2.33      0.00 
    9   11    3     -0.61      0.00 
   10   11    3     -1.08      0.00 
   11   11    3      1.93      0.00 
   12   11    3     -1.26      0.00 
    0   12    3    -11.01      0.00 
    1   12    3      8.56      0.00 
    2   12    3     -4.24      0.00 
    3   12    3     -0.60      0.00 
    4   12    3     -0.13      0.00 
    5   12    3      2.06      0.00 
    6   12    3     -3.61      0.00 
    7   12    3      4.18      0.00 
    8   12    3      0.59      0.00 
    9   12    3     -1.94      0.00 
   10   12    3      1.35      0.00 
   11   12    3     -3.36      0.00 
   12   12    3      5.15      0.00 
    1   13    3      9.95      0.00 
    2   13    3    -10.37      0.00 
    3   13    3      2.44      0.00 
    4   13    3      3.16      0.00 
    5   13    3     -2.34      0.00 
    6   13    3      3.06      0.00 
    7   13    3      0.40      0.00 
    8   13    3     -1.66      0.00 
    9   13    3     -0.63      0.00 
   10   13    3      0.73      0.00 
   11   13    3     -0.98      0.00 
    0   14    3      5.92      0.00 
    1   14    3     -5.92      0.00 
    2   14    3      4.42      0.00 
    3   14    3     -2.06      0.00 
    4   14    3      3.43      0.00 
    5   14    3     -1.32      0.00 
    6   14    3      0.04      0.00 
    7   14    3     -1.38      0.00 
    8   14    3     -0.60      0.00 
    9   14    3     -0.10      0.00 
   10   14    3     -0.13      0.00 
   11   14    3      2.29      0.00 
    1   15    3     -4.32      0.00 
    2   15    3      8.57      0.00 
    3   15    3     -6.04      0.00 
    4   15    3      1.04      0.00 
    5   15    3     -0.11      0.00 
    6   15    3     -0.78      0.00 
    7   15    3     -2.23      0.00 
    8   15    3      0.93      0.00 
    9   15    3      3.31      0.00 
   10   15    3     -2.63      0.00 
   11   15    3      0.55      0.00 
    0   16    3     -2.38      0.00 
    1   16    3      3.14      0.00 
    2   16    3     -1.89      0.00 
    3   16    3     -0.84      0.00 
    4   16    3     -1.19      0.00 
    5   16    3      1.21      0.00 
    6   16    3     -0.93      0.00 
    7   16    3      0.28      0.00 
    8   16    3      2.37      0.00 
    9   16    3     -0.16      0.00 
   10   16    3      0.50      0.00 
   11   16    3     -2.37      0.00 
    1   17    3      1.49      0.00 
    2   17    3     -4.93      0.00 
    3   17    3      4.66      0.00 
    4   17    3     -2.36      0.00 
    5   17    3      1.36      0.00 
    6   17    3      1.31      0.00 
    7   17    3     -0.12      0.00 
    8   17    3      0.97      0.00 
    9   17    3     -2.37      0.00 
   10   17    3     -0.34      0.00 
    0   18    3      0.00      0.00 
    1   18    3      0.50      0.00 
    2   18    3     -1.87      0.00 
    3   18    3      1.58      0.00 
    4   18    3      2.07      0.00 
    5   18    3     -2.06      0.00 
    6   18    3      2.72      0.00 
    7   18    3     -3.47      0.00 
    8   18    3     -0.26      0.00 
    9   18    3      0.25      0.00 
   10   18    3     -0.51      0.00 
    1   19    3     -2.83      0.00 
    2   19    3      2.33      0.00 
    3   19    3      0.53      0.00 
    4   19    3     -1.30      0.00 
    5   19    3      0.62      0.00 
    6   19    3     -1.93      0.00 
    7   19    3     -0.50      0.00 
    8   19    3      0.79      0.00 
    9   19    3      0.89      0.00 
   10   19    3      0.36      0.00 
    0   20    3     -0.56      0.00 
    1   20    3     -0.52      0.00 
    2   20    3      2.36      0.00 
    3   20    3     -2.58      0.00 
    4   20    3      0.31      0.00 
    5   20    3     -0.96      0.00 
    6   20    3      0.67      0.00 
    7   20    3      1.55      0.00 
    8   20    3      0.40      0.00 
    9   20    3     -0.90      0.00 
   10   20    3      0.75      0.00 
    1   21    3      3.94      0.00 
    2   21    3     -4.53      0.00 
    3   21    3      1.87      0.00 
    4   21    3      0.27      0.00 
    5   21    3     -0.42      0.00 
    6   21    3      0.94      0.00 
    7   21    3      1.30      0.00 
    8   21    3     -0.52      0.00 
    9   21    3     -2.78      0.00 
   10   21    3      2.06      0.00 
    0   22    3      3.53      0.00 
    1   22    3     -1.36      0.00 
    2   22    3     -2.46      0.00 
    3   22    3      4.43      0.00 
    4   22    3     -2.18      0.00 
    5   22    3      0.03      0.00 
    6   22    3      0.14      0.00 
    7   22    3      0.00      0.00 
    8   22    3     -1.62      0.00 
    9   22    3      1.60      0.00 
    1   23    3      0.00      0.00 
    2   23    3      0.22      0.00 
    3   23    3      0.93      0.00 
    4   23    3     -1.78      0.00 
    5   23    3      0.47      0.00 
    6   23    3     -0.59      0.00 
    7   23    3      0.41      0.00 
    8   23    3     -0.80      0.00 
    9   23    3      1.90      0.00 
    0   24    3     -0.04      0.00 
    1   24    3     -0.30      0.00 
    2   24    3      0.69      0.00 
    3   24    3     -1.21      0.00 
    4   24    3      1.36      0.00 
    5   24    3     -1.93      0.00 
    6   24    3      2.45      0.00 
    7   24    3     -1.58      0.00 
    8   24    3      1.35      0.00 
    9   24    3     -1.78      0.00 
    1   25    3     -0.14      0.00 
    2   25    3     -0.77      0.00 
    3   25    3      0.76      0.00 
    4   25    3      0.39      0.00 
    5   25    3     -0.40      0.00 
    6   25    3      0.77      0.00 
    7   25    3     -1.18      0.00 
    8   25    3      0.06      0.00 
    9   25    3      0.90      0.00 
    0   26    3      2.73      0.00 
    1   26    3     -1.57      0.00 
    2   26    3     -0.77      0.00 
    3   26    3      1.48      0.00 
    4   26    3     -0.76      0.00 
    5   26    3      1.01      0.00 
    6   26    3     -1.16      0.00 
    7   26    3      0.43      0.00 
    8   26    3     -0.13      0.00 
    9   26    3      0.04      0.00 
    1   27    3     -2.14      0.00 
    2   27    3      1.08      0.00 
    3   27    3      1.75      0.00 
    4   27    3     -2.98      0.00 
    5   27    3      1.94      0.00 
    6   27    3     -0.76      0.00 
    7   27    3      1.60      0.00 
    8   27    3     -1.93      0.00 
    0   28    3     -0.32      0.00 
    1   28    3     -0.35      0.00 
    2   28    3      1.73      0.00 
    3   28    3     -1.13      0.00 
    4   28    3     -0.15      0.00 
    5   28    3     -0.34      0.00 
    6   28    3      1.78      0.00 
    7   28    3     -2.92      0.00 
    1   29    3     -1.16      0.00 
    2   29    3      1.04      0.00 
    3   29    3     -0.77      0.00 
    4   29    3      0.82      0.00 
    5   29    3     -1.41      0.00 
    6   29    3      0.65      0.00 
    7   29    3     -0.66      0.00 
    0   30    3      0.09      0.00 
    1   30    3     -0.39      0.00 
    2   30    3     -0.29      0.00 
    3   30    3      1.53      0.00 
    4   30    3     -1.88      0.00 
    5   30    3      0.84      0.00 
    6   30    3     -1.45      0.00 
    1   31    3     -0.02      0.00 
    2   31    3      0.48      0.00 
    3   31    3      0.36      0.00 
    4   31    3     -1.47      0.00 
    5   31    3      1.74      0.00 
    6   31    3      0.63      0.00 
    0   32    3     -1.14      0.00 
    1   32    3      1.59      0.00 
    2   32    3     -1.40      0.00 
    3   32    3      0.08      0.00 
    4   32    3      1.18      0.00 
    5   32    3     -0.31      0.00 
    6   32    3     -0.26      0.00 
    1   33    3      0.77      0.00 
    2   33    3      0.75      0.00 
    3   33    3     -2.35      0.00 
    4   33    3      1.68      0.00 
    5   33    3     -0.64      0.00 
    0   34    3      0.18      0.00 
    1   34    3      0.19      0.00 
    2   34    3     -0.64      0.00 
    3   34    3      0.41      0.00 
    4   34    3     -0.81      0.00 
    5   34    3      0.70      0.00 
    1   35    3      0.10      0.00 
    2   35    3     -1.81      0.00 
    3   35    3      2.46      0.00 
    0   36    3     -4.00      0.00 
    0    0    4    167.09      0.00 
    1    0    4    -99.70      0.00 
    2    0    4     11.34      0.00 
    3    0    4     11.88      0.00 
    4    0    4     -7.34      0.00 
    5    0    4      0.42      0.00 
    6    0    4      1.05      0.00 
    7    0    4     -1.06      0.00 
    8    0    4     -1.69      0.00 
    9    0    4      1.56      0.00 
   10    0    4      1.61      0.00 
   11    0    4     -0.57      0.00 
   12    0    4     -2.68      0.00 
    1    1    4    -28.21      0.00 
    2    1    4      3.96      0.00 
    3    1    4      9.71      0.00 
    4    1    4     -4.95      0.00 
    5    1    4      0.55      0.00 
    6    1    4     -1.51      0.00 
    7    1    4      0.12      0.00 
    8    1    4      1.98      0.00 
    9    1    4      1.32      0.00 
   10    1    4     -1.88      0.00 
   11    1    4     -0.28      0.00 
   12    1    4     -0.38      0.00 
    0    2    4    -54.89      0.00 
    1    2    4     27.59      0.00 
    2    2    4     -5.34      0.00 
    3    2    4      7.72      0.00 
    4    2    4     -4.67      0.00 
    5    2    4      1.40      0.00 
    6    2    4      0.21      0.00 
    7    2    4      0.81      0.00 
    8    2    4      0.22      0.00 
    9    2    4     -0.61      0.00 
   10    2    4     -0.78      0.00 
   11    2    4      0.65      0.00 
   12    2    4      0.86      0.00 
    1    3    4     14.98      0.00 
    2    3    4     -0.85      0.00 
    3    3    4     -3.26      0.00 
    4    3    4      4.96      0.00 
    5    3    4     -3.79      0.00 
    6    3    4     -2.61      0.00 
    7    3    4      3.91      0.00 
    8    3    4     -0.25      0.00 
    9    3    4     -1.67      0.00 
   10    3    4      0.32      0.00 
   11    3    4      1.08      0.00 
   12    3    4     -0.78      0.00 
    0    4    4     17.85      0.00 
    1    4    4     -6.03      0.00 
    2    4    4     -0.63      0.00 
    3    4    4      0.17      0.00 
    4    4    4     -1.61      0.00 
    5    4    4     -1.25      0.00 
    6    4    4     -0.12      0.00 
    7    4    4      1.61      0.00 
    8    4    4     -0.16      0.00 
    9    4    4     -1.16      0.00 
   10    4    4     -0.88      0.00 
   11    4    4      2.24      0.00 
   12    4    4     -1.41      0.00 
    1    5    4    -22.93      0.00 
    2    5    4     17.95      0.00 
    3    5    4    -11.63      0.00 
    4    5    4      1.78      0.00 
    5    5    4      4.25      0.00 
    6    5    4     -1.98      0.00 
    7    5    4      0.52      0.00 
    8    5    4      0.27      0.00 
    9    5    4     -2.82      0.00 
   10    5    4      2.24      0.00 
   11    5    4      0.05      0.00 
   12    5    4     -0.10      0.00 
    0    6    4    -38.92      0.00 
    1    6    4     17.75      0.00 
    2    6    4      8.03      0.00 
    3    6    4    -12.82      0.00 
    4    6    4      4.57      0.00 
    5    6    4      5.84      0.00 
    6    6    4     -4.98      0.00 
    7    6    4     -1.28      0.00 
    8    6    4      2.43      0.00 
    9    6    4      0.24      0.00 
   10    6    4     -0.25      0.00 
   11    6    4      0.09      0.00 
   12    6    4      0.40      0.00 
    1    7    4     12.78      0.00 
    2    7    4     -5.19      0.00 
    3    7    4     -0.24      0.00 
    4    7    4      0.16      0.00 
    5    7    4      0.90      0.00 
    6    7    4      0.02      0.00 
    7    7    4     -1.59      0.00 
    8    7    4      1.43      0.00 
    9    7    4      0.49      0.00 
   10    7    4     -0.34      0.00 
   11    7    4     -0.44      0.00 
   12    7    4     -0.35      0.00 
    0    8    4     20.93      0.00 
    1    8    4     -9.56      0.00 
    2    8    4     -1.27      0.00 
    3    8    4      1.39      0.00 
    4    8    4     -0.82      0.00 
    5    8    4     -1.58      0.00 
    6    8    4      3.44      0.00 
    7    8    4     -2.06      0.00 
    8    8    4      0.49      0.00 
    9    8    4      0.17      0.00 
   10    8    4     -0.87      0.00 
   11    8    4     -0.23      0.00 
   12    8    4     -0.59      0.00 
    1    9    4    -19.78      0.00 
    2    9    4     17.04      0.00 
    3    9    4     -5.38      0.00 
    4    9    4     -1.20      0.00 
    5    9    4      0.92      0.00 
    6    9    4      0.07      0.00 
    7    9    4      0.81      0.00 
    8    9    4     -2.36      0.00 
    9    9    4      1.61      0.00 
   10    9    4     -1.10      0.00 
   11    9    4      0.18      0.00 
   12    9    4      1.54      0.00 
    0   10    4     -9.22      0.00 
    1   10    4      2.60      0.00 
    2   10    4      4.91      0.00 
    3   10    4     -4.99      0.00 
    4   10    4      1.51      0.00 
    5   10    4      1.34      0.00 
    6   10    4     -0.51      0.00 
    7   10    4     -0.71      0.00 
    8   10    4     -1.04      0.00 
    9   10    4      1.58      0.00 
   10   10    4      0.40      0.00 
   11   10    4     -0.05      0.00 
   12   10    4      0.06      0.00 
    1   11    4      7.65      0.00 
    2   11    4     -6.84      0.00 
    3   11    4      2.88      0.00 
    4   11    4     -0.03      0.00 
    5   11    4     -0.22      0.00 
    6   11    4     -0.64      0.00 
    7   11    4      0.27      0.00 
    8   11    4      0.65      0.00 
    9   11    4     -0.29      0.00 
   10   11    4      0.94      0.00 
   11   11    4      0.69      0.00 
   12   11    4     -4.68      0.00 
    0   12    4      1.28      0.00 
    1   12    4      2.61      0.00 
    2   12    4     -8.19      0.00 
    3   12    4      8.16      0.00 
    4   12    4     -2.52      0.00 
    5   12    4     -2.29      0.00 
    6   12    4      1.68      0.00 
    7   12    4      0.47      0.00 
    8   12    4     -0.27      0.00 
    9   12    4      0.19      0.00 
   10   12    4     -1.54      0.00 
   11   12    4      1.01      0.00 
   12   12    4     -0.81      0.00 
    1   13    4     -4.89      0.00 
    2   13    4      3.47      0.00 
    3   13    4     -0.68      0.00 
    4   13    4     -0.60      0.00 
    5   13    4      0.52      0.00 
    6   13    4     -0.54      0.00 
    7   13    4      1.25      0.00 
    8   13    4     -0.63      0.00 
    9   13    4     -0.55      0.00 
   10   13    4      0.45      0.00 
   11   13    4     -0.62      0.00 
    0   14    4     -3.41      0.00 
    1   14    4     -1.36      0.00 
    2   14    4      7.27      0.00 
    3   14    4     -6.17      0.00 
    4   14    4      2.02      0.00 
    5   14    4      0.07      0.00 
    6   14    4     -0.10      0.00 
    7   14    4      0.79      0.00 
    8   14    4     -0.87      0.00 
    9   14    4     -1.11      0.00 
   10   14    4      2.83      0.00 
   11   14    4     -2.04      0.00 
    1   15    4      8.75      0.00 
    2   15    4     -6.97      0.00 
    3   15    4      0.39      0.00 
    4   15    4      3.62      0.00 
    5   15    4     -2.65      0.00 
    6   15    4      0.65      0.00 
    7   15    4     -0.39      0.00 
    8   15    4     -1.05      0.00 
    9   15    4      1.69      0.00 
   10   15    4     -1.22      0.00 
   11   15    4      0.94      0.00 
    0   16    4     -0.62      0.00 
    1   16    4      3.66      0.00 
    2   16    4     -6.40      0.00 
    3   16    4      4.46      0.00 
    4   16    4     -1.89      0.00 
    5   16    4      1.63      0.00 
    6   16    4     -3.46      0.00 
    7   16    4      2.03      0.00 
    8   16    4      0.25      0.00 
    9   16    4      0.56      0.00 
   10   16    4     -1.59      0.00 
   11   16    4      1.52      0.00 
    1   17    4     -3.59      0.00 
    2   17    4      3.55      0.00 
    3   17    4     -2.70      0.00 
    4   17    4      0.66      0.00 
    5   17    4      0.51      0.00 
    6   17    4     -0.38      0.00 
    7   17    4      1.12      0.00 
    8   17    4     -0.27      0.00 
    9   17    4      0.44      0.00 
   10   17    4     -1.29      0.00 
    0   18    4     -2.66      0.00 
    1   18    4     -0.20      0.00 
    2   18    4      3.86      0.00 
    3   18    4     -4.80      0.00 
    4   18    4      3.27      0.00 
    5   18    4     -0.37      0.00 
    6   18    4      1.00      0.00 
    7   18    4     -1.24      0.00 
    8   18    4      0.59      0.00 
    9   18    4     -0.62      0.00 
   10   18    4     -0.73      0.00 
    1   19    4      1.71      0.00 
    2   19    4      0.43      0.00 
    3   19    4     -1.25      0.00 
    4   19    4      0.95      0.00 
    5   19    4     -1.13      0.00 
    6   19    4      1.65      0.00 
    7   19    4     -2.61      0.00 
    8   19    4      1.30      0.00 
    9   19    4     -0.58      0.00 
   10   19    4     -0.48      0.00 
    0   20    4     -1.42      0.00 
    1   20    4      3.56      0.00 
    2   20    4     -4.17      0.00 
    3   20    4      1.70      0.00 
    4   20    4     -1.25      0.00 
    5   20    4      0.91      0.00 
    6   20    4     -0.86      0.00 
    7   20    4     -0.54      0.00 
    8   20    4      1.04      0.00 
    9   20    4      0.54      0.00 
   10   20    4      0.21      0.00 
    1   21    4     -0.48      0.00 
    2   21    4     -2.19      0.00 
    3   21    4      3.11      0.00 
    4   21    4     -1.87      0.00 
    5   21    4      1.11      0.00 
    6   21    4     -0.58      0.00 
    7   21    4      0.11      0.00 
    8   21    4      1.25      0.00 
    9   21    4      0.30      0.00 
   10   21    4     -0.84      0.00 
    0   22    4     -3.70      0.00 
    1   22    4      0.86      0.00 
    2   22    4      1.59      0.00 
    3   22    4     -0.18      0.00 
    4   22    4      0.50      0.00 
    5   22    4     -0.97      0.00 
    6   22    4      0.71      0.00 
    7   22    4     -0.13      0.00 
    8   22    4      0.16      0.00 
    9   22    4     -0.60      0.00 
    1   23    4      1.89      0.00 
    2   23    4      0.37      0.00 
    3   23    4     -2.50      0.00 
    4   23    4      2.16      0.00 
    5   23    4     -0.87      0.00 
    6   23    4     -0.68      0.00 
    7   23    4      0.35      0.00 
    8   23    4     -0.34      0.00 
    9   23    4     -1.28      0.00 
    0   24    4      1.15      0.00 
    1   24    4      0.46      0.00 
    2   24    4     -2.53      0.00 
    3   24    4      1.67      0.00 
    4   24    4     -0.95      0.00 
    5   24    4      0.46      0.00 
    6   24    4      0.18      0.00 
    7   24    4      0.10      0.00 
    8   24    4     -1.20      0.00 
    9   24    4      1.28      0.00 
    1   25    4      1.03      0.00 
    2   25    4     -2.70      0.00 
    3   25    4      2.48      0.00 
    4   25    4     -0.85      0.00 
    5   25    4      0.21      0.00 
    6   25    4      0.76      0.00 
    7   25    4     -0.71      0.00 
    8   25    4      1.44      0.00 
    9   25    4     -0.86      0.00 
    0   26    4     -0.38      0.00 
    1   26    4      0.37      0.00 
    2   26    4      0.05      0.00 
    3   26    4      0.11      0.00 
    4   26    4      0.35      0.00 
    5   26    4     -0.85      0.00 
    6   26    4      0.55      0.00 
    7   26    4      0.36      0.00 
    8   26    4     -0.59      0.00 
    9   26    4     -0.52      0.00 
    1   27    4      1.35      0.00 
    2   27    4     -0.57      0.00 
    3   27    4     -0.55      0.00 
    4   27    4      0.48      0.00 
    5   27    4     -1.09      0.00 
    6   27    4      0.51      0.00 
    7   27    4      1.09      0.00 
    8   27    4     -2.60      0.00 
    0   28    4      1.18      0.00 
    1   28    4      0.01      0.00 
    2   28    4     -1.23      0.00 
    3   28    4      0.17      0.00 
    4   28    4      0.68      0.00 
    5   28    4     -1.25      0.00 
    6   28    4      1.67      0.00 
    7   28    4     -2.26      0.00 
    1   29    4     -2.48      0.00 
    2   29    4      0.16      0.00 
    3   29    4      2.33      0.00 
    4   29    4     -1.05      0.00 
    5   29    4      0.17      0.00 
    6   29    4     -0.36      0.00 
    7   29    4     -0.04      0.00 
    0   30    4      0.41      0.00 
    1   30    4     -1.13      0.00 
    2   30    4      0.73      0.00 
    3   30    4      1.04      0.00 
    4   30    4     -0.84      0.00 
    5   30    4      0.13      0.00 
    6   30    4      0.39      0.00 
    1   31    4      1.30      0.00 
    2   31    4     -0.09      0.00 
    3   31    4     -0.54      0.00 
    4   31    4      0.43      0.00 
    5   31    4     -0.80      0.00 
    6   31    4      0.67      0.00 
    0   32    4      1.67      0.00 
    1   32    4     -1.22      0.00 
    2   32    4      0.95      0.00 
    3   32    4     -0.16      0.00 
    4   32    4     -1.00      0.00 
    5   32    4     -0.23      0.00 
    6   32    4      1.70      0.00 
    1   33    4     -1.08      0.00 
    2   33    4      0.61      0.00 
    3   33    4     -0.68      0.00 
    4   33    4      0.04      0.00 
    5   33    4     -0.32      0.00 
    0   34    4     -0.87      0.00 
    1   34    4      0.49      0.00 
    2   34    4     -0.93      0.00 
    3   34    4      0.79      0.00 
    4   34    4      1.07      0.00 
    5   34    4     -1.46      0.00 
    1   35    4      0.04      0.00 
    2   35    4      0.45      0.00 
    3   35    4      0.68      0.00 
    4   35    4     -0.86      0.00 
    0   36    4      2.47      0.00 
    1   36    4     -0.37      0.00 
    1    1    5      9.10      0.00 
    2    1    5     -6.23      0.00 
    3    1    5      1.67      0.00 
    4    1    5     -3.41      0.00 
    5    1    5      1.66      0.00 
    6    1    5      2.31      0.00 
    7    1    5     -1.95      0.00 
    8    1    5     -0.77      0.00 
    9    1    5      1.33      0.00 
   10    1    5      0.35      0.00 
   11    1    5     -0.46      0.00 
   12    1    5     -0.15      0.00 
    0    2    5     39.28      0.00 
    1    2    5    -26.57      0.00 
    2    2    5      1.77      0.00 
    3    2    5      7.08      0.00 
    4    2    5     -2.68      0.00 
    5    2    5      0.71      0.00 
    6    2    5      1.70      0.00 
    7    2    5     -2.10      0.00 
    8    2    5     -0.80      0.00 
    9    2    5      1.11      0.00 
   10    2    5      1.55      0.00 
   11    2    5     -1.16      0.00 
   12    2    5     -1.70      0.00 
    1    3    5     -0.53      0.00 
    2    3    5     -7.45      0.00 
    3    3    5     11.11      0.00 
    4    3    5     -1.32      0.00 
    5    3    5     -2.48      0.00 
    6    3    5      0.57      0.00 
    7    3    5      0.13      0.00 
    8    3    5     -1.67      0.00 
    9    3    5      3.52      0.00 
   10    3    5     -3.73      0.00 
   11    3    5      0.64      0.00 
   12    3    5      0.99      0.00 
    0    4    5     36.03      0.00 
    1    4    5    -24.02      0.00 
    2    4    5      3.67      0.00 
    3    4    5      9.57      0.00 
    4    4    5     -6.20      0.00 
    5    4    5     -2.31      0.00 
    6    4    5     -0.09      0.00 
    7    4    5      2.51      0.00 
    8    4    5     -1.23      0.00 
    9    4    5     -0.06      0.00 
   10    4    5     -0.20      0.00 
   11    4    5      0.20      0.00 
   12    4    5      1.59      0.00 
    1    5    5      4.78      0.00 
    2    5    5     -6.02      0.00 
    3    5    5      0.19      0.00 
    4    5    5      0.46      0.00 
    5    5    5     -0.21      0.00 
    6    5    5     -1.77      0.00 
    7    5    5      2.66      0.00 
    8    5    5      0.40      0.00 
    9    5    5     -2.14      0.00 
   10    5    5      1.62      0.00 
   11    5    5      0.54      0.00 
   12    5    5     -1.34      0.00 
    0    6    5    -21.92      0.00 
    1    6    5     17.81      0.00 
    2    6    5    -12.76      0.00 
    3    6    5      6.12      0.00 
    4    6    5     -2.20      0.00 
    5    6    5      0.39      0.00 
    6    6    5      1.23      0.00 
    7    6    5      1.33      0.00 
    8    6    5      0.00      0.00 
    9    6    5     -0.90      0.00 
   10    6    5     -1.55      0.00 
   11    6    5      2.84      0.00 
   12    6    5     -2.70      0.00 
    1    7    5      0.95      0.00 
    2    7    5      2.16      0.00 
    3    7    5     -0.76      0.00 
    4    7    5      0.99      0.00 
    5    7    5      0.60      0.00 
    6    7    5     -0.93      0.00 
    7    7    5      0.87      0.00 
    8    7    5     -0.46      0.00 
    9    7    5     -1.12      0.00 
   10    7    5     -0.05      0.00 
   11    7    5      0.94      0.00 
   12    7    5      0.58      0.00 
    0    8    5     13.48      0.00 
    1    8    5    -10.83      0.00 
    2    8    5      9.06      0.00 
    3    8    5     -4.74      0.00 
    4    8    5      0.02      0.00 
    5    8    5      3.00      0.00 
    6    8    5     -3.05      0.00 
    7    8    5     -1.23      0.00 
    8    8    5      1.30      0.00 
    9    8    5     -0.59      0.00 
   10    8    5      0.50      0.00 
   11    8    5      0.10      0.00 
   12    8    5      0.01      0.00 
    1    9    5     -3.20      0.00 
    2    9    5      3.78      0.00 
    3    9    5     -2.94      0.00 
    4    9    5     -1.15      0.00 
    5    9    5      1.15      0.00 
    6    9    5     -0.99      0.00 
    7    9    5     -1.01      0.00 
    8    9    5      1.70      0.00 
    9    9    5      0.56      0.00 
   10    9    5     -0.39      0.00 
   11    9    5     -1.04      0.00 
   12    9    5      1.29      0.00 
    0   10    5     -9.62      0.00 
    1   10    5      6.00      0.00 
    2   10    5     -2.20      0.00 
    3   10    5     -0.18      0.00 
    4   10    5     -1.31      0.00 
    5   10    5      2.48      0.00 
    6   10    5     -0.76      0.00 
    7   10    5     -0.40      0.00 
    8   10    5      1.50      0.00 
    9   10    5      0.48      0.00 
   10   10    5     -1.02      0.00 
   11   10    5     -1.29      0.00 
   12   10    5      2.52      0.00 
    1   11    5     -3.88      0.00 
    2   11    5      3.81      0.00 
    3   11    5     -1.11      0.00 
    4   11    5     -0.56      0.00 
    5   11    5      1.79      0.00 
    6   11    5      0.87      0.00 
    7   11    5      0.12      0.00 
    8   11    5     -1.06      0.00 
    9   11    5     -0.04      0.00 
   10   11    5      0.20      0.00 
   11   11    5     -0.69      0.00 
   12   11    5      0.92      0.00 
    0   12    5      7.63      0.00 
    1   12    5     -6.45      0.00 
    2   12    5      4.57      0.00 
    3   12    5     -1.40      0.00 
    4   12    5      0.83      0.00 
    5   12    5     -0.75      0.00 
    6   12    5      1.66      0.00 
    7   12    5     -1.86      0.00 
    8   12    5     -1.21      0.00 
    9   12    5      0.84      0.00 
   10   12    5     -0.89      0.00 
   11   12    5      3.85      0.00 
   12   12    5     -5.38      0.00 
    1   13    5     -6.33      0.00 
    2   13    5      6.15      0.00 
    3   13    5     -1.68      0.00 
    4   13    5     -0.43      0.00 
    5   13    5      0.04      0.00 
    6   13    5     -2.09      0.00 
    7   13    5      0.41      0.00 
    8   13    5     -0.15      0.00 
    9   13    5      0.56      0.00 
   10   13    5      0.53      0.00 
   11   13    5      0.47      0.00 
    0   14    5     -4.29      0.00 
    1   14    5      4.23      0.00 
    2   14    5     -4.18      0.00 
    3   14    5      3.93      0.00 
    4   14    5     -4.04      0.00 
    5   14    5      0.36      0.00 
    6   14    5      0.57      0.00 
    7   14    5      1.10      0.00 
    8   14    5     -0.05      0.00 
    9   14    5      0.18      0.00 
   10   14    5      1.48      0.00 
   11   14    5     -2.99      0.00 
    1   15    5      2.83      0.00 
    2   15    5     -4.97      0.00 
    3   15    5      4.12      0.00 
    4   15    5     -2.51      0.00 
    5   15    5      1.25      0.00 
    6   15    5      1.29      0.00 
    7   15    5      0.73      0.00 
    8   15    5     -0.33      0.00 
    9   15    5     -2.08      0.00 
   10   15    5      1.96      0.00 
   11   15    5     -0.72      0.00 
    0   16    5      2.53      0.00 
    1   16    5     -2.29      0.00 
    2   16    5      0.91      0.00 
    3   16    5      0.38      0.00 
    4   16    5      0.75      0.00 
    5   16    5      0.26      0.00 
    6   16    5      0.46      0.00 
    7   16    5     -1.07      0.00 
    8   16    5     -1.00      0.00 
    9   16    5      0.06      0.00 
   10   16    5     -0.58      0.00 
   11   16    5      1.00      0.00 
    1   17    5     -1.78      0.00 
    2   17    5      4.58      0.00 
    3   17    5     -4.76      0.00 
    4   17    5      2.89      0.00 
    5   17    5     -0.67      0.00 
    6   17    5     -2.44      0.00 
    7   17    5      0.98      0.00 
    8   17    5     -1.26      0.00 
    9   17    5      2.86      0.00 
   10   17    5     -1.38      0.00 
    0   18    5      0.60      0.00 
    1   18    5     -0.55      0.00 
    2   18    5      0.92      0.00 
    3   18    5     -0.98      0.00 
    4   18    5     -0.65      0.00 
    5   18    5      0.05      0.00 
    6   18    5     -1.34      0.00 
    7   18    5      2.53      0.00 
    8   18    5      0.22      0.00 
    9   18    5      0.07      0.00 
   10   18    5     -0.37      0.00 
    1   19    5      1.54      0.00 
    2   19    5     -1.79      0.00 
    3   19    5      0.62      0.00 
    4   19    5      0.28      0.00 
    5   19    5     -0.75      0.00 
    6   19    5      1.93      0.00 
    7   19    5      0.25      0.00 
    8   19    5     -0.47      0.00 
    9   19    5     -0.46      0.00 
   10   19    5     -0.40      0.00 
    0   20    5     -2.84      0.00 
    1   20    5      2.05      0.00 
    2   20    5     -0.79      0.00 
    3   20    5      0.27      0.00 
    4   20    5      0.66      0.00 
    5   20    5      0.83      0.00 
    6   20    5     -1.49      0.00 
    7   20    5      0.00      0.00 
    8   20    5     -0.59      0.00 
    9   20    5      0.67      0.00 
   10   20    5     -1.44      0.00 
    1   21    5     -1.69      0.00 
    2   21    5      2.89      0.00 
    3   21    5     -2.39      0.00 
    4   21    5      1.26      0.00 
    5   21    5     -0.92      0.00 
    6   21    5     -0.07      0.00 
    7   21    5     -0.77      0.00 
    8   21    5      0.21      0.00 
    9   21    5      0.68      0.00 
   10   21    5      0.03      0.00 
    0   22    5     -1.32      0.00 
    1   22    5      0.59      0.00 
    2   22    5      1.06      0.00 
    3   22    5     -2.59      0.00 
    4   22    5      1.35      0.00 
    5   22    5     -0.25      0.00 
    6   22    5      0.90      0.00 
    7   22    5     -0.82      0.00 
    8   22    5      0.67      0.00 
    9   22    5     -0.53      0.00 
    1   23    5     -0.56      0.00 
    2   23    5     -0.37      0.00 
    3   23    5     -0.02      0.00 
    4   23    5      0.79      0.00 
    5   23    5      0.12      0.00 
    6   23    5      0.58      0.00 
    7   23    5     -1.24      0.00 
    8   23    5      1.37      0.00 
    9   23    5     -0.94      0.00 
    0   24    5     -0.20      0.00 
    1   24    5      0.05      0.00 
    2   24    5     -0.14      0.00 
    3   24    5      1.08      0.00 
    4   24    5     -1.65      0.00 
    5   24    5      2.30      0.00 
    6   24    5     -2.55      0.00 
    7   24    5      1.07      0.00 
    8   24    5      0.08      0.00 
    9   24    5      0.25      0.00 
    1   25    5      1.25      0.00 
    2   25    5      0.01      0.00 
    3   25    5     -0.77      0.00 
    4   25    5      0.05      0.00 
    5   25    5     -0.04      0.00 
    6   25    5     -0.41      0.00 
    7   25    5      0.91      0.00 
    8   25    5      0.10      0.00 
    9   25    5     -1.16      0.00 
    0   26    5     -1.59      0.00 
    1   26    5      1.23      0.00 
    2   26    5      0.11      0.00 
    3   26    5     -0.92      0.00 
    4   26    5      0.94      0.00 
    5   26    5     -1.50      0.00 
    6   26    5      1.35      0.00 
    7   26    5     -0.44      0.00 
    8   26    5      0.10      0.00 
    9   26    5     -0.18      0.00 
    1   27    5      0.63      0.00 
    2   27    5      0.22      0.00 
    3   27    5     -1.62      0.00 
    4   27    5      1.85      0.00 
    5   27    5     -1.14      0.00 
    6   27    5      0.60      0.00 
    7   27    5     -1.56      0.00 
    8   27    5      1.61      0.00 
    0   28    5     -0.28      0.00 
    1   28    5      0.64      0.00 
    2   28    5     -1.34      0.00 
    3   28    5      0.32      0.00 
    4   28    5      0.36      0.00 
    5   28    5      1.11      0.00 
    6   28    5     -2.69      0.00 
    7   28    5      3.24      0.00 
    1   29    5      1.25      0.00 
    2   29    5     -1.69      0.00 
    3   29    5      1.53      0.00 
    4   29    5     -0.93      0.00 
    5   29    5      1.54      0.00 
    6   29    5     -1.55      0.00 
    7   29    5      1.71      0.00 
    0   30    5      0.73      0.00 
    1   30    5     -0.52      0.00 
    2   30    5      0.95      0.00 
    3   30    5     -1.14      0.00 
    4   30    5      0.95      0.00 
    5   30    5     -0.56      0.00 
    6   30    5      1.58      0.00 
    7   30    5     -3.33      0.00 
    1   31    5     -0.65      0.00 
    2   31    5      0.34      0.00 
    3   31    5     -1.02      0.00 
    4   31    5      1.83      0.00 
    5   31    5     -2.29      0.00 
    6   31    5      0.41      0.00 
    7   31    5      1.03      0.00 
    0   32    5     -0.37      0.00 
    1   32    5     -0.74      0.00 
    2   32    5      1.37      0.00 
    3   32    5     -0.10      0.00 
    4   32    5     -1.39      0.00 
    5   32    5      0.50      0.00 
    6   32    5      0.49      0.00 
    1   33    5     -0.25      0.00 
    2   33    5     -0.42      0.00 
    3   33    5      1.21      0.00 
    4   33    5     -0.63      0.00 
    5   33    5      0.09      0.00 
    0   34    5     -0.48      0.00 
    1   34    5      0.41      0.00 
    2   34    5     -0.04      0.00 
    3   34    5     -0.18      0.00 
    4   34    5      0.94      0.00 
    1   35    5      1.50      0.00 
    2   35    5     -0.17      0.00 
    3   35    5     -1.47      0.00 
    4   35    5      1.39      0.00 
    0   36    5      3.44      0.00 
    1   36    5     -2.13      0.00 
    0    0    6    -95.55      0.00 
    1    0    6     62.19      0.00 
    2    0    6    -16.92      0.00 
    3    0    6     -2.92      0.00 
    4    0    6      5.81      0.00 
    5    0    6     -0.50      0.00 
    6    0    6     -0.63      0.00 
    7    0    6     -0.55      0.00 
    8    0    6      2.30      0.00 
    9    0    6     -0.67      0.00 
   10    0    6     -1.20      0.00 
   11    0    6      0.41      0.00 
   12    0    6      1.33      0.00 
    1    1    6      5.57      0.00 
    2    1    6      0.90      0.00 
    3    1    6      1.10      0.00 
    4    1    6     -0.81      0.00 
    5    1    6     -1.38      0.00 
    6    1    6      3.00      0.00 
    7    1    6     -0.34      0.00 
    8    1    6     -1.58      0.00 
    9    1    6     -0.67      0.00 
   10    1    6      0.74      0.00 
   11    1    6     -0.07      0.00 
   12    1    6      0.35      0.00 
    0    2    6     24.14      0.00 
    1    2    6    -13.60      0.00 
    2    2    6      8.28      0.00 
    3    2    6     -7.88      0.00 
    4    2    6      2.22      0.00 
    5    2    6      0.00      0.00 
    6    2    6     -0.19      0.00 
    7    2    6     -0.51      0.00 
    8    2    6     -0.90      0.00 
    9    2    6      0.32      0.00 
   10    2    6      0.60      0.00 
   11    2    6     -0.27      0.00 
   12    2    6     -0.39      0.00 
    1    3    6     -7.19      0.00 
    2    3    6     -0.48      0.00 
    3    3    6      1.87      0.00 
    4    3    6     -4.27      0.00 
    5    3    6      3.21      0.00 
    6    3    6      2.08      0.00 
    7    3    6     -3.73      0.00 
    8    3    6      0.06      0.00 
    9    3    6      1.69      0.00 
   10    3    6      0.26      0.00 
   11    3    6     -0.88      0.00 
   12    3    6      0.33      0.00 
    0    4    6    -18.33      0.00 
    1    4    6      9.51      0.00 
    2    4    6     -1.04      0.00 
    3    4    6     -3.24      0.00 
    4    4    6      3.75      0.00 
    5    4    6     -0.24      0.00 
    6    4    6      0.23      0.00 
    7    4    6     -0.44      0.00 
    8    4    6     -0.01      0.00 
    9    4    6      0.64      0.00 
   10    4    6      1.42      0.00 
   11    4    6     -2.63      0.00 
   12    4    6      1.63      0.00 
    1    5    6     14.86      0.00 
    2    5    6    -12.32      0.00 
    3    5    6      7.39      0.00 
    4    5    6      0.46      0.00 
    5    5    6     -3.36      0.00 
    6    5    6      1.34      0.00 
    7    5    6     -0.47      0.00 
    8    5    6     -0.38      0.00 
    9    5    6      2.59      0.00 
   10    5    6     -1.65      0.00 
   11    5    6     -0.19      0.00 
   12    5    6     -0.53      0.00 
    0    6    6     29.73      0.00 
    1    6    6    -16.40      0.00 
    2    6    6     -2.22      0.00 
    3    6    6      9.26      0.00 
    4    6    6     -3.62      0.00 
    5    6    6     -4.38      0.00 
    6    6    6      2.86      0.00 
    7    6    6      1.17      0.00 
    8    6    6     -1.03      0.00 
    9    6    6     -0.20      0.00 
   10    6    6     -0.63      0.00 
   11    6    6     -0.10      0.00 
   12    6    6     -0.02      0.00 
    1    7    6     -2.70      0.00 
    2    7    6     -0.62      0.00 
    3    7    6      0.86      0.00 
    4    7    6      0.12      0.00 
    5    7    6     -1.31      0.00 
    6    7    6     -0.45      0.00 
    7    7    6      2.49      0.00 
    8    7    6     -1.08      0.00 
    9    7    6     -1.25      0.00 
   10    7    6     -0.16      0.00 
   11    7    6      0.73      0.00 
   12    7    6      1.05      0.00 
    0    8    6     -9.76      0.00 
    1    8    6      5.31      0.00 
    2    8    6     -2.76      0.00 
    3    8    6      2.55      0.00 
    4    8    6      0.01      0.00 
    5    8    6     -0.28      0.00 
    6    8    6     -1.00      0.00 
    7    8    6      1.40      0.00 
    8    8    6     -1.24      0.00 
    9    8    6      0.23      0.00 
   10    8    6      0.01      0.00 
   11    8    6      2.10      0.00 
   12    8    6     -0.72      0.00 
    1    9    6     13.66      0.00 
    2    9    6    -12.40      0.00 
    3    9    6      5.41      0.00 
    4    9    6     -1.29      0.00 
    5    9    6      0.14      0.00 
    6    9    6      1.24      0.00 
    7    9    6     -1.79      0.00 
    8    9    6      1.38      0.00 
    9    9    6     -0.69      0.00 
   10    9    6      1.51      0.00 
   11    9    6     -0.27      0.00 
   12    9    6     -2.07      0.00 
    0   10    6      5.77      0.00 
    1   10    6     -0.59      0.00 
    2   10    6     -4.20      0.00 
    3   10    6      2.60      0.00 
    4   10    6     -0.32      0.00 
    5   10    6     -0.40      0.00 
    6   10    6     -0.05      0.00 
    7   10    6      0.04      0.00 
    8   10    6      0.95      0.00 
    9   10    6     -0.44      0.00 
   10   10    6     -0.16      0.00 
   11   10    6     -1.36      0.00 
   12   10    6      0.51      0.00 
    1   11    6     -7.39      0.00 
    2   11    6      6.39      0.00 
    3   11    6     -3.21      0.00 
    4   11    6      1.31      0.00 
    5   11    6     -0.02      0.00 
    6   11    6     -0.56      0.00 
    7   11    6      0.26      0.00 
    8   11    6      0.38      0.00 
    9   11    6     -0.39      0.00 
   10   11    6     -1.19      0.00 
   11   11    6     -0.79      0.00 
   12   11    6      4.65      0.00 
    0   12    6     -0.51      0.00 
    1   12    6     -2.56      0.00 
    2   12    6      6.65      0.00 
    3   12    6     -6.13      0.00 
    4   12    6      1.60      0.00 
    5   12    6      1.85      0.00 
    6   12    6     -0.90      0.00 
    7   12    6     -0.83      0.00 
    8   12    6      0.44      0.00 
    9   12    6     -0.17      0.00 
   10   12    6      0.60      0.00 
   11   12    6     -0.21      0.00 
   12   12    6      1.15      0.00 
    1   13    6      3.47      0.00 
    2   13    6     -3.29      0.00 
    3   13    6      2.05      0.00 
    4   13    6     -0.30      0.00 
    5   13    6     -0.53      0.00 
    6   13    6      0.57      0.00 
    7   13    6     -1.46      0.00 
    8   13    6      1.31      0.00 
    9   13    6     -0.31      0.00 
   10   13    6     -0.07      0.00 
   11   13    6      0.82      0.00 
    0   14    6      1.31      0.00 
    1   14    6      1.06      0.00 
    2   14    6     -3.67      0.00 
    3   14    6      3.09      0.00 
    4   14    6     -1.36      0.00 
    5   14    6      0.29      0.00 
    6   14    6     -0.84      0.00 
    7   14    6      0.71      0.00 
    8   14    6      0.28      0.00 
    9   14    6      0.20      0.00 
   10   14    6     -1.96      0.00 
   11   14    6      2.20      0.00 
    1   15    6     -5.39      0.00 
    2   15    6      4.50      0.00 
    3   15    6     -1.22      0.00 
    4   15    6     -1.44      0.00 
    5   15    6      1.28      0.00 
    6   15    6     -0.15      0.00 
    7   15    6      0.82      0.00 
    8   15    6     -0.13      0.00 
    9   15    6     -1.45      0.00 
   10   15    6      2.18      0.00 
   11   15    6     -1.18      0.00 
    0   16    6      1.47      0.00 
    1   16    6     -3.54      0.00 
    2   16    6      4.45      0.00 
    3   16    6     -2.03      0.00 
    4   16    6      0.66      0.00 
    5   16    6     -1.07      0.00 
    6   16    6      2.32      0.00 
    7   16    6     -0.76      0.00 
    8   16    6     -1.13      0.00 
    9   16    6     -0.22      0.00 
   10   16    6      2.55      0.00 
   11   16    6     -2.67      0.00 
    1   17    6      2.39      0.00 
    2   17    6     -1.65      0.00 
    3   17    6      1.83      0.00 
    4   17    6     -1.50      0.00 
    5   17    6      0.22      0.00 
    6   17    6      0.69      0.00 
    7   17    6     -1.40      0.00 
    8   17    6      0.28      0.00 
    9   17    6     -0.17      0.00 
   10   17    6      0.93      0.00 
    0   18    6      3.82      0.00 
    1   18    6     -0.58      0.00 
    2   18    6     -3.44      0.00 
    3   18    6      4.27      0.00 
    4   18    6     -3.33      0.00 
    5   18    6      1.06      0.00 
    6   18    6     -0.35      0.00 
    7   18    6     -0.62      0.00 
    8   18    6      0.45      0.00 
    9   18    6      0.53      0.00 
   10   18    6      0.60      0.00 
    1   19    6     -2.71      0.00 
    2   19    6      0.51      0.00 
    3   19    6      0.83      0.00 
    4   19    6     -0.78      0.00 
    5   19    6      1.63      0.00 
    6   19    6     -2.38      0.00 
    7   19    6      2.15      0.00 
    8   19    6     -0.81      0.00 
    9   19    6      1.65      0.00 
   10   19    6     -1.33      0.00 
    0   20    6      0.31      0.00 
    1   20    6     -2.67      0.00 
    2   20    6      3.76      0.00 
    3   20    6     -1.72      0.00 
    4   20    6      1.78      0.00 
    5   20    6     -1.66      0.00 
    6   20    6      0.65      0.00 
    7   20    6      1.28      0.00 
    8   20    6     -1.08      0.00 
    9   20    6     -0.69      0.00 
   10   20    6     -0.32      0.00 
    1   21    6      0.32      0.00 
    2   21    6      2.16      0.00 
    3   21    6     -2.58      0.00 
    4   21    6      1.16      0.00 
    5   21    6     -0.89      0.00 
    6   21    6      0.63      0.00 
    7   21    6      0.30      0.00 
    8   21    6     -1.74      0.00 
    9   21    6     -0.01      0.00 
   10   21    6      0.91      0.00 
    0   22    6      2.24      0.00 
    1   22    6      0.02      0.00 
    2   22    6     -1.16      0.00 
    3   22    6     -0.97      0.00 
    4   22    6      0.24      0.00 
    5   22    6      0.88      0.00 
    6   22    6     -0.99      0.00 
    7   22    6      0.75      0.00 
    8   22    6     -0.92      0.00 
    9   22    6      1.52      0.00 
    1   23    6     -1.45      0.00 
    2   23    6     -0.51      0.00 
    3   23    6      1.54      0.00 
    4   23    6     -0.72      0.00 
    5   23    6      0.00      0.00 
    6   23    6      0.85      0.00 
    7   23    6     -0.28      0.00 
    8   23    6      0.78      0.00 
    9   23    6     -0.03      0.00 
    0   24    6     -0.92      0.00 
    1   24    6     -0.68      0.00 
    2   24    6      2.38      0.00 
    3   24    6     -1.24      0.00 
    4   24    6      0.78      0.00 
    5   24    6     -0.56      0.00 
    6   24    6      0.15      0.00 
    7   24    6     -0.26      0.00 
    8   24    6      0.84      0.00 
    9   24    6     -1.26      0.00 
    1   25    6     -0.26      0.00 
    2   25    6      1.88      0.00 
    3   25    6     -1.78      0.00 
    4   25    6      0.62      0.00 
    5   25    6     -0.44      0.00 
    6   25    6     -0.40      0.00 
    7   25    6      0.30      0.00 
    8   25    6     -1.31      0.00 
    9   25    6      1.14      0.00 
    0   26    6      0.94      0.00 
    1   26    6     -0.51      0.00 
    2   26    6     -0.45      0.00 
    3   26    6      0.65      0.00 
    4   26    6     -1.02      0.00 
    5   26    6      0.68      0.00 
    6   26    6     -0.04      0.00 
    7   26    6     -0.63      0.00 
    8   26    6      0.85      0.00 
    1   27    6     -1.27      0.00 
    2   27    6      0.91      0.00 
    3   27    6     -0.46      0.00 
    4   27    6     -0.07      0.00 
    5   27    6      1.34      0.00 
    6   27    6     -0.26      0.00 
    7   27    6     -1.52      0.00 
    8   27    6      2.67      0.00 
    0   28    6     -1.45      0.00 
    1   28    6      0.47      0.00 
    2   28    6      0.59      0.00 
    3   28    6     -0.70      0.00 
    4   28    6      0.99      0.00 
    5   28    6      0.64      0.00 
    6   28    6     -2.12      0.00 
    7   28    6      2.33      0.00 
    1   29    6      2.47      0.00 
    2   29    6     -0.68      0.00 
    3   29    6     -1.14      0.00 
    4   29    6      0.76      0.00 
    5   29    6     -0.77      0.00 
    6   29    6      0.35      0.00 
    7   29    6      0.19      0.00 
    0   30    6      0.82      0.00 
    1   30    6      0.24      0.00 
    2   30    6     -0.14      0.00 
    3   30    6     -1.17      0.00 
    4   30    6      0.36      0.00 
    5   30    6     -0.01      0.00 
    6   30    6     -0.25      0.00 
    7   30    6      0.85      0.00 
    1   31    6     -2.22      0.00 
    2   31    6      0.48      0.00 
    3   31    6      0.94      0.00 
    4   31    6     -1.50      0.00 
    5   31    6      2.10      0.00 
    6   31    6     -1.45      0.00 
    0   32    6     -2.26      0.00 
    1   32    6      1.39      0.00 
    2   32    6     -0.97      0.00 
    3   32    6      0.54      0.00 
    4   32    6      0.63      0.00 
    5   32    6      0.73      0.00 
    6   32    6     -2.34      0.00 
    1   33    6      0.61      0.00 
    2   33    6      0.13      0.00 
    3   33    6      0.36      0.00 
    4   33    6      0.41      0.00 
    5   33    6     -0.99      0.00 
    0   34    6      1.74      0.00 
    1   34    6     -1.55      0.00 
    2   34    6      2.28      0.00 
    3   34    6     -1.46      0.00 
    4   34    6     -1.51      0.00 
    1   35    6      0.33      0.00 
    2   35    6     -0.43      0.00 
    3   35    6     -1.67      0.00 
    0   36    6     -4.33      0.00 
    1   36    6      2.07      0.00 
    1    1    7     -2.60      0.00 
    2    1    7      4.76      0.00 
    3    1    7     -6.53      0.00 
    4    1    7      5.67      0.00 
    5    1    7     -0.67      0.00 
    6    1    7     -2.59      0.00 
    7    1    7      2.10      0.00 
    8    1    7      0.64      0.00 
    9    1    7     -1.90      0.00 
   10    1    7      0.08      0.00 
   11    1    7      0.23      0.00 
   12    1    7      0.70      0.00 
    0    2    7    -11.24      0.00 
    1    2    7     10.77      0.00 
    2    2    7     -5.00      0.00 
    3    2    7     -1.00      0.00 
    4    2    7      1.53      0.00 
    5    2    7      0.28      0.00 
    6    2    7     -1.60      0.00 
    7    2    7      0.52      0.00 
    8    2    7      0.83      0.00 
    9    2    7     -0.54      0.00 
   10    2    7     -1.37      0.00 
   11    2    7      1.15      0.00 
   12    2    7      1.24      0.00 
    1    3    7     -4.33      0.00 
    2    3    7      5.67      0.00 
    3    3    7     -1.98      0.00 
    4    3    7     -2.80      0.00 
    5    3    7      1.03      0.00 
    6    3    7      0.11      0.00 
    7    3    7     -0.50      0.00 
    8    3    7      1.50      0.00 
    9    3    7     -1.87      0.00 
   10    3    7      2.16      0.00 
   11    3    7     -0.17      0.00 
   12    3    7     -0.76      0.00 
    0    4    7    -34.84      0.00 
    1    4    7     22.57      0.00 
    2    4    7     -1.98      0.00 
    3    4    7     -7.83      0.00 
    4    4    7      2.71      0.00 
    5    4    7      1.58      0.00 
    6    4    7      1.80      0.00 
    7    4    7     -1.99      0.00 
    8    4    7      0.36      0.00 
    9    4    7      0.25      0.00 
   10    4    7      0.44      0.00 
   11    4    7      0.00      0.00 
   12    4    7     -1.96      0.00 
    1    5    7     -5.96      0.00 
    2    5    7      7.20      0.00 
    3    5    7     -2.46      0.00 
    4    5    7     -0.30      0.00 
    5    5    7      1.54      0.00 
    6    5    7      1.60      0.00 
    7    5    7     -2.50      0.00 
    8    5    7     -0.40      0.00 
    9    5    7      1.68      0.00 
   10    5    7     -0.74      0.00 
   11    5    7     -1.23      0.00 
   12    5    7      0.84      0.00 
    0    6    7      7.96      0.00 
    1    6    7     -8.02      0.00 
    2    6    7      9.51      0.00 
    3    6    7     -8.17      0.00 
    4    6    7      5.32      0.00 
    5    6    7      0.47      0.00 
    6    6    7     -3.28      0.00 
    7    6    7     -0.36      0.00 
    8    6    7      0.03      0.00 
    9    6    7     -0.03      0.00 
   10    6    7      2.33      0.00 
   11    6    7     -3.79      0.00 
   12    6    7      3.72      0.00 
    1    7    7     -0.68      0.00 
    2    7    7     -2.43      0.00 
    3    7    7      1.01      0.00 
    4    7    7      1.46      0.00 
    5    7    7     -2.41      0.00 
    6    7    7      0.14      0.00 
    7    7    7     -0.55      0.00 
    8    7    7      0.46      0.00 
    9    7    7      0.98      0.00 
   10    7    7      0.29      0.00 
   11    7    7     -0.58      0.00 
   12    7    7     -0.67      0.00 
    0    8    7     -6.94      0.00 
    1    8    7      4.03      0.00 
    2    8    7     -3.30      0.00 
    3    8    7      4.47      0.00 
    4    8    7     -2.57      0.00 
    5    8    7     -2.94      0.00 
    6    8    7      3.13      0.00 
    7    8    7      0.88      0.00 
    8    8    7     -0.02      0.00 
    9    8    7      0.38      0.00 
   10    8    7     -1.05      0.00 
   11    8    7      0.47      0.00 
   12    8    7     -0.60      0.00 
    1    9    7      5.87      0.00 
    2    9    7     -4.64      0.00 
    3    9    7      2.03      0.00 
    4    9    7     -0.97      0.00 
    5    9    7      0.95      0.00 
    6    9    7      1.06      0.00 
    7    9    7      1.06      0.00 
    8    9    7     -1.60      0.00 
    9    9    7     -0.28      0.00 
   10    9    7     -0.53      0.00 
   11    9    7      1.28      0.00 
    0   10    7      7.81      0.00 
    1   10    7     -3.40      0.00 
    2   10    7     -0.85      0.00 
    3   10    7      0.17      0.00 
    4   10    7      2.93      0.00 
    5   10    7     -2.41      0.00 
    6   10    7      0.38      0.00 
    7   10    7      1.13      0.00 
    8   10    7     -2.21      0.00 
    9   10    7     -0.30      0.00 
   10   10    7      0.47      0.00 
   11   10    7      1.97      0.00 
    1   11    7      3.37      0.00 
    2   11    7     -3.61      0.00 
    3   11    7      1.35      0.00 
    4   11    7      1.44      0.00 
    5   11    7     -2.73      0.00 
    6   11    7     -0.18      0.00 
    7   11    7      0.01      0.00 
    8   11    7     -0.15      0.00 
    9   11    7      0.28      0.00 
   10   11    7      0.53      0.00 
   11   11    7      0.05      0.00 
   12   11    7     -0.64      0.00 
    0   12    7     -4.49      0.00 
    1   12    7      4.68      0.00 
    2   12    7     -4.90      0.00 
    3   12    7      2.76      0.00 
    4   12    7     -1.26      0.00 
    5   12    7      0.05      0.00 
    6   12    7     -0.35      0.00 
    7   12    7     -0.24      0.00 
    8   12    7      1.72      0.00 
    9   12    7      0.11      0.00 
   10   12    7      0.24      0.00 
   11   12    7     -3.37      0.00 
   12   12    7      4.79      0.00 
    1   13    7      2.60      0.00 
    2   13    7     -2.55      0.00 
    3   13    7      1.46      0.00 
    4   13    7     -1.77      0.00 
    5   13    7      1.52      0.00 
    6   13    7      1.06      0.00 
    7   13    7     -0.79      0.00 
    8   13    7      1.74      0.00 
    9   13    7     -0.86      0.00 
   10   13    7     -1.23      0.00 
   11   13    7      0.37      0.00 
    0   14    7      2.89      0.00 
    1   14    7     -3.10      0.00 
    2   14    7      4.26      0.00 
    3   14    7     -4.92      0.00 
    4   14    7      3.67      0.00 
    5   14    7      0.38      0.00 
    6   14    7     -0.41      0.00 
    7   14    7     -1.01      0.00 
    8   14    7      0.29      0.00 
    9   14    7     -0.09      0.00 
   10   14    7     -2.09      0.00 
   11   14    7      3.06      0.00 
    1   15    7     -0.99      0.00 
    2   15    7      1.55      0.00 
    3   15    7     -2.46      0.00 
    4   15    7      3.58      0.00 
    5   15    7     -2.02      0.00 
    6   15    7     -1.29      0.00 
    7   15    7     -0.04      0.00 
    8   15    7      0.01      0.00 
    9   15    7      1.04      0.00 
   10   15    7     -0.98      0.00 
   11   15    7      0.09      0.00 
    0   16    7     -2.77      0.00 
    1   16    7      1.54      0.00 
    2   16    7      0.14      0.00 
    3   16    7     -0.23      0.00 
    4   16    7     -0.43      0.00 
    5   16    7     -0.92      0.00 
    6   16    7     -0.67      0.00 
    7   16    7      1.82      0.00 
    8   16    7      0.00      0.00 
    9   16    7     -0.14      0.00 
   10   16    7      0.80      0.00 
   11   16    7     -0.32      0.00 
    1   17    7      2.24      0.00 
    2   17    7     -3.87      0.00 
    3   17    7      3.68      0.00 
    4   17    7     -2.36      0.00 
    5   17    7      0.08      0.00 
    6   17    7      2.52      0.00 
    7   17    7     -0.82      0.00 
    8   17    7      0.78      0.00 
    9   17    7     -2.63      0.00 
   10   17    7      2.47      0.00 
    0   18    7     -0.66      0.00 
    1   18    7      0.74      0.00 
    2   18    7     -0.93      0.00 
    3   18    7      0.82      0.00 
    4   18    7      0.04      0.00 
    5   18    7      0.84      0.00 
    6   18    7      0.40      0.00 
    7   18    7     -1.69      0.00 
    8   18    7      0.06      0.00 
    9   18    7     -0.46      0.00 
   10   18    7      0.93      0.00 
    1   19    7     -1.18      0.00 
    2   19    7      1.61      0.00 
    3   19    7     -1.02      0.00 
    4   19    7      0.05      0.00 
    5   19    7      0.84      0.00 
    6   19    7     -1.69      0.00 
    7   19    7     -0.08      0.00 
    8   19    7      0.36      0.00 
    9   19    7     -0.23      0.00 
   10   19    7      0.70      0.00 
    0   20    7      5.09      0.00 
    1   20    7     -3.16      0.00 
    2   20    7     -0.16      0.00 
    3   20    7      1.42      0.00 
    4   20    7     -1.53      0.00 
    5   20    7     -0.58      0.00 
    6   20    7      1.98      0.00 
    7   20    7     -0.99      0.00 
    8   20    7      0.44      0.00 
    9   20    7     -0.20      0.00 
   10   20    7      1.46      0.00 
    1   21    7      0.03      0.00 
    2   21    7     -1.53      0.00 
    3   21    7      2.73      0.00 
    4   21    7     -2.54      0.00 
    5   21    7      1.88      0.00 
    6   21    7     -0.50      0.00 
    7   21    7      0.58      0.00 
    8   21    7     -0.42      0.00 
    9   21    7      1.16      0.00 
   10   21    7     -1.79      0.00 
    0   22    7     -0.66      0.00 
    1   22    7      0.29      0.00 
    2   22    7      0.04      0.00 
    3   22    7      0.66      0.00 
    4   22    7     -0.32      0.00 
    5   22    7      0.24      0.00 
    6   22    7     -1.24      0.00 
    7   22    7      1.04      0.00 
    8   22    7     -0.17      0.00 
    9   22    7      0.14      0.00 
    1   23    7      0.92      0.00 
    2   23    7     -0.01      0.00 
    3   23    7     -0.06      0.00 
    4   23    7     -0.23      0.00 
    5   23    7     -0.47      0.00 
    6   23    7     -0.48      0.00 
    7   23    7      1.19      0.00 
    8   23    7     -0.96      0.00 
    9   23    7      0.03      0.00 
    0   24    7      0.21      0.00 
    1   24    7     -0.11      0.00 
    2   24    7      0.10      0.00 
    3   24    7     -0.60      0.00 
    4   24    7      1.24      0.00 
    5   24    7     -2.26      0.00 
    6   24    7      2.34      0.00 
    7   24    7     -0.51      0.00 
    8   24    7     -0.92      0.00 
    9   24    7      0.54      0.00 
    1   25    7     -1.60      0.00 
    2   25    7      0.61      0.00 
    3   25    7      0.50      0.00 
    4   25    7     -0.50      0.00 
    5   25    7      0.39      0.00 
    6   25    7      0.35      0.00 
    7   25    7     -0.77      0.00 
    8   25    7     -0.21      0.00 
    9   25    7      1.17      0.00 
    0   26    7      1.40      0.00 
    1   26    7     -1.10      0.00 
    2   26    7     -0.02      0.00 
    3   26    7      0.76      0.00 
    4   26    7     -1.33      0.00 
    5   26    7      2.09      0.00 
    6   26    7     -1.38      0.00 
    7   26    7      0.28      0.00 
    8   26    7     -0.15      0.00 
    1   27    7      0.11      0.00 
    2   27    7     -1.07      0.00 
    3   27    7      1.50      0.00 
    4   27    7     -0.88      0.00 
    5   27    7      0.67      0.00 
    6   27    7     -0.76      0.00 
    7   27    7      1.59      0.00 
    8   27    7     -1.39      0.00 
    0   28    7      0.37      0.00 
    1   28    7     -0.99      0.00 
    2   28    7      1.64      0.00 
    3   28    7     -0.06      0.00 
    4   28    7     -0.47      0.00 
    5   28    7     -1.63      0.00 
    6   28    7      3.12      0.00 
    7   28    7     -3.08      0.00 
    1   29    7     -0.84      0.00 
    2   29    7      2.41      0.00 
    3   29    7     -2.77      0.00 
    4   29    7      1.10      0.00 
    5   29    7     -1.31      0.00 
    6   29    7      2.10      0.00 
    7   29    7     -2.50      0.00 
    0   30    7     -0.77      0.00 
    1   30    7      1.36      0.00 
    2   30    7     -2.07      0.00 
    3   30    7      0.59      0.00 
    4   30    7      0.40      0.00 
    5   30    7      0.51      0.00 
    6   30    7     -2.22      0.00 
    7   30    7      3.31      0.00 
    1   31    7      0.49      0.00 
    2   31    7     -1.00      0.00 
    3   31    7      1.81      0.00 
    4   31    7     -1.58      0.00 
    5   31    7      2.17      0.00 
    6   31    7     -1.52      0.00 
    0   32    7      1.24      0.00 
    1   32    7     -0.13      0.00 
    2   32    7     -0.84      0.00 
    3   32    7      0.29      0.00 
    4   32    7      1.36      0.00 
    5   32    7     -1.18      0.00 
    6   32    7     -0.24      0.00 
    1   33    7      0.06      0.00 
    2   33    7      0.19      0.00 
    3   33    7     -0.37      0.00 
    4   33    7     -0.42      0.00 
    5   33    7      0.28      0.00 
    0   34    7      0.05      0.00 
    1   34    7     -0.40      0.00 
    2   34    7      0.42      0.00 
    3   34    7     -0.16      0.00 
    4   34    7     -0.92      0.00 
    1   35    7     -2.69      0.00 
    2   35    7      1.76      0.00 
    3   35    7      0.65      0.00 
    0   36    7     -2.47      0.00 
    1   36    7      1.32      0.00 
    0    0    8     44.62      0.00 
    1    0    8    -33.04      0.00 
    2    0    8     16.64      0.00 
    3    0    8     -3.31      0.00 
    4    0    8     -2.01      0.00 
    5    0    8     -0.09      0.00 
    6    0    8     -0.83      0.00 
    7    0    8      2.56      0.00 
    8    0    8     -2.03      0.00 
    9    0    8     -0.88      0.00 
   10    0    8      0.76      0.00 
   11    0    8     -0.15      0.00 
   12    0    8      0.05      0.00 
    1    1    8      4.99      0.00 
    2    1    8     -1.30      0.00 
    3    1    8     -7.63      0.00 
    4    1    8      4.80      0.00 
    5    1    8      0.66      0.00 
    6    1    8     -3.30      0.00 
    7    1    8      0.79      0.00 
    8    1    8      0.70      0.00 
    9    1    8     -0.03      0.00 
   10    1    8      0.32      0.00 
   11    1    8      0.56      0.00 
   12    1    8     -0.31      0.00 
    0    2    8     -4.02      0.00 
    1    2    8      2.97      0.00 
    2    2    8     -7.37      0.00 
    3    2    8      7.84      0.00 
    4    2    8     -2.66      0.00 
    5    2    8     -0.12      0.00 
    6    2    8      0.45      0.00 
    7    2    8     -0.19      0.00 
    8    2    8      1.30      0.00 
    9    2    8      0.21      0.00 
   10    2    8     -0.50      0.00 
   11    2    8      0.13      0.00 
   12    2    8     -0.32      0.00 
    1    3    8      2.66      0.00 
    2    3    8      2.40      0.00 
    3    3    8     -2.85      0.00 
    4    3    8      3.46      0.00 
    5    3    8     -1.80      0.00 
    6    3    8     -1.74      0.00 
    7    3    8      3.16      0.00 
    8    3    8      0.52      0.00 
    9    3    8     -1.74      0.00 
   10    3    8     -0.75      0.00 
   11    3    8      0.59      0.00 
   12    3    8      0.37      0.00 
    0    4    8     18.83      0.00 
    1    4    8    -11.19      0.00 
    2    4    8      1.19      0.00 
    3    4    8      4.34      0.00 
    4    4    8     -3.78      0.00 
    5    4    8      1.13      0.00 
    6    4    8     -0.19      0.00 
    7    4    8     -0.39      0.00 
    8    4    8     -0.20      0.00 
    9    4    8     -0.11      0.00 
   10    4    8     -1.50      0.00 
   11    4    8      2.50      0.00 
   12    4    8     -1.58      0.00 
    1    5    8     -9.05      0.00 
    2    5    8      6.99      0.00 
    3    5    8     -3.30      0.00 
    4    5    8     -1.24      0.00 
    5    5    8      2.00      0.00 
    6    5    8     -0.83      0.00 
    7    5    8      0.38      0.00 
    8    5    8      0.20      0.00 
    9    5    8     -1.91      0.00 
   10    5    8      1.02      0.00 
   11    5    8     -0.03      0.00 
   12    5    8      1.19      0.00 
    0    6    8    -23.03      0.00 
    1    6    8     14.83      0.00 
    2    6    8     -1.64      0.00 
    3    6    8     -5.61      0.00 
    4    6    8      2.41      0.00 
    5    6    8      2.57      0.00 
    6    6    8     -1.01      0.00 
    7    6    8     -0.99      0.00 
    8    6    8      0.02      0.00 
    9    6    8      0.16      0.00 
   10    6    8      1.10      0.00 
   11    6    8      0.14      0.00 
   12    6    8      0.01      0.00 
    1    7    8     -3.75      0.00 
    2    7    8      5.06      0.00 
    3    7    8     -1.97      0.00 
    4    7    8     -0.51      0.00 
    5    7    8      1.85      0.00 
    6    7    8      0.35      0.00 
    7    7    8     -2.32      0.00 
    8    7    8      0.32      0.00 
    9    7    8      1.68      0.00 
   10    7    8      0.64      0.00 
   11    7    8     -0.49      0.00 
   12    7    8     -1.97      0.00 
    0    8    8      2.00      0.00 
    1    8    8     -1.74      0.00 
    2    8    8      4.63      0.00 
    3    8    8     -5.22      0.00 
    4    8    8      0.71      0.00 
    5    8    8      1.63      0.00 
    6    8    8     -0.54      0.00 
    7    8    8     -0.93      0.00 
    8    8    8      1.57      0.00 
    9    8    8     -0.56      0.00 
   10    8    8      0.96      0.00 
   11    8    8     -3.26      0.00 
   12    8    8      1.00      0.00 
    1    9    8     -8.71      0.00 
    2    9    8      7.50      0.00 
    3    9    8     -4.05      0.00 
    4    9    8      2.77      0.00 
    5    9    8     -0.90      0.00 
    6    9    8     -1.79      0.00 
    7    9    8      1.65      0.00 
    8    9    8     -0.06      0.00 
    9    9    8     -0.22      0.00 
   10    9    8     -1.29      0.00 
   11    9    8     -0.15      0.00 
    0   10    8     -3.52      0.00 
    1   10    8     -1.11      0.00 
    2   10    8      4.12      0.00 
    3   10    8     -0.69      0.00 
    4   10    8     -0.83      0.00 
    5   10    8     -0.05      0.00 
    6   10    8      0.12      0.00 
    7   10    8      0.41      0.00 
    8   10    8     -0.57      0.00 
    9   10    8     -0.41      0.00 
   10   10    8      0.16      0.00 
   11   10    8      1.28      0.00 
    1   11    8      7.16      0.00 
    2   11    8     -5.36      0.00 
    3   11    8      2.69      0.00 
    4   11    8     -2.02      0.00 
    5   11    8      0.20      0.00 
    6   11    8      1.19      0.00 
    7   11    8     -0.27      0.00 
    8   11    8     -1.47      0.00 
    9   11    8      1.57      0.00 
   10   11    8      0.33      0.00 
   11   11    8      0.92      0.00 
    0   12    8     -0.51      0.00 
    1   12    8      3.06      0.00 
    2   12    8     -5.68      0.00 
    3   12    8      4.02      0.00 
    4   12    8     -0.17      0.00 
    5   12    8     -1.99      0.00 
    6   12    8      0.47      0.00 
    7   12    8      1.15      0.00 
    8   12    8     -0.54      0.00 
    9   12    8      0.13      0.00 
   10   12    8     -0.36      0.00 
   11   12    8      0.46      0.00 
    1   13    8     -2.18      0.00 
    2   13    8      2.69      0.00 
    3   13    8     -2.54      0.00 
    4   13    8      0.48      0.00 
    5   13    8      0.74      0.00 
    6   13    8     -0.27      0.00 
    7   13    8      0.99      0.00 
    8   13    8     -1.15      0.00 
    9   13    8      0.48      0.00 
   10   13    8     -0.14      0.00 
   11   13    8     -0.62      0.00 
    0   14    8      1.40      0.00 
    1   14    8     -1.47      0.00 
    2   14    8      0.97      0.00 
    3   14    8     -0.74      0.00 
    4   14    8      0.78      0.00 
    5   14    8     -0.11      0.00 
    6   14    8      1.01      0.00 
    7   14    8     -1.67      0.00 
    8   14    8      0.39      0.00 
    9   14    8      0.33      0.00 
   10   14    8      0.96      0.00 
   11   14    8     -1.79      0.00 
    1   15    8      2.02      0.00 
    2   15    8     -2.46      0.00 
    3   15    8      2.34      0.00 
    4   15    8     -0.35      0.00 
    5   15    8     -0.47      0.00 
    6   15    8     -0.29      0.00 
    7   15    8     -0.68      0.00 
    8   15    8      0.92      0.00 
    9   15    8      0.66      0.00 
   10   15    8     -2.57      0.00 
   11   15    8      1.91      0.00 
    0   16    8     -2.89      0.00 
    1   16    8      3.43      0.00 
    2   16    8     -2.34      0.00 
    3   16    8      0.35      0.00 
    4   16    8     -0.47      0.00 
    5   16    8      0.69      0.00 
    6   16    8     -0.83      0.00 
    7   16    8     -0.34      0.00 
    8   16    8      1.19      0.00 
    9   16    8      0.03      0.00 
   10   16    8     -2.50      0.00 
   11   16    8      3.19      0.00 
    1   17    8     -0.49      0.00 
    2   17    8     -0.19      0.00 
    3   17    8     -1.48      0.00 
    4   17    8      2.26      0.00 
    5   17    8     -0.80      0.00 
    6   17    8     -0.34      0.00 
    7   17    8      0.83      0.00 
    8   17    8     -0.39      0.00 
    9   17    8      0.56      0.00 
   10   17    8     -0.39      0.00 
    0   18    8     -3.61      0.00 
    1   18    8      0.79      0.00 
    2   18    8      2.80      0.00 
    3   18    8     -3.70      0.00 
    4   18    8      3.20      0.00 
    5   18    8     -1.02      0.00 
    6   18    8     -0.50      0.00 
    7   18    8      1.53      0.00 
    8   18    8     -0.53      0.00 
    9   18    8     -0.45      0.00 
   10   18    8     -0.49      0.00 
    1   19    8      3.01      0.00 
    2   19    8     -0.98      0.00 
    3   19    8     -0.88      0.00 
    4   19    8      1.20      0.00 
    5   19    8     -1.76      0.00 
    6   19    8      1.82      0.00 
    7   19    8     -1.10      0.00 
    8   19    8      0.75      0.00 
    9   19    8     -2.61      0.00 
   10   19    8      2.27      0.00 
    0   20    8      0.36      0.00 
    1   20    8      1.94      0.00 
    2   20    8     -3.59      0.00 
    3   20    8      2.20      0.00 
    4   20    8     -1.96      0.00 
    5   20    8      1.46      0.00 
    6   20    8     -0.43      0.00 
    7   20    8     -1.19      0.00 
    8   20    8      1.09      0.00 
    9   20    8      0.04      0.00 
   10   20    8      0.52      0.00 
    1   21    8     -0.39      0.00 
    2   21    8     -1.35      0.00 
    3   21    8      1.75      0.00 
    4   21    8     -0.86      0.00 
    5   21    8      0.65      0.00 
    6   21    8     -0.35      0.00 
    7   21    8     -0.12      0.00 
    8   21    8      0.89      0.00 
    9   21    8      0.26      0.00 
   10   21    8     -0.47      0.00 
    0   22    8     -1.29      0.00 
    1   22    8     -0.21      0.00 
    2   22    8      0.68      0.00 
    3   22    8      1.08      0.00 
    4   22    8     -0.24      0.00 
    5   22    8     -0.69      0.00 
    6   22    8      1.13      0.00 
    7   22    8     -1.47      0.00 
    8   22    8      1.31      0.00 
    9   22    8     -1.24      0.00 
    1   23    8      0.90      0.00 
    2   23    8      0.10      0.00 
    3   23    8     -0.37      0.00 
    4   23    8     -0.09      0.00 
    5   23    8      0.39      0.00 
    6   23    8     -1.08      0.00 
    7   23    8      0.25      0.00 
    8   23    8     -0.57      0.00 
    9   23    8      0.50      0.00 
    0   24    8      0.24      0.00 
    1   24    8      0.77      0.00 
    2   24    8     -1.88      0.00 
    3   24    8      0.95      0.00 
    4   24    8     -0.49      0.00 
    5   24    8      0.10      0.00 
    6   24    8     -0.11      0.00 
    7   24    8      0.65      0.00 
    8   24    8     -0.83      0.00 
    9   24    8      0.94      0.00 
    1   25    8      0.16      0.00 
    2   25    8     -1.33      0.00 
    3   25    8      1.37      0.00 
    4   25    8     -0.88      0.00 
    5   25    8      0.75      0.00 
    6   25    8      0.37      0.00 
    7   25    8     -0.09      0.00 
    8   25    8      0.83      0.00 
    9   25    8     -1.00      0.00 
    0   26    8     -1.10      0.00 
    1   26    8      0.85      0.00 
    2   26    8      0.23      0.00 
    3   26    8     -1.00      0.00 
    4   26    8      1.14      0.00 
    5   26    8     -0.17      0.00 
    6   26    8     -0.10      0.00 
    7   26    8      0.03      0.00 
    8   26    8     -0.50      0.00 
    1   27    8      0.93      0.00 
    2   27    8     -1.59      0.00 
    3   27    8      1.68      0.00 
    4   27    8     -0.15      0.00 
    5   27    8     -1.71      0.00 
    6   27    8      0.29      0.00 
    7   27    8      1.26      0.00 
    8   27    8     -1.81      0.00 
    0   28    8      1.45      0.00 
    1   28    8     -1.26      0.00 
    2   28    8      0.34      0.00 
    3   28    8      1.55      0.00 
    4   28    8     -2.58      0.00 
    5   28    8     -0.39      0.00 
    6   28    8      2.62      0.00 
    7   28    8     -2.13      0.00 
    8   28    8      1.60      0.00 
    1   29    8     -1.89      0.00 
    2   29    8      1.34      0.00 
    3   29    8      0.13      0.00 
    4   29    8     -1.24      0.00 
    5   29    8      1.62      0.00 
    6   29    8     -0.21      0.00 
    7   29    8     -0.26      0.00 
    0   30    8     -1.28      0.00 
    1   30    8      0.66      0.00 
    2   30    8     -0.56      0.00 
    3   30    8      0.74      0.00 
    4   30    8      0.08      0.00 
    5   30    8      0.44      0.00 
    6   30    8     -0.09      0.00 
    7   30    8     -1.01      0.00 
    1   31    8      2.56      0.00 
    2   31    8     -1.00      0.00 
    3   31    8     -1.34      0.00 
    4   31    8      2.67      0.00 
    5   31    8     -2.65      0.00 
    6   31    8      1.35      0.00 
    0   32    8      3.07      0.00 
    1   32    8     -2.11      0.00 
    2   32    8      1.22      0.00 
    3   32    8     -0.61      0.00 
    4   32    8     -0.25      0.00 
    5   32    8     -0.95      0.00 
    6   32    8      2.00      0.00 
    1   33    8     -0.50      0.00 
    2   33    8     -0.22      0.00 
    3   33    8     -0.11      0.00 
    4   33    8     -0.68      0.00 
    5   33    8      1.40      0.00 
    0   34    8     -2.56      0.00 
    1   34    8      2.58      0.00 
    2   34    8     -3.16      0.00 
    3   34    8      1.70      0.00 
    4   34    8      1.53      0.00 
    1   35    8     -0.77      0.00 
    2   35    8      0.43      0.00 
    3   35    8      1.99      0.00 
    0   36    8      4.80      0.00 
    1   36    8     -2.97      0.00 
    1    1    9      0.69      0.00 
    2    1    9     -5.40      0.00 
    3    1    9      9.38      0.00 
    4    1    9     -6.37      0.00 
    5    1    9      0.09      0.00 
    6    1    9      2.20      0.00 
    7    1    9     -1.88      0.00 
    8    1    9     -0.52      0.00 
    9    1    9      2.25      0.00 
   10    1    9     -0.46      0.00 
   11    1    9     -0.18      0.00 
   12    1    9     -1.03      0.00 
    0    2    9     -4.60      0.00 
    1    2    9     -0.87      0.00 
    2    2    9      5.12      0.00 
    3    2    9     -1.71      0.00 
    4    2    9     -0.45      0.00 
    5    2    9     -1.16      0.00 
    6    2    9      0.90      0.00 
    7    2    9      0.99      0.00 
    8    2    9     -0.55      0.00 
    9    2    9     -0.32      0.00 
   10    2    9      1.04      0.00 
   11    2    9     -0.54      0.00 
   12    2    9     -0.97      0.00 
    1    3    9      4.92      0.00 
    2    3    9     -3.13      0.00 
    3    3    9     -3.06      0.00 
    4    3    9      4.39      0.00 
    5    3    9     -0.27      0.00 
    6    3    9     -0.09      0.00 
    7    3    9      0.73      0.00 
    8    3    9     -1.36      0.00 
    9    3    9      0.45      0.00 
   10    3    9     -0.73      0.00 
   11    3    9      0.21      0.00 
   12    3    9     -0.04      0.00 
    0    4    9     31.67      0.00 
    1    4    9    -20.94      0.00 
    2    4    9      2.35      0.00 
    3    4    9      5.57      0.00 
    4    4    9     -0.84      0.00 
    5    4    9     -0.50      0.00 
    6    4    9     -2.57      0.00 
    7    4    9      1.16      0.00 
    8    4    9      0.39      0.00 
    9    4    9     -0.16      0.00 
   10    4    9     -0.77      0.00 
   11    4    9     -0.24      0.00 
   12    4    9      1.90      0.00 
    1    5    9      5.63      0.00 
    2    5    9     -6.05      0.00 
    3    5    9      2.71      0.00 
    4    5    9      0.15      0.00 
    5    5    9     -1.95      0.00 
    6    5    9     -1.00      0.00 
    7    5    9      1.50      0.00 
    8    5    9      0.80      0.00 
    9    5    9     -1.44      0.00 
   10    5    9     -0.07      0.00 
   11    5    9      1.49      0.00 
   12    5    9      0.20      0.00 
    0    6    9     -0.09      0.00 
    1    6    9      2.68      0.00 
    2    6    9     -7.30      0.00 
    3    6    9      8.45      0.00 
    4    6    9     -6.63      0.00 
    5    6    9     -0.63      0.00 
    6    6    9      3.81      0.00 
    7    6    9      0.02      0.00 
    8    6    9     -0.32      0.00 
    9    6    9      0.58      0.00 
   10    6    9     -2.36      0.00 
   11    6    9      4.07      0.00 
   12    6    9     -3.90      0.00 
    1    7    9      1.03      0.00 
    2    7    9      1.53      0.00 
    3    7    9     -1.11      0.00 
    4    7    9     -1.88      0.00 
    5    7    9      2.60      0.00 
    6    7    9      0.21      0.00 
    7    7    9      0.69      0.00 
    8    7    9     -0.67      0.00 
    9    7    9     -0.38      0.00 
   10    7    9     -0.56      0.00 
   11    7    9      0.15      0.00 
   12    7    9      0.78      0.00 
    0    8    9      3.79      0.00 
    1    8    9     -0.87      0.00 
    2    8    9     -0.06      0.00 
    3    8    9     -3.45      0.00 
    4    8    9      3.79      0.00 
    5    8    9      2.05      0.00 
    6    8    9     -2.34      0.00 
    7    8    9     -0.63      0.00 
    8    8    9     -0.71      0.00 
    9    8    9     -0.25      0.00 
   10    8    9      1.01      0.00 
   11    8    9     -0.58      0.00 
    1    9    9     -7.73      0.00 
    2    9    9      6.13      0.00 
    3    9    9     -1.98      0.00 
    4    9    9      1.76      0.00 
    5    9    9     -1.58      0.00 
    6    9    9     -1.23      0.00 
    7    9    9     -0.64      0.00 
    8    9    9      1.08      0.00 
    9    9    9     -0.39      0.00 
   10    9    9      1.52      0.00 
   11    9    9     -1.02      0.00 
    0   10    9     -6.90      0.00 
    1   10    9      2.53      0.00 
    2   10    9      2.05      0.00 
    3   10    9     -0.33      0.00 
    4   10    9     -3.75      0.00 
    5   10    9      2.84      0.00 
    6   10    9     -0.40      0.00 
    7   10    9     -1.81      0.00 
    8   10    9      2.33      0.00 
    9   10    9      0.18      0.00 
   10   10    9      0.58      0.00 
   11   10    9     -2.47      0.00 
    1   11    9     -2.60      0.00 
    2   11    9      2.29      0.00 
    3   11    9     -0.99      0.00 
    4   11    9     -1.13      0.00 
    5   11    9      2.54      0.00 
    6   11    9     -0.44      0.00 
    7   11    9     -0.09      0.00 
    8   11    9      0.89      0.00 
    9   11    9      0.08      0.00 
   10   11    9     -0.75      0.00 
   11   11    9     -0.41      0.00 
    0   12    9      1.94      0.00 
    1   12    9     -3.48      0.00 
    2   12    9      4.96      0.00 
    3   12    9     -2.71      0.00 
    4   12    9      1.19      0.00 
    5   12    9     -0.51      0.00 
    6   12    9      0.15      0.00 
    7   12    9      1.60      0.00 
    8   12    9     -1.87      0.00 
    9   12    9     -0.51      0.00 
   10   12    9      0.08      0.00 
   11   12    9      2.01      0.00 
    1   13    9      0.15      0.00 
    2   13    9      0.76      0.00 
    3   13    9     -1.64      0.00 
    4   13    9      2.23      0.00 
    5   13    9     -1.72      0.00 
    6   13    9     -0.02      0.00 
    7   13    9      0.58      0.00 
    8   13    9     -2.47      0.00 
    9   13    9      1.04      0.00 
   10   13    9      1.08      0.00 
   11   13    9     -0.78      0.00 
    0   14    9     -2.08      0.00 
    1   14    9      2.72      0.00 
    2   14    9     -4.12      0.00 
    3   14    9      4.08      0.00 
    4   14    9     -2.26      0.00 
    5   14    9     -0.44      0.00 
    6   14    9     -0.43      0.00 
    7   14    9      1.03      0.00 
    8   14    9     -0.26      0.00 
    9   14    9     -0.14      0.00 
   10   14    9      2.12      0.00 
   11   14    9     -2.53      0.00 
    1   15    9     -0.60      0.00 
    2   15    9      0.63      0.00 
    3   15    9      1.39      0.00 
    4   15    9     -3.70      0.00 
    5   15    9      2.29      0.00 
    6   15    9      0.64      0.00 
    7   15    9      0.04      0.00 
    8   15    9      0.22      0.00 
    9   15    9     -0.27      0.00 
   10   15    9     -0.20      0.00 
   11   15    9      1.01      0.00 
    0   16    9      2.91      0.00 
    1   16    9     -1.13      0.00 
    2   16    9     -0.88      0.00 
    3   16    9      0.51      0.00 
    4   16    9      0.16      0.00 
    5   16    9      0.66      0.00 
    6   16    9      1.15      0.00 
    7   16    9     -1.97      0.00 
    8   16    9      0.52      0.00 
    9   16    9      0.07      0.00 
   10   16    9     -1.05      0.00 
   11   16    9      0.57      0.00 
    1   17    9     -2.37      0.00 
    2   17    9      2.83      0.00 
    3   17    9     -1.86      0.00 
    4   17    9      0.95      0.00 
    5   17    9      0.19      0.00 
    6   17    9     -1.32      0.00 
    7   17    9     -0.20      0.00 
    8   17    9      0.08      0.00 
    9   17    9      1.65      0.00 
   10   17    9     -2.44      0.00 
    0   18    9      0.35      0.00 
    1   18    9     -0.89      0.00 
    2   18    9      1.54      0.00 
    3   18    9     -1.13      0.00 
    4   18    9     -0.20      0.00 
    5   18    9     -0.27      0.00 
    6   18    9     -0.17      0.00 
    7   18    9      0.98      0.00 
    8   18    9     -0.56      0.00 
    9   18    9      0.92      0.00 
   10   18    9     -0.85      0.00 
    1   19    9      1.52      0.00 
    2   19    9     -1.70      0.00 
    3   19    9      0.63      0.00 
    4   19    9      0.61      0.00 
    5   19    9     -0.99      0.00 
    6   19    9      1.01      0.00 
    7   19    9      0.18      0.00 
    8   19    9     -0.54      0.00 
    9   19    9      1.16      0.00 
   10   19    9     -1.16      0.00 
    0   20    9     -5.45      0.00 
    1   20    9      3.41      0.00 
    2   20    9      0.21      0.00 
    3   20    9     -1.74      0.00 
    4   20    9      1.90      0.00 
    5   20    9     -0.03      0.00 
    6   20    9     -1.76      0.00 
    7   20    9      1.12      0.00 
    8   20    9      0.10      0.00 
    9   20    9     -0.36      0.00 
   10   20    9     -1.05      0.00 
    1   21    9      0.40      0.00 
    2   21    9      0.97      0.00 
    3   21    9     -2.66      0.00 
    4   21    9      2.82      0.00 
    5   21    9     -2.03      0.00 
    6   21    9      0.79      0.00 
    7   21    9     -0.77      0.00 
    8   21    9      0.95      0.00 
    9   21    9     -2.22      0.00 
   10   21    9      2.69      0.00 
    0   22    9      1.57      0.00 
    1   22    9     -0.90      0.00 
    2   22    9     -0.40      0.00 
    3   22    9      0.48      0.00 
    4   22    9     -0.40      0.00 
    5   22    9      0.09      0.00 
    6   22    9      0.88      0.00 
    7   22    9     -0.88      0.00 
    8   22    9      0.25      0.00 
    9   22    9     -0.32      0.00 
    1   23    9     -0.82      0.00 
    2   23    9      0.53      0.00 
    3   23    9     -0.56      0.00 
    4   23    9      0.46      0.00 
    5   23    9      0.31      0.00 
    6   23    9      0.19      0.00 
    7   23    9     -0.44      0.00 
    8   23    9      0.17      0.00 
    9   23    9      0.34      0.00 
    0   24    9     -0.03      0.00 
    1   24    9      0.40      0.00 
    2   24    9     -0.45      0.00 
    3   24    9      0.05      0.00 
    4   24    9     -0.45      0.00 
    5   24    9      1.68      0.00 
    6   24    9     -1.96      0.00 
    7   24    9      0.60      0.00 
    8   24    9      0.67      0.00 
    9   24    9     -0.52      0.00 
    1   25    9      1.28      0.00 
    2   25    9     -0.82      0.00 
    3   25    9     -0.31      0.00 
    4   25    9      0.73      0.00 
    5   25    9     -0.43      0.00 
    6   25    9     -0.38      0.00 
    7   25    9      0.82      0.00 
    8   25    9     -0.15      0.00 
    0   26    9     -1.86      0.00 
    1   26    9      1.12      0.00 
    2   26    9      0.32      0.00 
    3   26    9     -1.01      0.00 
    4   26    9      1.80      0.00 
    5   26    9     -2.24      0.00 
    6   26    9      1.05      0.00 
    7   26    9     -0.28      0.00 
    8   26    9      0.51      0.00 
    1   27    9     -0.12      0.00 
    2   27    9      1.23      0.00 
    3   27    9     -1.24      0.00 
    4   27    9      0.41      0.00 
    5   27    9     -0.70      0.00 
    6   27    9      0.88      0.00 
    7   27    9     -1.48      0.00 
    8   27    9      1.42      0.00 
    0   28    9     -0.13      0.00 
    1   28    9      1.25      0.00 
    2   28    9     -2.33      0.00 
    3   28    9      0.48      0.00 
    4   28    9      0.30      0.00 
    5   28    9      1.50      0.00 
    6   28    9     -2.60      0.00 
    7   28    9      2.42      0.00 
    8   28    9     -1.14      0.00 
    1   29    9      0.23      0.00 
    2   29    9     -2.78      0.00 
    3   29    9      3.75      0.00 
    4   29    9     -1.35      0.00 
    5   29    9      0.98      0.00 
    6   29    9     -1.94      0.00 
    7   29    9      2.51      0.00 
    0   30    9      0.05      0.00 
    1   30    9     -1.61      0.00 
    2   30    9      2.93      0.00 
    3   30    9     -0.18      0.00 
    4   30    9     -1.36      0.00 
    5   30    9     -0.60      0.00 
    6   30    9      2.87      0.00 
    7   30    9     -3.34      0.00 
    1   31    9      0.32      0.00 
    2   31    9      1.02      0.00 
    3   31    9     -2.12      0.00 
    4   31    9      0.96      0.00 
    5   31    9     -1.67      0.00 
    6   31    9      2.22      0.00 
    0   32    9     -1.30      0.00 
    1   32    9      0.69      0.00 
    2   32    9      0.14      0.00 
    3   32    9     -0.53      0.00 
    4   32    9     -1.08      0.00 
    5   32    9      1.80      0.00 
    1   33    9     -0.14      0.00 
    2   33    9     -0.17      0.00 
    3   33    9      0.21      0.00 
    4   33    9      0.93      0.00 
    5   33    9     -0.40      0.00 
    0   34    9      1.19      0.00 
    1   34    9     -0.37      0.00 
    2   34    9     -0.38      0.00 
    3   34    9      0.62      0.00 
    4   34    9      0.41      0.00 
    1   35    9      2.96      0.00 
    2   35    9     -2.34      0.00 
    3   35    9     -0.36      0.00 
    0   36    9      1.20      0.00 
    1   36    9     -0.55      0.00 
    0    0   10    -19.97      0.00 
    1    0   10     16.61      0.00 
    2    0   10    -12.29      0.00 
    3    0   10      5.74      0.00 
    4    0   10     -2.07      0.00 
    5    0   10      1.50      0.00 
    6    0   10      1.80      0.00 
    7    0   10     -4.13      0.00 
    8    0   10      1.38      0.00 
    9    0   10      2.22      0.00 
   10    0   10     -0.23      0.00 
   11    0   10     -0.33      0.00 
   12    0   10     -0.81      0.00 
    1    1   10     -4.59      0.00 
    2    1   10     -1.51      0.00 
    3    1   10      9.24      0.00 
    4    1   10     -5.66      0.00 
    5    1   10      0.21      0.00 
    6    1   10      2.40      0.00 
    7    1   10     -0.70      0.00 
    8    1   10      0.03      0.00 
    9    1   10      0.57      0.00 
   10    1   10     -0.93      0.00 
   11    1   10     -0.91      0.00 
   12    1   10      0.37      0.00 
    0    2   10     -3.56      0.00 
    1    2   10      2.28      0.00 
    2    2   10      4.28      0.00 
    3    2   10     -7.19      0.00 
    4    2   10      4.31      0.00 
    5    2   10     -0.67      0.00 
    6    2   10     -0.55      0.00 
    7    2   10      0.90      0.00 
    8    2   10     -1.31      0.00 
    9    2   10     -0.67      0.00 
   10    2   10      0.50      0.00 
   11    2   10     -0.34      0.00 
   12    2   10      0.95      0.00 
    1    3   10     -1.23      0.00 
    2    3   10     -3.77      0.00 
    3    3   10      4.38      0.00 
    4    3   10     -2.55      0.00 
    5    3   10      0.52      0.00 
    6    3   10      1.13      0.00 
    7    3   10     -1.84      0.00 
    8    3   10     -1.42      0.00 
    9    3   10      1.62      0.00 
   10    3   10      0.97      0.00 
   11    3   10     -0.36      0.00 
   12    3   10     -1.01      0.00 
    0    4   10    -17.95      0.00 
    1    4   10     10.77      0.00 
    2    4   10     -0.66      0.00 
    3    4   10     -3.63      0.00 
    4    4   10      2.59      0.00 
    5    4   10     -1.62      0.00 
    6    4   10      0.38      0.00 
    7    4   10      0.59      0.00 
    8    4   10      0.38      0.00 
    9    4   10     -0.24      0.00 
   10    4   10      1.11      0.00 
   11    4   10     -1.63      0.00 
   12    4   10      1.09      0.00 
    1    5   10      5.51      0.00 
    2    5   10     -3.08      0.00 
    3    5   10      0.80      0.00 
    4    5   10      0.53      0.00 
    5    5   10     -0.48      0.00 
    6    5   10      0.34      0.00 
    7    5   10     -0.50      0.00 
    8    5   10      0.34      0.00 
    9    5   10      1.18      0.00 
   10    5   10     -0.44      0.00 
   11    5   10      0.27      0.00 
   12    5   10     -1.68      0.00 
    0    6   10     17.57      0.00 
    1    6   10    -12.31      0.00 
    2    6   10      3.25      0.00 
    3    6   10      2.61      0.00 
    4    6   10     -1.26      0.00 
    5    6   10     -1.26      0.00 
    6    6   10     -0.14      0.00 
    7    6   10      1.05      0.00 
    8    6   10      0.54      0.00 
    9    6   10     -0.12      0.00 
   10    6   10     -1.49      0.00 
   11    6   10      0.05      0.00 
   12    6   10     -0.16      0.00 
    1    7   10      6.62      0.00 
    2    7   10     -7.53      0.00 
    3    7   10      3.09      0.00 
    4    7   10      0.50      0.00 
    5    7   10     -2.17      0.00 
    6    7   10      0.61      0.00 
    7    7   10      1.06      0.00 
    8    7   10      0.59      0.00 
    9    7   10     -1.95      0.00 
   10    7   10     -0.96      0.00 
   11    7   10      0.38      0.00 
    0    8   10      2.21      0.00 
    1    8   10     -0.73      0.00 
    2    8   10     -4.45      0.00 
    3    8   10      5.66      0.00 
    4    8   10     -0.68      0.00 
    5    8   10     -1.92      0.00 
    6    8   10      0.76      0.00 
    7    8   10      0.59      0.00 
    8    8   10     -1.54      0.00 
    9    8   10      0.76      0.00 
   10    8   10     -1.34      0.00 
   11    8   10      3.13      0.00 
    1    9   10      5.17      0.00 
    2    9   10     -3.64      0.00 
    3    9   10      2.35      0.00 
    4    9   10     -2.78      0.00 
    5    9   10      0.83      0.00 
    6    9   10      1.63      0.00 
    7    9   10     -0.77      0.00 
    8    9   10     -1.08      0.00 
    9    9   10      1.00      0.00 
   10    9   10      0.65      0.00 
   11    9   10      0.55      0.00 
    0   10   10      2.55      0.00 
    1   10   10      1.71      0.00 
    2   10   10     -3.85      0.00 
    3   10   10     -0.12      0.00 
    4   10   10      0.99      0.00 
    5   10   10      0.22      0.00 
    6   10   10      0.17      0.00 
    7   10   10     -0.52      0.00 
    8   10   10      0.14      0.00 
    9   10   10      0.76      0.00 
   10   10   10     -0.35      0.00 
   11   10   10     -0.16      0.00 
    1   11   10     -6.23      0.00 
    2   11   10      4.04      0.00 
    3   11   10     -2.15      0.00 
    4   11   10      2.23      0.00 
    5   11   10     -0.17      0.00 
    6   11   10     -1.25      0.00 
    7   11   10      0.05      0.00 
    8   11   10      2.07      0.00 
    9   11   10     -2.63      0.00 
   10   11   10      1.07      0.00 
   11   11   10     -1.04      0.00 
    0   12   10      1.77      0.00 
    1   12   10     -3.54      0.00 
    2   12   10      4.53      0.00 
    3   12   10     -2.10      0.00 
    4   12   10     -1.02      0.00 
    5   12   10      2.33      0.00 
    6   12   10     -0.29      0.00 
    7   12   10     -1.48      0.00 
    8   12   10      0.58      0.00 
    9   12   10     -0.04      0.00 
   10   12   10      0.61      0.00 
   11   12   10     -1.20      0.00 
    1   13   10      0.91      0.00 
    2   13   10     -1.89      0.00 
    3   13   10      2.42      0.00 
    4   13   10     -0.04      0.00 
    5   13   10     -1.04      0.00 
    6   13   10     -0.37      0.00 
    7   13   10      0.00      0.00 
    8   13   10      0.28      0.00 
    9   13   10     -0.03      0.00 
   10   13   10      0.38      0.00 
   11   13   10     -0.13      0.00 
    0   14   10     -3.81      0.00 
    1   14   10      2.22      0.00 
    2   14   10      0.32      0.00 
    3   14   10     -0.21      0.00 
    4   14   10     -0.39      0.00 
    5   14   10     -0.72      0.00 
    6   14   10     -0.43      0.00 
    7   14   10      1.90      0.00 
    8   14   10     -0.86      0.00 
    9   14   10     -0.24      0.00 
   10   14   10     -0.40      0.00 
   11   14   10      0.96      0.00 
    1   15   10      0.21      0.00 
    2   15   10      1.40      0.00 
    3   15   10     -3.05      0.00 
    4   15   10      1.00      0.00 
    5   15   10      0.26      0.00 
    6   15   10      0.73      0.00 
    7   15   10      0.09      0.00 
    8   15   10     -0.95      0.00 
    9   15   10      0.13      0.00 
   10   15   10      2.14      0.00 
   11   15   10     -2.30      0.00 
    0   16   10      4.04      0.00 
    1   16   10     -3.34      0.00 
    2   16   10      1.12      0.00 
    3   16   10     -0.02      0.00 
    4   16   10      0.89      0.00 
    5   16   10     -0.29      0.00 
    6   16   10     -0.56      0.00 
    7   16   10      1.12      0.00 
    8   16   10     -0.72      0.00 
    9   16   10     -0.10      0.00 
   10   16   10      1.80      0.00 
   11   16   10     -2.95      0.00 
    1   17   10     -1.21      0.00 
    2   17   10      1.44      0.00 
    3   17   10      1.39      0.00 
    4   17   10     -2.74      0.00 
    5   17   10      1.35      0.00 
    6   17   10     -0.38      0.00 
    7   17   10     -0.03      0.00 
    8   17   10      0.76      0.00 
    9   17   10     -1.53      0.00 
   10   17   10     -0.09      0.00 
    0   18   10      2.42      0.00 
    1   18   10     -0.58      0.00 
    2   18   10     -1.97      0.00 
    3   18   10      3.04      0.00 
    4   18   10     -2.92      0.00 
    5   18   10      0.74      0.00 
    6   18   10      0.97      0.00 
    7   18   10     -1.33      0.00 
    8   18   10     -0.20      0.00 
    9   18   10      0.23      0.00 
   10   18   10      0.80      0.00 
    1   19   10     -2.32      0.00 
    2   19   10      0.82      0.00 
    3   19   10      0.95      0.00 
    4   19   10     -1.51      0.00 
    5   19   10      1.50      0.00 
    6   19   10     -0.60      0.00 
    7   19   10     -0.07      0.00 
    8   19   10     -1.14      0.00 
    9   19   10      3.54      0.00 
   10   19   10     -2.37      0.00 
    0   20   10     -0.19      0.00 
    1   20   10     -1.45      0.00 
    2   20   10      3.08      0.00 
    3   20   10     -2.49      0.00 
    4   20   10      1.85      0.00 
    5   20   10     -0.68      0.00 
    6   20   10      0.01      0.00 
    7   20   10      0.74      0.00 
    8   20   10     -0.86      0.00 
    9   20   10      0.83      0.00 
   10   20   10     -0.85      0.00 
    1   21   10      0.08      0.00 
    2   21   10      0.46      0.00 
    3   21   10     -0.81      0.00 
    4   21   10      0.77      0.00 
    5   21   10     -0.55      0.00 
    6   21   10      0.06      0.00 
    7   21   10     -0.12      0.00 
    8   21   10      0.34      0.00 
    9   21   10     -0.99      0.00 
   10   21   10      0.00      0.00 
    0   22   10      0.70      0.00 
    1   22   10     -0.14      0.00 
    2   22   10     -0.08      0.00 
    3   22   10     -0.55      0.00 
    4   22   10     -0.19      0.00 
    5   22   10      0.35      0.00 
    6   22   10     -0.62      0.00 
    7   22   10      1.47      0.00 
    8   22   10     -1.37      0.00 
    9   22   10      0.39      0.00 
    1   23   10     -0.35      0.00 
    2   23   10      0.61      0.00 
    3   23   10     -0.61      0.00 
    4   23   10      0.18      0.00 
    5   23   10     -0.10      0.00 
    6   23   10      0.94      0.00 
    7   23   10     -0.41      0.00 
    8   23   10      0.21      0.00 
    9   23   10     -0.03      0.00 
    0   24   10      0.44      0.00 
    1   24   10     -0.52      0.00 
    2   24   10      1.05      0.00 
    3   24   10     -0.73      0.00 
    4   24   10      0.19      0.00 
    5   24   10      0.51      0.00 
    6   24   10     -0.34      0.00 
    7   24   10     -0.77      0.00 
    8   24   10      1.10      0.00 
    9   24   10     -0.42      0.00 
    1   25   10     -0.61      0.00 
    2   25   10      1.01      0.00 
    3   25   10     -1.16      0.00 
    4   25   10      1.35      0.00 
    5   25   10     -1.23      0.00 
    6   25   10     -0.16      0.00 
    7   25   10      0.02      0.00 
    8   25   10     -0.18      0.00 
    0   26   10      0.91      0.00 
    1   26   10     -1.43      0.00 
    2   26   10      0.67      0.00 
    3   26   10      0.66      0.00 
    4   26   10     -0.61      0.00 
    5   26   10     -0.42      0.00 
    6   26   10     -0.02      0.00 
    7   26   10      0.97      0.00 
    8   26   10     -0.44      0.00 
    1   27   10     -0.29      0.00 
    2   27   10      2.16      0.00 
    3   27   10     -2.63      0.00 
    4   27   10      0.32      0.00 
    5   27   10      1.99      0.00 
    6   27   10     -0.75      0.00 
    7   27   10     -0.49      0.00 
    8   27   10      0.51      0.00 
    0   28   10     -1.02      0.00 
    1   28   10      1.96      0.00 
    2   28   10     -1.35      0.00 
    3   28   10     -1.95      0.00 
    4   28   10      3.13      0.00 
    5   28   10      0.61      0.00 
    6   28   10     -3.08      0.00 
    7   28   10      1.96      0.00 
    1   29   10      0.83      0.00 
    2   29   10     -1.61      0.00 
    3   29   10      0.19      0.00 
    4   29   10      1.98      0.00 
    5   29   10     -2.16      0.00 
    6   29   10      0.16      0.00 
    7   29   10      0.30      0.00 
    0   30   10      0.87      0.00 
    1   30   10     -1.26      0.00 
    2   30   10      1.24      0.00 
    3   30   10     -0.22      0.00 
    4   30   10     -0.23      0.00 
    5   30   10     -0.95      0.00 
    6   30   10      0.58      0.00 
    7   30   10      0.68      0.00 
    1   31   10     -2.16      0.00 
    2   31   10      1.42      0.00 
    3   31   10      1.50      0.00 
    4   31   10     -3.41      0.00 
    5   31   10      2.58      0.00 
    6   31   10     -0.91      0.00 
    0   32   10     -3.65      0.00 
    1   32   10      3.07      0.00 
    2   32   10     -1.72      0.00 
    3   32   10      0.28      0.00 
    4   32   10      0.37      0.00 
    5   32   10      0.54      0.00 
    1   33   10      0.58      0.00 
    2   33   10     -0.27      0.00 
    3   33   10      0.10      0.00 
    4   33   10      0.82      0.00 
    5   33   10     -1.23      0.00 
    0   34   10      2.93      0.00 
    1   34   10     -3.15      0.00 
    2   34   10      3.30      0.00 
    3   34   10     -1.43      0.00 
    4   34   10     -1.22      0.00 
    1    1   11     -1.67      0.00 
    2    1   11      6.41      0.00 
    3    1   11     -9.45      0.00 
    4    1   11      5.32      0.00 
    5    1   11      0.25      0.00 
    6    1   11     -1.08      0.00 
    7    1   11      0.86      0.00 
    8    1   11      0.57      0.00 
    9    1   11     -2.12      0.00 
   10    1   11      0.61      0.00 
   11    1   11      0.29      0.00 
   12    1   11      1.01      0.00 
    0    2   11      8.82      0.00 
    1    2   11     -2.95      0.00 
    2    2   11     -3.16      0.00 
    3    2   11      1.64      0.00 
    4    2   11     -0.40      0.00 
    5    2   11      2.09      0.00 
    6    2   11     -0.52      0.00 
    7    2   11     -1.91      0.00 
    8    2   11      0.44      0.00 
    9    2   11      1.03      0.00 
   10    2   11     -0.66      0.00 
   11    2   11     -0.45      0.00 
   12    2   11      0.90      0.00 
    1    3   11     -2.60      0.00 
    2    3   11      0.86      0.00 
    3    3   11      3.91      0.00 
    4    3   11     -3.56      0.00 
    5    3   11     -0.19      0.00 
    6    3   11     -0.33      0.00 
    7    3   11     -0.56      0.00 
    8    3   11      1.23      0.00 
    9    3   11      0.26      0.00 
   10    3   11     -0.16      0.00 
   11    3   11     -0.67      0.00 
   12    3   11      1.08      0.00 
    0    4   11    -25.67      0.00 
    1    4   11     18.04      0.00 
    2    4   11     -3.70      0.00 
    3    4   11     -3.14      0.00 
    4    4   11      0.11      0.00 
    5    4   11     -0.18      0.00 
    6    4   11      2.33      0.00 
    7    4   11     -0.34      0.00 
    8    4   11     -0.82      0.00 
    9    4   11     -0.30      0.00 
   10    4   11      1.35      0.00 
   11    4   11      0.14      0.00 
   12    4   11     -1.28      0.00 
    1    5   11     -5.11      0.00 
    2    5   11      4.26      0.00 
    3    5   11     -1.89      0.00 
    4    5   11      0.36      0.00 
    5    5   11      1.43      0.00 
    6    5   11     -0.19      0.00 
    7    5   11      0.42      0.00 
    8    5   11     -1.63      0.00 
    9    5   11      1.43      0.00 
   10    5   11      0.54      0.00 
   11    5   11     -1.24      0.00 
   12    5   11     -1.08      0.00 
    0    6   11     -3.12      0.00 
    1    6   11     -0.81      0.00 
    2    6   11      6.11      0.00 
    3    6   11     -7.02      0.00 
    4    6   11      5.91      0.00 
    5    6   11      0.05      0.00 
    6    6   11     -2.59      0.00 
    7    6   11     -0.32      0.00 
    8    6   11      0.44      0.00 
    9    6   11     -0.40      0.00 
   10    6   11      1.62      0.00 
   11    6   11     -3.34      0.00 
    1    7   11     -1.04      0.00 
    2    7   11     -0.19      0.00 
    3    7   11      0.76      0.00 
    4    7   11      0.58      0.00 
    5    7   11     -0.97      0.00 
    6    7   11     -0.44      0.00 
    7    7   11     -1.26      0.00 
    8    7   11      1.16      0.00 
    9    7   11     -0.32      0.00 
   10    7   11      0.71      0.00 
   11    7   11     -0.04      0.00 
    0    8   11     -3.31      0.00 
    1    8   11      1.04      0.00 
    2    8   11      0.61      0.00 
    3    8   11      1.76      0.00 
    4    8   11     -2.92      0.00 
    5    8   11     -1.17      0.00 
    6    8   11      0.91      0.00 
    7    8   11      0.72      0.00 
    8    8   11      1.08      0.00 
    9    8   11     -0.15      0.00 
   10    8   11     -0.71      0.00 
   11    8   11      0.55      0.00 
    1    9   11      7.79      0.00 
    2    9   11     -7.36      0.00 
    3    9   11      2.80      0.00 
    4    9   11     -1.55      0.00 
    5    9   11      0.76      0.00 
    6    9   11      1.65      0.00 
    7    9   11      0.04      0.00 
    8    9   11     -0.54      0.00 
    9    9   11      0.90      0.00 
   10    9   11     -1.99      0.00 
   11    9   11      0.89      0.00 
    0   10   11      5.94      0.00 
    1   10   11     -2.77      0.00 
    2   10   11     -1.28      0.00 
    3   10   11      0.47      0.00 
    4   10   11      3.33      0.00 
    5   10   11     -3.04      0.00 
    6   10   11      0.58      0.00 
    7   10   11      2.19      0.00 
    8   10   11     -2.18      0.00 
    9   10   11      0.19      0.00 
   10   10   11     -1.48      0.00 
   11   10   11      2.35      0.00 
    1   11   11      2.24      0.00 
    2   11   11     -0.79      0.00 
    3   11   11      0.28      0.00 
    4   11   11      0.13      0.00 
    5   11   11     -1.57      0.00 
    6   11   11      0.91      0.00 
    7   11   11     -0.01      0.00 
    8   11   11     -0.93      0.00 
    9   11   11     -0.70      0.00 
   10   11   11      0.33      0.00 
   11   11   11      1.31      0.00 
    0   12   11      0.08      0.00 
    1   12   11      2.51      0.00 
    2   12   11     -4.42      0.00 
    3   12   11      1.44      0.00 
    4   12   11     -0.62      0.00 
    5   12   11      1.48      0.00 
    6   12   11     -0.52      0.00 
    7   12   11     -2.21      0.00 
    8   12   11      1.67      0.00 
    9   12   11      0.25      0.00 
   10   12   11      0.13      0.00 
   11   12   11     -0.42      0.00 
    1   13   11     -1.32      0.00 
    2   13   11     -0.61      0.00 
    3   13   11      1.64      0.00 
    4   13   11     -1.01      0.00 
    5   13   11      0.90      0.00 
    6   13   11     -0.85      0.00 
    7   13   11     -0.04      0.00 
    8   13   11      2.13      0.00 
    9   13   11     -0.69      0.00 
   10   13   11     -0.24      0.00 
   11   13   11      0.20      0.00 
    0   14   11      1.69      0.00 
    1   14   11     -2.43      0.00 
    2   14   11      3.00      0.00 
    3   14   11     -1.71      0.00 
    4   14   11      0.59      0.00 
    5   14   11     -0.16      0.00 
    6   14   11      1.34      0.00 
    7   14   11     -1.02      0.00 
    8   14   11      0.26      0.00 
    9   14   11      0.56      0.00 
   10   14   11     -2.14      0.00 
   11   14   11      1.75      0.00 
    1   15   11      1.47      0.00 
    2   15   11     -1.56      0.00 
    3   15   11     -0.60      0.00 
    4   15   11      2.91      0.00 
    5   15   11     -2.24      0.00 
    6   15   11      0.32      0.00 
    7   15   11     -0.13      0.00 
    8   15   11     -0.53      0.00 
    9   15   11     -0.24      0.00 
   10   15   11      1.12      0.00 
   11   15   11     -1.78      0.00 
    0   16   11     -2.79      0.00 
    1   16   11      0.98      0.00 
    2   16   11      1.12      0.00 
    3   16   11     -0.92      0.00 
    4   16   11      0.17      0.00 
    5   16   11     -0.22      0.00 
    6   16   11     -1.18      0.00 
    7   16   11      1.30      0.00 
    8   16   11     -0.70      0.00 
    9   16   11      0.37      0.00 
   10   16   11      1.07      0.00 
    1   17   11      1.84      0.00 
    2   17   11     -1.67      0.00 
    3   17   11      0.46      0.00 
    4   17   11      0.25      0.00 
    5   17   11     -0.13      0.00 
    6   17   11     -0.30      0.00 
    7   17   11      1.15      0.00 
    8   17   11     -0.50      0.00 
    9   17   11     -0.62      0.00 
   10   17   11      1.68      0.00 
    0   18   11      0.09      0.00 
    1   18   11      0.68      0.00 
    2   18   11     -1.66      0.00 
    3   18   11      1.38      0.00 
    4   18   11      0.33      0.00 
    5   18   11     -0.67      0.00 
    6   18   11      0.22      0.00 
    7   18   11     -0.26      0.00 
    8   18   11      1.05      0.00 
    9   18   11     -1.39      0.00 
   10   18   11      0.37      0.00 
    1   19   11     -1.68      0.00 
    2   19   11      1.61      0.00 
    3   19   11     -0.06      0.00 
    4   19   11     -1.60      0.00 
    5   19   11      1.21      0.00 
    6   19   11     -0.06      0.00 
    7   19   11     -0.52      0.00 
    8   19   11      0.86      0.00 
    9   19   11     -2.05      0.00 
   10   19   11      1.43      0.00 
    0   20   11      4.51      0.00 
    1   20   11     -2.98      0.00 
    2   20   11      0.18      0.00 
    3   20   11      1.02      0.00 
    4   20   11     -1.63      0.00 
    5   20   11      0.88      0.00 
    6   20   11      0.90      0.00 
    7   20   11     -0.65      0.00 
    8   20   11     -0.80      0.00 
    9   20   11      0.67      0.00 
   10   20   11      0.79      0.00 
    1   21   11      0.07      0.00 
    2   21   11     -1.00      0.00 
    3   21   11      2.23      0.00 
    4   21   11     -2.04      0.00 
    5   21   11      1.43      0.00 
    6   21   11     -0.97      0.00 
    7   21   11      1.01      0.00 
    8   21   11     -1.28      0.00 
    9   21   11      2.51      0.00 
   10   21   11     -2.71      0.00 
    0   22   11     -1.33      0.00 
    1   22   11      1.04      0.00 
    2   22   11      0.11      0.00 
    3   22   11     -0.45      0.00 
    4   22   11      0.31      0.00 
    5   22   11     -0.43      0.00 
    6   22   11     -0.39      0.00 
    7   22   11      0.92      0.00 
    8   22   11     -0.57      0.00 
    9   22   11      0.46      0.00 
    1   23   11      0.28      0.00 
    2   23   11     -0.64      0.00 
    3   23   11      1.01      0.00 
    4   23   11     -1.15      0.00 
    5   23   11      0.32      0.00 
    6   23   11      0.17      0.00 
    7   23   11     -0.13      0.00 
    8   23   11     -0.15      0.00 
    9   23   11      0.02      0.00 
    0   24   11     -0.18      0.00 
    1   24   11     -0.64      0.00 
    2   24   11      0.68      0.00 
    3   24   11      0.28      0.00 
    4   24   11      0.02      0.00 
    5   24   11     -0.93      0.00 
    6   24   11      1.82      0.00 
    7   24   11     -1.75      0.00 
    8   24   11      0.40      0.00 
    9   24   11      0.26      0.00 
    1   25   11     -0.94      0.00 
    2   25   11      0.69      0.00 
    3   25   11      0.62      0.00 
    4   25   11     -0.83      0.00 
    5   25   11      0.25      0.00 
    6   25   11      0.17      0.00 
    7   25   11     -1.10      0.00 
    8   25   11      1.23      0.00 
    0   26   11      2.04      0.00 
    1   26   11     -1.08      0.00 
    2   26   11     -0.43      0.00 
    3   26   11      1.27      0.00 
    4   26   11     -2.08      0.00 
    5   26   11      1.61      0.00 
    6   26   11     -0.46      0.00 
    7   26   11      0.77      0.00 
    8   26   11     -1.15      0.00 
    1   27   11      0.07      0.00 
    2   27   11     -0.96      0.00 
    3   27   11      0.68      0.00 
    4   27   11     -0.35      0.00 
    5   27   11      0.92      0.00 
    6   27   11     -0.51      0.00 
    7   27   11      1.11      0.00 
    8   27   11     -1.65      0.00 
    0   28   11      0.19      0.00 
    1   28   11     -1.34      0.00 
    2   28   11      2.54      0.00 
    3   28   11     -1.11      0.00 
    4   28   11      0.08      0.00 
    5   28   11     -0.63      0.00 
    6   28   11      1.33      0.00 
    7   28   11     -1.62      0.00 
    1   29   11     -0.08      0.00 
    2   29   11      2.62      0.00 
    3   29   11     -3.68      0.00 
    4   29   11      1.61      0.00 
    5   29   11     -0.93      0.00 
    6   29   11      1.13      0.00 
    7   29   11     -1.63      0.00 
    0   30   11      0.65      0.00 
    1   30   11      1.12      0.00 
    2   30   11     -2.66      0.00 
    3   30   11      0.09      0.00 
    4   30   11      1.37      0.00 
    5   30   11      0.51      0.00 
    6   30   11     -2.86      0.00 
    1   31   11     -0.90      0.00 
    2   31   11     -0.38      0.00 
    3   31   11      1.55      0.00 
    4   31   11     -0.58      0.00 
    5   31   11      1.47      0.00 
    6   31   11     -2.21      0.00 
    0   32   11      0.98      0.00 
    1   32   11     -0.67      0.00 
    2   32   11      0.06      0.00 
    3   32   11      0.66      0.00 
    4   32   11      0.71      0.00 
    1   33   11      0.21      0.00 
    2   33   11      0.23      0.00 
    3   33   11     -0.55      0.00 
    4   33   11     -0.70      0.00 
    1   34   11      1.36      0.00 
    2   34   11      0.18      0.00 
    3   34   11     -1.13      0.00 
    2   35   11      1.97      0.00 
    0    0   12     11.87      0.00 
    1    0   12     -9.55      0.00 
    2    0   12      7.55      0.00 
    3    0   12     -5.37      0.00 
    4    0   12      4.29      0.00 
    5    0   12     -3.14      0.00 
    6    0   12     -1.17      0.00 
    7    0   12      4.44      0.00 
    8    0   12     -1.04      0.00 
    9    0   12     -2.42      0.00 
   10    0   12     -0.24      0.00 
   11    0   12      0.83      0.00 
   12    0   12      0.64      0.00 
    1    1   12      0.80      0.00 
    2    1   12      4.05      0.00 
    3    1   12     -7.75      0.00 
    4    1   12      3.91      0.00 
    5    1   12      0.05      0.00 
    6    1   12     -1.09      0.00 
    7    1   12     -0.33      0.00 
    8    1   12      0.02      0.00 
    9    1   12     -0.73      0.00 
   10    1   12      0.89      0.00 
   11    1   12      0.68      0.00 
   12    1   12     -0.40      0.00 
    0    2   12      4.20      0.00 
    1    2   12     -3.45      0.00 
    2    2   12     -1.75      0.00 
    3    2   12      5.90      0.00 
    4    2   12     -4.94      0.00 
    5    2   12      1.40      0.00 
    6    2   12      0.24      0.00 
    7    2   12     -1.11      0.00 
    8    2   12      1.08      0.00 
    9    2   12      0.63      0.00 
   10    2   12     -0.62      0.00 
   11    2   12      0.82      0.00 
   12    2   12     -1.12      0.00 
    1    3   12      0.68      0.00 
    2    3   12      4.03      0.00 
    3    3   12     -4.48      0.00 
    4    3   12      1.53      0.00 
    5    3   12     -0.03      0.00 
    6    3   12     -0.08      0.00 
    7    3   12      0.03      0.00 
    8    3   12      2.08      0.00 
    9    3   12     -1.17      0.00 
   10    3   12     -0.88      0.00 
   11    3   12      0.34      0.00 
   12    3   12      1.29      0.00 
    0    4   12     14.61      0.00 
    1    4   12     -8.82      0.00 
    2    4   12      0.67      0.00 
    3    4   12      2.14      0.00 
    4    4   12     -1.53      0.00 
    5    4   12      2.04      0.00 
    6    4   12     -0.97      0.00 
    7    4   12     -0.41      0.00 
    8    4   12     -0.19      0.00 
    9    4   12      0.46      0.00 
   10    4   12     -0.53      0.00 
   11    4   12      0.26      0.00 
   12    4   12     -0.38      0.00 
    1    5   12     -2.90      0.00 
    2    5   12      0.79      0.00 
    3    5   12     -0.29      0.00 
    4    5   12      0.85      0.00 
    5    5   12     -0.81      0.00 
    6    5   12      0.19      0.00 
    7    5   12      0.78      0.00 
    8    5   12     -0.81      0.00 
    9    5   12     -0.80      0.00 
   10    5   12     -0.10      0.00 
   11    5   12     -0.28      0.00 
    0    6   12    -11.35      0.00 
    1    6   12      8.50      0.00 
    2    6   12     -3.35      0.00 
    3    6   12     -0.66      0.00 
    4    6   12      0.38      0.00 
    5    6   12      0.83      0.00 
    6    6   12      0.61      0.00 
    7    6   12     -1.30      0.00 
    8    6   12     -0.79      0.00 
    9    6   12      0.03      0.00 
   10    6   12      1.91      0.00 
   11    6   12     -0.47      0.00 
    1    7   12     -7.58      0.00 
    2    7   12      8.26      0.00 
    3    7   12     -3.63      0.00 
    4    7   12      0.05      0.00 
    5    7   12      2.07      0.00 
    6    7   12     -1.98      0.00 
    7    7   12      0.43      0.00 
    8    7   12     -1.17      0.00 
    9    7   12      2.03      0.00 
   10    7   12      1.14      0.00 
   11    7   12     -0.75      0.00 
    0    8   12     -4.48      0.00 
    1    8   12      2.22      0.00 
    2    8   12      3.34      0.00 
    3    8   12     -4.15      0.00 
    4    8   12     -0.20      0.00 
    5    8   12      1.36      0.00 
    6    8   12     -0.21      0.00 
    7    8   12     -0.13      0.00 
    8    8   12      1.30      0.00 
    9    8   12     -0.94      0.00 
   10    8   12      1.12      0.00 
   11    8   12     -2.10      0.00 
    1    9   12     -2.55      0.00 
    2    9   12      1.56      0.00 
    3    9   12     -1.40      0.00 
    4    9   12      1.74      0.00 
    5    9   12     -0.02      0.00 
    6    9   12     -1.19      0.00 
    7    9   12      0.02      0.00 
    8    9   12      1.49      0.00 
    9    9   12     -1.35      0.00 
   10    9   12     -0.15      0.00 
   11    9   12     -0.46      0.00 
    0   10   12     -2.09      0.00 
    1   10   12     -1.14      0.00 
    2   10   12      2.73      0.00 
    3   10   12     -0.09      0.00 
    4   10   12     -0.11      0.00 
    5   10   12     -0.19      0.00 
    6   10   12     -0.58      0.00 
    7   10   12      0.34      0.00 
    8   10   12      0.23      0.00 
    9   10   12     -0.80      0.00 
   10   10   12      0.52      0.00 
   11   10   12     -0.86      0.00 
    1   11   12      4.14      0.00 
    2   11   12     -2.69      0.00 
    3   11   12      2.13      0.00 
    4   11   12     -2.19      0.00 
    5   11   12      0.04      0.00 
    6   11   12      0.94      0.00 
    7   11   12      0.10      0.00 
    8   11   12     -1.91      0.00 
    9   11   12      2.89      0.00 
   10   11   12     -2.00      0.00 
   11   11   12      1.11      0.00 
    0   12   12     -2.78      0.00 
    1   12   12      3.22      0.00 
    2   12   12     -2.58      0.00 
    3   12   12      0.58      0.00 
    4   12   12      1.34      0.00 
    5   12   12     -2.24      0.00 
    6   12   12      0.07      0.00 
    7   12   12      1.72      0.00 
    8   12   12     -0.55      0.00 
    9   12   12     -0.10      0.00 
   10   12   12     -0.74      0.00 
   11   12   12      1.55      0.00 
    1   13   12      0.33      0.00 
    2   13   12      1.24      0.00 
    3   13   12     -2.35      0.00 
    4   13   12     -0.30      0.00 
    5   13   12      1.15      0.00 
    6   13   12      0.91      0.00 
    7   13   12     -0.84      0.00 
    8   13   12      0.65      0.00 
    9   13   12     -0.46      0.00 
   10   13   12     -0.76      0.00 
   11   13   12      1.04      0.00 
    0   14   12      4.77      0.00 
    1   14   12     -2.46      0.00 
    2   14   12     -0.53      0.00 
    3   14   12     -0.03      0.00 
    4   14   12      0.32      0.00 
    5   14   12      1.48      0.00 
    6   14   12     -0.22      0.00 
    7   14   12     -1.51      0.00 
    8   14   12      0.86      0.00 
    9   14   12     -0.14      0.00 
   10   14   12      0.33      0.00 
   11   14   12     -0.04      0.00 
    1   15   12     -0.92      0.00 
    2   15   12     -1.16      0.00 
    3   15   12      2.82      0.00 
    4   15   12     -0.57      0.00 
    5   15   12     -0.28      0.00 
    6   15   12     -0.98      0.00 
    7   15   12      0.44      0.00 
    8   15   12      0.32      0.00 
    9   15   12     -0.43      0.00 
   10   15   12     -1.12      0.00 
   11   15   12      1.79      0.00 
    0   16   12     -4.44      0.00 
    1   16   12      3.39      0.00 
    2   16   12     -1.33      0.00 
    3   16   12      0.74      0.00 
    4   16   12     -1.07      0.00 
    5   16   12     -0.30      0.00 
    6   16   12      1.49      0.00 
    7   16   12     -1.73      0.00 
    8   16   12      0.36      0.00 
    9   16   12      0.44      0.00 
   10   16   12     -1.18      0.00 
    1   17   12      1.99      0.00 
    2   17   12     -2.02      0.00 
    3   17   12     -1.03      0.00 
    4   17   12      2.79      0.00 
    5   17   12     -1.87      0.00 
    6   17   12      0.85      0.00 
    7   17   12     -0.21      0.00 
    8   17   12     -1.31      0.00 
    9   17   12      2.51      0.00 
   10   17   12      0.25      0.00 
    0   18   12     -1.20      0.00 
    1   18   12      0.32      0.00 
    2   18   12      1.18      0.00 
    3   18   12     -2.26      0.00 
    4   18   12      2.52      0.00 
    5   18   12     -0.81      0.00 
    6   18   12     -0.68      0.00 
    7   18   12      0.64      0.00 
    8   18   12      0.98      0.00 
    9   18   12      0.16      0.00 
   10   18   12     -1.52      0.00 
    1   19   12      1.10      0.00 
    2   19   12     -0.32      0.00 
    3   19   12     -0.67      0.00 
    4   19   12      1.07      0.00 
    5   19   12     -0.91      0.00 
    6   19   12     -0.15      0.00 
    7   19   12      0.57      0.00 
    8   19   12      1.74      0.00 
    9   19   12     -4.33      0.00 
   10   19   12      2.09      0.00 
    0   20   12     -0.41      0.00 
    1   20   12      0.99      0.00 
    2   20   12     -1.94      0.00 
    3   20   12      2.01      0.00 
    4   20   12     -1.45      0.00 
    5   20   12      0.14      0.00 
    6   20   12      0.37      0.00 
    7   20   12     -0.57      0.00 
    8   20   12      0.54      0.00 
    9   20   12     -1.29      0.00 
   10   20   12      1.18      0.00 
    1   21   12      0.83      0.00 
    2   21   12     -0.25      0.00 
    3   21   12      0.18      0.00 
    4   21   12     -0.57      0.00 
    5   21   12      0.47      0.00 
    6   21   12     -0.12      0.00 
    7   21   12      0.19      0.00 
    8   21   12     -0.85      0.00 
    9   21   12      1.61      0.00 
    0   22   12     -0.18      0.00 
    1   22   12      0.56      0.00 
    2   22   12     -0.57      0.00 
    3   22   12      0.22      0.00 
    4   22   12      0.35      0.00 
    5   22   12      0.09      0.00 
    6   22   12     -0.46      0.00 
    7   22   12     -0.35      0.00 
    8   22   12      1.08      0.00 
    9   22   12      0.09      0.00 
    1   23   12     -0.08      0.00 
    2   23   12     -1.18      0.00 
    3   23   12      0.98      0.00 
    4   23   12      0.20      0.00 
    5   23   12     -0.58      0.00 
    6   23   12     -0.23      0.00 
    7   23   12      0.59      0.00 
    8   23   12     -0.29      0.00 
    9   23   12     -0.67      0.00 
    0   24   12     -0.72      0.00 
    1   24   12     -0.05      0.00 
    2   24   12     -0.17      0.00 
    3   24   12      0.48      0.00 
    4   24   12      0.13      0.00 
    5   24   12     -0.82      0.00 
    6   24   12      0.91      0.00 
    7   24   12      0.26      0.00 
    8   24   12     -1.23      0.00 
    9   24   12     -0.07      0.00 
    1   25   12      1.11      0.00 
    2   25   12     -0.73      0.00 
    3   25   12      0.99      0.00 
    4   25   12     -1.59      0.00 
    5   25   12      1.71      0.00 
    6   25   12     -0.56      0.00 
    7   25   12      0.19      0.00 
    8   25   12     -0.36      0.00 
    0   26   12     -0.75      0.00 
    1   26   12      2.11      0.00 
    2   26   12     -1.82      0.00 
    3   26   12      0.25      0.00 
    4   26   12     -0.43      0.00 
    5   26   12      0.82      0.00 
    6   26   12      0.25      0.00 
    7   26   12     -1.68      0.00 
    8   26   12      1.43      0.00 
    1   27   12     -0.40      0.00 
    2   27   12     -2.29      0.00 
    3   27   12      2.88      0.00 
    4   27   12     -0.56      0.00 
    5   27   12     -1.83      0.00 
    6   27   12      1.45      0.00 
    7   27   12     -0.48      0.00 
    8   27   12      0.56      0.00 
    0   28   12      0.43      0.00 
    1   28   12     -2.32      0.00 
    2   28   12      2.10      0.00 
    3   28   12      1.52      0.00 
    4   28   12     -2.21      0.00 
    5   28   12     -1.16      0.00 
    6   28   12      3.29      0.00 
    7   28   12     -2.04      0.00 
    1   29   12      0.24      0.00 
    2   29   12      1.36      0.00 
    3   29   12      0.20      0.00 
    4   29   12     -2.40      0.00 
    5   29   12      1.97      0.00 
    6   29   12     -0.19      0.00 
    7   29   12     -0.33      0.00 
    0   30   12      0.13      0.00 
    1   30   12      1.37      0.00 
    2   30   12     -1.73      0.00 
    3   30   12      0.09      0.00 
    4   30   12     -0.05      0.00 
    5   30   12      1.23      0.00 
    6   30   12     -1.05      0.00 
    1   31   12      1.19      0.00 
    2   31   12     -1.50      0.00 
    3   31   12     -1.43      0.00 
    4   31   12      3.58      0.00 
    5   31   12     -2.35      0.00 
    0   32   12      3.38      0.00 
    1   32   12     -3.60      0.00 
    2   32   12      2.24      0.00 
    3   32   12      0.26      0.00 
    4   32   12     -1.04      0.00 
    1   33   12     -0.52      0.00 
    2   33   12      0.91      0.00 
    3   33   12     -0.26      0.00 
    4   33   12     -1.00      0.00 
    2   34   12     -2.85      0.00 
    2   35   12      0.62      0.00 
    1    1   13      2.96      0.00 
    2    1   13     -6.29      0.00 
    3    1   13      7.40      0.00 
    4    1   13     -3.26      0.00 
    5    1   13     -0.63      0.00 
    6    1   13     -0.16      0.00 
    7    1   13      0.58      0.00 
    8    1   13     -0.69      0.00 
    9    1   13      1.44      0.00 
   10    1   13     -0.48      0.00 
   11    1   13     -0.36      0.00 
   12    1   13     -0.81      0.00 
    0    2   13     -6.75      0.00 
    1    2   13      3.01      0.00 
    2    2   13      0.90      0.00 
    3    2   13     -0.36      0.00 
    4    2   13      0.74      0.00 
    5    2   13     -2.75      0.00 
    6    2   13      0.84      0.00 
    7    2   13      2.03      0.00 
    8    2   13     -0.72      0.00 
    9    2   13     -1.33      0.00 
   10    2   13      0.54      0.00 
   11    2   13      1.24      0.00 
   12    2   13     -0.89      0.00 
    1    3   13      0.07      0.00 
    2    3   13      0.29      0.00 
    3    3   13     -2.43      0.00 
    4    3   13      1.55      0.00 
    5    3   13      0.80      0.00 
    6    3   13      0.53      0.00 
    7    3   13      0.21      0.00 
    8    3   13     -1.29      0.00 
    9    3   13     -0.04      0.00 
   10    3   13      0.36      0.00 
   11    3   13      1.17      0.00 
   12    3   13     -1.83      0.00 
    0    4   13     18.07      0.00 
    1    4   13    -13.61      0.00 
    2    4   13      4.26      0.00 
    3    4   13      1.09      0.00 
    4    4   13      0.43      0.00 
    5    4   13      0.10      0.00 
    6    4   13     -1.51      0.00 
    7    4   13     -0.24      0.00 
    8    4   13      0.90      0.00 
    9    4   13      1.01      0.00 
   10    4   13     -2.11      0.00 
   11    4   13      0.39      0.00 
   12    4   13      0.36      0.00 
    1    5   13      4.63      0.00 
    2    5   13     -3.09      0.00 
    3    5   13      1.28      0.00 
    4    5   13     -1.08      0.00 
    5    5   13     -0.66      0.00 
    6    5   13      1.60      0.00 
    7    5   13     -2.49      0.00 
    8    5   13      2.43      0.00 
    9    5   13     -1.44      0.00 
   10    5   13     -0.61      0.00 
   11    5   13      0.58      0.00 
    0    6   13      4.01      0.00 
    1    6   13      0.17      0.00 
    2    6   13     -4.84      0.00 
    3    6   13      4.70      0.00 
    4    6   13     -4.18      0.00 
    5    6   13      0.78      0.00 
    6    6   13      0.70      0.00 
    7    6   13      0.70      0.00 
    8    6   13     -0.10      0.00 
    9    6   13     -0.39      0.00 
   10    6   13     -0.61      0.00 
   11    6   13      2.00      0.00 
    1    7   13      0.66      0.00 
    2    7   13     -0.73      0.00 
    3    7   13     -0.34      0.00 
    4    7   13      1.11      0.00 
    5    7   13     -1.09      0.00 
    6    7   13      0.55      0.00 
    7    7   13      1.81      0.00 
    8    7   13     -1.56      0.00 
    9    7   13      0.67      0.00 
   10    7   13     -0.59      0.00 
   11    7   13      0.36      0.00 
    0    8   13      3.85      0.00 
    1    8   13     -2.45      0.00 
    2    8   13      0.20      0.00 
    3    8   13     -0.09      0.00 
    4    8   13      1.02      0.00 
    5    8   13      0.66      0.00 
    6    8   13      0.45      0.00 
    7    8   13     -0.93      0.00 
    8    8   13     -1.43      0.00 
    9    8   13      1.09      0.00 
   10    8   13      0.36      0.00 
   11    8   13     -0.68      0.00 
    1    9   13     -6.21      0.00 
    2    9   13      7.13      0.00 
    3    9   13     -3.34      0.00 
    4    9   13      1.02      0.00 
    5    9   13      0.30      0.00 
    6    9   13     -1.81      0.00 
    7    9   13      0.10      0.00 
    8    9   13      0.52      0.00 
    9    9   13     -0.93      0.00 
   10    9   13      1.55      0.00 
   11    9   13     -1.11      0.00 
    0   10   13     -4.55      0.00 
    1   10   13      2.95      0.00 
    2   10   13     -0.16      0.00 
    3   10   13     -0.31      0.00 
    4   10   13     -2.18      0.00 
    5   10   13      2.48      0.00 
    6   10   13     -0.70      0.00 
    7   10   13     -2.04      0.00 
    8   10   13      2.14      0.00 
    9   10   13     -1.10      0.00 
   10   10   13      1.88      0.00 
   11   10   13     -1.58      0.00 
    1   11   13     -2.23      0.00 
    2   11   13      0.12      0.00 
    3   11   13      0.19      0.00 
    4   11   13      0.50      0.00 
    5   11   13      0.70      0.00 
    6   11   13     -1.07      0.00 
    7   11   13      0.38      0.00 
    8   11   13      0.30      0.00 
    9   11   13      0.95      0.00 
   10   11   13      0.61      0.00 
   11   11   13     -1.88      0.00 
    0   12   13     -1.21      0.00 
    1   12   13     -1.52      0.00 
    2   12   13      3.18      0.00 
    3   12   13      0.03      0.00 
    4   12   13     -0.22      0.00 
    5   12   13     -1.60      0.00 
    6   12   13      0.53      0.00 
    7   12   13      2.23      0.00 
    8   12   13     -1.37      0.00 
    9   12   13      0.32      0.00 
   10   12   13     -0.25      0.00 
   11   12   13     -0.95      0.00 
    1   13   13      0.98      0.00 
    2   13   13      1.08      0.00 
    3   13   13     -1.15      0.00 
    4   13   13     -0.56      0.00 
    5   13   13      0.16      0.00 
    6   13   13      1.10      0.00 
    7   13   13     -0.49      0.00 
    8   13   13     -1.04      0.00 
    9   13   13      0.13      0.00 
   10   13   13     -1.00      0.00 
   11   13   13      1.03      0.00 
    0   14   13     -1.16      0.00 
    1   14   13      1.43      0.00 
    2   14   13     -0.88      0.00 
    3   14   13     -0.72      0.00 
    4   14   13      0.43      0.00 
    5   14   13      0.84      0.00 
    6   14   13     -1.84      0.00 
    7   14   13      0.97      0.00 
    8   14   13     -0.16      0.00 
    9   14   13     -1.24      0.00 
   10   14   13      2.20      0.00 
   11   14   13     -0.83      0.00 
    1   15   13     -1.62      0.00 
    2   15   13      1.98      0.00 
    3   15   13     -0.26      0.00 
    4   15   13     -1.82      0.00 
    5   15   13      1.99      0.00 
    6   15   13     -1.04      0.00 
    7   15   13      0.19      0.00 
    8   15   13      0.72      0.00 
    9   15   13      0.31      0.00 
   10   15   13     -1.17      0.00 
   11   15   13      1.69      0.00 
    0   16   13      2.38      0.00 
    1   16   13     -0.75      0.00 
    2   16   13     -0.97      0.00 
    3   16   13      0.87      0.00 
    4   16   13     -0.48      0.00 
    5   16   13      0.21      0.00 
    6   16   13      0.69      0.00 
    7   16   13     -0.23      0.00 
    8   16   13      0.45      0.00 
    9   16   13     -0.76      0.00 
   10   16   13     -0.66      0.00 
    1   17   13     -0.95      0.00 
    2   17   13      0.56      0.00 
    3   17   13     -0.11      0.00 
    4   17   13     -0.28      0.00 
    5   17   13     -0.10      0.00 
    6   17   13      1.23      0.00 
    7   17   13     -1.38      0.00 
    8   17   13      0.19      0.00 
    9   17   13      0.35      0.00 
   10   17   13     -1.05      0.00 
    0   18   13     -0.98      0.00 
    1   18   13      0.14      0.00 
    2   18   13      0.79      0.00 
    3   18   13     -1.01      0.00 
    4   18   13      0.09      0.00 
    5   18   13      0.65      0.00 
    6   18   13      0.02      0.00 
    7   18   13     -0.43      0.00 
    8   18   13     -1.19      0.00 
    9   18   13      1.73      0.00 
   10   18   13     -0.13      0.00 
    1   19   13      1.21      0.00 
    2   19   13     -0.91      0.00 
    3   19   13     -0.18      0.00 
    4   19   13      1.86      0.00 
    5   19   13     -1.32      0.00 
    6   19   13     -0.57      0.00 
    7   19   13      0.81      0.00 
    8   19   13     -1.04      0.00 
    9   19   13      2.38      0.00 
   10   19   13     -1.22      0.00 
    0   20   13     -3.17      0.00 
    1   20   13      2.29      0.00 
    2   20   13     -0.38      0.00 
    3   20   13     -0.27      0.00 
    4   20   13      0.92      0.00 
    5   20   13     -1.38      0.00 
    6   20   13      0.04      0.00 
    7   20   13      0.00      0.00 
    8   20   13      1.31      0.00 
    9   20   13     -0.54      0.00 
   10   20   13     -0.92      0.00 
    1   21   13     -0.62      0.00 
    2   21   13      0.96      0.00 
    3   21   13     -1.67      0.00 
    4   21   13      0.97      0.00 
    5   21   13     -0.49      0.00 
    6   21   13      0.95      0.00 
    7   21   13     -0.96      0.00 
    8   21   13      1.16      0.00 
    9   21   13     -2.26      0.00 
    0   22   13      0.61      0.00 
    1   22   13     -0.93      0.00 
    2   22   13      0.34      0.00 
    3   22   13     -0.26      0.00 
    4   22   13      0.64      0.00 
    5   22   13      0.27      0.00 
    6   22   13      0.23      0.00 
    7   22   13     -1.18      0.00 
    8   22   13      0.72      0.00 
    9   22   13     -0.32      0.00 
    1   23   13      0.34      0.00 
    2   23   13      0.29      0.00 
    3   23   13     -0.68      0.00 
    4   23   13      1.43      0.00 
    5   23   13     -1.00      0.00 
    6   23   13     -0.26      0.00 
    7   23   13     -0.13      0.00 
    8   23   13      1.13      0.00 
    9   23   13     -0.85      0.00 
    0   24   13      0.30      0.00 
    1   24   13      0.71      0.00 
    2   24   13     -0.54      0.00 
    3   24   13     -0.41      0.00 
    4   24   13     -0.27      0.00 
    5   24   13      0.67      0.00 
    6   24   13     -2.17      0.00 
    7   24   13      3.38      0.00 
    8   24   13     -1.52      0.00 
    1   25   13      0.93      0.00 
    2   25   13     -0.48      0.00 
    3   25   13     -1.41      0.00 
    4   25   13      1.16      0.00 
    5   25   13     -0.26      0.00 
    6   25   13      0.25      0.00 
    7   25   13      1.63      0.00 
    8   25   13     -2.62      0.00 
    0   26   13     -1.53      0.00 
    1   26   13      0.86      0.00 
    2   26   13      0.07      0.00 
    3   26   13     -1.09      0.00 
    4   26   13      1.92      0.00 
    5   26   13     -0.58      0.00 
    6   26   13      0.09      0.00 
    7   26   13     -1.56      0.00 
    8   26   13      1.64      0.00 
    1   27   13     -0.34      0.00 
    2   27   13      0.58      0.00 
    3   27   13      0.16      0.00 
    4   27   13      0.31      0.00 
    5   27   13     -0.88      0.00 
    6   27   13     -0.31      0.00 
    7   27   13     -0.69      0.00 
    0   28   13     -0.89      0.00 
    1   28   13      1.29      0.00 
    2   28   13     -1.81      0.00 
    3   28   13      1.23      0.00 
    4   28   13     -0.31      0.00 
    5   28   13     -0.54      0.00 
    6   28   13     -0.04      0.00 
    7   28   13      1.05      0.00 
    1   29   13      0.64      0.00 
    2   29   13     -2.13      0.00 
    3   29   13      2.55      0.00 
    4   29   13     -1.67      0.00 
    5   29   13      1.12      0.00 
    6   29   13     -0.07      0.00 
    0   30   13     -0.65      0.00 
    1   30   13     -0.29      0.00 
    2   30   13      1.23      0.00 
    3   30   13      0.03      0.00 
    4   30   13     -0.79      0.00 
    5   30   13     -0.04      0.00 
    6   30   13      2.09      0.00 
    1   31   13      0.69      0.00 
    2   31   13     -0.39      0.00 
    3   31   13     -0.44      0.00 
    4   31   13      0.65      0.00 
    0   32   13     -0.56      0.00 
    1   32   13      0.04      0.00 
    2   32   13      0.52      0.00 
    3   32   13     -0.72      0.00 
    4   32   13     -0.38      0.00 
    1   33   13     -0.15      0.00 
    2   33   13     -0.08      0.00 
    3   33   13      0.80      0.00 
    1   34   13     -1.80      0.00 
    2   34   13     -0.27      0.00 
    0    0   14     -9.02      0.00 
    1    0   14      6.44      0.00 
    2    0   14     -4.32      0.00 
    3    0   14      3.94      0.00 
    4    0   14     -4.34      0.00 
    5    0   14      4.02      0.00 
    6    0   14     -0.44      0.00 
    7    0   14     -3.46      0.00 
    8    0   14      1.16      0.00 
    9    0   14      1.37      0.00 
   10    0   14      0.46      0.00 
   11    0   14     -1.00      0.00 
   12    0   14      0.13      0.00 
    1    1   14      0.82      0.00 
    2    1   14     -4.04      0.00 
    3    1   14      5.07      0.00 
    4    1   14     -1.45      0.00 
    5    1   14     -0.94      0.00 
    6    1   14      0.08      0.00 
    7    1   14      1.72      0.00 
    8    1   14     -0.79      0.00 
    9    1   14      0.48      0.00 
   10    1   14     -0.40      0.00 
   11    1   14      0.24      0.00 
   12    1   14      0.11      0.00 
    0    2   14     -3.79      0.00 
    1    2   14      3.16      0.00 
    2    2   14      0.81      0.00 
    3    2   14     -4.41      0.00 
    4    2   14      4.14      0.00 
    5    2   14     -1.57      0.00 
    6    2   14      0.27      0.00 
    7    2   14      0.71      0.00 
    8    2   14     -0.81      0.00 
    9    2   14      0.00      0.00 
   10    2   14      0.77      0.00 
   11    2   14     -1.37      0.00 
   12    2   14      0.78      0.00 
    1    3   14      0.61      0.00 
    2    3   14     -3.71      0.00 
    3    3   14      3.14      0.00 
    4    3   14     -0.50      0.00 
    5    3   14     -0.02      0.00 
    6    3   14     -0.80      0.00 
    7    3   14      1.32      0.00 
    8    3   14     -1.90      0.00 
    9    3   14      0.40      0.00 
   10    3   14      0.55      0.00 
   11    3   14     -0.51      0.00 
   12    3   14     -1.16      0.00 
    0    4   14     -9.27      0.00 
    1    4   14      6.18      0.00 
    2    4   14     -1.42      0.00 
    3    4   14     -0.70      0.00 
    4    4   14      0.94      0.00 
    5    4   14     -2.25      0.00 
    6    4   14      1.54      0.00 
    7    4   14      0.33      0.00 
    8    4   14     -0.29      0.00 
    9    4   14     -0.75      0.00 
   10    4   14      0.05      0.00 
   11    4   14      0.99      0.00 
    1    5   14      0.53      0.00 
    2    5   14      0.32      0.00 
    3    5   14      0.92      0.00 
    4    5   14     -2.00      0.00 
    5    5   14      1.64      0.00 
    6    5   14     -0.71      0.00 
    7    5   14     -0.75      0.00 
    8    5   14      0.62      0.00 
    9    5   14      0.82      0.00 
   10    5   14      0.56      0.00 
   11    5   14      0.17      0.00 
   12    5   14     -1.60      0.00 
    0    6   14      4.60      0.00 
    1    6   14     -4.17      0.00 
    2    6   14      2.69      0.00 
    3    6   14     -0.25      0.00 
    4    6   14      0.16      0.00 
    5    6   14     -0.91      0.00 
    6    6   14     -0.59      0.00 
    7    6   14      1.36      0.00 
    8    6   14      0.78      0.00 
    9    6   14      0.08      0.00 
   10    6   14     -1.93      0.00 
   11    6   14      0.80      0.00 
    1    7   14      7.48      0.00 
    2    7   14     -7.50      0.00 
    3    7   14      3.36      0.00 
    4    7   14     -0.66      0.00 
    5    7   14     -1.65      0.00 
    6    7   14      2.71      0.00 
    7    7   14     -1.20      0.00 
    8    7   14      1.09      0.00 
    9    7   14     -1.56      0.00 
   10    7   14     -1.27      0.00 
   11    7   14      1.15      0.00 
    0    8   14      5.75      0.00 
    1    8   14     -2.93      0.00 
    2    8   14     -2.11      0.00 
    3    8   14      1.91      0.00 
    4    8   14      1.20      0.00 
    5    8   14     -0.60      0.00 
    6    8   14     -0.11      0.00 
    7    8   14     -0.63      0.00 
    8    8   14     -0.89      0.00 
    9    8   14      1.27      0.00 
   10    8   14     -1.10      0.00 
   11    8   14      1.12      0.00 
    1    9   14      0.73      0.00 
    2    9   14     -1.06      0.00 
    3    9   14      1.25      0.00 
    4    9   14     -0.50      0.00 
    5    9   14     -0.73      0.00 
    6    9   14      0.82      0.00 
    7    9   14     -0.03      0.00 
    8    9   14     -0.95      0.00 
    9    9   14      0.98      0.00 
   10    9   14      0.17      0.00 
   11    9   14     -0.03      0.00 
    0   10   14      1.53      0.00 
    1   10   14      0.08      0.00 
    2   10   14     -1.16      0.00 
    3   10   14      0.64      0.00 
    4   10   14     -0.69      0.00 
    5   10   14     -0.28      0.00 
    6   10   14      0.91      0.00 
    7   10   14     -0.01      0.00 
    8   10   14     -0.56      0.00 
    9   10   14      0.87      0.00 
   10   10   14     -0.55      0.00 
   11   10   14      1.09      0.00 
    1   11   14     -1.39      0.00 
    2   11   14      1.26      0.00 
    3   11   14     -2.04      0.00 
    4   11   14      1.89      0.00 
    5   11   14     -0.15      0.00 
    6   11   14     -0.34      0.00 
    7   11   14     -0.12      0.00 
    8   11   14      1.24      0.00 
    9   11   14     -2.19      0.00 
   10   11   14      1.96      0.00 
   11   11   14     -1.08      0.00 
    0   12   14      2.82      0.00 
    1   12   14     -1.92      0.00 
    2   12   14      0.28      0.00 
    3   12   14      0.41      0.00 
    4   12   14     -0.98      0.00 
    5   12   14      1.58      0.00 
    6   12   14      0.26      0.00 
    7   12   14     -1.59      0.00 
    8   12   14      0.43      0.00 
    9   12   14      0.27      0.00 
   10   12   14      0.43      0.00 
   11   12   14     -1.33      0.00 
    1   13   14     -1.25      0.00 
    2   13   14     -0.81      0.00 
    3   13   14      2.41      0.00 
    4   13   14      0.01      0.00 
    5   13   14     -0.87      0.00 
    6   13   14     -0.83      0.00 
    7   13   14      0.87      0.00 
    8   13   14     -0.97      0.00 
    9   13   14      0.43      0.00 
   10   13   14      1.07      0.00 
   11   13   14     -1.35      0.00 
    0   14   14     -3.82      0.00 
    1   14   14      1.77      0.00 
    2   14   14      0.30      0.00 
    3   14   14      0.73      0.00 
    4   14   14     -0.60      0.00 
    5   14   14     -1.28      0.00 
    6   14   14      0.27      0.00 
    7   14   14      0.73      0.00 
    8   14   14     -0.24      0.00 
    9   14   14      0.12      0.00 
   10   14   14     -0.12      0.00 
   11   14   14     -0.66      0.00 
    1   15   14      0.69      0.00 
    2   15   14      1.09      0.00 
    3   15   14     -1.83      0.00 
    4   15   14     -0.17      0.00 
    5   15   14      0.30      0.00 
    6   15   14      0.67      0.00 
    7   15   14     -0.43      0.00 
    8   15   14      0.50      0.00 
    9   15   14      0.26      0.00 
   10   15   14      0.06      0.00 
    0   16   14      4.50      0.00 
    1   16   14     -3.69      0.00 
    2   16   14      2.33      0.00 
    3   16   14     -1.56      0.00 
    4   16   14      0.66      0.00 
    5   16   14      0.95      0.00 
    6   16   14     -1.97      0.00 
    7   16   14      2.40      0.00 
    8   16   14     -0.47      0.00 
    9   16   14     -0.88      0.00 
   10   16   14      0.98      0.00 
    1   17   14     -2.03      0.00 
    2   17   14      2.24      0.00 
    3   17   14      0.29      0.00 
    4   17   14     -2.47      0.00 
    5   17   14      2.17      0.00 
    6   17   14     -0.72      0.00 
    7   17   14     -0.21      0.00 
    8   17   14      1.61      0.00 
    9   17   14     -2.91      0.00 
   10   17   14     -0.02      0.00 
    0   18   14      0.50      0.00 
    1   18   14     -0.18      0.00 
    2   18   14     -0.66      0.00 
    3   18   14      1.49      0.00 
    4   18   14     -2.00      0.00 
    5   18   14      1.26      0.00 
    6   18   14     -0.10      0.00 
    7   18   14     -0.19      0.00 
    8   18   14     -1.17      0.00 
    9   18   14     -0.51      0.00 
   10   18   14      2.16      0.00 
    1   19   14     -0.16      0.00 
    2   19   14     -0.13      0.00 
    3   19   14      0.20      0.00 
    4   19   14      0.03      0.00 
    5   19   14      0.17      0.00 
    6   19   14     -0.11      0.00 
    7   19   14     -0.02      0.00 
    8   19   14     -2.21      0.00 
    9   19   14      4.58      0.00 
   10   19   14     -1.73      0.00 
    0   20   14      0.49      0.00 
    1   20   14     -0.35      0.00 
    2   20   14      0.69      0.00 
    3   20   14     -0.96      0.00 
    4   20   14      0.81      0.00 
    5   20   14     -0.25      0.00 
    6   20   14     -0.23      0.00 
    7   20   14      0.78      0.00 
    8   20   14     -0.50      0.00 
    9   20   14      1.25      0.00 
    1   21   14     -1.77      0.00 
    2   21   14      0.71      0.00 
    3   21   14     -0.25      0.00 
    4   21   14      0.24      0.00 
    5   21   14     -0.13      0.00 
    6   21   14      0.52      0.00 
    7   21   14     -0.38      0.00 
    8   21   14      0.49      0.00 
    9   21   14     -1.54      0.00 
    0   22   14     -0.26      0.00 
    1   22   14     -0.78      0.00 
    2   22   14      1.02      0.00 
    3   22   14     -0.41      0.00 
    4   22   14      0.15      0.00 
    5   22   14     -0.48      0.00 
    6   22   14      1.32      0.00 
    7   22   14     -1.25      0.00 
    8   22   14     -0.31      0.00 
    1   23   14      0.25      0.00 
    2   23   14      1.45      0.00 
    3   23   14     -0.73      0.00 
    4   23   14     -0.70      0.00 
    5   23   14      1.11      0.00 
    6   23   14     -0.82      0.00 
    7   23   14     -0.34      0.00 
    8   23   14      0.77      0.00 
    0   24   14      0.57      0.00 
    1   24   14      0.66      0.00 
    2   24   14     -0.46      0.00 
    3   24   14     -0.18      0.00 
    4   24   14     -0.47      0.00 
    5   24   14      0.69      0.00 
    6   24   14     -1.12      0.00 
    7   24   14      0.66      0.00 
    8   24   14      0.82      0.00 
    1   25   14     -1.25      0.00 
    2   25   14      0.40      0.00 
    3   25   14     -0.83      0.00 
    4   25   14      1.37      0.00 
    5   25   14     -1.77      0.00 
    6   25   14      1.52      0.00 
    7   25   14     -0.73      0.00 
    8   25   14      0.60      0.00 
    0   26   14      0.99      0.00 
    1   26   14     -2.72      0.00 
    2   26   14      2.52      0.00 
    3   26   14     -1.13      0.00 
    4   26   14      1.62      0.00 
    5   26   14     -1.01      0.00 
    6   26   14     -0.57      0.00 
    7   26   14      1.76      0.00 
    8   26   14     -1.80      0.00 
    1   27   14      0.68      0.00 
    2   27   14      2.10      0.00 
    3   27   14     -2.37      0.00 
    4   27   14      0.76      0.00 
    5   27   14      1.10      0.00 
    6   27   14     -1.90      0.00 
    7   27   14      1.36      0.00 
    0   28   14     -0.05      0.00 
    1   28   14      2.37      0.00 
    2   28   14     -2.32      0.00 
    3   28   14     -0.69      0.00 
    4   28   14      0.45      0.00 
    5   28   14      1.80      0.00 
    6   28   14     -3.01      0.00 
    7   28   14      2.10      0.00 
    1   29   14     -0.79      0.00 
    2   29   14     -1.07      0.00 
    3   29   14     -0.80      0.00 
    4   29   14      2.40      0.00 
    5   29   14     -1.18      0.00 
    6   29   14      0.09      0.00 
    0   30   14     -1.35      0.00 
    1   30   14     -0.98      0.00 
    2   30   14      1.93      0.00 
    3   30   14     -0.34      0.00 
    4   30   14      0.65      0.00 
    5   30   14     -1.36      0.00 
    1   31   14     -0.10      0.00 
    2   31   14      1.22      0.00 
    3   31   14      1.31      0.00 
    4   31   14     -3.43      0.00 
    0   32   14     -2.12      0.00 
    1   32   14      3.23      0.00 
    2   32   14     -2.35      0.00 
    3   32   14     -0.74      0.00 
    4   32   14      1.62      0.00 
    1   33   14      0.25      0.00 
    2   33   14     -1.23      0.00 
    3   33   14      0.31      0.00 
    1   34   14     -2.73      0.00 
    1    1   15     -3.21      0.00 
    2    1   15      4.87      0.00 
    3    1   15     -4.65      0.00 
    4    1   15      1.37      0.00 
    5    1   15      0.99      0.00 
    6    1   15      0.75      0.00 
    7    1   15     -1.53      0.00 
    8    1   15      0.61      0.00 
    9    1   15     -0.41      0.00 
   10    1   15      0.17      0.00 
   11    1   15      0.23      0.00 
   12    1   15      0.67      0.00 
    0    2   15      3.34      0.00 
    1    2   15     -1.76      0.00 
    2    2   15      0.51      0.00 
    3    2   15     -0.78      0.00 
    4    2   15     -0.52      0.00 
    5    2   15      2.59      0.00 
    6    2   15     -1.22      0.00 
    7    2   15     -1.58      0.00 
    8    2   15      1.14      0.00 
    9    2   15      1.25      0.00 
   10    2   15     -0.79      0.00 
   11    2   15     -1.41      0.00 
    1    3   15      0.85      0.00 
    2    3   15     -0.12      0.00 
    3    3   15      0.52      0.00 
    4    3   15      0.26      0.00 
    5    3   15     -1.49      0.00 
    6    3   15     -0.13      0.00 
    7    3   15     -0.27      0.00 
    8    3   15      1.65      0.00 
    9    3   15     -0.83      0.00 
   10    3   15     -0.04      0.00 
   11    3   15     -1.39      0.00 
    0    4   15    -11.34      0.00 
    1    4   15      8.77      0.00 
    2    4   15     -3.32      0.00 
    3    4   15      0.20      0.00 
    4    4   15     -1.16      0.00 
    5    4   15      0.45      0.00 
    6    4   15      0.63      0.00 
    7    4   15      0.48      0.00 
    8    4   15     -0.65      0.00 
    9    4   15     -1.66      0.00 
   10    4   15      2.72      0.00 
   11    4   15     -1.00      0.00 
    1    5   15     -3.44      0.00 
    2    5   15      2.36      0.00 
    3    5   15     -1.16      0.00 
    4    5   15      1.29      0.00 
    5    5   15      0.39      0.00 
    6    5   15     -2.62      0.00 
    7    5   15      3.73      0.00 
    8    5   15     -2.64      0.00 
    9    5   15      1.22      0.00 
   10    5   15      0.38      0.00 
   11    5   15      0.23      0.00 
    0    6   15     -3.65      0.00 
    1    6   15      0.52      0.00 
    2    6   15      2.76      0.00 
    3    6   15     -2.59      0.00 
    4    6   15      2.85      0.00 
    5    6   15     -1.25      0.00 
    6    6   15      0.37      0.00 
    7    6   15     -0.54      0.00 
    8    6   15     -0.59      0.00 
    9    6   15      1.23      0.00 
   10    6   15     -0.15      0.00 
   11    6   15     -0.82      0.00 
    1    7   15     -0.64      0.00 
    2    7   15      0.94      0.00 
    3    7   15      0.31      0.00 
    4    7   15     -1.78      0.00 
    5    7   15      1.70      0.00 
    6    7   15     -0.22      0.00 
    7    7   15     -1.81      0.00 
    8    7   15      1.41      0.00 
    9    7   15     -0.60      0.00 
   10    7   15      0.24      0.00 
   11    7   15     -0.72      0.00 
    0    8   15     -4.35      0.00 
    1    8   15      3.24      0.00 
    2    8   15     -0.59      0.00 
    3    8   15     -0.79      0.00 
    4    8   15      0.03      0.00 
    5    8   15     -0.30      0.00 
    6    8   15     -0.99      0.00 
    7    8   15      0.84      0.00 
    8    8   15      1.75      0.00 
    9    8   15     -2.29      0.00 
   10    8   15      0.20      0.00 
   11    8   15      0.94      0.00 
    1    9   15      4.04      0.00 
    2    9   15     -5.06      0.00 
    3    9   15      2.50      0.00 
    4    9   15     -0.74      0.00 
    5    9   15     -0.16      0.00 
    6    9   15      1.02      0.00 
    7    9   15      0.48      0.00 
    8    9   15     -1.06      0.00 
    9    9   15      0.66      0.00 
   10    9   15     -0.38      0.00 
   11    9   15      1.27      0.00 
    0   10   15      3.22      0.00 
    1   10   15     -2.46      0.00 
    2   10   15      0.92      0.00 
    3   10   15     -0.23      0.00 
    4   10   15      1.23      0.00 
    5   10   15     -1.39      0.00 
    6   10   15      0.71      0.00 
    7   10   15      1.33      0.00 
    8   10   15     -2.23      0.00 
    9   10   15      2.38      0.00 
   10   10   15     -1.92      0.00 
   11   10   15      0.66      0.00 
    1   11   15      2.09      0.00 
    2   11   15     -0.61      0.00 
    3   11   15     -0.01      0.00 
    4   11   15     -0.11      0.00 
    5   11   15     -0.60      0.00 
    6   11   15      0.94      0.00 
    7   11   15     -0.97      0.00 
    8   11   15      0.61      0.00 
    9   11   15     -0.47      0.00 
   10   11   15     -1.68      0.00 
   11   11   15      1.64      0.00 
    0   12   15      1.17      0.00 
    1   12   15      0.61      0.00 
    2   12   15     -1.62      0.00 
    3   12   15     -0.70      0.00 
    4   12   15      1.06      0.00 
    5   12   15      0.18      0.00 
    6   12   15      0.20      0.00 
    7   12   15     -1.84      0.00 
    8   12   15      1.17      0.00 
    9   12   15     -0.59      0.00 
   10   12   15     -0.48      0.00 
   11   12   15      1.93      0.00 
    1   13   15      0.13      0.00 
    2   13   15     -1.24      0.00 
    3   13   15      0.51      0.00 
    4   13   15      1.13      0.00 
    5   13   15     -0.91      0.00 
    6   13   15     -0.46      0.00 
    7   13   15      0.79      0.00 
    8   13   15     -0.19      0.00 
    9   13   15     -0.04      0.00 
   10   13   15      2.19      0.00 
   11   13   15     -1.88      0.00 
    0   14   15      0.12      0.00 
    1   14   15      0.28      0.00 
    2   14   15     -1.18      0.00 
    3   14   15      1.68      0.00 
    4   14   15     -0.52      0.00 
    5   14   15     -0.98      0.00 
    6   14   15      1.87      0.00 
    7   14   15     -0.98      0.00 
    8   14   15     -0.28      0.00 
    9   14   15      2.02      0.00 
   10   14   15     -1.81      0.00 
    1   15   15      1.49      0.00 
    2   15   15     -2.47      0.00 
    3   15   15      1.06      0.00 
    4   15   15      1.11      0.00 
    5   15   15     -1.59      0.00 
    6   15   15      1.18      0.00 
    7   15   15     -0.51      0.00 
    8   15   15     -0.44      0.00 
    9   15   15      0.16      0.00 
   10   15   15      0.15      0.00 
    0   16   15     -1.72      0.00 
    1   16   15      0.31      0.00 
    2   16   15      0.55      0.00 
    3   16   15     -0.07      0.00 
    4   16   15      0.49      0.00 
    5   16   15     -0.54      0.00 
    6   16   15     -0.21      0.00 
    7   16   15     -0.58      0.00 
    8   16   15      0.38      0.00 
    9   16   15      0.54      0.00 
   10   16   15     -0.06      0.00 
    1   17   15      0.26      0.00 
    2   17   15      0.34      0.00 
    3   17   15      0.47      0.00 
    4   17   15     -0.70      0.00 
    5   17   15      0.30      0.00 
    6   17   15     -1.08      0.00 
    7   17   15      1.03      0.00 
    8   17   15      0.46      0.00 
    9   17   15     -1.06      0.00 
   10   17   15      1.06      0.00 
    0   18   15      2.58      0.00 
    1   18   15     -1.41      0.00 
    2   18   15      0.45      0.00 
    3   18   15      0.14      0.00 
    4   18   15     -0.80      0.00 
    5   18   15      0.45      0.00 
    6   18   15     -0.63      0.00 
    7   18   15      0.95      0.00 
    8   18   15      0.81      0.00 
    9   18   15     -1.79      0.00 
    1   19   15     -0.46      0.00 
    2   19   15     -0.27      0.00 
    3   19   15      0.18      0.00 
    4   19   15     -1.10      0.00 
    5   19   15      1.12      0.00 
    6   19   15      0.55      0.00 
    7   19   15     -0.74      0.00 
    8   19   15      0.91      0.00 
    9   19   15     -1.89      0.00 
    0   20   15      1.90      0.00 
    1   20   15     -1.58      0.00 
    2   20   15      0.16      0.00 
    3   20   15      0.20      0.00 
    4   20   15     -0.21      0.00 
    5   20   15      1.11      0.00 
    6   20   15     -0.51      0.00 
    7   20   15      0.56      0.00 
    8   20   15     -1.47      0.00 
    9   20   15      0.14      0.00 
    1   21   15      0.64      0.00 
    2   21   15     -0.42      0.00 
    3   21   15      1.24      0.00 
    4   21   15     -0.48      0.00 
    5   21   15     -0.23      0.00 
    6   21   15     -0.54      0.00 
    7   21   15      0.48      0.00 
    8   21   15     -0.74      0.00 
    9   21   15      1.75      0.00 
    0   22   15     -0.18      0.00 
    1   22   15      0.85      0.00 
    2   22   15     -0.47      0.00 
    3   22   15      0.74      0.00 
    4   22   15     -1.87      0.00 
    5   22   15      0.54      0.00 
    6   22   15     -0.40      0.00 
    7   22   15      1.16      0.00 
    8   22   15     -0.49      0.00 
    1   23   15     -0.61      0.00 
    2   23   15      0.04      0.00 
    3   23   15     -0.31      0.00 
    4   23   15     -0.71      0.00 
    5   23   15      1.19      0.00 
    6   23   15     -0.14      0.00 
    7   23   15      1.02      0.00 
    8   23   15     -2.21      0.00 
    0   24   15     -0.41      0.00 
    1   24   15     -0.66      0.00 
    2   24   15      0.24      0.00 
    3   24   15      0.53      0.00 
    4   24   15      0.87      0.00 
    5   24   15     -1.10      0.00 
    6   24   15      2.72      0.00 
    7   24   15     -4.30      0.00 
    8   24   15      1.97      0.00 
    1   25   15     -1.08      0.00 
    2   25   15      0.41      0.00 
    3   25   15      2.14      0.00 
    4   25   15     -1.84      0.00 
    5   25   15      0.73      0.00 
    6   25   15     -0.59      0.00 
    7   25   15     -2.17      0.00 
    8   25   15      3.43      0.00 
    0   26   15      0.68      0.00 
    1   26   15     -0.50      0.00 
    2   26   15      0.45      0.00 
    3   26   15      0.45      0.00 
    4   26   15     -1.31      0.00 
    5   26   15     -0.21      0.00 
    6   26   15     -0.21      0.00 
    7   26   15      2.11      0.00 
    1   27   15      0.62      0.00 
    2   27   15     -0.17      0.00 
    3   27   15     -1.03      0.00 
    4   27   15      0.01      0.00 
    5   27   15      0.45      0.00 
    6   27   15      1.04      0.00 
    7   27   15      0.53      0.00 
    0   28   15      1.97      0.00 
    1   28   15     -1.24      0.00 
    2   28   15      0.47      0.00 
    3   28   15     -0.54      0.00 
    4   28   15      0.13      0.00 
    5   28   15      1.35      0.00 
    6   28   15     -0.54      0.00 
    1   29   15     -1.41      0.00 
    2   29   15      1.63      0.00 
    3   29   15     -1.02      0.00 
    4   29   15      1.24      0.00 
    5   29   15     -1.15      0.00 
    0   30   15      0.11      0.00 
    1   30   15     -0.34      0.00 
    2   30   15      0.50      0.00 
    3   30   15     -0.57      0.00 
    4   30   15      0.50      0.00 
    1   31   15     -0.05      0.00 
    2   31   15      0.71      0.00 
    3   31   15     -0.40      0.00 
    4   31   15     -0.84      0.00 
    0   32   15     -0.05      0.00 
    1   32   15      0.89      0.00 
    2   32   15     -1.46      0.00 
    3   32   15      0.87      0.00 
    4   32   15      0.13      0.00 
    1   33   15      0.13      0.00 
    2   33   15     -0.31      0.00 
    3   33   15     -0.59      0.00 
    1   34   15      1.40      0.00 
    0    0   16      6.21      0.00 
    1    0   16     -4.17      0.00 
    2    0   16      2.56      0.00 
    3    0   16     -2.86      0.00 
    4    0   16      3.51      0.00 
    5    0   16     -3.61      0.00 
    6    0   16      1.47      0.00 
    7    0   16      2.01      0.00 
    8    0   16     -1.45      0.00 
    9    0   16      0.19      0.00 
   10    0   16     -0.57      0.00 
   11    0   16      0.82      0.00 
    1    1   16      0.41      0.00 
    2    1   16      1.82      0.00 
    3    1   16     -2.49      0.00 
    4    1   16      0.22      0.00 
    5    1   16      0.92      0.00 
    6    1   16      0.55      0.00 
    7    1   16     -2.55      0.00 
    8    1   16      1.52      0.00 
    9    1   16     -0.04      0.00 
   10    1   16     -0.12      0.00 
   11    1   16     -1.38      0.00 
    0    2   16      4.50      0.00 
    1    2   16     -3.01      0.00 
    2    2   16     -0.77      0.00 
    3    2   16      3.19      0.00 
    4    2   16     -3.00      0.00 
    5    2   16      1.35      0.00 
    6    2   16     -0.59      0.00 
    7    2   16     -0.06      0.00 
    8    2   16      0.55      0.00 
    9    2   16     -0.81      0.00 
   10    2   16     -0.68      0.00 
   11    2   16      1.64      0.00 
    1    3   16     -2.47      0.00 
    2    3   16      3.39      0.00 
    3    3   16     -1.62      0.00 
    4    3   16     -0.24      0.00 
    5    3   16      0.32      0.00 
    6    3   16      0.73      0.00 
    7    3   16     -1.48      0.00 
    8    3   16      0.94      0.00 
    9    3   16      0.49      0.00 
   10    3   16     -0.25      0.00 
   11    3   16      0.71      0.00 
    0    4   16      3.82      0.00 
    1    4   16     -3.69      0.00 
    2    4   16      2.22      0.00 
    3    4   16     -0.18      0.00 
    4    4   16     -0.48      0.00 
    5    4   16      1.85      0.00 
    6    4   16     -1.50      0.00 
    7    4   16     -0.62      0.00 
    8    4   16      0.77      0.00 
    9    4   16      0.95      0.00 
   10    4   16      0.27      0.00 
   11    4   16     -1.66      0.00 
    1    5   16      1.25      0.00 
    2    5   16     -0.58      0.00 
    3    5   16     -1.62      0.00 
    4    5   16      2.39      0.00 
    5    5   16     -1.90      0.00 
    6    5   16      1.18      0.00 
    7    5   16      0.02      0.00 
    8    5   16      0.25      0.00 
    9    5   16     -0.91      0.00 
   10    5   16     -0.77      0.00 
   11    5   16     -0.22      0.00 
    0    6   16      0.82      0.00 
    1    6   16      0.70      0.00 
    2    6   16     -1.82      0.00 
    3    6   16      0.48      0.00 
    4    6   16     -0.45      0.00 
    5    6   16      1.02      0.00 
    6    6   16      0.19      0.00 
    7    6   16     -0.98      0.00 
    8    6   16     -0.45      0.00 
    9    6   16     -0.13      0.00 
   10    6   16      1.17      0.00 
   11    6   16     -0.78      0.00 
    1    7   16     -6.40      0.00 
    2    7   16      5.63      0.00 
    3    7   16     -2.46      0.00 
    4    7   16      0.79      0.00 
    5    7   16      1.16      0.00 
    6    7   16     -2.26      0.00 
    7    7   16      0.99      0.00 
    8    7   16     -0.47      0.00 
    9    7   16      0.51      0.00 
   10    7   16      1.22      0.00 
   11    7   16     -0.97      0.00 
    0    8   16     -6.02      0.00 
    1    8   16      2.97      0.00 
    2    8   16      1.11      0.00 
    3    8   16     -0.31      0.00 
    4    8   16     -1.37      0.00 
    5    8   16      0.14      0.00 
    6    8   16     -0.32      0.00 
    7    8   16      1.55      0.00 
    8    8   16      0.38      0.00 
    9    8   16     -1.80      0.00 
   10    8   16      1.79      0.00 
   11    8   16     -0.78      0.00 
    1    9   16      0.15      0.00 
    2    9   16      1.33      0.00 
    3    9   16     -1.17      0.00 
    4    9   16     -0.27      0.00 
    5    9   16      0.66      0.00 
    6    9   16     -0.69      0.00 
    7    9   16      0.91      0.00 
    8    9   16     -0.17      0.00 
    9    9   16     -0.21      0.00 
   10    9   16     -0.48      0.00 
   11    9   16      0.50      0.00 
    0   10   16     -0.93      0.00 
    1   10   16      0.74      0.00 
    2   10   16      0.04      0.00 
    3   10   16     -0.86      0.00 
    4   10   16      0.28      0.00 
    5   10   16      1.22      0.00 
    6   10   16     -0.90      0.00 
    7   10   16     -0.28      0.00 
    8   10   16      0.70      0.00 
    9   10   16     -1.06      0.00 
   10   10   16      0.56      0.00 
   11   10   16     -0.68      0.00 
    1   11   16     -1.05      0.00 
    2   11   16      0.35      0.00 
    3   11   16      1.06      0.00 
    4   11   16     -1.32      0.00 
    5   11   16      0.83      0.00 
    6   11   16     -0.49      0.00 
    7   11   16      0.06      0.00 
    8   11   16     -0.51      0.00 
    9   11   16      1.07      0.00 
   10   11   16     -1.25      0.00 
   11   11   16      0.88      0.00 
    0   12   16     -1.83      0.00 
    1   12   16      0.30      0.00 
    2   12   16      1.25      0.00 
    3   12   16     -0.81      0.00 
    4   12   16      0.65      0.00 
    5   12   16     -0.81      0.00 
    6   12   16     -0.49      0.00 
    7   12   16      1.00      0.00 
    8   12   16     -0.20      0.00 
    9   12   16     -0.41      0.00 
   10   12   16      0.13      0.00 
    1   13   16      1.78      0.00 
    2   13   16      0.19      0.00 
    3   13   16     -2.03      0.00 
    4   13   16      0.64      0.00 
    5   13   16      0.30      0.00 
    6   13   16      0.11      0.00 
    7   13   16     -0.12      0.00 
    8   13   16      0.54      0.00 
    9   13   16      0.19      0.00 
   10   13   16     -0.97      0.00 
    0   14   16      1.77      0.00 
    1   14   16     -0.57      0.00 
    2   14   16      0.01      0.00 
    3   14   16     -1.26      0.00 
    4   14   16      1.05      0.00 
    5   14   16      0.14      0.00 
    6   14   16      0.20      0.00 
    7   14   16      0.24      0.00 
    8   14   16     -0.82      0.00 
    9   14   16      0.77      0.00 
   10   14   16     -0.76      0.00 
    1   15   16     -0.55      0.00 
    2   15   16     -0.56      0.00 
    3   15   16      0.63      0.00 
    4   15   16      0.52      0.00 
    5   15   16     -0.35      0.00 
    6   15   16      0.28      0.00 
    7   15   16     -0.11      0.00 
    8   15   16     -1.06      0.00 
    9   15   16      0.08      0.00 
   10   15   16      0.41      0.00 
    0   16   16     -4.79      0.00 
    1   16   16      4.07      0.00 
    2   16   16     -2.94      0.00 
    3   16   16      1.65      0.00 
    4   16   16     -0.02      0.00 
    5   16   16     -1.24      0.00 
    6   16   16      2.17      0.00 
    7   16   16     -3.13      0.00 
    8   16   16      0.97      0.00 
    9   16   16      1.10      0.00 
   10   16   16     -0.96      0.00 
    1   17   16      2.02      0.00 
    2   17   16     -2.37      0.00 
    3   17   16      0.36      0.00 
    4   17   16      2.09      0.00 
    5   17   16     -2.08      0.00 
    6   17   16      0.13      0.00 
    7   17   16      0.78      0.00 
    8   17   16     -1.40      0.00 
    9   17   16      2.55      0.00 
    0   18   16     -0.11      0.00 
    1   18   16      0.08      0.00 
    2   18   16      0.41      0.00 
    3   18   16     -0.89      0.00 
    4   18   16      1.47      0.00 
    5   18   16     -1.64      0.00 
    6   18   16      0.68      0.00 
    7   18   16      0.27      0.00 
    8   18   16      0.82      0.00 
    9   18   16      0.59      0.00 
    1   19   16     -0.12      0.00 
    2   19   16      0.28      0.00 
    3   19   16      0.10      0.00 
    4   19   16     -1.02      0.00 
    5   19   16      0.37      0.00 
    6   19   16      0.88      0.00 
    7   19   16     -0.97      0.00 
    8   19   16      2.30      0.00 
    9   19   16     -4.05      0.00 
    0   20   16      0.29      0.00 
    1   20   16     -0.40      0.00 
    2   20   16     -0.09      0.00 
    3   20   16      0.19      0.00 
    4   20   16     -0.21      0.00 
    5   20   16      0.70      0.00 
    6   20   16     -0.39      0.00 
    7   20   16     -0.90      0.00 
    8   20   16      0.73      0.00 
    9   20   16     -1.06      0.00 
    1   21   16      2.00      0.00 
    2   21   16     -1.20      0.00 
    3   21   16      0.88      0.00 
    4   21   16     -0.09      0.00 
    5   21   16     -0.32      0.00 
    6   21   16     -0.91      0.00 
    7   21   16      0.84      0.00 
    8   21   16      0.02      0.00 
    0   22   16      0.42      0.00 
    1   22   16      0.75      0.00 
    2   22   16     -1.07      0.00 
    3   22   16      0.82      0.00 
    4   22   16     -0.89      0.00 
    5   22   16      0.57      0.00 
    6   22   16     -1.30      0.00 
    7   22   16      2.21      0.00 
    8   22   16     -0.69      0.00 
    1   23   16     -0.04      0.00 
    2   23   16     -1.52      0.00 
    3   23   16      0.24      0.00 
    4   23   16      0.96      0.00 
    5   23   16     -1.23      0.00 
    6   23   16      1.74      0.00 
    7   23   16     -0.52      0.00 
    8   23   16     -1.05      0.00 
    0   24   16     -0.21      0.00 
    1   24   16     -0.98      0.00 
    2   24   16      0.61      0.00 
    3   24   16     -0.06      0.00 
    4   24   16      0.67      0.00 
    5   24   16     -0.18      0.00 
    6   24   16      0.76      0.00 
    7   24   16     -1.42      0.00 
    8   24   16      0.06      0.00 
    1   25   16      0.91      0.00 
    2   25   16     -0.09      0.00 
    3   25   16      0.69      0.00 
    4   25   16     -0.75      0.00 
    5   25   16      1.27      0.00 
    6   25   16     -2.13      0.00 
    7   25   16      1.39      0.00 
    0   26   16     -1.68      0.00 
    1   26   16      3.03      0.00 
    2   26   16     -2.31      0.00 
    3   26   16      1.38      0.00 
    4   26   16     -2.45      0.00 
    5   26   16      1.07      0.00 
    6   26   16      0.88      0.00 
    7   26   16     -1.38      0.00 
    1   27   16     -0.33      0.00 
    2   27   16     -1.86      0.00 
    3   27   16      1.41      0.00 
    4   27   16     -0.71      0.00 
    5   27   16     -0.14      0.00 
    6   27   16      1.72      0.00 
    7   27   16     -1.85      0.00 
    0   28   16     -0.03      0.00 
    1   28   16     -2.08      0.00 
    2   28   16      1.91      0.00 
    3   28   16      0.12      0.00 
    4   28   16      1.09      0.00 
    5   28   16     -2.24      0.00 
    6   28   16      2.28      0.00 
    1   29   16      0.59      0.00 
    2   29   16      1.15      0.00 
    3   29   16      1.06      0.00 
    4   29   16     -2.16      0.00 
    5   29   16      0.32      0.00 
    0   30   16      2.44      0.00 
    1   30   16      0.19      0.00 
    2   30   16     -1.71      0.00 
    3   30   16      0.71      0.00 
    4   30   16     -1.29      0.00 
    1   31   16     -0.52      0.00 
    2   31   16     -0.86      0.00 
    3   31   16     -1.25      0.00 
    4   31   16      3.08      0.00 
    0   32   16      0.52      0.00 
    1   32   16     -2.06      0.00 
    2   32   16      1.81      0.00 
    3   32   16      0.88      0.00 
    4   32   16     -1.41      0.00 
    1   33   16     -0.01      0.00 
    1    1   17      2.41      0.00 
    2    1   17     -2.81      0.00 
    3    1   17      2.38      0.00 
    4    1   17     -0.51      0.00 
    5    1   17     -1.00      0.00 
    6    1   17     -0.51      0.00 
    7    1   17      1.41      0.00 
    8    1   17     -0.22      0.00 
    9    1   17     -0.56      0.00 
   10    1   17      0.16      0.00 
   11    1   17      0.03      0.00 
    0    2   17     -1.03      0.00 
    1    2   17      0.61      0.00 
    2    2   17     -0.79      0.00 
    3    2   17      0.98      0.00 
    4    2   17      0.20      0.00 
    5    2   17     -1.51      0.00 
    6    2   17      0.90      0.00 
    7    2   17      1.00      0.00 
    8    2   17     -1.40      0.00 
    9    2   17     -0.79      0.00 
   10    2   17      1.07      0.00 
   11    2   17      1.08      0.00 
    1    3   17     -0.06      0.00 
    2    3   17     -1.14      0.00 
    3    3   17      1.08      0.00 
    4    3   17     -1.19      0.00 
    5    3   17      1.72      0.00 
    6    3   17     -0.67      0.00 
    7    3   17      1.02      0.00 
    8    3   17     -2.13      0.00 
    9    3   17      1.66      0.00 
   10    3   17     -0.49      0.00 
   11    3   17      1.30      0.00 
    0    4   17      6.98      0.00 
    1    4   17     -4.94      0.00 
    2    4   17      1.71      0.00 
    3    4   17     -0.81      0.00 
    4    4   17      1.69      0.00 
    5    4   17     -0.94      0.00 
    6    4   17      0.14      0.00 
    7    4   17     -0.42      0.00 
    8    4   17      0.10      0.00 
    9    4   17      1.98      0.00 
   10    4   17     -2.86      0.00 
   11    4   17      1.31      0.00 
    1    5   17      1.49      0.00 
    2    5   17     -1.41      0.00 
    3    5   17      0.70      0.00 
    4    5   17     -0.41      0.00 
    5    5   17     -0.75      0.00 
    6    5   17      2.89      0.00 
    7    5   17     -3.82      0.00 
    8    5   17      2.11      0.00 
    9    5   17     -0.78      0.00 
   10    5   17      0.00      0.00 
   11    5   17     -0.79      0.00 
    0    6   17      2.60      0.00 
    1    6   17     -1.24      0.00 
    2    6   17     -0.58      0.00 
    3    6   17      1.55      0.00 
    4    6   17     -2.47      0.00 
    5    6   17      1.08      0.00 
    6    6   17     -0.14      0.00 
    7    6   17     -0.21      0.00 
    8    6   17      1.22      0.00 
    9    6   17     -1.70      0.00 
   10    6   17      0.65      0.00 
   11    6   17      0.18      0.00 
    1    7   17      1.18      0.00 
    2    7   17     -0.73      0.00 
    3    7   17     -0.44      0.00 
    4    7   17      0.88      0.00 
    5    7   17     -0.34      0.00 
    6    7   17     -0.50      0.00 
    7    7   17      1.06      0.00 
    8    7   17     -0.62      0.00 
    9    7   17      0.49      0.00 
   10    7   17      0.11      0.00 
   11    7   17      0.64      0.00 
    0    8   17      4.63      0.00 
    1    8   17     -3.07      0.00 
    2    8   17      0.22      0.00 
    3    8   17      0.63      0.00 
    4    8   17      0.39      0.00 
    5    8   17     -0.02      0.00 
    6    8   17      0.49      0.00 
    7    8   17     -0.41      0.00 
    8    8   17     -1.57      0.00 
    9    8   17      3.05      0.00 
   10    8   17     -1.11      0.00 
   11    8   17     -1.09      0.00 
    1    9   17     -2.25      0.00 
    2    9   17      2.13      0.00 
    3    9   17     -0.65      0.00 
    4    9   17      0.99      0.00 
    5    9   17     -1.45      0.00 
    6    9   17      0.69      0.00 
    7    9   17     -1.29      0.00 
    8    9   17      1.57      0.00 
    9    9   17     -0.38      0.00 
   10    9   17     -0.91      0.00 
   11    9   17     -0.83      0.00 
    0   10   17     -2.39      0.00 
    1   10   17      1.58      0.00 
    2   10   17     -0.80      0.00 
    3   10   17      0.92      0.00 
    4   10   17     -0.87      0.00 
    5   10   17      0.35      0.00 
    6   10   17     -0.70      0.00 
    7   10   17     -0.35      0.00 
    8   10   17      2.15      0.00 
    9   10   17     -3.35      0.00 
   10   10   17      1.96      0.00 
   11   10   17     -0.09      0.00 
    1   11   17     -1.85      0.00 
    2   11   17      1.81      0.00 
    3   11   17     -0.63      0.00 
    4   11   17     -0.92      0.00 
    5   11   17      1.16      0.00 
    6   11   17     -0.82      0.00 
    7   11   17      1.57      0.00 
    8   11   17     -1.15      0.00 
    9   11   17     -0.55      0.00 
   10   11   17      2.37      0.00 
    0   12   17     -0.53      0.00 
    1   12   17      0.06      0.00 
    2   12   17      0.46      0.00 
    3   12   17      0.38      0.00 
    4   12   17     -1.56      0.00 
    5   12   17      1.85      0.00 
    6   12   17     -1.12      0.00 
    7   12   17      1.23      0.00 
    8   12   17     -0.94      0.00 
    9   12   17      0.06      0.00 
   10   12   17      2.01      0.00 
    1   13   17     -0.96      0.00 
    2   13   17      0.84      0.00 
    3   13   17     -0.13      0.00 
    4   13   17     -0.61      0.00 
    5   13   17      1.30      0.00 
    6   13   17     -0.75      0.00 
    7   13   17     -0.77      0.00 
    8   13   17      0.99      0.00 
    9   13   17      0.41      0.00 
   10   13   17     -2.74      0.00 
    0   14   17      1.20      0.00 
    1   14   17     -1.83      0.00 
    2   14   17      1.95      0.00 
    3   14   17     -0.89      0.00 
    4   14   17     -0.03      0.00 
    5   14   17      0.53      0.00 
    6   14   17     -1.49      0.00 
    7   14   17      1.06      0.00 
    8   14   17      0.75      0.00 
    9   14   17     -2.34      0.00 
   10   14   17      0.85      0.00 
    1   15   17     -1.45      0.00 
    2   15   17      2.82      0.00 
    3   15   17     -1.24      0.00 
    4   15   17     -1.07      0.00 
    5   15   17      1.20      0.00 
    6   15   17     -0.86      0.00 
    7   15   17      0.96      0.00 
    8   15   17     -0.22      0.00 
    9   15   17     -0.80      0.00 
   10   15   17      1.22      0.00 
    0   16   17      0.87      0.00 
    1   16   17      0.15      0.00 
    2   16   17      0.11      0.00 
    3   16   17     -1.18      0.00 
    4   16   17     -0.05      0.00 
    5   16   17      0.72      0.00 
    6   16   17      0.08      0.00 
    7   16   17      0.91      0.00 
    8   16   17     -1.49      0.00 
    9   16   17      0.27      0.00 
   10   16   17      0.64      0.00 
    1   17   17      0.06      0.00 
    2   17   17     -0.86      0.00 
    3   17   17     -0.84      0.00 
    4   17   17      1.67      0.00 
    5   17   17     -0.39      0.00 
    6   17   17      0.36      0.00 
    7   17   17     -0.57      0.00 
    8   17   17     -0.92      0.00 
    9   17   17      2.08      0.00 
    0   18   17     -4.31      0.00 
    1   18   17      2.54      0.00 
    2   18   17     -1.14      0.00 
    3   18   17      0.47      0.00 
    4   18   17      1.19      0.00 
    5   18   17     -1.48      0.00 
    6   18   17      1.11      0.00 
    7   18   17     -1.21      0.00 
    8   18   17     -0.07      0.00 
    9   18   17      1.60      0.00 
    1   19   17     -0.08      0.00 
    2   19   17      1.36      0.00 
    3   19   17     -0.34      0.00 
    4   19   17      0.14      0.00 
    5   19   17     -0.71      0.00 
    6   19   17     -0.13      0.00 
    7   19   17      0.41      0.00 
    8   19   17     -0.47      0.00 
    9   19   17      0.88      0.00 
    0   20   17     -0.75      0.00 
    1   20   17      0.87      0.00 
    2   20   17      0.24      0.00 
    3   20   17     -0.60      0.00 
    4   20   17     -0.11      0.00 
    5   20   17     -0.39      0.00 
    6   20   17      0.41      0.00 
    7   20   17     -0.86      0.00 
    8   20   17      1.34      0.00 
    9   20   17      0.14      0.00 
    1   21   17     -0.21      0.00 
    2   21   17     -0.43      0.00 
    3   21   17     -0.94      0.00 
    4   21   17      0.78      0.00 
    5   21   17      0.32      0.00 
    6   21   17     -0.11      0.00 
    7   21   17      0.31      0.00 
    8   21   17      0.20      0.00 
    0   22   17      0.22      0.00 
    1   22   17     -0.83      0.00 
    2   22   17      0.22      0.00 
    3   22   17     -0.58      0.00 
    4   22   17      2.54      0.00 
    5   22   17     -1.54      0.00 
    6   22   17      0.61      0.00 
    7   22   17     -0.49      0.00 
    8   22   17     -0.10      0.00 
    1   23   17      0.40      0.00 
    2   23   17     -0.03      0.00 
    3   23   17      1.24      0.00 
    4   23   17     -0.72      0.00 
    5   23   17     -0.65      0.00 
    6   23   17      0.73      0.00 
    7   23   17     -1.82      0.00 
    8   23   17      2.42      0.00 
    0   24   17      0.59      0.00 
    1   24   17      0.51      0.00 
    2   24   17     -0.11      0.00 
    3   24   17     -0.56      0.00 
    4   24   17     -1.27      0.00 
    5   24   17      1.68      0.00 
    6   24   17     -2.85      0.00 
    7   24   17      3.80      0.00 
    8   24   17     -1.63      0.00 
    1   25   17      1.08      0.00 
    2   25   17     -0.39      0.00 
    3   25   17     -2.32      0.00 
    4   25   17      2.41      0.00 
    5   25   17     -1.42      0.00 
    6   25   17      0.82      0.00 
    7   25   17      2.18      0.00 
    0   26   17      0.04      0.00 
    1   26   17      0.12      0.00 
    2   26   17     -0.70      0.00 
    3   26   17      0.26      0.00 
    4   26   17      0.53      0.00 
    5   26   17      0.51      0.00 
    6   26   17      0.58      0.00 
    7   26   17     -2.05      0.00 
    1   27   17     -0.49      0.00 
    2   27   17     -0.31      0.00 
    3   27   17      1.63      0.00 
    4   27   17     -0.47      0.00 
    5   27   17      0.01      0.00 
    6   27   17     -1.23      0.00 
    0   28   17     -2.89      0.00 
    1   28   17      1.33      0.00 
    2   28   17      0.68      0.00 
    3   28   17     -0.63      0.00 
    4   28   17      0.35      0.00 
    5   28   17     -1.34      0.00 
    1   29   17      1.59      0.00 
    2   29   17     -1.11      0.00 
    3   29   17     -0.26      0.00 
    4   29   17     -0.29      0.00 
    0   30   17      0.19      0.00 
    1   30   17      0.61      0.00 
    2   30   17     -1.56      0.00 
    3   30   17      1.41      0.00 
    4   30   17     -0.79      0.00 
    1   31   17     -0.32      0.00 
    2   31   17     -0.51      0.00 
    3   31   17      0.54      0.00 
    4   31   17      0.73      0.00 
    0   32   17      0.90      0.00 
    1   32   17     -1.65      0.00 
    2   32   17      2.04      0.00 
    3   32   17     -1.12      0.00 
    0    0   18     -3.11      0.00 
    1    0   18      2.36      0.00 
    2    0   18     -2.11      0.00 
    3    0   18      2.71      0.00 
    4    0   18     -2.80      0.00 
    5    0   18      2.27      0.00 
    6    0   18     -1.28      0.00 
    7    0   18     -1.04      0.00 
    8    0   18      1.62      0.00 
    9    0   18     -1.42      0.00 
   10    0   18      0.94      0.00 
   11    0   18     -0.64      0.00 
    1    1   18     -2.79      0.00 
    2    1   18      0.76      0.00 
    3    1   18      1.04      0.00 
    4    1   18     -0.83      0.00 
    5    1   18      0.49      0.00 
    6    1   18     -1.05      0.00 
    7    1   18      2.42      0.00 
    8    1   18     -1.47      0.00 
    9    1   18     -0.36      0.00 
   10    1   18      0.35      0.00 
   11    1   18      1.95      0.00 
    0    2   18     -5.65      0.00 
    1    2   18      3.04      0.00 
    2    2   18      0.91      0.00 
    3    2   18     -2.27      0.00 
    4    2   18      2.21      0.00 
    5    2   18     -1.14      0.00 
    6    2   18      0.65      0.00 
    7    2   18     -0.37      0.00 
    8    2   18     -0.24      0.00 
    9    2   18      1.22      0.00 
   10    2   18      0.21      0.00 
   11    2   18     -1.39      0.00 
    1    3   18      3.84      0.00 
    2    3   18     -2.91      0.00 
    3    3   18      0.65      0.00 
    4    3   18      0.41      0.00 
    5    3   18     -0.87      0.00 
    6    3   18      0.32      0.00 
    7    3   18      0.64      0.00 
    8    3   18     -0.01      0.00 
    9    3   18     -1.15      0.00 
   10    3   18      0.22      0.00 
   11    3   18     -0.74      0.00 
    0    4   18     -0.07      0.00 
    1    4   18      2.04      0.00 
    2    4   18     -2.45      0.00 
    3    4   18      0.14      0.00 
    4    4   18      0.17      0.00 
    5    4   18     -0.83      0.00 
    6    4   18      0.72      0.00 
    7    4   18      1.02      0.00 
    8    4   18     -1.11      0.00 
    9    4   18     -0.64      0.00 
   10    4   18     -0.56      0.00 
   11    4   18      1.69      0.00 
    1    5   18     -1.99      0.00 
    2    5   18      0.06      0.00 
    3    5   18      2.08      0.00 
    4    5   18     -2.03      0.00 
    5    5   18      1.60      0.00 
    6    5   18     -1.58      0.00 
    7    5   18      1.15      0.00 
    8    5   18     -1.11      0.00 
    9    5   18      0.83      0.00 
   10    5   18      0.55      0.00 
   11    5   18      0.52      0.00 
    0    6   18     -3.86      0.00 
    1    6   18      1.14      0.00 
    2    6   18      1.28      0.00 
    3    6   18     -0.48      0.00 
    4    6   18      0.63      0.00 
    5    6   18     -1.11      0.00 
    6    6   18      0.51      0.00 
    7    6   18      0.40      0.00 
    8    6   18     -0.19      0.00 
    9    6   18      0.08      0.00 
   10    6   18      0.02      0.00 
   11    6   18      0.51      0.00 
    1    7   18      4.87      0.00 
    2    7   18     -3.45      0.00 
    3    7   18      1.32      0.00 
    4    7   18     -0.41      0.00 
    5    7   18     -0.73      0.00 
    6    7   18      1.02      0.00 
    7    7   18     -0.29      0.00 
    8    7   18     -0.11      0.00 
    9    7   18      0.42      0.00 
   10    7   18     -0.78      0.00 
   11    7   18      0.25      0.00 
    0    8   18      5.57      0.00 
    1    8   18     -2.59      0.00 
    2    8   18     -0.58      0.00 
    3    8   18     -0.02      0.00 
    4    8   18      0.45      0.00 
    5    8   18      0.05      0.00 
    6    8   18      1.20      0.00 
    7    8   18     -2.20      0.00 
    8    8   18     -0.04      0.00 
    9    8   18      2.29      0.00 
   10    8   18     -2.64      0.00 
   11    8   18      0.83      0.00 
    1    9   18     -0.31      0.00 
    2    9   18     -1.57      0.00 
    3    9   18      0.74      0.00 
    4    9   18      0.37      0.00 
    5    9   18      0.18      0.00 
    6    9   18      0.87      0.00 
    7    9   18     -2.23      0.00 
    8    9   18      1.08      0.00 
    9    9   18     -0.14      0.00 
   10    9   18      0.56      0.00 
    0   10   18      0.61      0.00 
    1   10   18     -1.13      0.00 
    2   10   18      0.34      0.00 
    3   10   18      0.57      0.00 
    4   10   18      1.10      0.00 
    5   10   18     -2.00      0.00 
    6   10   18      0.41      0.00 
    7   10   18      0.33      0.00 
    8   10   18     -0.41      0.00 
    9   10   18      1.27      0.00 
   10   10   18     -0.76      0.00 
   11   10   18      0.14      0.00 
    1   11   18      2.57      0.00 
    2   11   18     -1.89      0.00 
    3   11   18      0.62      0.00 
    4   11   18      0.76      0.00 
    5   11   18     -1.92      0.00 
    6   11   18      1.21      0.00 
    7   11   18      0.16      0.00 
    8   11   18     -0.02      0.00 
    9   11   18     -0.18      0.00 
   10   11   18      0.46      0.00 
    0   12   18      0.75      0.00 
    1   12   18      0.75      0.00 
    2   12   18     -1.55      0.00 
    3   12   18      0.76      0.00 
    4   12   18     -0.73      0.00 
    5   12   18      0.41      0.00 
    6   12   18      0.40      0.00 
    7   12   18     -0.17      0.00 
    8   12   18     -0.03      0.00 
    9   12   18      0.41      0.00 
   10   12   18     -0.50      0.00 
    1   13   18     -2.36      0.00 
    2   13   18      1.05      0.00 
    3   13   18      0.79      0.00 
    4   13   18     -0.97      0.00 
    5   13   18      0.20      0.00 
    6   13   18      0.70      0.00 
    7   13   18     -0.76      0.00 
    8   13   18      0.25      0.00 
    9   13   18     -0.98      0.00 
   10   13   18      0.40      0.00 
    0   14   18     -0.19      0.00 
    1   14   18     -0.25      0.00 
    2   14   18     -0.36      0.00 
    3   14   18      1.42      0.00 
    4   14   18     -1.24      0.00 
    5   14   18      0.93      0.00 
    6   14   18     -0.49      0.00 
    7   14   18     -1.10      0.00 
    8   14   18      1.84      0.00 
    9   14   18     -2.22      0.00 
   10   14   18      2.02      0.00 
    1   15   18      1.06      0.00 
    2   15   18     -0.52      0.00 
    3   15   18      0.40      0.00 
    4   15   18     -0.43      0.00 
    5   15   18      0.48      0.00 
    6   15   18     -1.35      0.00 
    7   15   18      0.71      0.00 
    8   15   18      1.23      0.00 
    9   15   18     -0.42      0.00 
   10   15   18     -0.10      0.00 
    0   16   18      5.15      0.00 
    1   16   18     -4.05      0.00 
    2   16   18      2.47      0.00 
    3   16   18     -0.89      0.00 
    4   16   18     -0.45      0.00 
    5   16   18      1.00      0.00 
    6   16   18     -2.12      0.00 
    7   16   18      3.56      0.00 
    8   16   18     -1.50      0.00 
    9   16   18     -0.89      0.00 
    1   17   18     -2.28      0.00 
    2   17   18      2.37      0.00 
    3   17   18     -0.38      0.00 
    4   17   18     -2.04      0.00 
    5   17   18      1.74      0.00 
    6   17   18      0.43      0.00 
    7   17   18     -1.02      0.00 
    8   17   18      0.81      0.00 
    9   17   18     -1.66      0.00 
    0   18   18     -0.45      0.00 
    1   18   18      0.08      0.00 
    2   18   18     -0.19      0.00 
    3   18   18      0.50      0.00 
    4   18   18     -1.14      0.00 
    5   18   18      1.63      0.00 
    6   18   18     -0.63      0.00 
    7   18   18     -0.55      0.00 
    8   18   18     -0.44      0.00 
    9   18   18     -0.38      0.00 
    1   19   18      0.08      0.00 
    2   19   18     -0.16      0.00 
    3   19   18     -0.22      0.00 
    4   19   18      1.32      0.00 
    5   19   18     -0.33      0.00 
    6   19   18     -1.38      0.00 
    7   19   18      1.40      0.00 
    8   19   18     -1.91      0.00 
    9   19   18      3.01      0.00 
    0   20   18     -1.19      0.00 
    1   20   18      0.88      0.00 
    2   20   18      0.30      0.00 
    3   20   18     -0.33      0.00 
    4   20   18      0.17      0.00 
    5   20   18     -0.97      0.00 
    6   20   18      0.80      0.00 
    7   20   18      0.56      0.00 
    8   20   18     -0.65      0.00 
    1   21   18     -1.42      0.00 
    2   21   18      1.17      0.00 
    3   21   18     -1.46      0.00 
    4   21   18      0.34      0.00 
    5   21   18      0.33      0.00 
    6   21   18      0.95      0.00 
    7   21   18     -1.04      0.00 
    8   21   18     -0.18      0.00 
    0   22   18     -0.29      0.00 
    1   22   18     -0.56      0.00 
    2   22   18      0.76      0.00 
    3   22   18     -1.04      0.00 
    4   22   18      1.11      0.00 
    5   22   18     -0.20      0.00 
    6   22   18      0.61      0.00 
    7   22   18     -1.97      0.00 
    8   22   18      1.26      0.00 
    1   23   18     -0.45      0.00 
    2   23   18      1.48      0.00 
    3   23   18      0.07      0.00 
    4   23   18     -0.79      0.00 
    5   23   18      1.08      0.00 
    6   23   18     -2.23      0.00 
    7   23   18      1.55      0.00 
    8   23   18      0.72      0.00 
    0   24   18     -0.09      0.00 
    1   24   18      0.84      0.00 
    2   24   18     -0.32      0.00 
    3   24   18      0.19      0.00 
    4   24   18     -0.48      0.00 
    5   24   18     -0.62      0.00 
    6   24   18     -0.06      0.00 
    7   24   18      1.64      0.00 
    1   25   18     -0.38      0.00 
    2   25   18     -0.02      0.00 
    3   25   18     -0.55      0.00 
    4   25   18     -0.05      0.00 
    5   25   18     -0.51      0.00 
    6   25   18      2.13      0.00 
    7   25   18     -1.77      0.00 
    0   26   18      2.41      0.00 
    1   26   18     -2.89      0.00 
    2   26   18      1.36      0.00 
    3   26   18     -0.91      0.00 
    4   26   18      2.44      0.00 
    5   26   18     -0.97      0.00 
    6   26   18     -0.95      0.00 
    1   27   18     -0.36      0.00 
    2   27   18      1.59      0.00 
    3   27   18     -0.44      0.00 
    4   27   18      0.37      0.00 
    5   27   18     -0.50      0.00 
    6   27   18     -0.96      0.00 
    0   28   18      0.22      0.00 
    1   28   18      1.30      0.00 
    2   28   18     -1.04      0.00 
    3   28   18      0.02      0.00 
    4   28   18     -1.73      0.00 
    5   28   18      2.27      0.00 
    1   29   18      0.14      0.00 
    2   29   18     -1.43      0.00 
    3   29   18     -0.90      0.00 
    4   29   18      1.78      0.00 
    0   30   18     -3.13      0.00 
    1   30   18      0.83      0.00 
    2   30   18      1.05      0.00 
    3   30   18     -1.03      0.00 
    4   30   18      1.66      0.00 
    1   31   18      0.32      0.00 
    2   31   18      0.72      0.00 
    3   31   18      1.06      0.00 
    0   32   18      0.50      0.00 
    1   32   18      0.73      0.00 
    3   32   18     -0.61      0.00 
    1    1   19     -1.02      0.00 
    2    1   19      0.76      0.00 
    3    1   19     -1.03      0.00 
    4    1   19      0.72      0.00 
    5    1   19      0.49      0.00 
    6    1   19     -0.08      0.00 
    7    1   19     -0.56      0.00 
    8    1   19     -0.26      0.00 
    9    1   19      1.10      0.00 
   10    1   19     -0.38      0.00 
   11    1   19     -0.20      0.00 
    0    2   19      0.10      0.00 
    1    2   19      0.12      0.00 
    2    2   19      0.12      0.00 
    3    2   19     -0.10      0.00 
    4    2   19     -0.27      0.00 
    5    2   19      0.12      0.00 
    6    2   19      0.06      0.00 
    7    2   19     -0.58      0.00 
    8    2   19      1.43      0.00 
    9    2   19     -0.01      0.00 
   10    2   19     -0.95      0.00 
   11    2   19     -0.67      0.00 
    1    3   19     -1.48      0.00 
    2    3   19      2.89      0.00 
    3    3   19     -2.35      0.00 
    4    3   19      1.27      0.00 
    5    3   19     -1.20      0.00 
    6    3   19      1.26      0.00 
    7    3   19     -1.97      0.00 
    8    3   19      2.30      0.00 
    9    3   19     -1.98      0.00 
   10    3   19      1.00      0.00 
   11    3   19     -1.12      0.00 
    0    4   19     -4.52      0.00 
    1    4   19      2.64      0.00 
    2    4   19     -0.67      0.00 
    3    4   19      1.04      0.00 
    4    4   19     -1.63      0.00 
    5    4   19      1.04      0.00 
    6    4   19     -0.78      0.00 
    7    4   19      0.25      0.00 
    8    4   19      0.58      0.00 
    9    4   19     -1.92      0.00 
   10    4   19      2.57      0.00 
   11    4   19     -1.23      0.00 
    1    5   19      0.09      0.00 
    2    5   19      0.22      0.00 
    3    5   19      0.69      0.00 
    4    5   19     -1.31      0.00 
    5    5   19      1.21      0.00 
    6    5   19     -2.37      0.00 
    7    5   19      3.18      0.00 
    8    5   19     -1.31      0.00 
    9    5   19      0.43      0.00 
   10    5   19     -0.39      0.00 
   11    5   19      0.81      0.00 
    0    6   19     -1.81      0.00 
    1    6   19      1.63      0.00 
    2    6   19     -0.40      0.00 
    3    6   19     -1.70      0.00 
    4    6   19      2.51      0.00 
    5    6   19     -0.46      0.00 
    6    6   19     -0.56      0.00 
    7    6   19      0.80      0.00 
    8    6   19     -1.45      0.00 
    9    6   19      1.82      0.00 
   10    6   19     -1.20      0.00 
   11    6   19      0.20      0.00 
    1    7   19     -1.52      0.00 
    2    7   19      0.43      0.00 
    3    7   19      0.13      0.00 
    4    7   19      0.94      0.00 
    5    7   19     -1.64      0.00 
    6    7   19      1.00      0.00 
    7    7   19      0.03      0.00 
    8    7   19     -0.24      0.00 
    9    7   19     -0.64      0.00 
   10    7   19     -0.27      0.00 
   11    7   19      0.02      0.00 
    0    8   19     -4.70      0.00 
    1    8   19      2.68      0.00 
    2    8   19      0.06      0.00 
    3    8   19      0.03      0.00 
    4    8   19     -1.13      0.00 
    5    8   19     -0.08      0.00 
    6    8   19      0.49      0.00 
    7    8   19      0.14      0.00 
    8    8   19      0.62      0.00 
    9    8   19     -2.88      0.00 
   10    8   19      2.09      0.00 
    1    9   19      1.04      0.00 
    2    9   19      0.12      0.00 
    3    9   19     -0.69      0.00 
    4    9   19     -1.64      0.00 
    5    9   19      3.35      0.00 
    6    9   19     -2.26      0.00 
    7    9   19      1.57      0.00 
    8    9   19     -1.40      0.00 
    9    9   19      0.15      0.00 
   10    9   19      1.78      0.00 
    0   10   19      1.87      0.00 
    1   10   19     -0.95      0.00 
    2   10   19      0.68      0.00 
    3   10   19     -1.37      0.00 
    4   10   19      0.63      0.00 
    5   10   19      0.33      0.00 
    6   10   19      0.79      0.00 
    7   10   19     -0.56      0.00 
    8   10   19     -1.62      0.00 
    9   10   19      3.40      0.00 
   10   10   19     -2.06      0.00 
    1   11   19      2.00      0.00 
    2   11   19     -2.97      0.00 
    3   11   19      1.19      0.00 
    4   11   19      1.64      0.00 
    5   11   19     -1.70      0.00 
    6   11   19      0.89      0.00 
    7   11   19     -1.84      0.00 
    8   11   19      0.92      0.00 
    9   11   19      1.53      0.00 
   10   11   19     -2.35      0.00 
    0   12   19      0.38      0.00 
    1   12   19     -0.54      0.00 
    2   12   19     -0.09      0.00 
    3   12   19      0.35      0.00 
    4   12   19      1.44      0.00 
    5   12   19     -2.84      0.00 
    6   12   19      1.47      0.00 
    7   12   19     -0.61      0.00 
    8   12   19      0.37      0.00 
    9   12   19      1.25      0.00 
   10   12   19     -3.41      0.00 
    1   13   19      0.92      0.00 
    2   13   19     -0.15      0.00 
    3   13   19     -0.07      0.00 
    4   13   19      0.10      0.00 
    5   13   19     -1.51      0.00 
    6   13   19      1.76      0.00 
    7   13   19      0.42      0.00 
    8   13   19     -1.11      0.00 
    9   13   19     -0.59      0.00 
   10   13   19      2.23      0.00 
    0   14   19     -2.09      0.00 
    1   14   19      2.33      0.00 
    2   14   19     -1.27      0.00 
    3   14   19     -0.62      0.00 
    4   14   19      0.79      0.00 
    5   14   19     -0.01      0.00 
    6   14   19      0.80      0.00 
    7   14   19     -1.08      0.00 
    8   14   19     -0.59      0.00 
    9   14   19      1.78      0.00 
   10   14   19      0.13      0.00 
    1   15   19      1.36      0.00 
    2   15   19     -2.36      0.00 
    3   15   19      0.58      0.00 
    4   15   19      1.39      0.00 
    5   15   19     -1.07      0.00 
    6   15   19      0.41      0.00 
    7   15   19     -1.01      0.00 
    8   15   19      0.78      0.00 
    9   15   19      0.93      0.00 
   10   15   19     -1.90      0.00 
    0   16   19      0.05      0.00 
    1   16   19     -0.35      0.00 
    2   16   19     -0.91      0.00 
    3   16   19      2.12      0.00 
    4   16   19     -0.63      0.00 
    5   16   19     -0.46      0.00 
    6   16   19     -0.08      0.00 
    7   16   19     -0.90      0.00 
    8   16   19      2.14      0.00 
    9   16   19     -1.05      0.00 
    1   17   19     -0.25      0.00 
    2   17   19      0.83      0.00 
    3   17   19      0.94      0.00 
    4   17   19     -1.78      0.00 
    5   17   19      0.31      0.00 
    6   17   19      0.27      0.00 
    7   17   19      0.18      0.00 
    8   17   19      1.03      0.00 
    9   17   19     -2.57      0.00 
    0   18   19      4.94      0.00 
    1   18   19     -2.88      0.00 
    2   18   19      0.86      0.00 
    3   18   19     -0.16      0.00 
    4   18   19     -1.07      0.00 
    5   18   19      1.34      0.00 
    6   18   19     -0.94      0.00 
    7   18   19      1.24      0.00 
    8   18   19     -0.71      0.00 
    9   18   19     -1.28      0.00 
    1   19   19      0.31      0.00 
    2   19   19     -1.78      0.00 
    3   19   19      0.74      0.00 
    4   19   19      0.07      0.00 
    5   19   19      0.43      0.00 
    6   19   19     -0.14      0.00 
    7   19   19     -0.22      0.00 
    8   19   19      0.01      0.00 
    9   19   19      0.09      0.00 
    0   20   19     -0.21      0.00 
    1   20   19     -0.16      0.00 
    2   20   19     -0.43      0.00 
    3   20   19      0.79      0.00 
    4   20   19     -0.04      0.00 
    5   20   19      0.00      0.00 
    6   20   19     -0.18      0.00 
    7   20   19      0.86      0.00 
    8   20   19     -1.01      0.00 
    1   21   19     -0.21      0.00 
    2   21   19      1.02      0.00 
    3   21   19      0.56      0.00 
    4   21   19     -1.27      0.00 
    5   21   19      0.19      0.00 
    6   21   19      0.55      0.00 
    7   21   19     -1.02      0.00 
    8   21   19      0.34      0.00 
    0   22   19     -0.38      0.00 
    1   22   19      0.68      0.00 
    2   22   19      0.11      0.00 
    3   22   19      0.09      0.00 
    4   22   19     -2.22      0.00 
    5   22   19      1.98      0.00 
    6   22   19     -0.62      0.00 
    7   22   19     -0.53      0.00 
    8   22   19      0.81      0.00 
    1   23   19      0.10      0.00 
    2   23   19     -0.20      0.00 
    3   23   19     -1.54      0.00 
    4   23   19      1.95      0.00 
    5   23   19     -0.42      0.00 
    6   23   19     -0.97      0.00 
    7   23   19      2.05      0.00 
    8   23   19     -1.77      0.00 
    0   24   19     -0.75      0.00 
    1   24   19     -0.24      0.00 
    2   24   19      0.25      0.00 
    3   24   19      0.23      0.00 
    4   24   19      1.24      0.00 
    5   24   19     -1.70      0.00 
    6   24   19      2.24      0.00 
    7   24   19     -2.32      0.00 
    1   25   19     -0.84      0.00 
    2   25   19      0.17      0.00 
    3   25   19      1.88      0.00 
    4   25   19     -2.26      0.00 
    5   25   19      1.79      0.00 
    6   25   19     -1.10      0.00 
    7   25   19     -1.34      0.00 
    0   26   19     -0.47      0.00 
    1   26   19      0.14      0.00 
    2   26   19      0.56      0.00 
    3   26   19     -0.56      0.00 
    4   26   19      0.10      0.00 
    5   26   19     -0.57      0.00 
    6   26   19     -0.66      0.00 
    1   27   19     -0.17      0.00 
    2   27   19      0.92      0.00 
    3   27   19     -1.72      0.00 
    4   27   19      0.65      0.00 
    5   27   19     -0.09      0.00 
    6   27   19      0.91      0.00 
    0   28   19      3.26      0.00 
    1   28   19     -1.50      0.00 
    2   28   19     -1.05      0.00 
    3   28   19      1.54      0.00 
    4   28   19     -0.74      0.00 
    5   28   19      0.68      0.00 
    1   29   19     -0.85      0.00 
    2   29   19      0.36      0.00 
    3   29   19      1.10      0.00 
    4   29   19     -0.79      0.00 
    0   30   19      0.21      0.00 
    1   30   19     -0.76      0.00 
    2   30   19      1.63      0.00 
    3   30   19     -1.90      0.00 
    1   31   19      0.10      0.00 
    2   31   19      0.25      0.00 
    3   31   19     -0.28      0.00 
    0   32   19     -1.62      0.00 
    1   32   19      1.89      0.00 
    0    0   20      0.66      0.00 
    1    0   20     -1.65      0.00 
    2    0   20      3.04      0.00 
    3    0   20     -3.11      0.00 
    4    0   20      1.99      0.00 
    5    0   20     -0.73      0.00 
    6    0   20      0.64      0.00 
    7    0   20      0.67      0.00 
    8    0   20     -1.67      0.00 
    9    0   20      1.98      0.00 
   10    0   20     -1.64      0.00 
   11    0   20      0.75      0.00 
    1    1   20      4.92      0.00 
    2    1   20     -2.22      0.00 
    3    1   20     -1.19      0.00 
    4    1   20      2.39      0.00 
    5    1   20     -2.05      0.00 
    6    1   20      1.30      0.00 
    7    1   20     -1.69      0.00 
    8    1   20      0.53      0.00 
    9    1   20      0.81      0.00 
   10    1   20     -0.42      0.00 
   11    1   20     -1.58      0.00 
    0    2   20      6.20      0.00 
    1    2   20     -2.74      0.00 
    2    2   20     -1.16      0.00 
    3    2   20      1.34      0.00 
    4    2   20     -1.34      0.00 
    5    2   20      0.93      0.00 
    6    2   20     -0.72      0.00 
    7    2   20      0.47      0.00 
    8    2   20     -0.05      0.00 
    9    2   20     -0.99      0.00 
   10    2   20      0.49      0.00 
    1    3   20     -4.10      0.00 
    2    3   20      1.89      0.00 
    3    3   20      0.04      0.00 
    4    3   20     -0.08      0.00 
    5    3   20      1.05      0.00 
    6    3   20     -1.45      0.00 
    7    3   20      0.32      0.00 
    8    3   20     -0.12      0.00 
    9    3   20      1.21      0.00 
   10    3   20     -0.37      0.00 
    0    4   20     -1.55      0.00 
    1    4   20     -1.30      0.00 
    2    4   20      2.03      0.00 
    3    4   20      0.76      0.00 
    4    4   20     -0.29      0.00 
    5    4   20     -0.20      0.00 
    6    4   20      0.23      0.00 
    7    4   20     -1.12      0.00 
    8    4   20      1.31      0.00 
    9    4   20     -0.32      0.00 
   10    4   20      0.88      0.00 
    1    5   20      1.81      0.00 
    2    5   20      1.02      0.00 
    3    5   20     -2.50      0.00 
    4    5   20      1.37      0.00 
    5    5   20     -0.97      0.00 
    6    5   20      1.75      0.00 
    7    5   20     -1.90      0.00 
    8    5   20      1.18      0.00 
    9    5   20     -0.62      0.00 
   10    5   20      0.09      0.00 
    0    6   20      5.05      0.00 
    1    6   20     -1.63      0.00 
    2    6   20     -1.32      0.00 
    3    6   20      0.57      0.00 
    4    6   20     -0.77      0.00 
    5    6   20      1.29      0.00 
    6    6   20     -1.21      0.00 
    7    6   20      0.01      0.00 
    8    6   20      0.82      0.00 
    9    6   20     -0.04      0.00 
   10    6   20     -0.76      0.00 
    1    7   20     -3.79      0.00 
    2    7   20      1.85      0.00 
    3    7   20     -0.34      0.00 
    4    7   20     -0.10      0.00 
    5    7   20      0.36      0.00 
    6    7   20      0.22      0.00 
    7    7   20     -0.26      0.00 
    8    7   20      0.14      0.00 
    9    7   20     -0.42      0.00 
   10    7   20     -0.06      0.00 
    0    8   20     -5.06      0.00 
    1    8   20      2.15      0.00 
    2    8   20      0.64      0.00 
    3    8   20     -0.63      0.00 
    4    8   20      0.86      0.00 
    5    8   20     -0.18      0.00 
    6    8   20     -1.75      0.00 
    7    8   20      2.16      0.00 
    8    8   20      0.05      0.00 
    9    8   20     -2.31      0.00 
   10    8   20      2.73      0.00 
    1    9   20      0.38      0.00 
    2    9   20      1.35      0.00 
    3    9   20     -0.16      0.00 
    4    9   20     -0.08      0.00 
    5    9   20     -0.95      0.00 
    6    9   20     -1.39      0.00 
    7    9   20      3.22      0.00 
    8    9   20     -1.09      0.00 
    9    9   20     -0.38      0.00 
   10    9   20     -0.26      0.00 
    0   10   20     -0.57      0.00 
    1   10   20      1.32      0.00 
    2   10   20     -0.44      0.00 
    3   10   20     -0.07      0.00 
    4   10   20     -2.09      0.00 
    5   10   20      1.83      0.00 
    6   10   20      0.36      0.00 
    7   10   20     -0.03      0.00 
    8   10   20     -0.20      0.00 
    9   10   20     -1.46      0.00 
   10   10   20      1.16      0.00 
    1   11   20     -3.28      0.00 
    2   11   20      2.85      0.00 
    3   11   20     -1.78      0.00 
    4   11   20     -0.69      0.00 
    5   11   20      2.76      0.00 
    6   11   20     -1.39      0.00 
    7   11   20     -0.47      0.00 
    8   11   20      0.20      0.00 
    9   11   20     -0.16      0.00 
   10   11   20      0.07      0.00 
    0   12   20     -0.65      0.00 
    1   12   20     -0.80      0.00 
    2   12   20      1.19      0.00 
    3   12   20     -0.56      0.00 
    4   12   20      0.88      0.00 
    5   12   20     -0.28      0.00 
    6   12   20     -0.09      0.00 
    7   12   20     -0.49      0.00 
    8   12   20      0.06      0.00 
    9   12   20     -0.15      0.00 
   10   12   20      0.47      0.00 
    1   13   20      3.33      0.00 
    2   13   20     -2.75      0.00 
    3   13   20      0.88      0.00 
    4   13   20      0.73      0.00 
    5   13   20     -0.37      0.00 
    6   13   20     -1.12      0.00 
    7   13   20      1.18      0.00 
    8   13   20     -0.89      0.00 
    9   13   20      1.45      0.00 
   10   13   20      0.24      0.00 
    0   14   20     -0.03      0.00 
    1   14   20      0.20      0.00 
    2   14   20      0.81      0.00 
    3   14   20     -1.32      0.00 
    4   14   20      0.91      0.00 
    5   14   20     -1.03      0.00 
    6   14   20      0.22      0.00 
    7   14   20      1.49      0.00 
    8   14   20     -2.33      0.00 
    9   14   20      3.40      0.00 
   10   14   20     -2.88      0.00 
    1   15   20     -1.91      0.00 
    2   15   20      1.73      0.00 
    3   15   20     -1.25      0.00 
    4   15   20      0.25      0.00 
    5   15   20     -0.48      0.00 
    6   15   20      1.76      0.00 
    7   15   20     -0.87      0.00 
    8   15   20     -1.15      0.00 
    9   15   20      0.75      0.00 
    0   16   20     -4.83      0.00 
    1   16   20      3.23      0.00 
    2   16   20     -1.22      0.00 
    3   16   20     -0.25      0.00 
    4   16   20      0.73      0.00 
    5   16   20     -0.47      0.00 
    6   16   20      1.69      0.00 
    7   16   20     -3.28      0.00 
    8   16   20      1.75      0.00 
    9   16   20      0.39      0.00 
    1   17   20      2.48      0.00 
    2   17   20     -2.00      0.00 
    3   17   20     -0.14      0.00 
    4   17   20      2.33      0.00 
    5   17   20     -1.56      0.00 
    6   17   20     -0.51      0.00 
    7   17   20      0.84      0.00 
    8   17   20     -0.26      0.00 
    9   17   20      0.64      0.00 
    0   18   20      1.25      0.00 
    1   18   20     -0.25      0.00 
    2   18   20     -0.13      0.00 
    3   18   20     -0.26      0.00 
    4   18   20      0.97      0.00 
    5   18   20     -1.29      0.00 
    6   18   20      0.19      0.00 
    7   18   20      0.59      0.00 
    8   18   20      0.36      0.00 
    9   18   20      0.07      0.00 
    1   19   20     -0.21      0.00 
    2   19   20     -0.06      0.00 
    3   19   20      0.38      0.00 
    4   19   20     -1.07      0.00 
    5   19   20     -0.20      0.00 
    6   19   20      1.27      0.00 
    7   19   20     -0.89      0.00 
    8   19   20      1.23      0.00 
    0   20   20      1.25      0.00 
    1   20   20     -0.81      0.00 
    2   20   20     -0.86      0.00 
    3   20   20      1.15      0.00 
    4   20   20     -0.84      0.00 
    5   20   20      0.94      0.00 
    6   20   20     -0.55      0.00 
    7   20   20      0.16      0.00 
    8   20   20     -0.11      0.00 
    1   21   20      0.62      0.00 
    2   21   20     -0.68      0.00 
    3   21   20      1.54      0.00 
    4   21   20     -0.79      0.00 
    5   21   20      0.31      0.00 
    6   21   20     -0.60      0.00 
    7   21   20      0.42      0.00 
    8   21   20      0.13      0.00 
    0   22   20      0.18      0.00 
    1   22   20      0.29      0.00 
    2   22   20     -0.39      0.00 
    3   22   20      1.00      0.00 
    4   22   20     -0.55      0.00 
    5   22   20     -0.48      0.00 
    6   22   20     -0.04      0.00 
    7   22   20      0.97      0.00 
    8   22   20     -0.92      0.00 
    1   23   20      0.84      0.00 
    2   23   20     -1.20      0.00 
    3   23   20     -0.18      0.00 
    4   23   20      0.33      0.00 
    5   23   20     -0.94      0.00 
    6   23   20      2.24      0.00 
    7   23   20     -2.05      0.00 
    0   24   20     -0.04      0.00 
    1   24   20     -0.27      0.00 
    2   24   20     -0.15      0.00 
    3   24   20     -0.26      0.00 
    4   24   20     -0.09      0.00 
    5   24   20      1.48      0.00 
    6   24   20     -0.48      0.00 
    7   24   20     -1.40      0.00 
    1   25   20      0.23      0.00 
    2   25   20     -0.32      0.00 
    3   25   20      0.42      0.00 
    4   25   20      0.79      0.00 
    5   25   20     -0.06      0.00 
    6   25   20     -1.68      0.00 
    0   26   20     -2.43      0.00 
    1   26   20      2.24      0.00 
    2   26   20     -0.36      0.00 
    3   26   20      0.19      0.00 
    4   26   20     -1.64      0.00 
    5   26   20      0.65      0.00 
    6   26   20      0.75      0.00 
    1   27   20      0.76      0.00 
    2   27   20     -1.05      0.00 
    3   27   20     -0.27      0.00 
    4   27   20      0.04      0.00 
    5   27   20      0.52      0.00 
    0   28   20     -0.85      0.00 
    1   28   20     -0.07      0.00 
    2   28   20      0.10      0.00 
    3   28   20     -0.12      0.00 
    4   28   20      1.59      0.00 
    1   29   20     -0.93      0.00 
    2   29   20      1.45      0.00 
    3   29   20      0.64      0.00 
    4   29   20     -1.29      0.00 
    0   30   20      3.30      0.00 
    1   30   20     -1.86      0.00 
    2   30   20     -0.11      0.00 
    3   30   20      1.27      0.00 
    1   31   20      0.47      0.00 
    2   31   20     -0.86      0.00 
    1    1   21     -0.37      0.00 
    2    1   21      0.75      0.00 
    3    1   21      0.48      0.00 
    4    1   21     -1.29      0.00 
    5    1   21      0.16      0.00 
    6    1   21      0.46      0.00 
    7    1   21     -0.24      0.00 
    8    1   21      0.53      0.00 
    9    1   21     -1.15      0.00 
   10    1   21      0.48      0.00 
    0    2   21      0.37      0.00 
    1    2   21     -0.88      0.00 
    2    2   21      1.18      0.00 
    3    2   21     -1.20      0.00 
    4    2   21      0.58      0.00 
    5    2   21      0.79      0.00 
    6    2   21     -0.85      0.00 
    7    2   21      0.32      0.00 
    8    2   21     -1.38      0.00 
    9    2   21      0.93      0.00 
   10    2   21      0.46      0.00 
    1    3   21      2.75      0.00 
    2    3   21     -4.27      0.00 
    3    3   21      3.11      0.00 
    4    3   21     -1.00      0.00 
    5    3   21      0.38      0.00 
    6    3   21     -1.18      0.00 
    7    3   21      2.28      0.00 
    8    3   21     -1.99      0.00 
    9    3   21      1.85      0.00 
   10    3   21     -1.41      0.00 
    0    4   21      2.77      0.00 
    1    4   21     -1.35      0.00 
    2    4   21      0.38      0.00 
    3    4   21     -1.11      0.00 
    4    4   21      1.20      0.00 
    5    4   21     -0.78      0.00 
    6    4   21      1.17      0.00 
    7    4   21     -0.26      0.00 
    8    4   21     -0.96      0.00 
    9    4   21      1.64      0.00 
   10    4   21     -2.19      0.00 
    1    5   21     -0.51      0.00 
    2    5   21      0.69      0.00 
    3    5   21     -2.36      0.00 
    4    5   21      2.83      0.00 
    5    5   21     -1.17      0.00 
    6    5   21      1.25      0.00 
    7    5   21     -2.33      0.00 
    8    5   21      0.85      0.00 
    9    5   21     -0.44      0.00 
   10    5   21      0.67      0.00 
    0    6   21      1.81      0.00 
    1    6   21     -1.64      0.00 
    2    6   21      0.01      0.00 
    3    6   21      2.25      0.00 
    4    6   21     -2.22      0.00 
    5    6   21     -0.26      0.00 
    6    6   21      0.67      0.00 
    7    6   21     -0.45      0.00 
    8    6   21      1.20      0.00 
    9    6   21     -1.83      0.00 
   10    6   21      1.88      0.00 
    1    7   21      1.02      0.00 
    2    7   21     -0.07      0.00 
    3    7   21      0.55      0.00 
    4    7   21     -2.26      0.00 
    5    7   21      2.37      0.00 
    6    7   21     -0.64      0.00 
    7    7   21     -0.73      0.00 
    8    7   21      0.50      0.00 
    9    7   21      0.88      0.00 
   10    7   21      0.35      0.00 
    0    8   21      4.42      0.00 
    1    8   21     -2.57      0.00 
    2    8   21      0.30      0.00 
    3    8   21     -0.35      0.00 
    4    8   21      0.80      0.00 
    5    8   21      0.79      0.00 
    6    8   21     -0.97      0.00 
    7    8   21     -0.60      0.00 
    8    8   21      0.65      0.00 
    9    8   21      1.98      0.00 
   10    8   21     -2.54      0.00 
    1    9   21     -0.17      0.00 
    2    9   21     -0.93      0.00 
    3    9   21      0.63      0.00 
    4    9   21      2.19      0.00 
    5    9   21     -4.03      0.00 
    6    9   21      2.59      0.00 
    7    9   21     -1.20      0.00 
    8    9   21      0.66      0.00 
    9    9   21      0.25      0.00 
   10    9   21     -2.03      0.00 
    0   10   21     -1.28      0.00 
    1   10   21      0.83      0.00 
    2   10   21     -1.16      0.00 
    3   10   21      1.35      0.00 
    4   10   21      0.03      0.00 
    5   10   21     -0.75      0.00 
    6   10   21     -0.98      0.00 
    7   10   21      1.30      0.00 
    8   10   21      0.75      0.00 
    9   10   21     -2.56      0.00 
   10   10   21      1.99      0.00 
    1   11   21     -2.56      0.00 
    2   11   21      3.46      0.00 
    3   11   21     -1.30      0.00 
    4   11   21     -1.48      0.00 
    5   11   21      1.65      0.00 
    6   11   21     -0.91      0.00 
    7   11   21      1.54      0.00 
    8   11   21     -0.08      0.00 
    9   11   21     -2.01      0.00 
   10   11   21      1.69      0.00 
    0   12   21     -0.95      0.00 
    1   12   21      0.92      0.00 
    2   12   21      0.14      0.00 
    3   12   21     -0.71      0.00 
    4   12   21     -0.76      0.00 
    5   12   21      2.14      0.00 
    6   12   21     -1.02      0.00 
    7   12   21      0.03      0.00 
    8   12   21      0.56      0.00 
    9   12   21     -2.72      0.00 
   10   12   21      3.87      0.00 
    1   13   21     -0.39      0.00 
    2   13   21     -0.38      0.00 
    3   13   21      0.48      0.00 
    4   13   21     -0.49      0.00 
    5   13   21      1.63      0.00 
    6   13   21     -2.10      0.00 
    7   13   21      0.17      0.00 
    8   13   21      0.76      0.00 
    9   13   21      0.19      0.00 
    0   14   21      1.89      0.00 
    1   14   21     -1.67      0.00 
    2   14   21      0.14      0.00 
    3   14   21      1.56      0.00 
    4   14   21     -1.50      0.00 
    5   14   21     -0.01      0.00 
    6   14   21     -0.06      0.00 
    7   14   21      1.04      0.00 
    8   14   21     -0.29      0.00 
    9   14   21     -0.58      0.00 
    1   15   21     -0.83      0.00 
    2   15   21      0.96      0.00 
    3   15   21      0.41      0.00 
    4   15   21     -1.51      0.00 
    5   15   21      1.19      0.00 
    6   15   21     -0.09      0.00 
    7   15   21      0.46      0.00 
    8   15   21     -0.93      0.00 
    9   15   21     -0.31      0.00 
    0   16   21     -0.77      0.00 
    1   16   21      0.28      0.00 
    2   16   21      1.42      0.00 
    3   16   21     -2.22      0.00 
    4   16   21      1.18      0.00 
    5   16   21     -0.08      0.00 
    6   16   21     -0.01      0.00 
    7   16   21      0.70      0.00 
    8   16   21     -1.91      0.00 
    9   16   21      1.24      0.00 
    1   17   21      0.39      0.00 
    2   17   21     -0.24      0.00 
    3   17   21     -0.97      0.00 
    4   17   21      1.14      0.00 
    5   17   21     -0.05      0.00 
    6   17   21     -0.71      0.00 
    7   17   21      0.24      0.00 
    8   17   21     -0.90      0.00 
    9   17   21      2.19      0.00 
    0   18   21     -3.95      0.00 
    1   18   21      2.20      0.00 
    2   18   21      0.14      0.00 
    3   18   21     -0.96      0.00 
    4   18   21      0.77      0.00 
    5   18   21     -0.28      0.00 
    6   18   21      0.18      0.00 
    7   18   21     -1.03      0.00 
    8   18   21      1.22      0.00 
    9   18   21      0.93      0.00 
    1   19   21     -0.34      0.00 
    2   19   21      1.43      0.00 
    3   19   21     -1.00      0.00 
    4   19   21      0.38      0.00 
    5   19   21     -0.48      0.00 
    6   19   21      0.16      0.00 
    7   19   21      0.41      0.00 
    8   19   21      0.19      0.00 
    0   20   21      0.84      0.00 
    1   20   21     -0.42      0.00 
    2   20   21      0.24      0.00 
    3   20   21     -0.41      0.00 
    4   20   21      0.36      0.00 
    5   20   21     -0.18      0.00 
    6   20   21      0.26      0.00 
    7   20   21     -0.73      0.00 
    8   20   21      0.47      0.00 
    1   21   21      0.29      0.00 
    2   21   21     -1.06      0.00 
    3   21   21      0.00      0.00 
    4   21   21      1.31      0.00 
    5   21   21     -0.80      0.00 
    6   21   21     -0.50      0.00 
    7   21   21      1.20      0.00 
    8   21   21     -0.74      0.00 
    0   22   21      0.41      0.00 
    1   22   21     -0.37      0.00 
    2   22   21     -0.21      0.00 
    3   22   21      0.19      0.00 
    4   22   21      1.16      0.00 
    5   22   21     -1.50      0.00 
    6   22   21      0.28      0.00 
    7   22   21      1.31      0.00 
    1   23   21     -0.65      0.00 
    2   23   21      0.40      0.00 
    3   23   21      1.11      0.00 
    4   23   21     -2.31      0.00 
    5   23   21      1.45      0.00 
    6   23   21      0.65      0.00 
    7   23   21     -1.72      0.00 
    0   24   21      0.67      0.00 
    1   24   21     -0.07      0.00 
    2   24   21     -0.49      0.00 
    3   24   21      0.38      0.00 
    4   24   21     -0.89      0.00 
    5   24   21      1.09      0.00 
    6   24   21     -1.23      0.00 
    7   24   21      0.91      0.00 
    1   25   21      0.52      0.00 
    2   25   21      0.31      0.00 
    3   25   21     -1.14      0.00 
    4   25   21      1.39      0.00 
    5   25   21     -1.63      0.00 
    6   25   21      1.42      0.00 
    0   26   21      0.56      0.00 
    1   26   21     -0.16      0.00 
    2   26   21     -0.19      0.00 
    3   26   21      0.40      0.00 
    4   26   21     -0.44      0.00 
    5   26   21      0.63      0.00 
    6   26   21      0.34      0.00 
    1   27   21      1.19      0.00 
    2   27   21     -1.61      0.00 
    3   27   21      1.29      0.00 
    4   27   21     -0.29      0.00 
    5   27   21     -0.30      0.00 
    0   28   21     -2.93      0.00 
    1   28   21      1.55      0.00 
    2   28   21      0.56      0.00 
    3   28   21     -1.60      0.00 
    4   28   21      0.83      0.00 
    1   29   21     -0.37      0.00 
    2   29   21      0.59      0.00 
    3   29   21     -1.45      0.00 
    0   30   21     -0.93      0.00 
    1   30   21      0.94      0.00 
    2   30   21     -1.08      0.00 
    3   30   21      1.58      0.00 
    0    0   22      0.21      0.00 
    1    0   22      2.18      0.00 
    2    0   22     -4.53      0.00 
    3    0   22      3.10      0.00 
    4    0   22     -0.56      0.00 
    5    0   22     -0.49      0.00 
    6    0   22     -0.60      0.00 
    7    0   22     -0.35      0.00 
    8    0   22      1.64      0.00 
    9    0   22     -1.93      0.00 
   10    0   22      2.14      0.00 
    1    1   22     -5.95      0.00 
    2    1   22      2.25      0.00 
    3    1   22      2.26      0.00 
    4    1   22     -3.35      0.00 
    5    1   22      2.19      0.00 
    6    1   22     -0.87      0.00 
    7    1   22      0.92      0.00 
    8    1   22      0.75      0.00 
    9    1   22     -1.54      0.00 
   10    1   22      0.66      0.00 
    0    2   22     -5.80      0.00 
    1    2   22      2.01      0.00 
    2    2   22      1.44      0.00 
    3    2   22     -0.34      0.00 
    4    2   22      0.04      0.00 
    5    2   22     -0.47      0.00 
    6    2   22      0.99      0.00 
    7    2   22     -0.45      0.00 
    8    2   22      0.07      0.00 
    9    2   22      0.45      0.00 
   10    2   22     -0.97      0.00 
    1    3   22      3.55      0.00 
    2    3   22     -0.72      0.00 
    3    3   22     -0.64      0.00 
    4    3   22     -0.31      0.00 
    5    3   22     -0.56      0.00 
    6    3   22      1.73      0.00 
    7    3   22     -0.76      0.00 
    8    3   22     -0.55      0.00 
    9    3   22     -0.54      0.00 
   10    3   22      0.41      0.00 
    0    4   22      1.97      0.00 
    1    4   22      0.84      0.00 
    2    4   22     -1.24      0.00 
    3    4   22     -1.70      0.00 
    4    4   22      0.69      0.00 
    5    4   22      0.58      0.00 
    6    4   22     -0.69      0.00 
    7    4   22      0.83      0.00 
    8    4   22     -1.32      0.00 
    9    4   22      1.38      0.00 
   10    4   22     -1.11      0.00 
    1    5   22     -1.18      0.00 
    2    5   22     -1.99      0.00 
    3    5   22      2.80      0.00 
    4    5   22     -0.98      0.00 
    5    5   22      0.44      0.00 
    6    5   22     -1.43      0.00 
    7    5   22      1.61      0.00 
    8    5   22     -0.47      0.00 
    9    5   22      0.48      0.00 
   10    5   22     -0.83      0.00 
    0    6   22     -5.14      0.00 
    1    6   22      1.52      0.00 
    2    6   22      1.58      0.00 
    3    6   22     -0.89      0.00 
    4    6   22      1.00      0.00 
    5    6   22     -1.35      0.00 
    6    6   22      1.47      0.00 
    7    6   22     -0.18      0.00 
    8    6   22     -1.05      0.00 
    9    6   22      0.18      0.00 
   10    6   22      0.55      0.00 
    1    7   22      3.26      0.00 
    2    7   22     -1.16      0.00 
    3    7   22     -0.15      0.00 
    4    7   22      0.44      0.00 
    5    7   22     -0.04      0.00 
    6    7   22     -1.09      0.00 
    7    7   22      0.52      0.00 
    8    7   22      0.41      0.00 
    9    7   22     -0.49      0.00 
   10    7   22      0.89      0.00 
    0    8   22      4.65      0.00 
    1    8   22     -1.85      0.00 
    2    8   22     -0.87      0.00 
    3    8   22      1.36      0.00 
    4    8   22     -1.64      0.00 
    5    8   22      0.20      0.00 
    6    8   22      1.55      0.00 
    7    8   22     -1.42      0.00 
    8    8   22     -0.22      0.00 
    9    8   22      1.68      0.00 
   10    8   22     -1.89      0.00 
    1    9   22     -0.77      0.00 
    2    9   22     -0.64      0.00 
    3    9   22     -0.29      0.00 
    4    9   22     -0.20      0.00 
    5    9   22      0.90      0.00 
    6    9   22      2.03      0.00 
    7    9   22     -3.20      0.00 
    8    9   22      0.18      0.00 
    9    9   22      1.24      0.00 
    0   10   22      0.49      0.00 
    1   10   22     -1.40      0.00 
    2   10   22      0.71      0.00 
    3   10   22     -0.28      0.00 
    4   10   22      1.72      0.00 
    5   10   22     -0.61      0.00 
    6   10   22     -0.87      0.00 
    7   10   22     -0.47      0.00 
    8   10   22      0.49      0.00 
    9   10   22      1.77      0.00 
    1   11   22      3.53      0.00 
    2   11   22     -2.93      0.00 
    3   11   22      1.57      0.00 
    4   11   22      1.20      0.00 
    5   11   22     -2.78      0.00 
    6   11   22      0.98      0.00 
    7   11   22      0.52      0.00 
    8   11   22      0.05      0.00 
    9   11   22      0.12      0.00 
    0   12   22      1.55      0.00 
    1   12   22      0.26      0.00 
    2   12   22     -0.97      0.00 
    3   12   22      0.46      0.00 
    4   12   22     -0.56      0.00 
    5   12   22     -0.10      0.00 
    6   12   22     -0.11      0.00 
    7   12   22      0.64      0.00 
    8   12   22      0.29      0.00 
    9   12   22     -0.39      0.00 
    1   13   22     -4.27      0.00 
    2   13   22      3.95      0.00 
    3   13   22     -1.94      0.00 
    4   13   22     -0.37      0.00 
    5   13   22      0.21      0.00 
    6   13   22      1.16      0.00 
    7   13   22     -1.12      0.00 
    8   13   22      1.09      0.00 
    9   13   22     -1.46      0.00 
    0   14   22     -0.57      0.00 
    1   14   22      0.29      0.00 
    2   14   22     -1.24      0.00 
    3   14   22      1.19      0.00 
    4   14   22     -0.30      0.00 
    5   14   22      0.42      0.00 
    6   14   22      0.19      0.00 
    7   14   22     -1.15      0.00 
    8   14   22      2.03      0.00 
    9   14   22     -3.61      0.00 
    1   15   22      2.41      0.00 
    2   15   22     -2.41      0.00 
    3   15   22      1.91      0.00 
    4   15   22     -0.16      0.00 
    5   15   22      0.12      0.00 
    6   15   22     -1.25      0.00 
    7   15   22      0.53      0.00 
    8   15   22      1.02      0.00 
    9   15   22     -0.99      0.00 
    0   16   22      3.46      0.00 
    1   16   22     -1.72      0.00 
    2   16   22      0.02      0.00 
    3   16   22      1.14      0.00 
    4   16   22     -1.10      0.00 
    5   16   22      0.07      0.00 
    6   16   22     -0.86      0.00 
    7   16   22      2.21      0.00 
    8   16   22     -1.55      0.00 
    9   16   22     -0.01      0.00 
    1   17   22     -2.18      0.00 
    2   17   22      1.27      0.00 
    3   17   22      0.50      0.00 
    4   17   22     -2.53      0.00 
    5   17   22      1.79      0.00 
    6   17   22      0.00      0.00 
    7   17   22     -0.50      0.00 
    8   17   22     -0.01      0.00 
    0   18   22     -1.91      0.00 
    1   18   22      0.32      0.00 
    2   18   22      0.33      0.00 
    3   18   22      0.07      0.00 
    4   18   22     -0.59      0.00 
    5   18   22      0.81      0.00 
    6   18   22      0.07      0.00 
    7   18   22     -0.25      0.00 
    8   18   22     -0.41      0.00 
    1   19   22      0.51      0.00 
    2   19   22      0.24      0.00 
    3   19   22     -0.52      0.00 
    4   19   22      0.86      0.00 
    5   19   22      0.54      0.00 
    6   19   22     -0.79      0.00 
    7   19   22      0.08      0.00 
    8   19   22     -0.59      0.00 
    0   20   22     -0.38      0.00 
    1   20   22      0.29      0.00 
    2   20   22      1.31      0.00 
    3   20   22     -1.83      0.00 
    4   20   22      1.57      0.00 
    5   20   22     -0.94      0.00 
    6   20   22      0.13      0.00 
    7   20   22     -0.89      0.00 
    8   20   22      1.12      0.00 
    1   21   22     -0.15      0.00 
    2   21   22      0.22      0.00 
    3   21   22     -1.30      0.00 
    4   21   22      0.99      0.00 
    5   21   22     -1.02      0.00 
    6   21   22      0.13      0.00 
    7   21   22      0.73      0.00 
    0   22   22     -0.33      0.00 
    1   22   22      0.00      0.00 
    2   22   22      0.13      0.00 
    3   22   22     -0.87      0.00 
    4   22   22     -0.21      0.00 
    5   22   22      1.08      0.00 
    6   22   22     -0.02      0.00 
    7   22   22     -0.10      0.00 
    1   23   22     -0.68      0.00 
    2   23   22      0.52      0.00 
    3   23   22      0.50      0.00 
    4   23   22     -0.06      0.00 
    5   23   22      0.88      0.00 
    6   23   22     -1.80      0.00 
    7   23   22      1.71      0.00 
    0   24   22      0.92      0.00 
    1   24   22     -0.59      0.00 
    2   24   22      0.49      0.00 
    3   24   22      0.31      0.00 
    4   24   22      0.60      0.00 
    5   24   22     -1.91      0.00 
    6   24   22      0.59      0.00 
    1   25   22     -0.95      0.00 
    2   25   22      1.21      0.00 
    3   25   22     -0.49      0.00 
    4   25   22     -1.17      0.00 
    5   25   22      0.32      0.00 
    6   25   22      1.04      0.00 
    0   26   22      1.24      0.00 
    1   26   22     -1.18      0.00 
    2   26   22     -0.08      0.00 
    3   26   22      0.12      0.00 
    4   26   22      0.68      0.00 
    5   26   22     -0.17      0.00 
    1   27   22     -0.48      0.00 
    2   27   22      0.22      0.00 
    3   27   22      0.60      0.00 
    4   27   22     -0.25      0.00 
    5   27   22     -0.13      0.00 
    0   28   22      1.75      0.00 
    1   28   22     -1.14      0.00 
    2   28   22      0.45      0.00 
    3   28   22      0.46      0.00 
    4   28   22     -1.18      0.00 
    1   29   22      1.41      0.00 
    2   29   22     -1.10      0.00 
    3   29   22     -0.51      0.00 
    0   30   22     -3.06      0.00 
    1   30   22      2.54      0.00 
    2   30   22     -0.73      0.00 
    1    1   23      1.10      0.00 
    2    1   23     -1.28      0.00 
    3    1   23     -0.39      0.00 
    4    1   23      1.40      0.00 
    5    1   23     -0.36      0.00 
    6    1   23     -0.49      0.00 
    7    1   23      0.55      0.00 
    8    1   23     -0.56      0.00 
    9    1   23      0.92      0.00 
   10    1   23     -0.47      0.00 
    0    2   23     -1.38      0.00 
    1    2   23      2.11      0.00 
    2    2   23     -2.51      0.00 
    3    2   23      1.88      0.00 
    4    2   23     -0.52      0.00 
    5    2   23     -0.90      0.00 
    6    2   23      0.79      0.00 
    7    2   23     -0.08      0.00 
    8    2   23      1.26      0.00 
    9    2   23     -1.48      0.00 
   10    2   23     -0.06      0.00 
    1    3   23     -3.16      0.00 
    2    3   23      4.41      0.00 
    3    3   23     -2.90      0.00 
    4    3   23      0.76      0.00 
    5    3   23      0.04      0.00 
    6    3   23      0.48      0.00 
    7    3   23     -1.64      0.00 
    8    3   23      1.44      0.00 
    9    3   23     -1.68      0.00 
   10    3   23      1.63      0.00 
    0    4   23     -1.27      0.00 
    1    4   23      0.34      0.00 
    2    4   23     -0.08      0.00 
    3    4   23      1.01      0.00 
    4    4   23     -0.98      0.00 
    5    4   23      0.42      0.00 
    6    4   23     -1.11      0.00 
    7    4   23      0.60      0.00 
    8    4   23      0.68      0.00 
    9    4   23     -1.33      0.00 
   10    4   23      2.01      0.00 
    1    5   23      0.38      0.00 
    2    5   23     -1.03      0.00 
    3    5   23      3.00      0.00 
    4    5   23     -3.13      0.00 
    5    5   23      0.63      0.00 
    6    5   23      0.12      0.00 
    7    5   23      1.42      0.00 
    8    5   23     -0.87      0.00 
    9    5   23      0.75      0.00 
   10    5   23     -0.74      0.00 
    0    6   23     -1.96      0.00 
    1    6   23      1.44      0.00 
    2    6   23      0.46      0.00 
    3    6   23     -2.09      0.00 
    4    6   23      1.41      0.00 
    5    6   23      0.74      0.00 
    6    6   23     -0.01      0.00 
    7    6   23     -0.81      0.00 
    8    6   23     -0.60      0.00 
    9    6   23      1.78      0.00 
   10    6   23     -2.30      0.00 
    1    7   23     -0.06      0.00 
    2    7   23     -0.44      0.00 
    3    7   23     -0.71      0.00 
    4    7   23      2.03      0.00 
    5    7   23     -1.29      0.00 
    6    7   23     -0.44      0.00 
    7    7   23      0.59      0.00 
    8    7   23     -0.05      0.00 
    9    7   23     -0.74      0.00 
   10    7   23     -0.53      0.00 
    0    8   23     -3.71      0.00 
    1    8   23      2.47      0.00 
    2    8   23     -0.74      0.00 
    3    8   23     -0.13      0.00 
    4    8   23      0.60      0.00 
    5    8   23     -1.61      0.00 
    6    8   23      0.42      0.00 
    7    8   23      1.71      0.00 
    8    8   23     -1.40      0.00 
    9    8   23     -1.02      0.00 
   10    8   23      2.12      0.00 
    1    9   23     -0.48      0.00 
    2    9   23      0.75      0.00 
    3    9   23      0.15      0.00 
    4    9   23     -2.02      0.00 
    5    9   23      3.03      0.00 
    6    9   23     -1.75      0.00 
    7    9   23      0.82      0.00 
    8    9   23     -0.03      0.00 
    9    9   23     -0.82      0.00 
    0   10   23      0.71      0.00 
    1   10   23     -1.03      0.00 
    2   10   23      1.89      0.00 
    3   10   23     -0.94      0.00 
    4   10   23     -0.95      0.00 
    5   10   23      1.02      0.00 
    6   10   23      1.22      0.00 
    7   10   23     -1.83      0.00 
    8   10   23     -0.04      0.00 
    9   10   23      1.50      0.00 
    1   11   23      2.75      0.00 
    2   11   23     -2.99      0.00 
    3   11   23      1.03      0.00 
    4   11   23      0.62      0.00 
    5   11   23     -0.95      0.00 
    6   11   23      0.54      0.00 
    7   11   23     -0.80      0.00 
    8   11   23     -0.74      0.00 
    9   11   23      1.90      0.00 
    0   12   23      1.25      0.00 
    1   12   23     -1.04      0.00 
    2   12   23      0.03      0.00 
    3   12   23      0.34      0.00 
    4   12   23      0.00      0.00 
    5   12   23     -0.59      0.00 
    6   12   23      0.21      0.00 
    7   12   23      0.49      0.00 
    8   12   23     -1.45      0.00 
    9   12   23      3.57      0.00 
    1   13   23      0.21      0.00 
    2   13   23      0.48      0.00 
    3   13   23     -1.15      0.00 
    4   13   23      1.54      0.00 
    5   13   23     -1.69      0.00 
    6   13   23      1.96      0.00 
    7   13   23     -0.70      0.00 
    8   13   23     -0.33      0.00 
    9   13   23      0.38      0.00 
    0   14   23     -0.65      0.00 
    1   14   23      0.52      0.00 
    2   14   23      0.37      0.00 
    3   14   23     -1.46      0.00 
    4   14   23      2.01      0.00 
    5   14   23     -0.52      0.00 
    6   14   23     -0.24      0.00 
    7   14   23     -1.12      0.00 
    8   14   23      1.26      0.00 
    9   14   23     -0.44      0.00 
    1   15   23     -0.20      0.00 
    2   15   23      0.64      0.00 
    3   15   23     -0.93      0.00 
    4   15   23      1.10      0.00 
    5   15   23     -1.29      0.00 
    6   15   23     -0.02      0.00 
    7   15   23      0.14      0.00 
    8   15   23      0.87      0.00 
    9   15   23     -0.52      0.00 
    0   16   23      1.13      0.00 
    1   16   23     -0.30      0.00 
    2   16   23     -1.24      0.00 
    3   16   23      1.66      0.00 
    4   16   23     -1.49      0.00 
    5   16   23      0.65      0.00 
    6   16   23     -0.03      0.00 
    7   16   23     -0.22      0.00 
    8   16   23      1.07      0.00 
    1   17   23     -0.20      0.00 
    2   17   23     -0.63      0.00 
    3   17   23      1.12      0.00 
    4   17   23     -0.54      0.00 
    5   17   23     -0.25      0.00 
    6   17   23      1.17      0.00 
    7   17   23     -0.70      0.00 
    8   17   23      0.63      0.00 
    0   18   23      2.16      0.00 
    1   18   23     -0.89      0.00 
    2   18   23     -1.31      0.00 
    3   18   23      2.01      0.00 
    4   18   23     -0.61      0.00 
    5   18   23     -0.56      0.00 
    6   18   23      0.56      0.00 
    7   18   23      0.60      0.00 
    8   18   23     -1.37      0.00 
    1   19   23      0.19      0.00 
    2   19   23     -0.66      0.00 
    3   19   23      0.69      0.00 
    4   19   23     -0.51      0.00 
    5   19   23      0.62      0.00 
    6   19   23     -0.25      0.00 
    7   19   23     -0.79      0.00 
    8   19   23     -0.01      0.00 
    0   20   23     -1.04      0.00 
    1   20   23      0.66      0.00 
    2   20   23      0.18      0.00 
    3   20   23     -0.22      0.00 
    4   20   23     -0.45      0.00 
    5   20   23      0.41      0.00 
    6   20   23     -0.63      0.00 
    7   20   23      0.70      0.00 
    1   21   23     -0.13      0.00 
    2   21   23      0.75      0.00 
    3   21   23     -0.58      0.00 
    4   21   23     -0.79      0.00 
    5   21   23      0.92      0.00 
    6   21   23      0.20      0.00 
    7   21   23     -0.69      0.00 
    0   22   23     -0.51      0.00 
    1   22   23      0.10      0.00 
    2   22   23      0.08      0.00 
    3   22   23     -0.08      0.00 
    4   22   23     -0.14      0.00 
    5   22   23      0.51      0.00 
    6   22   23      0.36      0.00 
    7   22   23     -1.58      0.00 
    1   23   23      1.17      0.00 
    2   23   23     -0.55      0.00 
    3   23   23     -0.38      0.00 
    4   23   23      1.89      0.00 
    5   23   23     -1.92      0.00 
    6   23   23     -0.11      0.00 
    0   24   23     -0.10      0.00 
    1   24   23      0.14      0.00 
    2   24   23      0.57      0.00 
    3   24   23     -0.75      0.00 
    4   24   23      0.43      0.00 
    5   24   23     -0.45      0.00 
    6   24   23      0.50      0.00 
    1   25   23     -0.24      0.00 
    2   25   23     -0.77      0.00 
    3   25   23      0.47      0.00 
    4   25   23     -0.49      0.00 
    5   25   23      1.15      0.00 
    0   26   23     -0.24      0.00 
    1   26   23     -0.11      0.00 
    2   26   23     -0.13      0.00 
    3   26   23     -0.15      0.00 
    4   26   23      0.59      0.00 
    5   26   23     -0.49      0.00 
    1   27   23     -2.21      0.00 
    2   27   23      2.20      0.00 
    3   27   23     -0.51      0.00 
    4   27   23     -0.36      0.00 
    0   28   23      2.07      0.00 
    1   28   23     -1.31      0.00 
    2   28   23      0.36      0.00 
    3   28   23      0.88      0.00 
    1   29   23      1.28      0.00 
    2   29   23     -1.26      0.00 
    3   29   23      1.16      0.00 
    0   30   23      1.23      0.00 
    1   30   23     -1.01      0.00 
    0    0   24      0.99      0.00 
    1    0   24     -3.33      0.00 
    2    0   24      4.97      0.00 
    3    0   24     -2.08      0.00 
    4    0   24     -1.13      0.00 
    5    0   24      1.12      0.00 
    6    0   24      1.31      0.00 
    7    0   24     -0.32      0.00 
    8    0   24     -1.38      0.00 
    9    0   24      1.38      0.00 
   10    0   24     -1.86      0.00 
    1    1   24      5.25      0.00 
    2    1   24     -1.41      0.00 
    3    1   24     -2.78      0.00 
    4    1   24      2.86      0.00 
    5    1   24     -0.75      0.00 
    6    1   24     -0.22      0.00 
    7    1   24     -0.35      0.00 
    8    1   24     -1.78      0.00 
    9    1   24      2.49      0.00 
   10    1   24     -1.13      0.00 
    0    2   24      4.47      0.00 
    1    2   24     -1.22      0.00 
    2    2   24     -1.41      0.00 
    3    2   24     -0.37      0.00 
    4    2   24      1.22      0.00 
    5    2   24     -0.25      0.00 
    6    2   24     -1.29      0.00 
    7    2   24      0.49      0.00 
    8    2   24      0.23      0.00 
    9    2   24     -0.02      0.00 
    1    3   24     -2.80      0.00 
    2    3   24      0.28      0.00 
    3    3   24      0.85      0.00 
    4    3   24      0.33      0.00 
    5    3   24     -0.24      0.00 
    6    3   24     -1.04      0.00 
    7    3   24      0.71      0.00 
    8    3   24      1.29      0.00 
    9    3   24     -0.54      0.00 
    0    4   24     -2.20      0.00 
    1    4   24     -0.07      0.00 
    2    4   24      0.47      0.00 
    3    4   24      1.63      0.00 
    4    4   24     -0.71      0.00 
    5    4   24     -0.23      0.00 
    6    4   24      0.52      0.00 
    7    4   24     -0.42      0.00 
    8    4   24      1.01      0.00 
    9    4   24     -1.82      0.00 
    1    5   24      0.52      0.00 
    2    5   24      2.08      0.00 
    3    5   24     -2.55      0.00 
    4    5   24      1.08      0.00 
    5    5   24     -0.31      0.00 
    6    5   24      0.64      0.00 
    7    5   24     -0.54      0.00 
    8    5   24     -0.38      0.00 
    9    5   24     -0.47      0.00 
    0    6   24      4.24      0.00 
    1    6   24     -1.25      0.00 
    2    6   24     -1.53      0.00 
    3    6   24      1.39      0.00 
    4    6   24     -1.40      0.00 
    5    6   24      1.08      0.00 
    6    6   24     -1.11      0.00 
    7    6   24      0.24      0.00 
    8    6   24      0.85      0.00 
    9    6   24     -0.54      0.00 
    1    7   24     -2.51      0.00 
    2    7   24      0.99      0.00 
    3    7   24      0.02      0.00 
    4    7   24     -0.60      0.00 
    5    7   24     -0.09      0.00 
    6    7   24      1.57      0.00 
    7    7   24     -0.70      0.00 
    8    7   24     -0.95      0.00 
    9    7   24      1.43      0.00 
    0    8   24     -3.71      0.00 
    1    8   24      1.62      0.00 
    2    8   24      0.56      0.00 
    3    8   24     -1.41      0.00 
    4    8   24      1.51      0.00 
    5    8   24     -0.01      0.00 
    6    8   24     -0.85      0.00 
    7    8   24      0.45      0.00 
    8    8   24      0.24      0.00 
    9    8   24     -0.73      0.00 
    1    9   24      1.09      0.00 
    2    9   24     -0.21      0.00 
    3    9   24      0.62      0.00 
    4    9   24      0.24      0.00 
    5    9   24     -0.12      0.00 
    6    9   24     -2.41      0.00 
    7    9   24      2.15      0.00 
    8    9   24      0.94      0.00 
    9    9   24     -1.51      0.00 
    0   10   24     -0.23      0.00 
    1   10   24      1.23      0.00 
    2   10   24     -0.90      0.00 
    3   10   24      0.34      0.00 
    4   10   24     -0.45      0.00 
    5   10   24     -0.81      0.00 
    6   10   24      0.81      0.00 
    7   10   24      0.72      0.00 
    8   10   24      0.03      0.00 
    9   10   24     -2.18      0.00 
    1   11   24     -3.29      0.00 
    2   11   24      2.27      0.00 
    3   11   24     -0.47      0.00 
    4   11   24     -1.83      0.00 
    5   11   24      2.12      0.00 
    6   11   24     -0.51      0.00 
    7   11   24      0.03      0.00 
    8   11   24     -0.59      0.00 
    9   11   24     -0.01      0.00 
    0   12   24     -2.38      0.00 
    1   12   24      0.19      0.00 
    2   12   24      1.02      0.00 
    3   12   24     -0.42      0.00 
    4   12   24     -0.18      0.00 
    5   12   24      0.88      0.00 
    6   12   24     -0.21      0.00 
    7   12   24     -0.03      0.00 
    8   12   24     -1.04      0.00 
    9   12   24      1.01      0.00 
    1   13   24      4.16      0.00 
    2   13   24     -3.66      0.00 
    3   13   24      1.79      0.00 
    4   13   24      0.35      0.00 
    5   13   24      0.05      0.00 
    6   13   24     -1.10      0.00 
    7   13   24      0.91      0.00 
    8   13   24     -0.95      0.00 
    9   13   24      1.15      0.00 
    0   14   24      0.62      0.00 
    1   14   24     -0.34      0.00 
    2   14   24      1.56      0.00 
    3   14   24     -1.32      0.00 
    4   14   24      0.03      0.00 
    5   14   24     -0.10      0.00 
    6   14   24     -0.05      0.00 
    7   14   24      0.10      0.00 
    8   14   24     -1.08      0.00 
    9   14   24      2.86      0.00 
    1   15   24     -2.10      0.00 
    2   15   24      2.13      0.00 
    3   15   24     -2.17      0.00 
    4   15   24      0.09      0.00 
    5   15   24      0.46      0.00 
    6   15   24      0.34      0.00 
    7   15   24     -0.02      0.00 
    8   15   24     -0.88      0.00 
    0   16   24     -1.54      0.00 
    1   16   24      0.08      0.00 
    2   16   24      0.55      0.00 
    3   16   24     -1.41      0.00 
    4   16   24      1.56      0.00 
    5   16   24      0.06      0.00 
    6   16   24     -0.12      0.00 
    7   16   24     -0.76      0.00 
    8   16   24      0.94      0.00 
    1   17   24      1.39      0.00 
    2   17   24     -0.50      0.00 
    3   17   24     -0.06      0.00 
    4   17   24      2.09      0.00 
    5   17   24     -2.17      0.00 
    6   17   24      0.77      0.00 
    7   17   24      0.20      0.00 
    8   17   24      0.05      0.00 
    0   18   24      2.02      0.00 
    1   18   24     -0.23      0.00 
    2   18   24     -0.18      0.00 
    3   18   24      0.15      0.00 
    4   18   24     -0.35      0.00 
    5   18   24     -0.27      0.00 
    6   18   24      0.15      0.00 
    7   18   24     -0.27      0.00 
    8   18   24      0.34      0.00 
    1   19   24     -0.62      0.00 
    2   19   24     -0.27      0.00 
    3   19   24      0.29      0.00 
    4   19   24     -1.02      0.00 
    5   19   24     -0.06      0.00 
    6   19   24      0.30      0.00 
    7   19   24      0.18      0.00 
    0   20   24     -0.60      0.00 
    1   20   24      0.25      0.00 
    2   20   24     -1.56      0.00 
    3   20   24      1.74      0.00 
    4   20   24     -1.44      0.00 
    5   20   24      1.19      0.00 
    6   20   24     -0.34      0.00 
    7   20   24      1.32      0.00 
    1   21   24      0.10      0.00 
    2   21   24     -0.21      0.00 
    3   21   24      1.40      0.00 
    4   21   24     -0.74      0.00 
    5   21   24      0.91      0.00 
    6   21   24      0.20      0.00 
    7   21   24     -1.47      0.00 
    0   22   24      0.68      0.00 
    1   22   24     -0.19      0.00 
    2   22   24      0.08      0.00 
    3   22   24      0.75      0.00 
    4   22   24      0.40      0.00 
    5   22   24     -1.27      0.00 
    6   22   24     -0.16      0.00 
    1   23   24     -0.07      0.00 
    2   23   24      0.44      0.00 
    3   23   24     -1.39      0.00 
    4   23   24      0.40      0.00 
    5   23   24     -0.70      0.00 
    6   23   24      1.02      0.00 
    0   24   24     -2.45      0.00 
    1   24   24      1.45      0.00 
    2   24   24     -0.61      0.00 
    3   24   24     -0.30      0.00 
    4   24   24     -0.57      0.00 
    5   24   24      1.58      0.00 
    1   25   24      2.40      0.00 
    2   25   24     -2.40      0.00 
    3   25   24      0.91      0.00 
    4   25   24      1.00      0.00 
    5   25   24     -0.44      0.00 
    0   26   24      0.90      0.00 
    1   26   24     -0.02      0.00 
    2   26   24     -0.14      0.00 
    3   26   24      0.19      0.00 
    4   26   24     -0.27      0.00 
    1   27   24     -0.32      0.00 
    2   27   24      0.58      0.00 
    3   27   24     -0.65      0.00 
    1   28   24      1.68      0.00 
    2   28   24     -0.38      0.00 
    3   28   24     -0.89      0.00 
    1    1   25     -0.83      0.00 
    2    1   25      0.78      0.00 
    3    1   25      0.40      0.00 
    4    1   25     -0.76      0.00 
    5    1   25     -0.05      0.00 
    6    1   25      0.35      0.00 
    7    1   25     -0.51      0.00 
    8    1   25      0.56      0.00 
    9    1   25     -0.67      0.00 
   10    1   25      0.37      0.00 
    0    2   25      3.03      0.00 
    1    2   25     -3.52      0.00 
    2    2   25      3.10      0.00 
    3    2   25     -1.37      0.00 
    4    2   25     -0.11      0.00 
    5    2   25      0.50      0.00 
    6    2   25     -0.08      0.00 
    7    2   25     -0.14      0.00 
    8    2   25     -0.98      0.00 
    9    2   25      1.34      0.00 
    1    3   25      2.52      0.00 
    2    3   25     -3.12      0.00 
    3    3   25      1.74      0.00 
    4    3   25     -0.60      0.00 
    5    3   25      0.14      0.00 
    6    3   25      0.28      0.00 
    7    3   25      0.61      0.00 
    8    3   25     -1.08      0.00 
    9    3   25      1.64      0.00 
    0    4   25      0.32      0.00 
    1    4   25      0.52      0.00 
    2    4   25     -0.64      0.00 
    3    4   25     -0.69      0.00 
    4    4   25      1.19      0.00 
    5    4   25     -0.26      0.00 
    6    4   25      0.71      0.00 
    7    4   25     -1.08      0.00 
    8    4   25      0.07      0.00 
    9    4   25      1.05      0.00 
    1    5   25     -0.62      0.00 
    2    5   25      1.00      0.00 
    3    5   25     -2.12      0.00 
    4    5   25      2.10      0.00 
    5    5   25     -0.08      0.00 
    6    5   25     -1.01      0.00 
    7    5   25     -0.62      0.00 
    8    5   25      0.97      0.00 
    9    5   25     -0.97      0.00 
    0    6   25      1.29      0.00 
    1    6   25     -1.12      0.00 
    2    6   25      0.10      0.00 
    3    6   25      0.84      0.00 
    4    6   25     -0.49      0.00 
    5    6   25     -0.80      0.00 
    6    6   25     -0.80      0.00 
    7    6   25      2.06      0.00 
    8    6   25     -0.05      0.00 
    9    6   25     -1.48      0.00 
    1    7   25     -0.41      0.00 
    2    7   25      0.95      0.00 
    3    7   25     -0.11      0.00 
    4    7   25     -0.42      0.00 
    5    7   25     -0.54      0.00 
    6    7   25      1.35      0.00 
    7    7   25      0.15      0.00 
    8    7   25     -0.60      0.00 
    9    7   25      0.12      0.00 
    0    8   25      2.84      0.00 
    1    8   25     -1.95      0.00 
    2    8   25      0.48      0.00 
    3    8   25      1.14      0.00 
    4    8   25     -1.93      0.00 
    5    8   25      1.77      0.00 
    6    8   25      0.77      0.00 
    7    8   25     -2.66      0.00 
    8    8   25      1.23      0.00 
    9    8   25      0.42      0.00 
    1    9   25      0.78      0.00 
    2    9   25     -0.45      0.00 
    3    9   25     -0.48      0.00 
    4    9   25      1.01      0.00 
    5    9   25     -1.34      0.00 
    6    9   25      0.83      0.00 
    7    9   25     -1.03      0.00 
    8    9   25      0.01      0.00 
    9    9   25      1.25      0.00 
    0   10   25     -0.51      0.00 
    1   10   25      1.23      0.00 
    2   10   25     -2.27      0.00 
    3   10   25      0.49      0.00 
    4   10   25      1.48      0.00 
    5   10   25     -0.96      0.00 
    6   10   25     -1.31      0.00 
    7   10   25      1.87      0.00 
    8   10   25     -0.07      0.00 
    9   10   25     -0.85      0.00 
    1   11   25     -1.98      0.00 
    2   11   25      1.75      0.00 
    3   11   25     -0.62      0.00 
    4   11   25      0.40      0.00 
    5   11   25      0.03      0.00 
    6   11   25     -0.03      0.00 
    7   11   25      0.18      0.00 
    8   11   25      0.97      0.00 
    9   11   25     -1.42      0.00 
    0   12   25     -0.40      0.00 
    1   12   25      0.62      0.00 
    2   12   25     -0.53      0.00 
    3   12   25      0.61      0.00 
    4   12   25      0.19      0.00 
    5   12   25     -0.58      0.00 
    6   12   25      0.47      0.00 
    7   12   25     -0.86      0.00 
    8   12   25      1.74      0.00 
    9   12   25     -3.39      0.00 
    1   13   25     -0.65      0.00 
    2   13   25     -0.09      0.00 
    3   13   25      1.45      0.00 
    4   13   25     -2.31      0.00 
    5   13   25      1.79      0.00 
    6   13   25     -1.77      0.00 
    7   13   25      0.89      0.00 
    8   13   25      0.13      0.00 
    0   14   25     -0.81      0.00 
    1   14   25      0.33      0.00 
    2   14   25     -0.14      0.00 
    3   14   25      0.81      0.00 
    4   14   25     -2.09      0.00 
    5   14   25      1.18      0.00 
    6   14   25     -0.19      0.00 
    7   14   25      1.47      0.00 
    8   14   25     -1.61      0.00 
    1   15   25      1.18      0.00 
    2   15   25     -1.47      0.00 
    3   15   25      0.74      0.00 
    4   15   25     -0.43      0.00 
    5   15   25      1.17      0.00 
    6   15   25     -0.06      0.00 
    7   15   25     -0.23      0.00 
    8   15   25     -0.88      0.00 
    0   16   25     -1.20      0.00 
    1   16   25      0.64      0.00 
    2   16   25      0.58      0.00 
    3   16   25     -1.22      0.00 
    4   16   25      1.80      0.00 
    5   16   25     -1.20      0.00 
    6   16   25      0.41      0.00 
    7   16   25     -0.48      0.00 
    8   16   25     -0.22      0.00 
    1   17   25     -0.38      0.00 
    2   17   25      1.28      0.00 
    3   17   25     -1.35      0.00 
    4   17   25      0.57      0.00 
    5   17   25      0.28      0.00 
    6   17   25     -1.55      0.00 
    7   17   25      1.02      0.00 
    0   18   25     -0.76      0.00 
    1   18   25     -0.32      0.00 
    2   18   25      2.04      0.00 
    3   18   25     -2.14      0.00 
    4   18   25      0.51      0.00 
    5   18   25      0.50      0.00 
    6   18   25     -0.74      0.00 
    7   18   25     -0.11      0.00 
    1   19   25      0.10      0.00 
    2   19   25     -0.04      0.00 
    3   19   25      0.18      0.00 
    4   19   25     -0.30      0.00 
    5   19   25     -0.49      0.00 
    6   19   25      0.59      0.00 
    7   19   25      0.93      0.00 
    0   20   25      0.82      0.00 
    1   20   25     -0.50      0.00 
    2   20   25     -0.51      0.00 
    3   20   25      0.58      0.00 
    4   20   25      0.16      0.00 
    5   20   25     -0.16      0.00 
    6   20   25      0.86      0.00 
    1   21   25      0.02      0.00 
    2   21   25     -0.44      0.00 
    3   21   25      0.90      0.00 
    4   21   25      0.07      0.00 
    5   21   25     -0.37      0.00 
    6   21   25     -0.06      0.00 
    0   22   25      0.91      0.00 
    1   22   25     -0.09      0.00 
    2   22   25      0.00      0.00 
    3   22   25     -0.21      0.00 
    4   22   25     -0.22      0.00 
    5   22   25      0.25      0.00 
    6   22   25     -0.99      0.00 
    1   23   25     -1.62      0.00 
    2   23   25      0.67      0.00 
    3   23   25     -0.06      0.00 
    4   23   25     -1.29      0.00 
    5   23   25      1.65      0.00 
    0   24   25     -0.98      0.00 
    1   24   25      0.21      0.00 
    2   24   25     -0.36      0.00 
    3   24   25      0.48      0.00 
    4   24   25     -0.08      0.00 
    5   24   25      0.31      0.00 
    1   25   25      0.19      0.00 
    2   25   25      0.85      0.00 
    3   25   25     -0.08      0.00 
    4   25   25      0.19      0.00 
    0   26   25     -0.27      0.00 
    1   26   25      0.53      0.00 
    2   26   25      0.14      0.00 
    3   26   25      0.22      0.00 
    4   26   25     -0.66      0.00 
    1   27   25      2.74      0.00 
    2   27   25     -2.38      0.00 
    3   27   25     -0.29      0.00 
    2   28   25     -1.09      0.00 
    0    0   26     -3.47      0.00 
    1    0   26      4.19      0.00 
    2    0   26     -3.80      0.00 
    3    0   26      0.62      0.00 
    4    0   26      2.05      0.00 
    5    0   26     -1.03      0.00 
    6    0   26     -2.04      0.00 
    7    0   26      0.98      0.00 
    8    0   26      0.75      0.00 
    9    0   26     -0.44      0.00 
    1    1   26     -3.11      0.00 
    2    1   26      0.51      0.00 
    3    1   26      2.01      0.00 
    4    1   26     -1.32      0.00 
    5    1   26     -1.00      0.00 
    6    1   26      1.21      0.00 
    7    1   26      0.02      0.00 
    8    1   26      2.25      0.00 
    9    1   26     -3.08      0.00 
    0    2   26     -2.53      0.00 
    1    2   26      0.62      0.00 
    2    2   26      1.01      0.00 
    3    2   26      0.34      0.00 
    4    2   26     -1.62      0.00 
    5    2   26      0.88      0.00 
    6    2   26      1.27      0.00 
    7    2   26     -0.45      0.00 
    8    2   26     -0.58      0.00 
    9    2   26     -0.20      0.00 
    1    3   26      2.21      0.00 
    2    3   26     -0.83      0.00 
    3    3   26     -0.49      0.00 
    4    3   26      0.06      0.00 
    5    3   26      0.76      0.00 
    6    3   26      0.06      0.00 
    7    3   26     -0.55      0.00 
    8    3   26     -1.46      0.00 
    9    3   26      1.31      0.00 
    0    4   26      2.32      0.00 
    1    4   26     -0.77      0.00 
    2    4   26     -0.13      0.00 
    3    4   26     -0.39      0.00 
    4    4   26      0.13      0.00 
    5    4   26     -0.32      0.00 
    6    4   26     -0.15      0.00 
    7    4   26      0.18      0.00 
    8    4   26     -0.49      0.00 
    9    4   26      1.45      0.00 
    1    5   26     -0.16      0.00 
    2    5   26     -1.14      0.00 
    3    5   26      1.63      0.00 
    4    5   26     -1.30      0.00 
    5    5   26      0.41      0.00 
    6    5   26      0.09      0.00 
    7    5   26     -0.40      0.00 
    8    5   26      0.82      0.00 
    9    5   26      0.45      0.00 
    0    6   26     -2.45      0.00 
    1    6   26      0.75      0.00 
    2    6   26      1.18      0.00 
    3    6   26     -1.92      0.00 
    4    6   26      1.83      0.00 
    5    6   26     -0.67      0.00 
    6    6   26      0.47      0.00 
    7    6   26     -0.16      0.00 
    8    6   26     -0.53      0.00 
    9    6   26      0.90      0.00 
    1    7   26      1.16      0.00 
    2    7   26     -0.83      0.00 
    3    7   26      0.49      0.00 
    4    7   26      0.60      0.00 
    5    7   26     -0.04      0.00 
    6    7   26     -1.52      0.00 
    7    7   26      0.85      0.00 
    8    7   26      0.90      0.00 
    9    7   26     -1.55      0.00 
    0    8   26      1.93      0.00 
    1    8   26     -1.29      0.00 
    2    8   26      0.48      0.00 
    3    8   26      0.70      0.00 
    4    8   26     -0.87      0.00 
    5    8   26     -0.24      0.00 
    6    8   26      0.16      0.00 
    7    8   26      0.13      0.00 
    8    8   26     -0.06      0.00 
    9    8   26      0.10      0.00 
    1    9   26     -0.81      0.00 
    2    9   26      0.71      0.00 
    3    9   26     -0.95      0.00 
    4    9   26     -0.10      0.00 
    5    9   26     -0.62      0.00 
    6    9   26      2.24      0.00 
    7    9   26     -0.90      0.00 
    8    9   26     -1.34      0.00 
    9    9   26      0.93      0.00 
    0   10   26      0.02      0.00 
    1   10   26     -0.74      0.00 
    2   10   26      0.57      0.00 
    3   10   26     -0.22      0.00 
    4   10   26     -0.45      0.00 
    5   10   26      1.49      0.00 
    6   10   26     -0.51      0.00 
    7   10   26     -0.34      0.00 
    8   10   26     -1.00      0.00 
    9   10   26      2.31      0.00 
    1   11   26      2.35      0.00 
    2   11   26     -1.28      0.00 
    3   11   26     -0.33      0.00 
    4   11   26      1.99      0.00 
    5   11   26     -1.52      0.00 
    6   11   26      0.67      0.00 
    7   11   26     -0.91      0.00 
    8   11   26      0.99      0.00 
    0   12   26      2.24      0.00 
    1   12   26     -0.15      0.00 
    2   12   26     -0.97      0.00 
    3   12   26      0.30      0.00 
    4   12   26      0.74      0.00 
    5   12   26     -1.61      0.00 
    6   12   26      1.14      0.00 
    7   12   26     -1.37      0.00 
    8   12   26      1.92      0.00 
    1   13   26     -2.62      0.00 
    2   13   26      1.79      0.00 
    3   13   26     -0.80      0.00 
    4   13   26     -0.41      0.00 
    5   13   26     -0.32      0.00 
    6   13   26      0.96      0.00 
    7   13   26     -0.69      0.00 
    8   13   26      0.69      0.00 
    0   14   26      0.43      0.00 
    1   14   26     -0.38      0.00 
    2   14   26     -1.73      0.00 
    3   14   26      1.95      0.00 
    4   14   26     -0.60      0.00 
    5   14   26      0.55      0.00 
    6   14   26     -0.72      0.00 
    7   14   26      1.25      0.00 
    8   14   26     -0.12      0.00 
    1   15   26      1.12      0.00 
    2   15   26     -0.95      0.00 
    3   15   26      1.79      0.00 
    4   15   26     -0.04      0.00 
    5   15   26     -0.69      0.00 
    6   15   26      0.20      0.00 
    7   15   26     -0.29      0.00 
    8   15   26      0.70      0.00 
    0   16   26     -0.03      0.00 
    1   16   26      1.07      0.00 
    2   16   26     -0.49      0.00 
    3   16   26      1.07      0.00 
    4   16   26     -1.72      0.00 
    5   16   26     -0.14      0.00 
    6   16   26      0.88      0.00 
    7   16   26     -0.43      0.00 
    1   17   26     -0.52      0.00 
    2   17   26      0.04      0.00 
    3   17   26     -1.09      0.00 
    4   17   26     -0.97      0.00 
    5   17   26      2.21      0.00 
    6   17   26     -1.30      0.00 
    7   17   26     -0.02      0.00 
    0   18   26     -1.58      0.00 
    1   18   26     -0.02      0.00 
    2   18   26     -0.18      0.00 
    3   18   26     -0.45      0.00 
    4   18   26      1.65      0.00 
    5   18   26     -0.28      0.00 
    6   18   26     -0.59      0.00 
    1   19   26      0.44      0.00 
    2   19   26      0.11      0.00 
    3   19   26      0.40      0.00 
    4   19   26      1.39      0.00 
    5   19   26     -1.06      0.00 
    6   19   26      0.02      0.00 
    0   20   26      1.05      0.00 
    1   20   26     -0.48      0.00 
    2   20   26      1.60      0.00 
    3   20   26     -0.92      0.00 
    4   20   26      0.32      0.00 
    5   20   26     -1.47      0.00 
    6   20   26      1.17      0.00 
    1   21   26     -0.36      0.00 
    2   21   26      0.74      0.00 
    3   21   26     -2.15      0.00 
    4   21   26      0.34      0.00 
    5   21   26      0.07      0.00 
    6   21   26     -0.34      0.00 
    0   22   26     -0.95      0.00 
    1   22   26      0.22      0.00 
    2   22   26     -0.36      0.00 
    3   22   26     -0.60      0.00 
    4   22   26      0.14      0.00 
    5   22   26      1.02      0.00 
    1   23   26      0.96      0.00 
    2   23   26     -1.25      0.00 
    3   23   26      2.63      0.00 
    4   23   26     -1.22      0.00 
    0   24   26      3.81      0.00 
    1   24   26     -1.95      0.00 
    2   24   26      0.62      0.00 
    3   24   26      0.13      0.00 
    4   24   26      0.07      0.00 
    1   25   26     -3.67      0.00 
    2   25   26      3.19      0.00 
    3   25   26     -1.49      0.00 
    4   25   26     -0.44      0.00 
    0   26   26     -2.97      0.00 
    1   26   26      0.95      0.00 
    2   26   26      0.56      0.00 
    2   27   26     -0.99      0.00 
    1    1   27     -0.05      0.00 
    2    1   27      0.10      0.00 
    3    1   27     -0.22      0.00 
    4    1   27     -0.24      0.00 
    5    1   27      0.62      0.00 
    6    1   27     -0.23      0.00 
    7    1   27      0.43      0.00 
    8    1   27     -0.62      0.00 
    9    1   27      0.47      0.00 
    0    2   27     -4.18      0.00 
    1    2   27      4.12      0.00 
    2    2   27     -2.59      0.00 
    3    2   27      0.30      0.00 
    4    2   27      0.62      0.00 
    5    2   27      0.00      0.00 
    6    2   27     -0.52      0.00 
    7    2   27      0.27      0.00 
    8    2   27      0.51      0.00 
    9    2   27     -0.71      0.00 
    1    3   27     -1.14      0.00 
    2    3   27      1.19      0.00 
    3    3   27     -0.41      0.00 
    4    3   27      0.32      0.00 
    5    3   27     -0.36      0.00 
    6    3   27     -0.54      0.00 
    7    3   27     -0.09      0.00 
    8    3   27      1.00      0.00 
    9    3   27     -1.48      0.00 
    0    4   27     -0.09      0.00 
    1    4   27     -0.81      0.00 
    2    4   27      1.13      0.00 
    3    4   27      0.24      0.00 
    4    4   27     -1.31      0.00 
    5    4   27      0.42      0.00 
    6    4   27     -0.40      0.00 
    7    4   27      1.26      0.00 
    8    4   27     -0.66      0.00 
    9    4   27     -0.76      0.00 
    1    5   27      1.11      0.00 
    2    5   27     -0.83      0.00 
    3    5   27      0.65      0.00 
    4    5   27     -0.56      0.00 
    5    5   27     -0.02      0.00 
    6    5   27      0.71      0.00 
    7    5   27      0.32      0.00 
    8    5   27     -0.77      0.00 
    9    5   27      0.74      0.00 
    0    6   27      0.01      0.00 
    1    6   27      0.73      0.00 
    2    6   27     -1.21      0.00 
    3    6   27      0.77      0.00 
    4    6   27     -0.19      0.00 
    5    6   27      0.45      0.00 
    6    6   27      1.09      0.00 
    7    6   27     -2.29      0.00 
    8    6   27      0.43      0.00 
    9    6   27      0.84      0.00 
    1    7   27      0.14      0.00 
    2    7   27     -1.12      0.00 
    3    7   27      1.17      0.00 
    4    7   27     -1.23      0.00 
    5    7   27      1.62      0.00 
    6    7   27     -1.30      0.00 
    7    7   27     -0.88      0.00 
    8    7   27      0.82      0.00 
    0    8   27     -2.13      0.00 
    1    8   27      1.13      0.00 
    2    8   27      0.36      0.00 
    3    8   27     -2.00      0.00 
    4    8   27      2.33      0.00 
    5    8   27     -1.16      0.00 
    6    8   27     -1.61      0.00 
    7    8   27      2.68      0.00 
    8    8   27     -0.58      0.00 
    1    9   27     -0.70      0.00 
    2    9   27      0.36      0.00 
    3    9   27      0.22      0.00 
    4    9   27      0.13      0.00 
    5    9   27      0.28      0.00 
    6    9   27     -0.81      0.00 
    7    9   27      1.68      0.00 
    8    9   27     -0.38      0.00 
    0   10   27      0.68      0.00 
    1   10   27     -1.32      0.00 
    2   10   27      2.28      0.00 
    3   10   27     -0.36      0.00 
    4   10   27     -1.27      0.00 
    5   10   27      0.51      0.00 
    6   10   27      0.98      0.00 
    7   10   27     -1.07      0.00 
    8   10   27     -0.43      0.00 
    1   11   27      0.77      0.00 
    2   11   27     -0.36      0.00 
    3   11   27      0.15      0.00 
    4   11   27     -1.19      0.00 
    5   11   27      0.61      0.00 
    6   11   27      0.04      0.00 
    7   11   27     -0.23      0.00 
    8   11   27     -0.61      0.00 
    0   12   27     -1.10      0.00 
    1   12   27      0.19      0.00 
    2   12   27      0.87      0.00 
    3   12   27     -1.72      0.00 
    4   12   27      0.49      0.00 
    5   12   27      0.95      0.00 
    6   12   27     -0.89      0.00 
    7   12   27      0.91      0.00 
    8   12   27     -1.29      0.00 
    1   13   27      1.16      0.00 
    2   13   27     -0.58      0.00 
    3   13   27     -0.76      0.00 
    4   13   27      2.20      0.00 
    5   13   27     -1.96      0.00 
    6   13   27      1.67      0.00 
    7   13   27     -0.71      0.00 
    8   13   27     -0.18      0.00 
    0   14   27      1.62      0.00 
    1   14   27     -0.62      0.00 
    2   14   27     -0.11      0.00 
    3   14   27     -0.27      0.00 
    4   14   27      1.62      0.00 
    5   14   27     -1.53      0.00 
    6   14   27      1.04      0.00 
    7   14   27     -1.94      0.00 
    8   14   27      1.42      0.00 
    1   15   27     -1.47      0.00 
    2   15   27      1.21      0.00 
    3   15   27     -0.26      0.00 
    4   15   27      0.04      0.00 
    5   15   27     -1.00      0.00 
    6   15   27      0.31      0.00 
    7   15   27     -0.06      0.00 
    0   16   27      1.19      0.00 
    1   16   27     -1.07      0.00 
    2   16   27     -0.17      0.00 
    3   16   27      1.52      0.00 
    4   16   27     -2.35      0.00 
    5   16   27      1.76      0.00 
    6   16   27     -0.92      0.00 
    7   16   27      1.04      0.00 
    1   17   27      0.87      0.00 
    2   17   27     -1.36      0.00 
    3   17   27      1.50      0.00 
    4   17   27     -1.08      0.00 
    5   17   27      0.14      0.00 
    6   17   27      1.40      0.00 
    0   18   27      0.16      0.00 
    1   18   27      0.88      0.00 
    2   18   27     -1.83      0.00 
    3   18   27      1.20      0.00 
    4   18   27     -0.20      0.00 
    5   18   27     -0.06      0.00 
    6   18   27      0.40      0.00 
    1   19   27     -0.18      0.00 
    2   19   27      0.30      0.00 
    3   19   27     -1.18      0.00 
    4   19   27      1.56      0.00 
    5   19   27      0.02      0.00 
    6   19   27     -0.83      0.00 
    0   20   27     -0.20      0.00 
    1   20   27      0.06      0.00 
    2   20   27      0.51      0.00 
    3   20   27     -0.49      0.00 
    4   20   27      0.26      0.00 
    5   20   27     -0.44      0.00 
    6   20   27     -0.61      0.00 
    1   21   27     -0.05      0.00 
    2   21   27      0.27      0.00 
    3   21   27     -0.85      0.00 
    4   21   27      0.52      0.00 
    5   21   27     -0.43      0.00 
    0   22   27     -1.45      0.00 
    1   22   27      0.23      0.00 
    2   22   27      0.15      0.00 
    3   22   27      0.42      0.00 
    4   22   27     -0.13      0.00 
    1   23   27      1.82      0.00 
    2   23   27     -0.57      0.00 
    3   23   27     -0.12      0.00 
    4   23   27      0.91      0.00 
    0   24   27      2.20      0.00 
    1   24   27     -0.78      0.00 
    2   24   27     -0.11      0.00 
    3   24   27      0.24      0.00 
    1   25   27     -0.48      0.00 
    2   25   27     -0.48      0.00 
    3   25   27     -0.01      0.00 
    1   26   27     -0.81      0.00 
    2   26   27      0.21      0.00 
    0    0   28      5.16      0.00 
    1    0   28     -4.13      0.00 
    2    0   28      2.19      0.00 
    3    0   28      0.05      0.00 
    4    0   28     -1.69      0.00 
    5    0   28      0.44      0.00 
    6    0   28      2.04      0.00 
    7    0   28     -1.08      0.00 
    8    0   28      0.12      0.00 
    1    1   28      0.94      0.00 
    2    1   28     -0.10      0.00 
    3    1   28     -0.71      0.00 
    4    1   28     -0.03      0.00 
    5    1   28      1.67      0.00 
    6    1   28     -1.22      0.00 
    7    1   28      0.07      0.00 
    8    1   28     -2.09      0.00 
    9    1   28      2.70      0.00 
    0    2   28      0.62      0.00 
    1    2   28     -0.11      0.00 
    2    2   28     -0.75      0.00 
    3    2   28      0.40      0.00 
    4    2   28      1.06      0.00 
    5    2   28     -1.05      0.00 
    6    2   28     -0.77      0.00 
    7    2   28      0.11      0.00 
    8    2   28      0.60      0.00 
    9    2   28      0.36      0.00 
    1    3   28     -1.71      0.00 
    2    3   28      1.57      0.00 
    3    3   28      0.02      0.00 
    4    3   28     -0.49      0.00 
    5    3   28     -0.84      0.00 
    6    3   28      0.48      0.00 
    7    3   28      0.46      0.00 
    8    3   28      1.06      0.00 
    0    4   28     -1.79      0.00 
    1    4   28      0.89      0.00 
    2    4   28      0.42      0.00 
    3    4   28     -1.00      0.00 
    4    4   28      0.45      0.00 
    5    4   28      0.54      0.00 
    6    4   28      0.07      0.00 
    7    4   28     -0.15      0.00 
    8    4   28      0.12      0.00 
    1    5   28      0.26      0.00 
    2    5   28     -0.12      0.00 
    3    5   28     -0.55      0.00 
    4    5   28      1.08      0.00 
    5    5   28     -0.29      0.00 
    6    5   28     -0.25      0.00 
    7    5   28      0.57      0.00 
    8    5   28     -0.84      0.00 
    0    6   28      0.54      0.00 
    1    6   28      0.04      0.00 
    2    6   28     -1.12      0.00 
    3    6   28      2.24      0.00 
    4    6   28     -1.98      0.00 
    5    6   28      0.52      0.00 
    6    6   28     -0.07      0.00 
    7    6   28     -0.14      0.00 
    8    6   28      0.38      0.00 
    1    7   28      0.05      0.00 
    2    7   28      0.62      0.00 
    3    7   28     -0.97      0.00 
    4    7   28     -0.39      0.00 
    5    7   28      0.35      0.00 
    6    7   28      0.76      0.00 
    7    7   28     -0.77      0.00 
    8    7   28     -0.21      0.00 
    0    8   28     -0.12      0.00 
    1    8   28      0.91      0.00 
    2    8   28     -1.64      0.00 
    3    8   28      0.27      0.00 
    4    8   28      0.32      0.00 
    5    8   28      0.16      0.00 
    6    8   28      0.21      0.00 
    7    8   28     -0.08      0.00 
    8    8   28     -0.06      0.00 
    1    9   28     -0.06      0.00 
    2    9   28     -0.57      0.00 
    3    9   28      1.10      0.00 
    4    9   28      0.03      0.00 
    5    9   28      0.73      0.00 
    6    9   28     -1.62      0.00 
    7    9   28      0.35      0.00 
    8    9   28      0.73      0.00 
    0   10   28     -0.13      0.00 
    1   10   28      0.23      0.00 
    2   10   28      0.16      0.00 
    3   10   28      0.20      0.00 
    4   10   28      0.25      0.00 
    5   10   28     -1.22      0.00 
    6   10   28      0.56      0.00 
    7   10   28     -0.57      0.00 
    8   10   28      1.56      0.00 
    1   11   28     -0.92      0.00 
    2   11   28      0.34      0.00 
    3   11   28      0.24      0.00 
    4   11   28     -1.53      0.00 
    5   11   28      1.50      0.00 
    6   11   28     -1.49      0.00 
    7   11   28      1.46      0.00 
    8   11   28     -0.85      0.00 
    0   12   28     -1.39      0.00 
    1   12   28     -0.18      0.00 
    2   12   28      0.69      0.00 
    3   12   28     -0.17      0.00 
    4   12   28     -0.59      0.00 
    5   12   28      1.71      0.00 
    6   12   28     -2.34      0.00 
    7   12   28      3.09      0.00 
    1   13   28      0.56      0.00 
    2   13   28      0.53      0.00 
    3   13   28     -0.12      0.00 
    4   13   28     -0.01      0.00 
    5   13   28      0.71      0.00 
    6   13   28     -0.59      0.00 
    7   13   28      0.36      0.00 
    0   14   28     -1.68      0.00 
    1   14   28      1.34      0.00 
    2   14   28      1.71      0.00 
    3   14   28     -2.93      0.00 
    4   14   28      1.81      0.00 
    5   14   28     -1.31      0.00 
    6   14   28      1.44      0.00 
    7   14   28     -2.27      0.00 
    1   15   28     -0.13      0.00 
    2   15   28     -0.52      0.00 
    3   15   28     -0.91      0.00 
    4   15   28      0.14      0.00 
    5   15   28      0.17      0.00 
    6   15   28     -0.03      0.00 
    7   15   28      0.31      0.00 
    0   16   28      0.74      0.00 
    1   16   28     -1.49      0.00 
    2   16   28      0.17      0.00 
    3   16   28     -0.40      0.00 
    4   16   28      1.24      0.00 
    5   16   28      0.46      0.00 
    6   16   28     -1.23      0.00 
    1   17   28     -0.07      0.00 
    2   17   28      0.04      0.00 
    3   17   28      2.22      0.00 
    4   17   28     -0.33      0.00 
    5   17   28     -1.58      0.00 
    6   17   28      1.23      0.00 
    0   18   28      0.82      0.00 
    1   18   28      0.48      0.00 
    2   18   28      0.23      0.00 
    3   18   28      0.81      0.00 
    4   18   28     -2.55      0.00 
    5   18   28      0.66      0.00 
    6   18   28      0.73      0.00 
    1   19   28     -0.38      0.00 
    2   19   28      0.20      0.00 
    3   19   28     -1.05      0.00 
    4   19   28     -1.55      0.00 
    5   19   28      1.83      0.00 
    6   19   28     -0.18      0.00 
    0   20   28     -1.08      0.00 
    1   20   28      0.31      0.00 
    2   20   28     -1.20      0.00 
    3   20   28     -0.09      0.00 
    4   20   28      0.90      0.00 
    1   21   28      0.91      0.00 
    2   21   28     -1.55      0.00 
    3   21   28      3.04      0.00 
    4   21   28     -0.15      0.00 
    0   22   28      1.02      0.00 
    1   22   28     -0.13      0.00 
    2   22   28      0.62      0.00 
    3   22   28      0.40      0.00 
    4   22   28     -0.81      0.00 
    1   23   28     -1.34      0.00 
    2   23   28      1.50      0.00 
    3   23   28     -3.47      0.00 
    0   24   28     -4.06      0.00 
    1   24   28      1.82      0.00 
    2   24   28     -0.66      0.00 
    3   24   28      0.18      0.00 
    1   25   28      3.78      0.00 
    2   25   28     -2.94      0.00 
    1    1   29      0.65      0.00 
    2    1   29     -0.49      0.00 
    3    1   29     -0.21      0.00 
    4    1   29      0.87      0.00 
    5    1   29     -0.83      0.00 
    6    1   29      0.22      0.00 
    7    1   29     -0.47      0.00 
    8    1   29      0.63      0.00 
    0    2   29      3.60      0.00 
    1    2   29     -3.19      0.00 
    2    2   29      1.41      0.00 
    3    2   29      0.14      0.00 
    4    2   29     -0.22      0.00 
    5    2   29     -0.30      0.00 
    6    2   29      0.45      0.00 
    7    2   29     -0.27      0.00 
    8    2   29     -0.01      0.00 
    1    3   29     -0.30      0.00 
    2    3   29      0.19      0.00 
    3    3   29     -0.18      0.00 
    4    3   29      0.26      0.00 
    5    3   29     -0.01      0.00 
    6    3   29      0.24      0.00 
    7    3   29      0.42      0.00 
    8    3   29     -0.96      0.00 
    0    4   29      0.35      0.00 
    1    4   29      0.25      0.00 
    2    4   29     -0.56      0.00 
    3    4   29      0.20      0.00 
    4    4   29      0.61      0.00 
    5    4   29     -0.59      0.00 
    6    4   29      0.45      0.00 
    7    4   29     -0.96      0.00 
    8    4   29      0.65      0.00 
    1    5   29     -0.95      0.00 
    2    5   29      0.55      0.00 
    3    5   29      0.01      0.00 
    4    5   29     -0.37      0.00 
    5    5   29     -0.35      0.00 
    6    5   29      0.73      0.00 
    7    5   29     -0.79      0.00 
    8    5   29      0.31      0.00 
    0    6   29     -0.75      0.00 
    1    6   29     -0.39      0.00 
    2    6   29      1.56      0.00 
    3    6   29     -1.65      0.00 
    4    6   29      0.60      0.00 
    5    6   29     -0.01      0.00 
    6    6   29     -0.73      0.00 
    7    6   29      1.32      0.00 
    1    7   29      0.30      0.00 
    2    7   29      0.81      0.00 
    3    7   29     -1.23      0.00 
    4    7   29      1.64      0.00 
    5    7   29     -1.37      0.00 
    6    7   29      0.34      0.00 
    7    7   29      1.18      0.00 
    0    8   29      1.69      0.00 
    1    8   29     -0.48      0.00 
    2    8   29     -0.92      0.00 
    3    8   29      2.18      0.00 
    4    8   29     -2.03      0.00 
    5    8   29      0.42      0.00 
    6    8   29      1.50      0.00 
    7    8   29     -1.72      0.00 
    1    9   29      0.39      0.00 
    2    9   29     -0.20      0.00 
    3    9   29     -0.21      0.00 
    4    9   29     -0.44      0.00 
    5    9   29     -0.37      0.00 
    6    9   29      1.58      0.00 
    7    9   29     -2.07      0.00 
    0   10   29     -0.76      0.00 
    1   10   29      1.26      0.00 
    2   10   29     -2.29      0.00 
    3   10   29      0.64      0.00 
    4   10   29      0.72      0.00 
    5   10   29     -0.06      0.00 
    6   10   29     -0.13      0.00 
    7   10   29     -0.39      0.00 
    1   11   29     -0.11      0.00 
    2   11   29     -0.44      0.00 
    3   11   29      0.32      0.00 
    4   11   29      1.56      0.00 
    5   11   29     -0.78      0.00 
    6   11   29     -0.75      0.00 
    7   11   29      0.81      0.00 
    0   12   29      1.79      0.00 
    1   12   29     -0.71      0.00 
    2   12   29     -0.77      0.00 
    3   12   29      2.50      0.00 
    4   12   29     -1.61      0.00 
    5   12   29     -0.83      0.00 
    6   12   29      1.11      0.00 
    7   12   29     -0.60      0.00 
    1   13   29     -1.05      0.00 
    2   13   29      1.06      0.00 
    3   13   29     -0.68      0.00 
    4   13   29     -1.32      0.00 
    5   13   29      2.03      0.00 
    6   13   29     -1.51      0.00 
    7   13   29      0.38      0.00 
    0   14   29     -1.48      0.00 
    1   14   29      0.46      0.00 
    2   14   29     -0.02      0.00 
    3   14   29      0.16      0.00 
    4   14   29     -0.82      0.00 
    5   14   29      1.38      0.00 
    6   14   29     -1.60      0.00 
    7   14   29      2.18      0.00 
    1   15   29      1.09      0.00 
    2   15   29     -0.33      0.00 
    3   15   29     -0.03      0.00 
    4   15   29     -0.19      0.00 
    5   15   29      1.11      0.00 
    6   15   29     -0.65      0.00 
    0   16   29     -1.05      0.00 
    1   16   29      1.16      0.00 
    2   16   29      0.50      0.00 
    3   16   29     -2.46      0.00 
    4   16   29      2.97      0.00 
    5   16   29     -2.17      0.00 
    6   16   29      1.07      0.00 
    1   17   29     -0.73      0.00 
    2   17   29      0.87      0.00 
    3   17   29     -1.47      0.00 
    4   17   29      1.47      0.00 
    5   17   29     -0.78      0.00 
    6   17   29     -0.56      0.00 
    0   18   29      0.08      0.00 
    1   18   29     -0.74      0.00 
    2   18   29      0.61      0.00 
    3   18   29      0.26      0.00 
    4   18   29     -0.34      0.00 
    5   18   29      0.04      0.00 
    6   18   29      0.02      0.00 
    1   19   29     -0.31      0.00 
    2   19   29     -0.04      0.00 
    3   19   29      1.81      0.00 
    4   19   29     -2.29      0.00 
    5   19   29      0.51      0.00 
    0   20   29     -0.67      0.00 
    1   20   29      0.47      0.00 
    2   20   29     -0.20      0.00 
    3   20   29      0.10      0.00 
    4   20   29     -0.43      0.00 
    1   21   29      0.05      0.00 
    2   21   29     -0.20      0.00 
    3   21   29      0.64      0.00 
    0   22   29      1.61      0.00 
    1   22   29     -0.29      0.00 
    2   22   29     -0.39      0.00 
    3   22   29     -0.45      0.00 
    1   23   29     -1.49      0.00 
    2   23   29      0.10      0.00 
    3   23   29      0.72      0.00 
    1   24   29      1.15      0.00 
    2   24   29      0.57      0.00 
    0    0   30     -4.62      0.00 
    1    0   30      3.17      0.00 
    2    0   30     -1.60      0.00 
    3    0   30      0.66      0.00 
    4    0   30      0.57      0.00 
    5    0   30     -0.03      0.00 
    6    0   30     -1.13      0.00 
    7    0   30      0.61      0.00 
    8    0   30     -0.90      0.00 
    1    1   30      0.04      0.00 
    2    1   30      0.18      0.00 
    3    1   30      0.03      0.00 
    4    1   30      0.25      0.00 
    5    1   30     -1.00      0.00 
    6    1   30      0.35      0.00 
    7    1   30      0.05      0.00 
    8    1   30      1.38      0.00 
    0    2   30      0.65      0.00 
    1    2   30     -0.39      0.00 
    2    2   30      0.93      0.00 
    3    2   30     -1.32      0.00 
    4    2   30     -0.15      0.00 
    5    2   30      0.84      0.00 
    6    2   30     -0.08      0.00 
    7    2   30      0.50      0.00 
    8    2   30     -0.31      0.00 
    1    3   30      1.02      0.00 
    2    3   30     -1.52      0.00 
    3    3   30      0.09      0.00 
    4    3   30      0.56      0.00 
    5    3   30      0.71      0.00 
    6    3   30     -0.37      0.00 
    7    3   30     -0.42      0.00 
    8    3   30     -0.48      0.00 
    0    4   30      0.37      0.00 
    1    4   30     -0.01      0.00 
    2    4   30     -0.91      0.00 
    3    4   30      1.29      0.00 
    4    4   30     -0.26      0.00 
    5    4   30     -0.41      0.00 
    6    4   30     -0.31      0.00 
    7    4   30      0.21      0.00 
    1    5   30     -0.53      0.00 
    2    5   30      0.78      0.00 
    3    5   30     -0.08      0.00 
    4    5   30     -0.24      0.00 
    5    5   30     -0.31      0.00 
    6    5   30     -0.07      0.00 
    7    5   30     -0.11      0.00 
    0    6   30      0.66      0.00 
    1    6   30     -0.94      0.00 
    2    6   30      1.59      0.00 
    3    6   30     -2.14      0.00 
    4    6   30      1.52      0.00 
    5    6   30     -0.56      0.00 
    6    6   30      0.01      0.00 
    7    6   30      0.54      0.00 
    1    7   30     -0.26      0.00 
    2    7   30     -0.60      0.00 
    3    7   30      1.15      0.00 
    4    7   30      0.01      0.00 
    5    7   30     -0.62      0.00 
    6    7   30      0.44      0.00 
    7    7   30      0.38      0.00 
    0    8   30     -0.62      0.00 
    1    8   30     -0.72      0.00 
    2    8   30      2.17      0.00 
    3    8   30     -0.87      0.00 
    4    8   30     -0.22      0.00 
    5    8   30      0.36      0.00 
    6    8   30     -0.35      0.00 
    7    8   30     -0.30      0.00 
    1    9   30      0.85      0.00 
    2    9   30     -0.02      0.00 
    3    9   30     -0.81      0.00 
    4    9   30     -0.18      0.00 
    5    9   30     -0.29      0.00 
    6    9   30      0.92      0.00 
    7    9   30     -0.62      0.00 
    0   10   30      0.45      0.00 
    1   10   30     -0.05      0.00 
    2   10   30     -0.61      0.00 
    3   10   30     -0.48      0.00 
    4   10   30      0.69      0.00 
    5   10   30      0.49      0.00 
    6   10   30     -0.96      0.00 
    7   10   30      1.42      0.00 
    1   11   30     -0.35      0.00 
    2   11   30      0.33      0.00 
    3   11   30      0.27      0.00 
    4   11   30      0.86      0.00 
    5   11   30     -1.80      0.00 
    6   11   30      2.25      0.00 
    7   11   30     -1.29      0.00 
    0   12   30      0.87      0.00 
    1   12   30      0.35      0.00 
    2   12   30     -0.54      0.00 
    3   12   30      0.32      0.00 
    4   12   30     -0.10      0.00 
    5   12   30     -1.25      0.00 
    6   12   30      3.17      0.00 
    7   12   30     -4.23      0.00 
    1   13   30      0.61      0.00 
    2   13   30     -1.87      0.00 
    3   13   30      0.39      0.00 
    4   13   30      0.94      0.00 
    5   13   30     -1.26      0.00 
    6   13   30      0.17      0.00 
    7   13   30      0.07      0.00 
    0   14   30      1.77      0.00 
    1   14   30     -1.64      0.00 
    2   14   30     -1.41      0.00 
    3   14   30      3.54      0.00 
    4   14   30     -2.87      0.00 
    5   14   30      1.66      0.00 
    6   14   30     -1.48      0.00 
    1   15   30     -0.25      0.00 
    2   15   30      1.43      0.00 
    3   15   30     -0.05      0.00 
    4   15   30     -0.34      0.00 
    5   15   30      0.81      0.00 
    6   15   30     -0.57      0.00 
    0   16   30     -0.69      0.00 
    1   16   30      1.32      0.00 
    2   16   30      0.01      0.00 
    3   16   30     -0.12      0.00 
    4   16   30     -0.28      0.00 
    5   16   30     -0.99      0.00 
    6   16   30      1.22      0.00 
    1   17   30      0.32      0.00 
    2   17   30      0.08      0.00 
    3   17   30     -2.66      0.00 
    4   17   30      1.24      0.00 
    5   17   30      0.48      0.00 
    0   18   30      0.04      0.00 
    1   18   30     -1.16      0.00 
    2   18   30      0.36      0.00 
    3   18   30     -1.10      0.00 
    4   18   30      2.40      0.00 
    5   18   30     -0.67      0.00 
    1   19   30      0.77      0.00 
    2   19   30     -0.50      0.00 
    3   19   30      1.05      0.00 
    5   19   30     -1.48      0.00 
    0   20   30      1.11      0.00 
    1   20   30      0.14      0.00 
    2   20   30      0.18      0.00 
    3   20   30      0.77      0.00 
    1   21   30     -1.70      0.00 
    2   21   30      2.20      0.00 
    3   21   30     -3.23      0.00 
    0   22   30     -0.93      0.00 
    1   22   30      0.01      0.00 
    2   22   30     -0.61      0.00 
    1   23   30      1.04      0.00 
    2   23   30     -1.11      0.00 
    1    1   31     -0.50      0.00 
    2    1   31      0.10      0.00 
    3    1   31      0.62      0.00 
    4    1   31     -0.77      0.00 
    5    1   31      0.56      0.00 
    6    1   31     -0.37      0.00 
    7    1   31      0.59      0.00 
    0    2   31     -1.39      0.00 
    1    2   31      1.22      0.00 
    2    2   31     -0.52      0.00 
    3    2   31      0.69      0.00 
    4    2   31     -1.07      0.00 
    5    2   31      0.29      0.00 
    6    2   31      0.18      0.00 
    7    2   31      0.23      0.00 
    1    3   31      1.08      0.00 
    2    3   31     -0.43      0.00 
    3    3   31     -0.11      0.00 
    4    3   31     -0.98      0.00 
    5    3   31      0.95      0.00 
    6    3   31      0.25      0.00 
    7    3   31     -1.16      0.00 
    0    4   31     -0.83      0.00 
    1    4   31      0.86      0.00 
    2    4   31     -0.80      0.00 
    3    4   31     -0.65      0.00 
    4    4   31      1.07      0.00 
    5    4   31      0.22      0.00 
    6    4   31     -0.67      0.00 
    7    4   31      0.49      0.00 
    1    5   31     -0.03      0.00 
    2    5   31     -0.20      0.00 
    3    5   31      0.56      0.00 
    4    5   31      0.18      0.00 
    5    5   31      0.84      0.00 
    6    5   31     -2.27      0.00 
    0    6   31      0.33      0.00 
    1    6   31      0.27      0.00 
    2    6   31     -0.75      0.00 
    3    6   31      1.39      0.00 
    4    6   31     -0.95      0.00 
    5    6   31     -0.05      0.00 
    6    6   31      0.03      0.00 
    1    7   31     -0.32      0.00 
    2    7   31     -0.30      0.00 
    3    7   31      0.10      0.00 
    4    7   31     -0.68      0.00 
    5    7   31      0.35      0.00 
    6    7   31      0.76      0.00 
    0    8   31     -1.32      0.00 
    1    8   31      0.17      0.00 
    2    8   31      0.79      0.00 
    3    8   31     -1.73      0.00 
    4    8   31      1.69      0.00 
    5    8   31     -0.16      0.00 
    6    8   31     -0.70      0.00 
    1    9   31     -0.03      0.00 
    2    9   31     -0.25      0.00 
    3    9   31      1.02      0.00 
    4    9   31     -0.33      0.00 
    5    9   31      1.02      0.00 
    6    9   31     -2.14      0.00 
    0   10   31      0.38      0.00 
    1   10   31     -0.88      0.00 
    2   10   31      2.28      0.00 
    3   10   31     -1.10      0.00 
    4   10   31     -0.42      0.00 
    5   10   31      0.22      0.00 
    6   10   31     -0.99      0.00 
    1   11   31      0.30      0.00 
    2   11   31      0.32      0.00 
    3   11   31     -0.59      0.00 
    4   11   31     -1.38      0.00 
    5   11   31      0.59      0.00 
    6   11   31      1.40      0.00 
    0   12   31     -0.92      0.00 
    1   12   31      0.26      0.00 
    2   12   31      0.64      0.00 
    3   12   31     -2.68      0.00 
    4   12   31      2.41      0.00 
    5   12   31      0.48      0.00 
    6   12   31     -1.02      0.00 
    1   13   31      0.36      0.00 
    2   13   31     -0.93      0.00 
    3   13   31      1.87      0.00 
    4   13   31      0.15      0.00 
    5   13   31     -1.68      0.00 
    6   13   31      1.23      0.00 
    0   14   31      0.86      0.00 
    1   14   31     -0.04      0.00 
    2   14   31      0.19      0.00 
    3   14   31     -0.29      0.00 
    4   14   31      0.10      0.00 
    5   14   31     -0.81      0.00 
    6   14   31      1.44      0.00 
    1   15   31     -0.62      0.00 
    2   15   31     -0.48      0.00 
    3   15   31      0.12      0.00 
    4   15   31      0.65      0.00 
    5   15   31     -1.42      0.00 
    0   16   31      0.50      0.00 
    1   16   31     -0.71      0.00 
    2   16   31     -1.20      0.00 
    3   16   31      3.27      0.00 
    4   16   31     -3.18      0.00 
    5   16   31      2.10      0.00 
    1   17   31      0.13      0.00 
    2   17   31     -0.17      0.00 
    3   17   31      1.21      0.00 
    4   17   31     -1.31      0.00 
    5   17   31      1.11      0.00 
    0   18   31     -0.31      0.00 
    1   18   31      0.23      0.00 
    2   18   31      0.99      0.00 
    3   18   31     -1.47      0.00 
    1   19   31      1.16      0.00 
    2   19   31     -0.52      0.00 
    3   19   31     -1.89      0.00 
    0   20   31      1.45      0.00 
    1   20   31     -0.90      0.00 
    2   20   31     -0.19      0.00 
    1   21   31      0.16      0.00 
    2   21   31      0.19      0.00 
    0   22   31     -1.16      0.00 
    1   22   31      0.20      0.00 
    2   22   31      0.47      0.00 
    0    0   32      2.71      0.00 
    1    0   32     -1.95      0.00 
    2    0   32      1.92      0.00 
    3    0   32     -2.00      0.00 
    4    0   32      0.33      0.00 
    5    0   32      0.50      0.00 
    6    0   32     -0.31      0.00 
    7    0   32     -0.17      0.00 
    1    1   32     -0.06      0.00 
    2    1   32     -0.34      0.00 
    3    1   32     -0.17      0.00 
    4    1   32      0.52      0.00 
    5    1   32     -0.29      0.00 
    6    1   32      0.47      0.00 
    7    1   32     -0.15      0.00 
    0    2   32     -1.19      0.00 
    1    2   32      0.69      0.00 
    2    2   32     -1.04      0.00 
    3    2   32      1.70      0.00 
    4    2   32     -0.52      0.00 
    5    2   32     -0.59      0.00 
    6    2   32      0.97      0.00 
    7    2   32     -1.08      0.00 
    1    3   32      0.03      0.00 
    2    3   32      0.55      0.00 
    3    3   32      0.02      0.00 
    4    3   32     -0.16      0.00 
    5    3   32     -0.54      0.00 
    6    3   32     -0.08      0.00 
    7    3   32      0.34      0.00 
    0    4   32      1.36      0.00 
    1    4   32     -1.14      0.00 
    2    4   32      0.75      0.00 
    3    4   32     -0.12      0.00 
    4    4   32     -0.67      0.00 
    5    4   32      0.23      0.00 
    6    4   32      0.56      0.00 
    7    4   32     -0.27      0.00 
    1    5   32      0.38      0.00 
    2    5   32     -0.44      0.00 
    3    5   32      0.17      0.00 
    4    5   32     -0.75      0.00 
    5    5   32      1.12      0.00 
    6    5   32      0.28      0.00 
    0    6   32     -1.10      0.00 
    1    6   32      1.56      0.00 
    2    6   32     -1.95      0.00 
    3    6   32      1.53      0.00 
    4    6   32     -0.53      0.00 
    5    6   32      0.22      0.00 
    6    6   32      0.05      0.00 
    1    7   32     -0.28      0.00 
    2    7   32      0.79      0.00 
    3    7   32     -1.14      0.00 
    4    7   32      0.32      0.00 
    5    7   32      0.72      0.00 
    6    7   32     -1.27      0.00 
    0    8   32      0.16      0.00 
    1    8   32      0.82      0.00 
    2    8   32     -2.02      0.00 
    3    8   32      0.90      0.00 
    4    8   32      0.46      0.00 
    5    8   32     -0.93      0.00 
    6    8   32      0.40      0.00 
    1    9   32     -0.98      0.00 
    2    9   32      0.55      0.00 
    3    9   32      0.20      0.00 
    4    9   32      0.43      0.00 
    5    9   32     -0.12      0.00 
    6    9   32     -0.47      0.00 
    0   10   32     -0.63      0.00 
    1   10   32      0.27      0.00 
    2   10   32      0.27      0.00 
    3   10   32      1.01      0.00 
    4   10   32     -1.49      0.00 
    5   10   32      0.16      0.00 
    6   10   32      1.15      0.00 
    1   11   32      0.87      0.00 
    2   11   32     -0.62      0.00 
    3   11   32     -0.48      0.00 
    4   11   32     -0.43      0.00 
    5   11   32      1.72      0.00 
    6   11   32     -2.20      0.00 
    0   12   32     -1.22      0.00 
    1   12   32     -0.13      0.00 
    2   12   32      0.84      0.00 
    3   12   32     -0.97      0.00 
    4   12   32      0.80      0.00 
    5   12   32      0.77      0.00 
    6   12   32     -3.17      0.00 
    1   13   32     -0.38      0.00 
    2   13   32      1.62      0.00 
    3   13   32     -0.10      0.00 
    4   13   32     -1.67      0.00 
    5   13   32      1.76      0.00 
    0   14   32     -0.39      0.00 
    1   14   32      0.94      0.00 
    2   14   32      0.82      0.00 
    3   14   32     -3.06      0.00 
    4   14   32      3.02      0.00 
    5   14   32     -1.47      0.00 
    1   15   32     -0.13      0.00 
    2   15   32     -1.29      0.00 
    3   15   32      0.65      0.00 
    4   15   32      0.30      0.00 
    5   15   32     -1.46      0.00 
    0   16   32      0.29      0.00 
    1   16   32     -0.87      0.00 
    2   16   32      0.11      0.00 
    3   16   32      0.13      0.00 
    4   16   32     -0.55      0.00 
    5   16   32      1.46      0.00 
    1   17   32     -0.37      0.00 
    2   17   32     -0.24      0.00 
    3   17   32      2.36      0.00 
    4   17   32     -1.51      0.00 
    0   18   32     -0.90      0.00 
    1   18   32      1.91      0.00 
    2   18   32     -1.28      0.00 
    3   18   32      1.18      0.00 
    1   19   32     -1.32      0.00 
    2   19   32      0.63      0.00 
    0   20   32     -1.11      0.00 
    1   20   32     -0.68      0.00 
    2   20   32      1.07      0.00 
    1   21   32      2.30      0.00 
    2   21   32     -2.25      0.00 
    1    1   33     -0.14      0.00 
    2    1   33      0.64      0.00 
    3    1   33     -0.77      0.00 
    4    1   33      0.17      0.00 
    5    1   33     -0.19      0.00 
    6    1   33      0.71      0.00 
    0    2   33     -0.93      0.00 
    1    2   33      0.45      0.00 
    2    2   33      0.53      0.00 
    3    2   33     -2.27      0.00 
    4    2   33      2.41      0.00 
    5    2   33     -0.01      0.00 
    6    2   33     -0.85      0.00 
    1    3   33     -0.92      0.00 
    2    3   33     -0.15      0.00 
    3    3   33      0.67      0.00 
    4    3   33      1.54      0.00 
    5    3   33     -1.84      0.00 
    6    3   33     -0.51      0.00 
    0    4   33      1.41      0.00 
    1    4   33     -1.80      0.00 
    2    4   33      1.77      0.00 
    3    4   33      1.19      0.00 
    4    4   33     -2.99      0.00 
    5    4   33      0.87      0.00 
    6    4   33      0.63      0.00 
    1    5   33      0.92      0.00 
    2    5   33     -0.09      0.00 
    3    5   33     -1.48      0.00 
    4    5   33      0.66      0.00 
    5    5   33     -1.13      0.00 
    6    5   33      2.79      0.00 
    0    6   33      0.63      0.00 
    1    6   33     -0.44      0.00 
    2    6   33     -0.26      0.00 
    3    6   33     -0.64      0.00 
    4    6   33      1.29      0.00 
    5    6   33     -0.43      0.00 
    1    7   33     -0.03      0.00 
    2    7   33      0.01      0.00 
    3    7   33      1.16      0.00 
    4    7   33     -0.58      0.00 
    5    7   33      0.48      0.00 
    0    8   33      0.82      0.00 
    1    8   33      0.04      0.00 
    2    8   33     -0.40      0.00 
    3    8   33      1.16      0.00 
    4    8   33     -1.60      0.00 
    5    8   33      0.31      0.00 
    1    9   33     -0.32      0.00 
    2    9   33      0.85      0.00 
    3    9   33     -2.14      0.00 
    4    9   33      1.44      0.00 
    5    9   33     -1.29      0.00 
    0   10   33      0.36      0.00 
    1   10   33      0.08      0.00 
    2   10   33     -1.82      0.00 
    3   10   33      1.36      0.00 
    4   10   33      0.53      0.00 
    5   10   33     -1.02      0.00 
    1   11   33     -0.64      0.00 
    2   11   33      0.37      0.00 
    3   11   33      0.43      0.00 
    4   11   33      0.76      0.00 
    5   11   33     -0.33      0.00 
    0   12   33     -0.79      0.00 
    1   12   33      1.09      0.00 
    2   12   33     -1.11      0.00 
    3   12   33      2.31      0.00 
    4   12   33     -2.39      0.00 
    5   12   33      0.09      0.00 
    1   13   33      0.28      0.00 
    2   13   33      0.24      0.00 
    3   13   33     -2.05      0.00 
    4   13   33      0.86      0.00 
    5   13   33      0.92      0.00 
    0   14   33     -0.31      0.00 
    1   14   33     -0.49      0.00 
    2   14   33      0.11      0.00 
    3   14   33      0.29      0.00 
    4   14   33      0.32      0.00 
    5   14   33      0.06      0.00 
    1   15   33      0.57      0.00 
    2   15   33      0.84      0.00 
    3   15   33     -0.26      0.00 
    4   15   33     -0.88      0.00 
    0   16   33      0.51      0.00 
    1   16   33      0.00      0.00 
    2   16   33      1.49      0.00 
    3   16   33     -3.23      0.00 
    4   16   33      2.57      0.00 
    1   17   33      0.24      0.00 
    2   17   33     -0.36      0.00 
    3   17   33     -0.67      0.00 
    0   18   33      0.32      0.00 
    1   18   33      0.24      0.00 
    2   18   33     -1.97      0.00 
    3   18   33      1.94      0.00 
    1   19   33     -1.67      0.00 
    2   19   33      0.98      0.00 
    0    0   34     -1.36      0.00 
    1    0   34      1.12      0.00 
    2    0   34     -1.97      0.00 
    3    0   34      2.71      0.00 
    4    0   34     -0.57      0.00 
    5    0   34     -1.67      0.00 
    1    1   34      0.16      0.00 
    2    1   34      0.26      0.00 
    3    1   34      0.34      0.00 
    4    1   34     -1.33      0.00 
    5    1   34      1.26      0.00 
    0    2   34      1.39      0.00 
    1    2   34     -0.68      0.00 
    2    2   34      0.45      0.00 
    3    2   34     -1.23      0.00 
    4    2   34      0.78      0.00 
    5    2   34      0.50      0.00 
    6    2   34     -1.60      0.00 
    1    3   34     -1.32      0.00 
    2    3   34      0.76      0.00 
    3    3   34      0.03      0.00 
    4    3   34     -0.44      0.00 
    5    3   34      0.33      0.00 
    6    3   34      0.44      0.00 
    0    4   34     -2.46      0.00 
    1    4   34      1.57      0.00 
    2    4   34      0.41      0.00 
    3    4   34     -1.71      0.00 
    4    4   34      1.59      0.00 
    5    4   34     -0.21      0.00 
    6    4   34     -0.54      0.00 
    1    5   34      0.51      0.00 
    2    5   34     -0.58      0.00 
    3    5   34     -0.07      0.00 
    4    5   34      1.29      0.00 
    5    5   34     -1.58      0.00 
    6    5   34     -0.03      0.00 
    0    6   34      1.30      0.00 
    1    6   34     -1.62      0.00 
    2    6   34      1.44      0.00 
    3    6   34     -0.62      0.00 
    4    6   34     -0.47      0.00 
    5    6   34      0.71      0.00 
    1    7   34      0.60      0.00 
    2    7   34     -0.92      0.00 
    3    7   34      1.20      0.00 
    4    7   34     -0.41      0.00 
    5    7   34     -0.65      0.00 
    0    8   34      0.58      0.00 
    1    8   34     -1.00      0.00 
    2    8   34      1.70      0.00 
    3    8   34     -0.69      0.00 
    4    8   34     -0.69      0.00 
    5    8   34      1.12      0.00 
    1    9   34      0.52      0.00 
    2    9   34     -0.68      0.00 
    3    9   34      0.30      0.00 
    4    9   34     -0.48      0.00 
    5    9   34      0.08      0.00 
    0   10   34      0.55      0.00 
    1   10   34     -0.64      0.00 
    2   10   34      0.57      0.00 
    3   10   34     -1.46      0.00 
    4   10   34      1.64      0.00 
    5   10   34     -0.54      0.00 
    1   11   34     -0.71      0.00 
    2   11   34      0.61      0.00 
    3   11   34      0.23      0.00 
    4   11   34      0.27      0.00 
    5   11   34     -0.99      0.00 
    0   12   34      1.94      0.00 
    1   12   34     -0.31      0.00 
    2   12   34     -1.34      0.00 
    3   12   34      1.88      0.00 
    4   12   34     -1.19      0.00 
    1   13   34     -0.42      0.00 
    2   13   34     -0.42      0.00 
    3   13   34     -0.37      0.00 
    4   13   34      1.61      0.00 
    0   14   34     -1.35      0.00 
    1   14   34      0.22      0.00 
    2   14   34     -0.19      0.00 
    3   14   34      1.55      0.00 
    1   15   34      0.80      0.00 
    2   15   34      0.39      0.00 
    3   15   34     -0.78      0.00 
    0   16   34      0.06      0.00 
    1   16   34      0.43      0.00 
    2   16   34     -0.40      0.00 
    3   16   34      0.29      0.00 
    1   17   34      0.34      0.00 
    1   18   34     -2.36      0.00 
    1    1   35      0.73      0.00 
    2    1   35     -1.24      0.00 
    3    1   35      0.74      0.00 
    4    1   35      0.33      0.00 
    5    1   35      0.05      0.00 
    0    2   35      1.92      0.00 
    1    2   35     -0.91      0.00 
    2    2   35     -1.24      0.00 
    3    2   35      3.52      0.00 
    4    2   35     -2.98      0.00 
    5    2   35     -0.32      0.00 
    1    3   35      0.19      0.00 
    2    3   35      0.83      0.00 
    3    3   35     -0.90      0.00 
    4    3   35     -1.68      0.00 
    5    3   35      2.07      0.00 
    0    4   35     -1.79      0.00 
    1    4   35      1.96      0.00 
    2    4   35     -1.55      0.00 
    3    4   35     -1.71      0.00 
    4    4   35      4.07      0.00 
    5    4   35     -2.03      0.00 
    1    5   35     -0.96      0.00 
    2    5   35      0.25      0.00 
    3    5   35      1.65      0.00 
    4    5   35     -1.25      0.00 
    5    5   35      1.11      0.00 
    0    6   35     -1.19      0.00 
    1    6   35      0.71      0.00 
    2    6   35      0.47      0.00 
    3    6   35      0.25      0.00 
    4    6   35     -1.48      0.00 
    5    6   35      1.05      0.00 
    1    7   35      0.38      0.00 
    2    7   35     -0.07      0.00 
    3    7   35     -1.46      0.00 
    4    7   35      0.96      0.00 
    0    8   35     -0.18      0.00 
    1    8   35     -0.31      0.00 
    2    8   35      0.30      0.00 
    3    8   35     -0.97      0.00 
    4    8   35      1.59      0.00 
    1    9   35      0.56      0.00 
    2    9   35     -1.29      0.00 
    3    9   35      2.68      0.00 
    4    9   35     -1.85      0.00 
    0   10   35     -1.11      0.00 
    1   10   35      0.89      0.00 
    2   10   35      0.80      0.00 
    3   10   35     -1.19      0.00 
    4   10   35     -0.67      0.00 
    1   11   35      0.47      0.00 
    2   11   35     -0.89      0.00 
    3   11   35      0.04      0.00 
    4   11   35     -0.11      0.00 
    0   12   35      2.05      0.00 
    1   12   35     -2.43      0.00 
    2   12   35      2.03      0.00 
    3   12   35     -1.73      0.00 
    1   13   35     -0.44      0.00 
    2   13   35      0.47      0.00 
    3   13   35      1.39      0.00 
    0   14   35      0.02      0.00 
    1   14   35      0.91      0.00 
    2   14   35     -0.76      0.00 
    1   15   35     -0.77      0.00 
    1   16   35      0.52      0.00 
    0    0   36      1.30      0.00 
    1    0   36     -0.88      0.00 
    2    0   36      1.29      0.00 
    3    0   36     -2.29      0.00 
    1    1   36     -0.62      0.00 
    2    1   36     -0.01      0.00 
    3    1   36     -0.02      0.00 
    4    1   36      1.36      0.00 
    0    2   36     -1.51      0.00 
    1    2   36      0.51      0.00 
    2    2   36      0.55      0.00 
    3    2   36      0.26      0.00 
    4    2   36     -0.72      0.00 
    1    3   36      2.33      0.00 
    2    3   36     -1.82      0.00 
    3    3   36     -0.14      0.00 
    4    3   36      0.84      0.00 
    0    4   36      2.44      0.00 
    1    4   36     -1.12      0.00 
    2    4   36     -1.82      0.00 
    3    4   36      3.02      0.00 
    4    4   36     -1.87      0.00 
    1    5   36     -1.64      0.00 
    2    5   36      1.59      0.00 
    3    5   36     -0.04      0.00 
    4    5   36     -1.20      0.00 
    0    6   36     -1.43      0.00 
    1    6   36      1.20      0.00 
    2    6   36     -0.28      0.00 
    3    6   36     -0.14      0.00 
    4    6   36      0.88      0.00 
    1    7   36     -0.27      0.00 
    2    7   36      0.79      0.00 
    3    7   36     -1.34      0.00 
    4    7   36      0.33      0.00 
    0    8   36     -0.71      0.00 
    1    8   36      0.96      0.00 
    2    8   36     -1.58      0.00 
    3    8   36      0.62      0.00 
    4    8   36      0.67      0.00 
    1    9   36      0.05      0.00 
    2    9   36      0.51      0.00 
    3    9   36     -0.41      0.00 
    4    9   36      0.20      0.00 
    0   10   36     -0.39      0.00 
    1   10   36      0.92      0.00 
    2   10   36     -1.17      0.00 
    3   10   36      1.42      0.00 
    1   11   36      0.41      0.00 
    2   11   36     -0.49      0.00 
    0   12   36     -2.16      0.00 
    1   12   36      0.66      0.00 
    2   12   36      1.43      0.00 
    1   13   36      0.67      0.00 
    2   13   36     -0.57      0.00 
    1   14   36     -0.99      0.00 
    1    1   37     -1.01      0.00 
    2    1   37      1.52      0.00 
    3    1   37     -0.79      0.00 
    0    2   37     -1.50      0.00 
    1    2   37      0.40      0.00 
    2    2   37      1.86      0.00 
    3    2   37     -3.73      0.00 
    1    3   37      0.46      0.00 
    2    3   37     -1.12      0.00 
    3    3   37      0.71      0.00 
    0    4   37      1.60      0.00 
    1    4   37     -1.32      0.00 
    2    4   37      0.56      0.00 
    3    4   37      1.83      0.00 
    1    5   37      0.41      0.00 
    2    5   37     -0.35      0.00 
    3    5   37     -0.88      0.00 
    0    6   37      1.12      0.00 
    1    6   37     -0.83      0.00 
    2    6   37      0.02      0.00 
    3    6   37     -0.42      0.00 
    1    7   37     -0.55      0.00 
    2    7   37      0.26      0.00 
    3    7   37      0.81      0.00 
    0    8   37     -0.34      0.00 
    1    8   37      0.46      0.00 
    2    8   37     -0.45      0.00 
    3    8   37      1.18      0.00 
    1    9   37     -0.55      0.00 
    2    9   37      1.45      0.00 
    0   10   37      1.55      0.00 
    1   10   37     -1.49      0.00 
    1   11   37      0.07      0.00 
    0   12   37     -2.17      0.00 
    1   12   37      2.76      0.00 
    0    0   38     -1.63      0.00 
    1    0   38      0.98      0.00 
    2    0   38     -0.58      0.00 
    1    1   38      0.77      0.00 
    2    1   38     -0.11      0.00 
    0    2   38      1.42      0.00 
    1    2   38     -0.49      0.00 
    2    2   38     -0.97      0.00 
    1    3   38     -2.48      0.00 
    2    3   38      2.31      0.00 
    0    4   38     -1.50      0.00 
    1    4   38      0.40      0.00 
    1    5   38      2.08      0.00 
    0    6   38      1.22      0.00 
    1    6   38     -0.63      0.00 
    2    6   38     -0.55      0.00 
    2    7   38     -0.48      0.00 
    0    8   38      0.26      0.00 
    0    2   39      0.55      0.00 
   12   12    0     -0.73      0.00 
   12   13    0      0.55      0.00 
   12   14    0      1.15      0.00 
   11   17    0      0.16      0.00 
   11   18    0     -0.71      0.00 
   11   19    0      1.97      0.00 
   11   20    0      0.80      0.00 
   10   22    0     -2.88      0.00 
   10   23    0      2.67      0.00 
   10   24    0      1.63      0.00 
    9   27    0      1.47      0.00 
    8   28    0      2.62      0.00 
    8   29    0      0.17      0.00 
    7   30    0     -0.94      0.00 
    7   31    0      0.15      0.00 
    6   33    0      4.15      0.00 
    3   35    0     -0.74      0.00 
    4   35    0      0.58      0.00 
    0   36    0     -0.60      0.00 
    1   36    0      1.89      0.00 
    2   36    0     -3.13      0.00 
    3   36    0      2.14      0.00 
   12   12    1     -4.78      0.00 
   12   13    1     -1.48      0.00 
   12   14    1      3.91      0.00 
   11   17    1     -1.97      0.00 
   11   18    1     -2.70      0.00 
   11   19    1      0.75      0.00 
   11   20    1      0.88      0.00 
   10   22    1      0.51      0.00 
   10   23    1      1.78      0.00 
   10   24    1     -2.68      0.00 
    9   27    1     -0.98      0.00 
    8   28    1     -2.09      0.00 
    8   29    1     -1.38      0.00 
    7   30    1     -3.53      0.00 
    7   31    1      2.18      0.00 
    3   35    1     -3.12      0.00 
    4   35    1      1.82      0.00 
    0   36    1      4.21      0.00 
    1   36    1     -3.11      0.00 
    2   36    1      1.51      0.00 
    3   36    1     -0.36      0.00 
    0    0    2   -232.84      0.00 
   12   13    2     -0.62      0.00 
   12   14    2     -1.19      0.00 
   11   17    2     -0.45      0.00 
   11   18    2      0.34      0.00 
   11   19    2     -1.69      0.00 
   11   20    2     -0.47      0.00 
   10   22    2      2.25      0.00 
   10   23    2     -2.47      0.00 
   10   24    2     -1.42      0.00 
    9   27    2     -1.50      0.00 
    8   28    2     -2.55      0.00 
    8   29    2     -0.36      0.00 
    7   30    2      0.82      0.00 
    7   31    2      0.05      0.00 
    4   35    2     -0.12      0.00 
    0   36    2     -0.34      0.00 
    1   36    2     -1.23      0.00 
    2   36    2      2.67      0.00 
    3   36    2     -1.82      0.00 
   12   13    3      2.04      0.00 
   12   14    3     -3.30      0.00 
   11   17    3      1.45      0.00 
   11   18    3      1.54      0.00 
   11   19    3     -0.46      0.00 
   11   20    3     -1.21      0.00 
   10   22    3     -0.90      0.00 
   10   23    3     -0.82      0.00 
   10   24    3      2.22      0.00 
    9   27    3      0.58      0.00 
    8   28    3      2.12      0.00 
    8   29    3      1.67      0.00 
    7   30    3      3.43      0.00 
    7   31    3     -1.83      0.00 
    6   33    3     -0.46      0.00 
    4   35    3     -1.65      0.00 
    1   36    3      2.77      0.00 
    2   36    3     -0.97      0.00 
    3   36    3      0.11      0.00 
   12   13    4      0.78      0.00 
   12   14    4      1.36      0.00 
   11   17    4      1.08      0.00 
   11   18    4      0.39      0.00 
   11   19    4      0.89      0.00 
   11   20    4     -0.23      0.00 
   10   22    4     -0.77      0.00 
   10   23    4      1.88      0.00 
    9   27    4      1.53      0.00 
    8   28    4      2.38      0.00 
    8   29    4      0.62      0.00 
    7   30    4     -0.71      0.00 
    7   31    4     -0.54      0.00 
    6   33    4      2.04      0.00 
    2   36    4     -1.47      0.00 
    3   36    4      1.10      0.00 
   12   13    5     -2.29      0.00 
   12   14    5      2.57      0.00 
   11   17    5     -0.72      0.00 
   11   18    5     -0.01      0.00 
   11   19    5      0.28      0.00 
   10   22    5      1.40      0.00 
   10   23    5     -0.34      0.00 
    8   28    5     -2.01      0.00 
    8   29    5     -1.99      0.00 
    6   33    5      0.67      0.00 
    5   34    5     -1.06      0.00 
    2   36    5      0.16      0.00 
    3   36    5      0.16      0.00 
   12   13    6     -0.73      0.00 
   11   17    6     -1.31      0.00 
   11   18    6     -0.68      0.00 
   11   19    6      0.14      0.00 
   10   22    6     -0.47      0.00 
   10   23    6     -1.06      0.00 
    9   26    6      0.34      0.00 
    8   28    6     -2.07      0.00 
    8   29    6     -0.45      0.00 
    7   31    6      1.01      0.00 
    5   34    6      1.52      0.00 
    4   35    6      1.64      0.00 
    2   36    6     -0.01      0.00 
    3   36    6     -0.37      0.00 
   12    9    7     -0.86      0.00 
   12   10    7     -2.64      0.00 
   12   13    7      1.61      0.00 
   11   17    7      0.06      0.00 
   11   18    7     -0.95      0.00 
   11   19    7     -0.40      0.00 
   10   22    7     -1.60      0.00 
   10   23    7      0.96      0.00 
    9   26    7      0.32      0.00 
    8   28    7      1.64      0.00 
    8   29    7      2.09      0.00 
    7   31    7      0.09      0.00 
    5   34    7      1.40      0.00 
    4   35    7     -1.18      0.00 
    2   36    7      0.51      0.00 
    3   36    7     -0.23      0.00 
   12    9    8      2.05      0.00 
   12   10    8     -0.06      0.00 
   12   11    8     -3.31      0.00 
   12   12    8     -1.56      0.00 
   11   17    8      0.70      0.00 
   11   18    8      0.27      0.00 
   10   22    8      0.69      0.00 
   10   23    8      0.36      0.00 
    9   26    8     -0.12      0.00 
    4   35    8     -1.74      0.00 
    2   36    8      1.14      0.00 
   12    8    9      0.99      0.00 
   12    9    9     -0.06      0.00 
   12   10    9      1.94      0.00 
   12   11    9      0.54      0.00 
   12   12    9     -3.20      0.00 
   11   17    9      0.38      0.00 
   11   18    9      0.91      0.00 
   10   22    9      1.32      0.00 
    9   25    9     -0.74      0.00 
    6   32    9     -0.24      0.00 
    2   36    9     -0.70      0.00 
   12    7   10      2.33      0.00 
   12    8   10     -0.45      0.00 
   12    9   10     -1.39      0.00 
   12   10   10     -0.95      0.00 
   12   11   10      1.49      0.00 
   11   17   10      0.47      0.00 
   11   18   10      0.35      0.00 
   10   22   10      0.03      0.00 
    9   25   10      0.28      0.00 
    8   28   10     -1.00      0.00 
    6   32   10     -1.10      0.00 
    1   35   10      1.11      0.00 
    2   35   10     -0.55      0.00 
    3   35   10     -1.45      0.00 
    0   36   10     -3.79      0.00 
    1   36   10      2.69      0.00 
   12    6   11      2.91      0.00 
   12    7   11     -0.87      0.00 
   12    8   11     -0.82      0.00 
   12    9   11      0.65      0.00 
   12   10   11     -0.96      0.00 
   11   16   11     -1.14      0.00 
   11   17   11     -0.54      0.00 
    9   25   11     -0.07      0.00 
    7   30   11      3.29      0.00 
    5   32   11     -1.69      0.00 
    5   33   11      0.42      0.00 
    0   34   11     -2.68      0.00 
    4   34   11      0.60      0.00 
    1   35   11     -2.36      0.00 
    3   35   11      0.55      0.00 
    0   36   11      0.15      0.00 
    1   36   11      0.01      0.00 
   12    5   12      1.81      0.00 
   12    6   12      0.25      0.00 
   12    7   12     -1.78      0.00 
   12    8   12     -0.27      0.00 
   12    9   12      0.43      0.00 
   11   16   12      2.18      0.00 
   10   21   12      0.09      0.00 
    6   31   12      0.67      0.00 
    5   32   12      0.29      0.00 
    0   34   12     -2.67      0.00 
    1   34   12      3.14      0.00 
    3   34   12      0.74      0.00 
    1   35   12     -1.19      0.00 
   12    5   13      1.45      0.00 
   12    6   13     -1.23      0.00 
   12    7   13      0.81      0.00 
   12    8   13      0.23      0.00 
   11   16   13      1.23      0.00 
    9   24   13     -0.16      0.00 
    8   27   13      1.83      0.00 
    7   29   13      0.35      0.00 
    5   31   13     -1.70      0.00 
    6   31   13      1.70      0.00 
    5   32   13      0.88      0.00 
    4   33   13      0.06      0.00 
    0   34   13      3.54      0.00 
    3   34   13      1.52      0.00 
    1   35   13      1.32      0.00 
    2   35   13     -1.17      0.00 
   12    4   14     -0.07      0.00 
   12    6   14     -0.34      0.00 
   11   15   14     -0.77      0.00 
   10   20   14     -1.30      0.00 
    9   22   14     -0.02      0.00 
    9   23   14      0.75      0.00 
    6   30   14      1.29      0.00 
    5   31   14      2.15      0.00 
    5   32   14     -0.82      0.00 
    4   33   14      1.34      0.00 
    0   34   14      2.03      0.00 
    2   34   14      2.15      0.00 
    3   34   14      0.16      0.00 
    1   35   14      1.00      0.00 
   12    2   15      0.81      0.00 
   12    3   15      1.99      0.00 
   12    4   15      0.37      0.00 
   11   14   15     -0.28      0.00 
   10   18   15      0.52      0.00 
   10   19   15      0.66      0.00 
    9   22   15      0.18      0.00 
    9   23   15      1.55      0.00 
    8   26   15     -1.56      0.00 
    7   28   15     -0.79      0.00 
    6   29   15     -0.67      0.00 
    5   30   15     -0.59      0.00 
    6   30   15     -1.11      0.00 
    5   31   15      1.89      0.00 
    0   34   15     -3.31      0.00 
    2   34   15      0.73      0.00 
   11   12   16      0.98      0.00 
   11   13   16      0.71      0.00 
   10   17   16     -0.33      0.00 
   10   18   16     -2.25      0.00 
    9   21   16      0.82      0.00 
    9   22   16     -0.13      0.00 
    8   25   16     -0.55      0.00 
    6   29   16      0.24      0.00 
    5   30   16      1.46      0.00 
    5   31   16     -1.81      0.00 
    2   33   16      1.08      0.00 
    3   33   16      0.01      0.00 
    0   34   16     -1.41      0.00 
    1   34   16      2.17      0.00 
   11   11   17     -0.89      0.00 
   11   12   17     -2.38      0.00 
   10   17   17     -1.46      0.00 
   10   18   17     -1.24      0.00 
    9   21   17     -1.19      0.00 
    9   22   17     -0.24      0.00 
    8   25   17     -3.08      0.00 
    7   27   17     -0.61      0.00 
    6   28   17      0.26      0.00 
    5   29   17      0.88      0.00 
    6   29   17      0.66      0.00 
    5   30   17      0.91      0.00 
    1   33   17     -0.27      0.00 
    2   33   17      0.65      0.00 
    0   34   17      2.23      0.00 
   11    9   18     -0.72      0.00 
   11   11   18     -0.49      0.00 
   10   16   18      0.83      0.00 
   10   17   18      0.44      0.00 
    9   20   18      0.87      0.00 
    9   21   18     -0.10      0.00 
    8   24   18     -0.87      0.00 
    7   26   18      0.87      0.00 
    6   28   18     -1.42      0.00 
    5   29   18      0.13      0.00 
    5   30   18     -1.32      0.00 
    4   31   18     -2.37      0.00 
    2   32   18     -0.80      0.00 
    1   33   18      0.07      0.00 
    2   33   18     -0.61      0.00 
   11    8   19      0.93      0.00 
   11    9   19     -0.11      0.00 
   10   16   19     -0.72      0.00 
    9   20   19     -0.10      0.00 
    7   26   19      1.54      0.00 
    6   28   19      0.35      0.00 
    5   29   19     -0.56      0.00 
    4   30   19      1.10      0.00 
    2   32   19     -1.97      0.00 
   11    2   20      0.68      0.00 
   11    3   20      0.51      0.00 
   11    4   20     -1.32      0.00 
   11    5   20     -0.81      0.00 
   11    6   20     -0.33      0.00 
   11    7   20      0.36      0.00 
   10   15   20     -0.59      0.00 
    9   19   20     -1.93      0.00 
    7   25   20      1.63      0.00 
    6   27   20      0.10      0.00 
    5   28   20     -1.82      0.00 
    5   29   20     -0.07      0.00 
    4   30   20     -1.64      0.00 
    3   31   20     -0.54      0.00 
    0   32   20     -0.61      0.00 
    1   32   20      0.20      0.00 
   11    1   21      0.20      0.00 
   11    2   21      0.40      0.00 
   11    3   21      0.96      0.00 
   11    4   21      0.95      0.00 
   10   13   21     -0.96      0.00 
    8   22   21     -1.24      0.00 
    5   28   21      0.02      0.00 
    4   29   21      1.42      0.00 
    1   31   21      0.32      0.00 
    2   31   21     -0.26      0.00 
   10    9   22     -0.07      0.00 
   10   10   22     -1.45      0.00 
   10   11   22     -0.34      0.00 
   10   12   22     -0.20      0.00 
    9   17   22      0.23      0.00 
    8   21   22     -0.23      0.00 
    6   26   22     -0.54      0.00 
    4   29   22      0.82      0.00 
    3   30   22     -1.32      0.00 
    1   31   22     -1.11      0.00 
   10    9   23      1.81      0.00 
   10   10   23     -1.60      0.00 
    9   16   23     -0.94      0.00 
    8   20   23      0.18      0.00 
    7   23   23      1.14      0.00 
    6   25   23     -1.42      0.00 
    5   27   23      0.76      0.00 
    4   28   23     -0.72      0.00 
    2   30   23      0.38      0.00 
   10    2   24      0.90      0.00 
   10    3   24     -0.13      0.00 
   10    4   24      1.10      0.00 
   10    5   24      1.22      0.00 
   10    6   24      0.23      0.00 
   10    7   24     -1.21      0.00 
   10    8   24      0.89      0.00 
    9   15   24      0.93      0.00 
    8   19   24      0.26      0.00 
    7   22   24     -0.15      0.00 
    6   24   24     -0.37      0.00 
    5   26   24     -0.19      0.00 
    4   27   24      0.21      0.00 
    0   28   24     -2.38      0.00 
    1   29   24     -1.42      0.00 
    2   29   24      0.72      0.00 
   10    2   25      0.09      0.00 
   10    3   25     -1.58      0.00 
   10    4   25     -1.91      0.00 
   10    5   25      0.57      0.00 
    9   13   25     -0.53      0.00 
    8   17   25     -0.27      0.00 
    8   18   25      1.16      0.00 
    7   20   25     -0.83      0.00 
    7   21   25     -0.09      0.00 
    6   23   25     -0.15      0.00 
    5   25   25     -0.68      0.00 
    0   28   25     -1.05      0.00 
    1   28   25      0.77      0.00 
    1   29   25     -1.37      0.00 
    9   11   26     -0.08      0.00 
    8   16   26     -0.21      0.00 
    7   18   26      0.66      0.00 
    7   19   26      0.19      0.00 
    7   20   26     -1.39      0.00 
    6   22   26      0.15      0.00 
    5   23   26      0.31      0.00 
    5   24   26     -0.75      0.00 
    3   26   26     -0.74      0.00 
    1   27   26      1.09      0.00 
    3   27   26      0.57      0.00 
    0   28   26      2.33      0.00 
    1   28   26     -1.33      0.00 
    9    7   27      0.54      0.00 
    9    8   27     -0.11      0.00 
    9    9   27     -1.19      0.00 
    8   15   27      0.84      0.00 
    7   17   27     -1.02      0.00 
    7   18   27     -0.14      0.00 
    6   21   27      0.18      0.00 
    5   22   27     -0.36      0.00 
    5   23   27     -0.87      0.00 
    4   24   27     -0.02      0.00 
    4   25   27     -0.35      0.00 
    0   26   27      0.48      0.00 
    3   26   27     -0.61      0.00 
    1   27   27     -2.37      0.00 
    9    0   28     -0.57      0.00 
    9    3   28     -1.27      0.00 
    9    4   28     -0.83      0.00 
    9    5   28     -0.28      0.00 
    9    6   28     -0.97      0.00 
    8   12   28     -2.50      0.00 
    8   13   28     -0.40      0.00 
    7   16   28      0.97      0.00 
    7   17   28     -0.04      0.00 
    5   20   28      1.43      0.00 
    6   20   28     -1.72      0.00 
    5   21   28     -1.00      0.00 
    5   22   28     -0.66      0.00 
    4   23   28      1.85      0.00 
    4   24   28      0.36      0.00 
    3   25   28      1.72      0.00 
    0   26   28      3.81      0.00 
    1   26   28     -1.30      0.00 
    2   26   28     -0.65      0.00 
    8    6   29     -0.37      0.00 
    8    7   29     -0.51      0.00 
    8    8   29      0.07      0.00 
    8    9   29      0.56      0.00 
    8   10   29      1.08      0.00 
    8   11   29      0.04      0.00 
    7   15   29      0.19      0.00 
    6   19   29      0.58      0.00 
    5   20   29      0.78      0.00 
    4   21   29     -0.85      0.00 
    5   21   29      0.93      0.00 
    4   22   29      0.67      0.00 
    0   24   29     -2.91      0.00 
    3   24   29     -0.76      0.00 
    1   25   29      0.97      0.00 
    2   25   29     -0.04      0.00 
    8    4   30     -0.15      0.00 
    8    5   30      0.70      0.00 
    8    6   30     -0.38      0.00 
    8    7   30     -0.55      0.00 
    8    8   30     -0.02      0.00 
    7   14   30      2.45      0.00 
    6   17   30     -0.68      0.00 
    4   19   30      1.32      0.00 
    4   20   30     -1.20      0.00 
    4   21   30      0.20      0.00 
    3   22   30     -0.24      0.00 
    3   23   30      3.30      0.00 
    0   24   30      3.00      0.00 
    1   24   30     -1.17      0.00 
    8    1   31     -0.42      0.00 
    8    2   31     -0.32      0.00 
    8    3   31      0.75      0.00 
    8    4   31     -0.30      0.00 
    7    5   31      1.65      0.00 
    7    6   31      0.10      0.00 
    7    7   31     -1.07      0.00 
    7    8   31      0.44      0.00 
    7    9   31      1.76      0.00 
    7   10   31      1.68      0.00 
    7   11   31     -1.25      0.00 
    7   12   31      0.21      0.00 
    6   15   31      0.93      0.00 
    4   18   31      0.75      0.00 
    5   18   31     -0.45      0.00 
    4   19   31      2.12      0.00 
    3   20   31      0.40      0.00 
    4   20   31      0.22      0.00 
    3   21   31     -0.50      0.00 
    1   23   31      0.63      0.00 
    7    5   32     -0.35      0.00 
    7    6   32     -0.63      0.00 
    7    7   32      0.10      0.00 
    7    8   32      0.54      0.00 
    7    9   32      1.01      0.00 
    6   13   32     -0.13      0.00 
    6   14   32      0.92      0.00 
    4   18   32     -1.33      0.00 
    3   19   32     -0.43      0.00 
    4   19   32     -0.84      0.00 
    3   20   32     -0.91      0.00 
    0   22   32      0.75      0.00 
    1   22   32      0.13      0.00 
    7    1   33     -0.66      0.00 
    7    2   33     -0.27      0.00 
    7    3   33      1.59      0.00 
    7    4   33     -0.35      0.00 
    7    5   33     -2.09      0.00 
    6    6   33      0.64      0.00 
    6    7   33     -1.27      0.00 
    6    8   33      0.03      0.00 
    6    9   33      1.82      0.00 
    6   10   33      1.80      0.00 
    6   11   33     -1.16      0.00 
    5   15   33      1.52      0.00 
    4   17   33      0.64      0.00 
    3   19   33      1.55      0.00 
    0   20   33     -1.73      0.00 
    1   20   33      1.11      0.00 
    2   20   33      0.43      0.00 
    6    0   34      1.63      0.00 
    6    1   34     -0.52      0.00 
    6    6   34     -0.39      0.00 
    6    7   34      1.22      0.00 
    6    8   34     -0.41      0.00 
    5   12   34     -0.58      0.00 
    5   13   34     -1.87      0.00 
    4   14   34     -2.13      0.00 
    4   15   34      0.15      0.00 
    2   17   34      0.39      0.00 
    3   17   34     -1.74      0.00 
    0   18   34      1.64      0.00 
    2   18   34      1.84      0.00 
    1   19   34      1.40      0.00 
    6    1   35     -1.02      0.00 
    6    2   35      1.12      0.00 
    6    3   35      0.42      0.00 
    6    4   35     -0.26      0.00 
    5    7   35     -0.52      0.00 
    5    8   35     -0.35      0.00 
    5    9   35      0.82      0.00 
    5   10   35      1.69      0.00 
    4   12   35      1.67      0.00 
    4   13   35     -1.38      0.00 
    3   14   35      0.02      0.00 
    2   15   35     -0.76      0.00 
    3   15   35      0.49      0.00 
    0   16   35     -1.47      0.00 
    2   16   35     -1.08      0.00 
    1   17   35     -0.01      0.00 
    4    0   36      0.38      0.00 
    5    0   36      2.50      0.00 
    5    1   36     -1.45      0.00 
    5    2   36     -0.46      0.00 
    5    3   36     -0.13      0.00 
    5    4   36      0.25      0.00 
    5    5   36      1.43      0.00 
    5    6   36     -1.59      0.00 
    4   10   36     -1.23      0.00 
    3   11   36      0.05      0.00 
    3   12   36     -2.42      0.00 
    3   13   36      0.74      0.00 
    0   14   36      2.04      0.00 
    2   14   36     -0.08      0.00 
    1   15   36     -1.11      0.00 
    4    1   37     -0.35      0.00 
    4    2   37      2.65      0.00 
    4    3   37      1.38      0.00 
    4    4   37     -3.72      0.00 
    4    5   37      1.08      0.00 
    4    6   37      1.37      0.00 
    4    7   37     -0.29      0.00 
    3    9   37     -2.38      0.00 
    2   10   37      0.19      0.00 
    3   10   37      0.75      0.00 
    2   11   37      0.78      0.00 
    2   12   37     -2.51      0.00 
    1   13   37      0.31      0.00 
    3    0   38      1.32      0.00 
    3    1   38     -0.45      0.00 
    3    2   38      0.48      0.00 
    3    3   38     -0.10      0.00 
    2    4   38      2.28      0.00 
    3    4   38     -3.05      0.00 
    2    5   38     -2.02      0.00 
    3    5   38      0.21      0.00 
    3    6   38      0.32      0.00 
    1    7   38     -0.18      0.00 
    1    8   38     -0.61      0.00 
    2    8   38      1.48      0.00 
    1    9   38     -0.39      0.00 
    2    9   38     -0.30      0.00 
    0   10   38      0.32      0.00 
    1   10   38     -0.96      0.00 
    1    1   39      0.97      0.00 
    2    1   39     -1.51      0.00 
    1    2   39      0.23      0.00 
    2    2   39     -1.82      0.00 
    1    3   39     -0.64      0.00 
    2    3   39      0.95      0.00 
    0    4   39     -0.87      0.00 
    1    4   39      0.48      0.00 
    1    5   39      0.03      0.00 
    0    6   39     -0.76      0.00 
    1    6   39      0.66      0.00 
    0    0    0      0.00      0.00 
# SQUEEZE RESULTS (Version =  30715) 
# Note: Data are Listed for all Voids in the P1 Unit Cell 
# i.e. Centre of Gravity, Solvent Accessible Volume, 
# Recovered number of Electrons in the Void and 
# Details about the Squeezed Material 
loop_ 
  _platon_squeeze_void_nr 
  _platon_squeeze_void_average_x 
  _platon_squeeze_void_average_y 
  _platon_squeeze_void_average_z 
  _platon_squeeze_void_volume 
  _platon_squeeze_void_count_electrons 
  _platon_squeeze_void_content 
   1  0.577 -0.185  0.250       232        60 ' ' 
   2  0.423  0.184  0.750       232        60 ' ' 
   3  0.423  0.315  0.250       231        60 ' ' 
   4  0.577  0.684  0.750       232        60 ' ' 
# Missing Reflections Below sin(th)/lambda = 0.25 
loop_ 
  _platon_missing_refln_index_h 
  _platon_missing_refln_index_k 
  _platon_missing_refln_index_l 
  _platon_missing_refln_theta 
    0    0    2     1.412 
_platon_squeeze_void_probe_radius                  1.20 
_platon_squeeze_details 
) 
TITL jyy127    P b c m      R = 0.08 
CELL    9.5075   27.3543   28.8412     90.00     90.00     90.00 
SPGR Pbcm 
# Solvent Accessible Volume =     968.6 
# Electrons Found in S.A.V. =     239.9 
# Note: Atoms in Void as Cxxx and Qxxx all others 
Q101 0.281 0.828 0.248 !       3.84 eA-3 
Q102 0.975 0.328 0.248 !       3.69 eA-3 
C103 0.532 0.727 0.247 !       2.86 eA-3 
Q104 0.320 0.590 0.040 !       2.78 eA-3 
C105 0.626 0.961 0.252 !       2.32 eA-3 
C106 0.656 0.745 0.229 !       2.16 eA-3 
Q107 0.728 0.062 0.447 !       2.14 eA-3 
Q108 0.213 0.673 0.414 !       1.84 eA-3 
C109 0.453 0.430 0.252 !       1.78 eA-3 
Q110 0.629 0.326 0.212 !       1.51 eA-3 
Q111 0.838 0.672 0.103 !       1.50 eA-3 
Q112 0.377 0.585 0.186 !       1.43 eA-3 
Q113 0.476 0.623 0.374 !       1.34 eA-3 
Q114 0.101 0.133 0.251 !       1.33 eA-3 
Q115 0.173 0.194 0.443 !       1.31 eA-3 
Q116 0.270 0.154 0.377 !       1.27 eA-3 
Q117 0.306 0.918 0.234 !       1.23 eA-3 
C118 0.566 0.867 0.247 !       1.22 eA-3 
C119 0.503 0.359 0.251 !       1.20 eA-3 
C120 0.599 0.398 0.254 !       1.16 eA-3 
Q121 0.394 0.809 0.038 !       1.16 eA-3 
Q122 0.721 0.057 0.147 !       1.15 eA-3 
C123 0.469 0.742 0.249 !       1.11 eA-3 
Q124 0.303 0.303 0.493 !       1.11 eA-3 
Q125 0.787 0.391 0.249 !       1.10 eA-3 
C126 0.639 0.878 0.290 !       1.08 eA-3 
Q127 0.032 0.917 0.280 !       1.07 eA-3 
Q128 0.033 0.589 0.782 !       1.06 eA-3 
Q129 0.164 0.531 0.174 !       1.03 eA-3 
C130 0.677 0.875 0.187 !       1.01 eA-3 
Q131 0.165 0.802 0.233 !       1.00 eA-3 
Q132 0.643 0.305 0.250 !       0.98 eA-3 
Q133 0.423 0.155 0.063 !       0.98 eA-3 
C134 0.355 0.695 0.253 !       0.96 eA-3 
Q135 0.652 0.273 0.116 !       0.94 eA-3 
C136 0.512 0.350 0.229 !       0.93 eA-3 
Q137 0.501 0.284 0.438 !       0.90 eA-3 
C138 0.549 0.338 0.202 !       0.90 eA-3 
Q139 0.415 0.303 0.039 !       0.89 eA-3 
Q140 0.400 0.858 0.228 !       0.89 eA-3 
Q141 0.319 0.911 0.285 !       0.89 eA-3 
C142 0.645 0.908 0.267 !       0.88 eA-3 
Q143 0.529 0.305 0.250 !       0.88 eA-3 
Q144 0.151 0.785 0.293 !       0.88 eA-3 
Q145 0.540 0.632 0.095 !       0.88 eA-3 
Q146 0.621 0.380 0.227 !       0.85 eA-3 
Q147 0.365 0.578 0.369 !       0.84 eA-3 
Q148 0.804 0.398 0.291 !       0.83 eA-3 
Q149 0.594 0.190 0.501 !       0.83 eA-3 
Q150 0.417 0.145 0.391 !       0.82 eA-3 
Q151 0.298 0.181 0.462 !       0.82 eA-3 
Q152 0.133 0.817 0.216 !       0.82 eA-3 
Q153 0.638 0.307 0.421 !       0.82 eA-3 
Q154 0.298 0.031 0.267 !       0.82 eA-3 
C155 0.445 0.863 0.200 !       0.81 eA-3 
C156 0.292 0.360 0.308 !       0.81 eA-3 
C157 0.329 0.235 0.180 !       0.80 eA-3 
Q158 0.203 0.156 0.415 !       0.80 eA-3 
Q159 0.060 0.524 0.412 !       0.79 eA-3 
Q160 0.632 0.295 0.134 !       0.78 eA-3 
Q161 0.778 0.777 0.282 !       0.77 eA-3 
Q162 0.222 0.392 0.280 !       0.76 eA-3 
C163 0.405 0.273 0.248 !       0.75 eA-3 
Q164 0.497 0.422 0.131 !       0.75 eA-3 
Q165 0.095 0.107 0.306 !       0.74 eA-3 
Q166 0.171 0.700 0.330 !       0.73 eA-3 
Q167 0.469 0.610 0.313 !       0.71 eA-3 
Q168 0.969 0.202 0.331 !       0.70 eA-3 
Q169 0.409 0.297 0.084 !       0.70 eA-3 
Q170 0.914 1.000 0.139 !       0.69 eA-3 
Q171 0.761 0.829 0.194 !       0.69 eA-3 
Q172 0.796 0.795 0.194 !       0.68 eA-3 
Q173 0.975 0.109 0.251 !       0.68 eA-3 
Q174 0.796 0.805 0.248 !       0.68 eA-3 
Q175 0.052 0.038 0.412 !       0.66 eA-3 
C176 0.535 0.709 0.304 !       0.66 eA-3 
Q177 0.730 0.784 0.195 !       0.66 eA-3 
Q178 0.765 0.283 0.282 !       0.66 eA-3 
Q179 0.775 0.859 0.249 !       0.65 eA-3 
Q180 0.852 0.773 0.250 !       0.65 eA-3 
Q181 0.734 0.381 0.290 !       0.65 eA-3 
Q182 0.672 0.359 0.256 !       0.64 eA-3 
Q183 0.755 0.195 0.251 !       0.64 eA-3 
Q184 0.455 0.774 0.398 !       0.64 eA-3 
Q185 0.455 0.727 0.899 !       0.63 eA-3 
Q186 0.168 0.252 0.230 !       0.63 eA-3 
Q187 0.628 0.118 0.448 !       0.62 eA-3 
Q188 0.554 0.669 0.033 !       0.61 eA-3 
Q189 0.440 0.625 0.327 !       0.61 eA-3 
C190 0.693 0.850 0.240 !       0.60 eA-3 
Q191 0.412 0.773 0.269 !       0.60 eA-3 
C192 0.566 0.438 0.250 !       0.60 eA-3 
C193 0.518 0.828 0.267 !       0.60 eA-3 
C194 0.333 0.331 0.314 !       0.59 eA-3 
Q195 0.479 0.648 0.495 !       0.59 eA-3 
Q196 0.561 0.160 0.024 !       0.58 eA-3 
Q197 0.170 0.344 0.252 !       0.58 eA-3 
Q198 0.198 0.507 0.157 !       0.58 eA-3 
Q199 0.734 0.945 0.248 !       0.58 eA-3 
) 
;
_shelx_fab_checksum              12956
loop_
_space_group_symop_operation_xyz
'x, y, z'
'-x, -y, z+1/2'
'-x, y+1/2, -z+1/2'
'x, -y+1/2, -z'
'-x, -y, -z'
'x, y, -z-1/2'
'x, -y-1/2, z-1/2'
'-x, y-1/2, z'
loop_
_atom_site_label
_atom_site_type_symbol
_atom_site_fract_x
_atom_site_fract_y
_atom_site_fract_z
_atom_site_U_iso_or_equiv
_atom_site_adp_type
_atom_site_occupancy
_atom_site_site_symmetry_order
_atom_site_calc_flag
_atom_site_refinement_flags_posn
_atom_site_refinement_flags_adp
_atom_site_refinement_flags_occupancy
Ba1 Ba 0.67311(3) 0.41891(2) 0.55726(2) 0.02578(12) Uani 1 1 d . . .
Fe1 Fe 0.64597(10) 0.30856(3) 0.47886(4) 0.0372(2) Uani 1 1 d . . .
S1 S 0.56136(15) 0.48408(5) 0.43690(4) 0.0269(3) Uani 1 1 d . . .
F1 F 0.5754(6) 0.40813(14) 0.38266(15) 0.0587(12) Uani 1 1 d . . .
F2 F 0.7527(5) 0.45597(17) 0.37740(15) 0.0561(11) Uani 1 1 d . . .
F3 F 0.5564(5) 0.47650(15) 0.34636(12) 0.0514(11) Uani 1 1 d . . .
O1 O 0.5333(4) 0.34067(15) 0.5260(2) 0.0465(12) Uani 1 1 d . . .
O2 O 0.7841(4) 0.35875(13) 0.48934(14) 0.0275(8) Uani 1 1 d . . .
O3 O 0.9579(4) 0.41922(15) 0.52857(17) 0.0379(10) Uani 1 1 d . . .
O4 O 0.8719(6) 0.47333(19) 0.60385(18) 0.0514(13) Uani 1 1 d . . .
O5 O 0.6345(7) 0.4333(2) 0.65165(17) 0.0676(18) Uani 1 1 d . . .
O6 O 0.4608(6) 0.36342(18) 0.6086(2) 0.068(2) Uani 1 1 d . . .
O7 O 0.6918(8) 0.2500 0.5000 0.0491(18) Uani 1 2 d S T P
O8 O 0.6385(6) 0.45697(19) 0.47090(15) 0.0509(13) Uani 1 1 d . . .
O9 O 0.6040(4) 0.53462(14) 0.43159(15) 0.0330(9) Uani 1 1 d . . .
O10 O 0.4104(5) 0.47857(15) 0.43795(15) 0.0358(9) Uani 1 1 d . . .
N1 N 0.4558(8) 0.3005(3) 0.4415(3) 0.073(3) Uani 1 1 d . . .
N2 N 0.7180(9) 0.3065(2) 0.4099(2) 0.0585(19) Uani 1 1 d . . .
N3 N 0.8067(8) 0.3440(3) 0.6163(3) 0.074(2) Uani 1 1 d . . .
C1 C 0.3984(4) 0.33180(16) 0.5357(2) 0.061(3) Uani 1 1 d G . .
C2 C 0.3561(5) 0.34387(18) 0.5804(2) 0.073(3) Uani 1 1 d G . .
C3 C 0.2170(6) 0.3370(2) 0.5938(2) 0.106(5) Uani 1 1 d G . .
H3A H 0.1882 0.3452 0.6243 0.127 Uiso 1 1 calc R U .
C4 C 0.1203(4) 0.3180(2) 0.5624(3) 0.101(5) Uani 1 1 d G . .
H4A H 0.0252 0.3133 0.5716 0.122 Uiso 1 1 calc R U .
C5 C 0.1625(4) 0.30591(19) 0.5177(3) 0.100(5) Uani 1 1 d G . .
H5A H 0.0964 0.2929 0.4963 0.120 Uiso 1 1 calc R U .
C6 C 0.3016(5) 0.31282(17) 0.5044(2) 0.092(5) Uani 1 1 d G . .
C7 C 0.3370(10) 0.2998(3) 0.4552(4) 0.070(3) Uani 1 1 d . . .
H7A H 0.2637 0.2909 0.4345 0.084 Uiso 1 1 calc R U .
C8 C 0.4705(14) 0.2919(4) 0.3918(4) 0.098(4) Uani 1 1 d . . .
H8A H 0.4029 0.2666 0.3815 0.118 Uiso 1 1 calc R U .
H8B H 0.4512 0.3224 0.3745 0.118 Uiso 1 1 calc R U .
C9 C 0.6107(16) 0.2761(4) 0.3835(4) 0.121(6) Uani 1 1 d . . .
H9A H 0.6308 0.2783 0.3499 0.145 Uiso 1 1 calc R U .
H9B H 0.6199 0.2414 0.3928 0.145 Uiso 1 1 calc R U .
C10 C 0.8301(10) 0.3252(3) 0.3937(3) 0.056(2) Uani 1 1 d . . .
H10A H 0.8520 0.3190 0.3621 0.067 Uiso 1 1 calc R U .
C11 C 0.9237(9) 0.3542(3) 0.4192(2) 0.0480(17) Uani 1 1 d . . .
C12 C 1.0531(12) 0.3699(4) 0.3969(3) 0.078(3) Uani 1 1 d . . .
H12A H 1.0738 0.3590 0.3664 0.094 Uiso 1 1 calc R U .
C13 C 1.1460(11) 0.4004(4) 0.4192(4) 0.082(4) Uani 1 1 d . . .
H13A H 1.2317 0.4095 0.4046 0.098 Uiso 1 1 calc R U .
C14 C 1.1143(8) 0.4174(3) 0.4621(4) 0.064(3) Uani 1 1 d . . .
H14A H 1.1774 0.4394 0.4768 0.077 Uiso 1 1 calc R U .
C15 C 0.9935(6) 0.4037(2) 0.4850(3) 0.0394(15) Uani 1 1 d . . .
C16 C 0.8968(6) 0.3713(2) 0.4642(2) 0.0332(12) Uani 1 1 d . . .
C17 C 1.0582(7) 0.4480(3) 0.5551(3) 0.057(2) Uani 1 1 d . . .
H17A H 1.0665 0.4811 0.5415 0.068 Uiso 1 1 calc R U .
H17B H 1.1519 0.4323 0.5541 0.068 Uiso 1 1 calc R U .
C18 C 1.0083(8) 0.4516(3) 0.6042(3) 0.059(2) Uani 1 1 d . . .
H18A H 1.0038 0.4186 0.6183 0.071 Uiso 1 1 calc R U .
H18B H 1.0740 0.4718 0.6226 0.071 Uiso 1 1 calc R U .
C19 C 0.8234(11) 0.4900(4) 0.6490(3) 0.074(3) Uani 1 1 d . . .
H19A H 0.7568 0.5174 0.6446 0.089 Uiso 1 1 calc R U .
H19B H 0.9049 0.5026 0.6668 0.089 Uiso 1 1 calc R U .
C20 C 0.7524(13) 0.4506(4) 0.6769(3) 0.080(3) Uani 1 1 d . . .
H20A H 0.8189 0.4234 0.6827 0.096 Uiso 1 1 calc R U .
H20B H 0.7216 0.4638 0.7072 0.096 Uiso 1 1 calc R U .
C21 C 0.5395(14) 0.3981(4) 0.6763(3) 0.087(4) Uani 1 1 d . . .
H21A H 0.5939 0.3683 0.6840 0.104 Uiso 1 1 calc R U .
H21B H 0.5091 0.4131 0.7059 0.104 Uiso 1 1 calc R U .
C22 C 0.4179(10) 0.3842(4) 0.6508(3) 0.072(3) Uani 1 1 d . . .
H22A H 0.3621 0.3602 0.6687 0.086 Uiso 1 1 calc R U .
H22B H 0.3582 0.4132 0.6448 0.086 Uiso 1 1 calc R U .
C23 C 0.8512(13) 0.3212(4) 0.6468(4) 0.086(3) Uani 1 1 d . . .
C24 C 0.904(2) 0.2911(5) 0.6807(6) 0.166(9) Uani 1 1 d . . .
H24A H 0.8263 0.2754 0.6974 0.250 Uiso 1 1 calc R U .
H24B H 0.9603 0.3104 0.7026 0.250 Uiso 1 1 calc R U .
H24C H 0.9636 0.2659 0.6665 0.250 Uiso 1 1 calc R U .
C25 C 0.6137(7) 0.4549(2) 0.3825(2) 0.0356(13) Uani 1 1 d . . .
S2 S 1.1317(3) 0.39234(11) 0.7500 0.0527(6) Uani 1 2 d DS T P
O11 O 1.2759(10) 0.3738(4) 0.7500 0.073(3) Uani 1 2 d DS T P
O12 O 1.0606(9) 0.3824(3) 0.7072(3) 0.108(3) Uani 1 1 d D . .
C26 C 1.1555(13) 0.4580(4) 0.7500 0.054(3) Uani 1 2 d DS T P
F4 F 1.2208(8) 0.4728(2) 0.7873(2) 0.096(2) Uani 1 1 d D . .
F5 F 1.0283(10) 0.4799(3) 0.7500 0.081(2) Uani 1 2 d DS T P
S3 S 0.9469(14) 0.3248(4) 0.2500 0.208(3) Uiso 1 2 d DS . P
O13 O 0.784(2) 0.3198(9) 0.2500 0.208(3) Uiso 1 2 d DS . P
O14 O 1.0366(17) 0.3164(6) 0.2908(5) 0.208(3) Uiso 1 1 d D . .
C27 C 0.946(3) 0.3922(8) 0.2500 0.208(3) Uiso 1 2 d DS . P
F6 F 0.8748(15) 0.4055(5) 0.2873(5) 0.208(3) Uiso 1 1 d D . .
F7 F 1.073(2) 0.4127(7) 0.2500 0.208(3) Uiso 1 2 d DS . P
loop_
_atom_site_aniso_label
_atom_site_aniso_U_11
_atom_site_aniso_U_22
_atom_site_aniso_U_33
_atom_site_aniso_U_23
_atom_site_aniso_U_13
_atom_site_aniso_U_12
Ba1 0.02367(17) 0.02616(18) 0.02751(18) 0.00530(11) 0.00163(11) 0.00648(11)
Fe1 0.0356(4) 0.0177(4) 0.0582(6) 0.0038(4) -0.0077(4) -0.0023(3)
S1 0.0327(7) 0.0238(6) 0.0242(6) -0.0003(5) -0.0011(5) 0.0078(5)
F1 0.099(4) 0.0252(18) 0.052(2) -0.0115(17) 0.010(2) -0.001(2)
F2 0.052(2) 0.064(3) 0.052(2) -0.003(2) 0.017(2) 0.026(2)
F3 0.076(3) 0.054(2) 0.0248(17) -0.0005(16) -0.0020(18) 0.022(2)
O1 0.023(2) 0.027(2) 0.089(4) 0.006(2) 0.014(2) -0.0035(16)
O2 0.0238(17) 0.0226(17) 0.036(2) 0.0047(15) 0.0050(15) -0.0005(14)
O3 0.0198(18) 0.037(2) 0.057(3) -0.0055(19) -0.0022(18) -0.0048(16)
O4 0.054(3) 0.051(3) 0.049(3) -0.011(2) -0.029(2) 0.017(2)
O5 0.097(5) 0.081(4) 0.025(2) 0.014(2) 0.006(3) 0.047(4)
O6 0.076(4) 0.036(3) 0.094(4) 0.025(3) 0.061(4) 0.029(3)
O7 0.059(4) 0.015(3) 0.074(5) 0.007(3) 0.000 0.000
O8 0.072(3) 0.054(3) 0.027(2) 0.001(2) -0.007(2) 0.036(3)
O9 0.028(2) 0.0258(19) 0.045(2) -0.0063(17) -0.0038(17) 0.0021(16)
O10 0.035(2) 0.032(2) 0.040(2) -0.0016(17) 0.0074(18) -0.0019(18)
N1 0.051(4) 0.042(4) 0.128(8) 0.015(4) -0.033(4) -0.015(3)
N2 0.084(5) 0.038(3) 0.054(4) -0.012(3) -0.031(4) 0.027(3)
N3 0.073(5) 0.065(5) 0.084(5) 0.034(4) 0.020(4) 0.037(4)
C1 0.026(3) 0.018(3) 0.139(8) 0.017(4) 0.025(4) 0.007(2)
C2 0.037(4) 0.023(3) 0.157(10) 0.020(5) 0.031(5) 0.003(3)
C3 0.067(6) 0.041(4) 0.210(15) 0.029(7) 0.086(8) 0.021(4)
C4 0.032(4) 0.036(4) 0.235(17) 0.007(7) 0.034(7) -0.007(4)
C5 0.032(4) 0.035(4) 0.232(17) 0.014(7) -0.010(6) 0.004(3)
C6 0.013(3) 0.021(3) 0.241(15) 0.045(6) -0.007(5) 0.000(2)
C7 0.061(6) 0.041(4) 0.108(8) 0.008(5) -0.014(5) -0.007(4)
C8 0.118(10) 0.053(5) 0.125(10) 0.012(6) -0.079(8) -0.024(6)
C9 0.185(14) 0.072(7) 0.106(9) -0.048(6) -0.104(10) 0.054(8)
C10 0.082(6) 0.050(4) 0.035(4) 0.007(3) 0.006(4) 0.026(4)
C11 0.066(5) 0.042(4) 0.036(3) 0.015(3) 0.016(3) 0.016(3)
C12 0.098(7) 0.078(6) 0.059(5) 0.043(5) 0.051(5) 0.046(6)
C13 0.069(6) 0.059(5) 0.117(9) 0.037(6) 0.057(6) 0.008(5)
C14 0.037(4) 0.053(5) 0.102(7) 0.027(4) 0.033(4) -0.003(3)
C15 0.024(3) 0.029(3) 0.066(4) 0.014(3) 0.016(3) -0.001(2)
C16 0.032(3) 0.028(3) 0.040(3) 0.008(2) 0.013(2) 0.006(2)
C17 0.025(3) 0.045(4) 0.100(7) -0.002(4) -0.020(4) -0.009(3)
C18 0.046(4) 0.056(4) 0.075(5) -0.010(4) -0.037(4) 0.004(3)
C19 0.094(7) 0.072(6) 0.056(5) -0.033(5) -0.041(5) 0.027(5)
C20 0.124(9) 0.080(6) 0.036(4) -0.002(4) -0.016(5) 0.049(6)
C21 0.127(10) 0.081(7) 0.052(5) 0.034(5) 0.051(6) 0.038(7)
C22 0.068(6) 0.074(6) 0.073(6) 0.033(5) 0.040(5) 0.034(5)
C23 0.105(9) 0.055(5) 0.097(8) 0.005(5) -0.035(7) -0.003(5)
C24 0.26(2) 0.081(8) 0.163(15) 0.063(9) -0.126(15) -0.076(11)
C25 0.051(4) 0.028(3) 0.028(3) 0.002(2) 0.002(3) 0.013(3)
S2 0.0535(15) 0.0571(16) 0.0475(14) 0.000 0.000 0.0195(13)
O11 0.081(6) 0.105(7) 0.033(4) 0.000 0.000 0.051(6)
O12 0.126(7) 0.078(5) 0.119(6) -0.033(5) -0.075(6) 0.037(5)
C26 0.072(8) 0.058(6) 0.032(5) 0.000 0.000 0.008(6)
F4 0.128(5) 0.088(4) 0.073(4) -0.018(3) -0.043(4) 0.004(4)
F5 0.107(7) 0.064(5) 0.071(5) 0.000 0.000 0.038(4)
loop_
_atom_type_symbol
_atom_type_description
_atom_type_scat_dispersion_real
_atom_type_scat_dispersion_imag
_atom_type_scat_source
C C 0.0033 0.0016 'International Tables Vol C Tables 4.2.6.8 and 6.1.1.4'
H H 0.0000 0.0000 'International Tables Vol C Tables 4.2.6.8 and 6.1.1.4'
N N 0.0061 0.0033 'International Tables Vol C Tables 4.2.6.8 and 6.1.1.4'
O O 0.0106 0.0060 'International Tables Vol C Tables 4.2.6.8 and 6.1.1.4'
F F 0.0171 0.0103 'International Tables Vol C Tables 4.2.6.8 and 6.1.1.4'
S S 0.1246 0.1234 'International Tables Vol C Tables 4.2.6.8 and 6.1.1.4'
Fe Fe 0.3463 0.8444 'International Tables Vol C Tables 4.2.6.8 and 6.1.1.4'
Ba Ba -0.3244 2.2819 'International Tables Vol C Tables 4.2.6.8 and 6.1.1.4'
loop_
_geom_angle_atom_site_label_1
_geom_angle_atom_site_label_2
_geom_angle_atom_site_label_3
_geom_angle
_geom_angle_site_symmetry_1
_geom_angle_site_symmetry_3
O1 Ba1 O8 86.40(17) . .
O1 Ba1 O4 159.58(15) . .
O8 Ba1 O4 108.83(18) . .
O1 Ba1 O2 58.35(13) . .
O8 Ba1 O2 68.01(12) . .
O4 Ba1 O2 113.89(14) . .
O1 Ba1 O5 112.2(2) . .
O8 Ba1 O5 145.92(15) . .
O4 Ba1 O5 62.3(2) . .
O2 Ba1 O5 146.00(14) . .
O1 Ba1 O3 112.27(13) . .
O8 Ba1 O3 81.20(15) . .
O4 Ba1 O3 59.00(15) . .
O2 Ba1 O3 55.27(12) . .
O5 Ba1 O3 114.39(18) . .
O1 Ba1 O10 130.49(13) . 5_666
O8 Ba1 O10 69.05(13) . 5_666
O4 Ba1 O10 69.16(13) . 5_666
O2 Ba1 O10 135.14(11) . 5_666
O5 Ba1 O10 77.37(14) . 5_666
O3 Ba1 O10 105.74(12) . 5_666
O1 Ba1 O6 54.08(17) . .
O8 Ba1 O6 125.3(2) . .
O4 Ba1 O6 120.4(2) . .
O2 Ba1 O6 108.21(13) . .
O5 Ba1 O6 59.1(2) . .
O3 Ba1 O6 143.97(13) . .
O10 Ba1 O6 106.66(12) 5_666 .
O1 Ba1 O9 86.42(12) . 5_666
O8 Ba1 O9 80.00(14) . 5_666
O4 Ba1 O9 109.10(13) . 5_666
O2 Ba1 O9 132.50(12) . 5_666
O5 Ba1 O9 73.32(15) . 5_666
O3 Ba1 O9 152.47(12) . 5_666
O10 Ba1 O9 48.40(11) 5_666 5_666
O6 Ba1 O9 63.35(13) . 5_666
O1 Ba1 N3 81.5(2) . .
O8 Ba1 N3 147.79(19) . .
O4 Ba1 N3 78.4(2) . .
O2 Ba1 N3 80.28(19) . .
O5 Ba1 N3 65.8(2) . .
O3 Ba1 N3 76.06(18) . .
O10 Ba1 N3 139.2(2) 5_666 .
O6 Ba1 N3 69.21(19) . .
O9 Ba1 N3 128.48(17) 5_666 .
O1 Ba1 S1 107.99(10) . 5_666
O8 Ba1 S1 70.97(10) . 5_666
O4 Ba1 S1 90.21(10) . 5_666
O2 Ba1 S1 137.23(8) . 5_666
O5 Ba1 S1 76.05(11) . 5_666
O3 Ba1 S1 128.78(9) . 5_666
O10 Ba1 S1 24.19(9) 5_666 5_666
O6 Ba1 S1 85.93(9) . 5_666
O9 Ba1 S1 24.38(8) 5_666 5_666
N3 Ba1 S1 141.22(16) . 5_666
O1 Ba1 Fe1 29.06(10) . .
O8 Ba1 Fe1 75.50(11) . .
O4 Ba1 Fe1 140.34(11) . .
O2 Ba1 Fe1 29.29(8) . .
O5 Ba1 Fe1 133.70(15) . .
O3 Ba1 Fe1 83.85(9) . .
O10 Ba1 Fe1 141.00(9) 5_666 .
O6 Ba1 Fe1 80.88(12) . .
O9 Ba1 Fe1 110.44(8) 5_666 .
N3 Ba1 Fe1 79.62(19) . .
S1 Ba1 Fe1 126.58(3) 5_666 .
O7 Fe1 O2 115.1(2) . .
O7 Fe1 O1 107.74(19) . .
O2 Fe1 O1 86.78(17) . .
O7 Fe1 N2 102.81(18) . .
O2 Fe1 N2 86.9(2) . .
O1 Fe1 N2 148.6(2) . .
O7 Fe1 N1 106.9(3) . .
O2 Fe1 N1 137.5(2) . .
O1 Fe1 N1 86.1(3) . .
N2 Fe1 N1 78.1(3) . .
O7 Fe1 Ba1 120.01(7) . .
O2 Fe1 Ba1 44.73(11) . .
O1 Fe1 Ba1 42.05(13) . .
N2 Fe1 Ba1 124.35(19) . .
N1 Fe1 Ba1 116.5(2) . .
O8 S1 O10 116.2(3) . .
O8 S1 O9 115.1(3) . .
O10 S1 O9 112.3(2) . .
O8 S1 C25 102.8(3) . .
O10 S1 C25 104.1(3) . .
O9 S1 C25 104.5(3) . .
O8 S1 Ba1 133.79(19) . 5_666
O10 S1 Ba1 55.94(17) . 5_666
O9 S1 Ba1 56.99(17) . 5_666
C25 S1 Ba1 123.39(19) . 5_666
C1 O1 Fe1 126.5(4) . .
C1 O1 Ba1 123.5(4) . .
Fe1 O1 Ba1 108.89(17) . .
C16 O2 Fe1 130.1(4) . .
C16 O2 Ba1 122.5(3) . .
Fe1 O2 Ba1 105.98(15) . .
C15 O3 C17 119.2(5) . .
C15 O3 Ba1 120.3(3) . .
C17 O3 Ba1 118.4(4) . .
C18 O4 C19 114.4(6) . .
C18 O4 Ba1 113.6(4) . .
C19 O4 Ba1 112.9(5) . .
C20 O5 C21 116.5(7) . .
C20 O5 Ba1 116.5(5) . .
C21 O5 Ba1 117.1(6) . .
C2 O6 C22 117.0(7) . .
C2 O6 Ba1 113.4(4) . .
C22 O6 Ba1 115.4(6) . .
Fe1 O7 Fe1 151.5(5) 4_556 .
S1 O8 Ba1 152.6(3) . .
S1 O9 Ba1 98.6(2) . 5_666
S1 O10 Ba1 99.9(2) . 5_666
C7 N1 C8 114.3(9) . .
C7 N1 Fe1 129.9(9) . .
C8 N1 Fe1 115.8(7) . .
C10 N2 C9 126.7(9) . .
C10 N2 Fe1 127.6(6) . .
C9 N2 Fe1 105.6(8) . .
C23 N3 Ba1 165.7(9) . .
O1 C1 C2 115.4(5) . .
O1 C1 C6 124.6(5) . .
C2 C1 C6 120.0 . .
C3 C2 C1 120.0 . .
C3 C2 O6 124.8(4) . .
C1 C2 O6 115.2(4) . .
C2 C3 C4 120.0 . .
C5 C4 C3 120.0 . .
C6 C5 C4 120.0 . .
C5 C6 C1 120.0 . .
C5 C6 C7 116.3(5) . .
C1 C6 C7 123.7(5) . .
N1 C7 C6 121.3(9) . .
C9 C8 N1 107.8(8) . .
C8 C9 N2 112.2(8) . .
N2 C10 C11 124.5(7) . .
C10 C11 C16 123.9(7) . .
C10 C11 C12 118.2(8) . .
C16 C11 C12 117.7(8) . .
C13 C12 C11 121.1(8) . .
C14 C13 C12 119.5(8) . .
C13 C14 C15 122.0(10) . .
O3 C15 C14 124.2(7) . .
O3 C15 C16 115.1(5) . .
C14 C15 C16 120.6(8) . .
O2 C16 C11 124.2(6) . .
O2 C16 C15 116.9(5) . .
C11 C16 C15 118.9(6) . .
O3 C17 C18 108.9(6) . .
O4 C18 C17 108.0(6) . .
O4 C19 C20 113.3(7) . .
O5 C20 C19 108.7(6) . .
C22 C21 O5 114.5(7) . .
O6 C22 C21 108.7(7) . .
N3 C23 C24 175.6(14) . .
F3 C25 F1 108.8(6) . .
F3 C25 F2 108.3(5) . .
F1 C25 F2 107.1(5) . .
F3 C25 S1 111.7(4) . .
F1 C25 S1 110.0(4) . .
F2 C25 S1 110.8(4) . .
O12 S2 O12 118.8(9) 6_557 .
O12 S2 O11 112.1(4) 6_557 .
O12 S2 O11 112.1(4) . .
O12 S2 C26 104.4(4) 6_557 .
O12 S2 C26 104.4(4) . .
O11 S2 C26 103.1(6) . .
F4 C26 F4 110.9(12) . 6_557
F4 C26 F5 106.8(7) . .
F4 C26 F5 106.8(7) 6_557 .
F4 C26 S2 111.5(6) . .
F4 C26 S2 111.5(6) 6_557 .
F5 C26 S2 109.2(9) . .
O14 S3 O14 106.3(16) . 6_556
O14 S3 O13 124.3(9) . .
O14 S3 O13 124.3(9) 6_556 .
O14 S3 C27 99.0(10) . .
O14 S3 C27 99.0(10) 6_556 .
O13 S3 C27 94.9(12) . .
F6 C27 F6 109(2) . 6_556
F6 C27 F7 110.4(14) . .
F6 C27 F7 110.4(14) 6_556 .
F6 C27 S3 106.0(12) . .
F6 C27 S3 106.0(12) 6_556 .
F7 C27 S3 114.8(19) . .
loop_
_geom_bond_atom_site_label_1
_geom_bond_atom_site_label_2
_geom_bond_distance
_geom_bond_site_symmetry_2
Ba1 O1 2.676(5) .
Ba1 O8 2.720(4) .
Ba1 O4 2.756(5) .
Ba1 O2 2.767(4) .
Ba1 O5 2.775(5) .
Ba1 O3 2.831(4) .
Ba1 O10 2.918(4) 5_666
Ba1 O6 2.927(5) .
Ba1 O9 2.943(4) 5_666
Ba1 N3 2.951(7) .
Ba1 S1 3.4700(13) 5_666
Ba1 Fe1 3.7801(10) .
Fe1 O7 1.769(2) .
Fe1 O2 1.924(4) .
Fe1 O1 1.941(5) .
Fe1 N2 2.104(8) .
Fe1 N1 2.116(7) .
S1 O8 1.431(4) .
S1 O10 1.443(5) .
S1 O9 1.449(4) .
S1 C25 1.830(6) .
S1 Ba1 3.4699(13) 5_666
F1 C25 1.329(7) .
F2 C25 1.330(8) .
F3 C25 1.316(7) .
O1 C1 1.335(5) .
O2 C16 1.338(7) .
O3 C15 1.368(8) .
O3 C17 1.454(8) .
O4 C18 1.427(9) .
O4 C19 1.455(10) .
O5 C20 1.418(13) .
O5 C21 1.499(12) .
O6 C2 1.393(9) .
O6 C22 1.404(11) .
O7 Fe1 1.769(2) 4_556
O9 Ba1 2.943(4) 5_666
O10 Ba1 2.918(4) 5_666
N1 C7 1.196(12) .
N1 C8 1.459(15) .
N2 C10 1.271(11) .
N2 C9 1.521(13) .
N3 C23 1.161(13) .
C1 C2 1.3900 .
C1 C6 1.3900 .
C2 C3 1.3900 .
C3 C4 1.3900 .
C4 C5 1.3900 .
C5 C6 1.3900 .
C6 C7 1.501(13) .
C8 C9 1.422(19) .
C10 C11 1.401(12) .
C11 C16 1.404(9) .
C11 C12 1.453(12) .
C12 C13 1.374(17) .
C13 C14 1.356(16) .
C14 C15 1.378(8) .
C15 C16 1.411(9) .
C17 C18 1.496(12) .
C19 C20 1.505(16) .
C21 C22 1.423(16) .
C23 C24 1.374(16) .
S2 O12 1.433(7) 6_557
S2 O12 1.433(7) .
S2 O11 1.462(9) .
S2 C26 1.810(12) .
C26 F4 1.306(9) .
C26 F4 1.306(9) 6_557
C26 F5 1.350(13) .
S3 O14 1.472(13) .
S3 O14 1.472(13) 6_556
S3 O13 1.554(16) .
S3 C27 1.84(2) .
C27 F6 1.324(15) .
C27 F6 1.324(15) 6_556
C27 F7 1.33(2) .
