#------------------------------------------------------------------------------
#$Date: 2018-01-13 08:34:18 +0200 (Sat, 13 Jan 2018) $
#$Revision: 205186 $
#$URL: file:///home/coder/svn-repositories/cod/cif/1/54/86/1548678.cif $
#------------------------------------------------------------------------------
#
# This file is available in the Crystallography Open Database (COD),
# http://www.crystallography.net/. The original data for this entry
# were provided by IUCr Journals, http://journals.iucr.org/.
#
# The file may be used within the scientific community so long as
# proper attribution is given to the journal article from which the
# data were obtained.
#
data_1548678
loop_
_publ_author_name
'Prabu, P.'
'Thiruvalluvar, A.'
'Ramachandra Raja, C.'
_publ_section_title
;
 1-Carboxy-2-hydroxypropan-1-aminium 4-methylbenzenesulfonate monohydrate
;
_journal_coeditor_code           TK4043
_journal_issue                   1
_journal_name_full               IUCrData
_journal_page_first              x171848
_journal_paper_doi               10.1107/S241431461701848X
_journal_volume                  3
_journal_year                    2018
_chemical_formula_iupac          'C4 H10 N O3 +, C7 H7 O3 S -, H2 O'
_chemical_formula_moiety         'C4 H10 N O3 +, C7 H7 O3 S -, H2 O'
_chemical_formula_sum            'C11 H19 N O7 S'
_chemical_formula_weight         309.33
_chemical_melting_point          356
_chemical_name_systematic
;
1-Carboxy-2-hydroxypropan-1-aminium 4-methylbenzenesulfonate monohydrate
;
_space_group_crystal_system      monoclinic
_space_group_IT_number           4
_space_group_name_Hall           'P 2yb'
_space_group_name_H-M_alt        'P 1 21 1'
_symmetry_space_group_name_Hall  'P 2yb'
_symmetry_space_group_name_H-M   'P 1 21 1'
_atom_sites_solution_hydrogens   mixed
_audit_creation_method           SHELXL-2018/1
_cell_angle_alpha                90
_cell_angle_beta                 92.161(2)
_cell_angle_gamma                90
_cell_formula_units_Z            2
_cell_length_a                   8.0762(4)
_cell_length_b                   6.2486(4)
_cell_length_c                   14.5096(10)
_cell_measurement_reflns_used    3667
_cell_measurement_temperature    296(2)
_cell_measurement_theta_max      26.25
_cell_measurement_theta_min      2.80
_cell_volume                     731.71(8)
_computing_cell_refinement
;
APEX2 and SAINT (Bruker, 2004)
;
_computing_data_collection
;
APEX2 (Bruker, 2004)
;
_computing_data_reduction
;
SAINT and XPREP (Bruker, 2004)
;
_computing_molecular_graphics
;
ORTEP-3 for Windows (Farrugia, 2012) and
Mercury (Macrae <i>et al.</i>,  2008)
;
_computing_publication_material
;
<i>SHELXL2018/1</i> (Sheldrick, 2015b), PLATON (Spek, 2009), and
publCIF (Westrip, 2010)
;
_computing_structure_refinement
;
<i>SHELXL2018/1</i> (Sheldrick, 2015b)
;
_computing_structure_solution
;
<i>SHELXT2014/5</i> (Sheldrick, 2015a)
;
_diffrn_ambient_temperature      296(2)
_diffrn_measured_fraction_theta_full 0.999
_diffrn_measured_fraction_theta_max 0.963
_diffrn_measurement_device_type  'Bruker Kappa APEXII CCD'
_diffrn_measurement_method       '\w and \f scan'
_diffrn_radiation_monochromator  graphite
_diffrn_radiation_source         'fine-focus sealed tube'
_diffrn_radiation_type           MoK\a
_diffrn_radiation_wavelength     0.71073
_diffrn_reflns_av_R_equivalents  0.0281
_diffrn_reflns_limit_h_max       10
_diffrn_reflns_limit_h_min       -10
_diffrn_reflns_limit_k_max       8
_diffrn_reflns_limit_k_min       -8
_diffrn_reflns_limit_l_max       18
_diffrn_reflns_limit_l_min       -19
_diffrn_reflns_number            8712
_diffrn_reflns_theta_full        25.242
_diffrn_reflns_theta_max         27.891
_diffrn_reflns_theta_min         2.524
_exptl_absorpt_coefficient_mu    0.251
_exptl_absorpt_correction_T_max  0.7455
_exptl_absorpt_correction_T_min  0.6624
_exptl_absorpt_correction_type   multi-scan
_exptl_absorpt_process_details
;
(SADABS; Bruker, 2004)
;
_exptl_crystal_colour            colourless
_exptl_crystal_density_diffrn    1.404
_exptl_crystal_description       block
_exptl_crystal_F_000             328
_exptl_crystal_size_max          0.150
_exptl_crystal_size_mid          0.150
_exptl_crystal_size_min          0.100
_refine_diff_density_max         0.185
_refine_diff_density_min         -0.193
_refine_ls_abs_structure_details
;
Flack <i>x</i> determined using 1035 quotients
[(<i>I</i>^+^)-(<i>I</i>^-^)]/[(<i>I</i>^+^)+(<i>I</i>^-^)]
(Parsons <i>et al.</i>,  2013).
;
_refine_ls_abs_structure_Flack   0.06(4)
_refine_ls_extinction_method     none
_refine_ls_goodness_of_fit_ref   1.023
_refine_ls_hydrogen_treatment    mixed
_refine_ls_matrix_type           full
_refine_ls_number_parameters     203
_refine_ls_number_reflns         3347
_refine_ls_number_restraints     10
_refine_ls_restrained_S_all      1.022
_refine_ls_R_factor_all          0.0559
_refine_ls_R_factor_gt           0.0371
_refine_ls_shift/su_max          0.000
_refine_ls_shift/su_mean         0.000
_refine_ls_structure_factor_coef Fsqd
_refine_ls_weighting_details
'w=1/[\s^2^(Fo^2^)+(0.0332P)^2^+0.1196P] where P=(Fo^2^+2Fc^2^)/3'
_refine_ls_weighting_scheme      calc
_refine_ls_wR_factor_gt          0.0728
_refine_ls_wR_factor_ref         0.0811
_reflns_number_gt                2705
_reflns_number_total             3347
_reflns_threshold_expression     'I > 2\s(I)'
_cod_data_source_file            tk4043sup1.cif
_cod_data_source_block           I
_cod_database_code               1548678
_shelx_space_group_comment
;
The symmetry employed for this shelxl refinement is uniquely defined
by the following loop, which should always be used as a source of
symmetry information in preference to the above space-group names.
They are only intended as comments.
;
_shelx_estimated_absorpt_t_min   0.963
_shelx_estimated_absorpt_t_max   0.975
_shelx_hkl_file
;
  -1   0   0  184.38    5.60
   1   0   0  217.98    5.70
  -1   0   0  253.87    5.80
   2   0   0 8061.69  175.88
  -2   0   0 8205.08  174.88
  -2   0   0 8371.66  176.48
  -2   0   0 8362.96  174.78
  -3   0   0 1641.64   36.40
  -3   0   0 1632.14   36.30
  -3   0   0 1616.84   36.10
   3   0   0 1543.85   36.20
  -3   0   0 1604.84   36.60
   4   0   0    7.30    1.90
  -4   0   0   14.70    2.50
  -4   0   0   17.70    2.60
  -4   0   0   12.90    2.50
   4   0   0   17.30    3.00
  -4   0   0   12.80    2.70
  -5   0   0   92.89    5.30
   5   0   0   87.39    6.30
  -5   0   0   82.79    5.20
  -5   0   0   90.69    5.80
  -6   0   0  213.58    8.40
  -6   0   0  201.58    8.70
   6   0   0  216.38    9.60
  -6   0   0  186.48    9.10
   7   0   0  618.14   19.10
  -7   0   0  587.14   18.80
  -8   0   0    2.70    3.70
   8   0   0   -2.60    4.00
   9   0   0   36.50    6.50
  -9   0   0   49.10    6.80
 -10   0   0    6.30    4.90
   0  -1   0   -0.80    1.40
   0  -1   0    3.20    1.60
   0  -1   0   -1.80    1.10
   0  -1   0   -1.60    1.20
   0   1   0   -3.40    1.00
   0   1   0   -0.80    1.30
   0   1   0   -2.10    1.10
  -1  -1   0 2618.74   57.89
  -1  -1   0 2577.64   57.79
  -1  -1   0 2654.53   57.79
  -1  -1   0 2555.74   57.59
   1  -1   0 2625.34   55.99
   1  -1   0 2664.23   55.79
  -1   1   0 2642.74   55.99
   1   1   0 2571.14   57.79
   1   1   0 2626.64   57.89
  -1   1   0 2619.64   55.99
   1   1   0 2682.03   57.79
  -1   1   0 2679.73   55.99
  -2  -1   0 4959.90  106.39
  -2  -1   0 5003.40  106.29
  -2  -1   0 4825.82  106.49
  -2  -1   0 4819.72  106.39
   2   1   0 4914.01  106.39
   2   1   0 4944.31  106.39
  -3  -1   0  111.29    6.30
  -3  -1   0  108.79    6.00
  -3  -1   0  104.49    5.90
  -3  -1   0  107.49    6.40
   3   1   0  101.09    6.10
   3   1   0  102.39    6.30
  -3   1   0   99.09    3.00
  -4  -1   0  200.58    8.70
  -4  -1   0  204.08    8.70
   4  -1   0  181.18    5.60
  -4  -1   0  195.48    9.10
  -4   1   0  192.98    5.80
   4   1   0  204.88    9.30
   4   1   0  205.48    9.20
  -4   1   0  194.38    6.00
  -5  -1   0  776.22   21.90
   5  -1   0  753.12   18.00
  -5  -1   0  722.23   21.40
  -5  -1   0  728.13   22.20
  -5   1   0  776.22   16.90
  -5   1   0  758.92   18.50
  -5   1   0  737.63   16.80
  -5   1   0  739.73   18.20
   5   1   0  762.72   22.30
   5   1   0  760.92   22.10
  -6  -1   0   13.70    4.20
   6  -1   0    9.20    2.70
  -6  -1   0    9.00    3.50
  -6  -1   0   20.20    4.20
   6   1   0   10.00    4.20
  -6   1   0    9.40    1.50
  -6   1   0    4.80    2.00
   6   1   0   13.30    4.60
  -6   1   0    9.10    1.50
  -6   1   0   12.40    2.70
   7  -1   0  172.48    7.30
   7  -1   0  157.78    6.80
  -7  -1   0  171.08    9.70
  -7  -1   0  178.08   11.00
  -7   1   0  163.68    7.20
   7   1   0  155.98    9.80
   7   1   0  177.08   11.60
  -8  -1   0   85.99    9.40
   8  -1   0   68.19    5.40
   8   1   0   88.29    9.70
  -8   1   0   80.59    5.60
  -9  -1   0    3.50    5.20
   9   1   0    7.60    6.60
 -10  -1   0   28.40    7.20
  10   1   0   -2.00    6.10
   0  -2   0 1837.12   42.00
   0  -2   0 1810.52   42.20
   0  -2   0 1774.62   41.90
   0  -2   0 1825.82   42.20
   0   2   0 1894.71   42.40
   0   2   0 1832.82   42.20
   0   2   0 1821.82   42.30
  -1  -2   0  875.31   22.80
  -1  -2   0  852.51   23.00
   1  -2   0  892.61   21.10
  -1  -2   0  855.41   22.70
   1  -2   0  881.11   21.20
   1  -2   0  858.31   21.30
   1  -2   0  880.11   21.10
  -1  -2   0  843.22   22.90
   1   2   0  846.62   23.00
  -1   2   0  882.41   21.40
  -1   2   0  894.61   21.40
   1   2   0  869.61   23.00
  -1   2   0  898.91   21.50
   1   2   0  883.61   23.20
   2  -2   0 1414.26   30.30
  -2  -2   0 1425.76   34.70
  -2  -2   0 1305.07   33.90
  -2  -2   0 1437.56   34.50
   2  -2   0 1367.26   30.80
  -2  -2   0 1372.56   34.70
   2  -2   0 1390.76   30.30
  -2   2   0 1359.56   31.00
   2   2   0 1345.07   34.40
  -2   2   0 1372.46   31.20
   2   2   0 1352.66   34.60
  -2   2   0 1370.56   30.80
  -3  -2   0 1114.79   30.40
  -3  -2   0 1139.99   29.90
   3  -2   0 1112.39   24.40
  -3  -2   0 1127.49   30.10
   3  -2   0 1118.09   24.50
   3   2   0 1160.28   30.40
  -3   2   0 1109.49   24.90
  -3   2   0 1209.78   25.30
   3   2   0 1072.89   29.80
  -4  -2   0  911.81   26.40
  -4  -2   0  927.81   27.10
  -4  -2   0  948.31   26.50
   4   2   0  930.31   27.00
   4   2   0  915.81   26.70
  -5  -2   0  360.06   14.60
  -5  -2   0  348.87   15.20
  -5  -2   0  390.36   16.20
   5   2   0  368.86   15.40
   5   2   0  370.56   15.50
  -6  -2   0  139.99   10.70
  -6  -2   0  148.99   10.00
   6   2   0  148.99   11.20
   6   2   0  152.08   10.60
  -7  -2   0  361.26   15.80
  -7  -2   0  358.66   17.20
   7   2   0  337.37   16.90
   7   2   0  354.66   16.30
  -8  -2   0   91.59   11.30
   8   2   0   67.39   10.10
  -9  -2   0   11.00    6.50
   9   2   0    5.90    7.50
 -10  -2   0   74.39   11.10
  10   2   0   41.90   10.40
   0  -3   0   -7.10    2.50
   0  -3   0   -1.10    2.70
   0  -3   0   -4.20    2.40
   0   3   0    2.10    2.70
   0   3   0    0.30    2.90
   0   3   0   -0.20    2.20
  -1  -3   0  462.15   15.80
  -1  -3   0  439.86   15.50
   1  -3   0  444.86   13.70
   1  -3   0  452.05   14.10
  -1  -3   0  426.46   15.00
   1  -3   0  426.36   13.60
   1   3   0  458.45   15.80
  -1   3   0  454.65   14.10
  -1   3   0  437.46   13.90
   1   3   0  424.86   15.30
   1   3   0  444.86   15.50
  -1   3   0  445.96   14.20
   2  -3   0  250.97    8.70
  -2  -3   0  263.57   12.20
  -2  -3   0  269.67   12.40
   2  -3   0  267.97    9.30
   2  -3   0  269.17    8.80
   2  -3   0  257.27    9.40
   2   3   0  285.97   12.50
  -2   3   0  292.97   10.10
   2   3   0  281.27   12.50
  -2   3   0  289.07    9.70
  -2   3   0  281.57    9.60
  -3  -3   0  185.28   11.20
   3  -3   0  189.18    7.00
   3  -3   0  203.38    5.60
   3  -3   0  185.98    5.50
  -3  -3   0  205.28   11.10
  -3   3   0  187.48    7.00
   3   3   0  173.58   10.40
   3   3   0  190.68   11.30
  -3   3   0  190.78    6.70
  -3   3   0  190.98    7.40
   4  -3   0  263.97    6.80
   4  -3   0  248.78    6.70
  -4  -3   0  284.47   13.50
  -4  -3   0  262.37   13.60
   4   3   0  262.27   13.50
  -4   3   0  257.17    8.00
   4   3   0  255.87   13.40
  -5  -3   0  140.49   11.40
  -5  -3   0  138.59   10.60
   5   3   0  148.29   11.60
   5   3   0  143.69   11.10
  -6  -3   0   94.79   11.00
  -6  -3   0   94.09   10.00
   6   3   0   84.19   10.30
   6   3   0  110.99   11.40
  -7  -3   0   30.70    7.40
  -7  -3   0   18.10    7.70
   7   3   0   10.10    7.30
   7   3   0   31.60    7.30
  -8  -3   0   81.79   12.00
   8   3   0   80.99   11.70
  -9  -3   0   11.50    7.90
   9   3   0    3.50    8.40
   0  -4   0  371.36   14.50
   0  -4   0  356.66   13.90
   0  -4   0  351.16   14.60
   0   4   0  362.06   14.60
   0   4   0  359.06   14.80
  -1  -4   0  160.68   10.50
   1  -4   0  164.08    8.60
   1  -4   0  183.28    9.40
   1  -4   0  186.98    9.90
  -1  -4   0  178.98   10.70
  -1   4   0  164.68    9.20
  -1   4   0  167.98    9.60
   1   4   0  171.28   10.30
  -1   4   0  174.58    9.10
   1   4   0  173.68   10.80
  -2  -4   0   49.50    7.30
   2  -4   0   40.50    5.20
   2  -4   0   46.00    5.10
  -2  -4   0   58.19    8.40
   2  -4   0   50.59    5.30
   2   4   0   52.39    7.30
  -2   4   0   45.60    5.60
  -2   4   0   57.69    5.90
   2   4   0   48.60    7.40
  -3  -4   0  599.84   22.40
   3  -4   0  600.74   16.10
   3  -4   0  620.24   17.40
  -3  -4   0  619.84   22.90
   3  -4   0  616.74   17.50
  -3   4   0  595.14   18.30
  -3   4   0  595.74   17.30
   3   4   0  596.14   22.60
   3   4   0  612.34   22.80
   4  -4   0  329.27   10.20
   4  -4   0  334.67   10.40
  -4  -4   0  307.37   16.90
  -4  -4   0  331.67   16.90
   4   4   0  339.57   17.40
  -4   4   0  322.27   11.40
   4   4   0  326.47   17.00
  -5  -4   0   62.09   10.50
  -5  -4   0   69.69   10.30
   5   4   0   53.99    9.60
   5   4   0   60.09   10.30
  -6  -4   0  139.09   13.80
  -6  -4   0  104.99   12.00
   6   4   0  117.29   13.40
   6   4   0  142.19   13.20
  -7  -4   0   31.80    7.80
  -7  -4   0   61.09   10.90
   7   4   0   46.30    9.70
   7   4   0   44.70   10.20
  -8  -4   0   11.30    8.70
   8   4   0  -17.30    6.90
  -9  -4   0   34.20   11.40
   9   4   0   20.50   11.40
   0  -5   0   -9.50    4.00
   0  -5   0   -4.50    3.90
   0   5   0   -5.30    4.00
   0   5   0    0.90    4.60
  -1  -5   0  264.97   14.70
   1  -5   0  238.98   12.30
   1  -5   0  251.57   12.90
   1  -5   0  224.38   11.60
  -1  -5   0  254.77   14.30
   1   5   0  245.88   14.30
   1   5   0  231.38   14.00
  -1   5   0  244.18   12.90
  -1   5   0  228.68   13.20
   2  -5   0  204.48   10.40
  -2  -5   0  201.78   13.70
   2  -5   0  199.38   10.30
   2  -5   0  172.68   10.70
  -2  -5   0  194.98   13.80
  -2   5   0  192.98   11.50
  -2   5   0  201.58   11.10
   2   5   0  211.28   13.90
   2   5   0  186.08   13.50
   3  -5   0   21.20    4.90
  -3  -5   0   30.90    7.90
  -3  -5   0   24.80    8.10
   3   5   0   30.10    8.30
  -3   5   0   27.80    5.70
   3   5   0   29.40    8.20
   4  -5   0  218.28    9.70
  -4  -5   0  203.58   15.50
  -4  -5   0  198.68   15.40
  -4   5   0  199.98   10.40
   4   5   0  202.98   15.20
   4   5   0  238.98   16.30
  -5  -5   0   32.20    8.50
   5  -5   0   27.70    3.50
  -5  -5   0   29.40    9.10
   5   5   0   18.90    8.70
  -5   5   0   29.50    4.30
   5   5   0   30.70    9.00
  -6  -5   0   18.40    7.90
  -6  -5   0   19.80    8.70
   6   5   0   17.90    9.00
   6   5   0   12.90    7.90
  -7  -5   0   15.80    7.50
  -7  -5   0   14.10    9.40
   7   5   0    1.80    9.40
   7   5   0   22.80    8.80
  -8  -5   0   19.60   11.90
   8   5   0    5.90   10.20
   0  -6   0  229.58   14.80
   0  -6   0  230.78   14.40
   0   6   0  197.08   14.40
   0   6   0  211.38   15.10
  -1  -6   0   48.50    9.10
  -1  -6   0   42.80    8.60
   1  -6   0   50.99    8.50
   1  -6   0   37.10    7.70
   1   6   0   43.20    9.20
  -1   6   0   40.80    8.00
  -1   6   0   28.60    7.30
   1   6   0   49.90    9.80
  -2  -6   0  165.88   14.60
   2  -6   0  155.18   11.50
  -2  -6   0  147.79   14.00
   2   6   0  153.38   14.60
  -2   6   0  161.98   12.20
   2   6   0  144.09   14.20
  -3  -6   0  146.69   14.60
  -3  -6   0  168.38   15.20
   3  -6   0  172.08   11.20
  -3   6   0  151.68   11.40
   3   6   0  145.59   15.20
   3   6   0  163.58   15.00
   4  -6   0   64.89    7.70
  -4  -6   0   66.49   11.70
  -4  -6   0   68.59   12.80
   4   6   0   62.49   12.20
  -4   6   0   61.19    8.30
   4   6   0   54.79   11.40
  -5  -6   0   12.50    7.70
  -5  -6   0  -11.50    7.20
   5   6   0   13.10    8.40
  -5   6   0    3.40    3.70
   5   6   0   -4.70    7.60
  -6  -6   0   18.90    8.40
  -6  -6   0   11.90    9.70
   6   6   0    5.40    9.90
   6   6   0    0.70    7.70
  -7  -6   0   19.10    9.30
   7   6   0   -4.30   10.00
   0  -7   0    3.00    6.60
   0   7   0    5.90    7.20
   1  -7   0   34.60    8.70
  -1  -7   0   47.20    9.60
  -1  -7   0   40.90    9.30
   1   7   0   34.70    9.90
   1   7   0   30.90    9.20
  -1   7   0   57.59   10.90
  -2  -7   0   52.09   11.60
   2  -7   0   32.40    8.10
  -2  -7   0   52.39   11.40
   2   7   0   38.30   10.10
  -2   7   0   43.10    9.50
   2   7   0   34.60   10.40
  -3  -7   0   21.50    9.90
  -3  -7   0    6.90    8.30
   3  -7   0    2.50    5.20
   3   7   0    7.10    7.50
  -3   7   0    7.60    5.70
   3   7   0    5.60    8.20
   4  -7   0   12.50    5.10
  -4  -7   0    5.40    9.40
  -4  -7   0   25.20   10.50
   4   7   0   -6.80    6.10
  -4   7   0    6.00    5.40
   4   7   0   -1.20    8.70
  -5  -7   0   14.00   10.60
  -5  -7   0   15.00    9.60
   5   7   0  -13.90    8.30
   5   7   0   19.40    9.30
   0  -8   0   29.60    9.80
   0   8   0   52.59   11.80
  -1  -8   0   18.60    9.80
   1  -8   0   11.40    8.60
  -1   8   0    7.50    8.30
   1   8   0   33.40   10.60
 -10   0   1   -3.20    4.00
  -9   0   1  135.69    9.30
   9   0  -1  106.09    9.60
   8   0  -1  134.39    9.50
  -8   0   1  130.79    8.80
  -7   0   1   81.09    7.00
   7   0  -1   68.59    7.60
  -6   0   1   67.19    5.30
   6   0  -1   54.99    6.30
  -6   0   1   60.39    5.70
  -6   0   1   61.39    4.90
  -5   0   1  654.53   17.30
  -5   0   1  635.64   17.70
  -5   0   1  628.64   17.90
   5   0  -1  636.34   18.10
  -4   0   1    3.30    2.20
   4   0  -1    2.30    1.50
  -4   0   1    2.40    1.90
  -4   0   1    4.40    1.90
   4   0  -1   -0.50    2.30
  -4   0   1    3.50    1.90
  -3   0   1  878.31   20.90
  -3   0   1  855.01   21.10
  -3   0   1  875.71   20.90
  -3   0   1  887.61   21.20
   3   0  -1  877.21   21.20
  -2   0   1 9939.81  209.48
  -2   0   1 9862.21  209.78
   2   0  -1 9908.41  208.18
   2   0  -1 9999.00  209.58
   2   0  -1 9835.62  209.18
  -2   0   1 9823.82  209.88
  -2   0   1 9782.12  211.98
   1   0  -1  524.05   12.00
  -1   0   1  474.85   11.90
  -1   0   1  540.05   12.30
   1   0  -1  538.95   12.20
  -1   0   1  543.85   12.20
   1   0  -1  543.35   12.10
  -1   0   1  467.15   12.00
   0   0   1   -0.90    0.20
   0   0   1   -1.00    0.40
   0   0  -1   -1.00    0.30
   0   0  -1   -0.80    0.30
   0   0  -1   -0.80    0.30
   0   0   1   -1.00    0.30
  -1   0  -1 1586.64   34.10
   1   0   1 1547.05   34.10
   1   0   1 1559.44   34.10
  -1   0  -1 1573.34   34.10
   2   0   1 1631.74   36.20
  -2   0  -1 1648.24   36.20
  -2   0  -1 1640.04   36.10
   2   0   1 1618.04   36.10
  -3   0  -1 1067.19   24.80
   3   0   1 1018.00   24.80
  -3   0  -1 1064.39   24.60
   3   0   1 1037.40   24.70
   4   0   1  165.38    7.00
  -4   0  -1  162.28    6.60
  -4   0  -1  164.68    6.50
   4   0   1  167.88    6.60
  -5   0  -1  164.68    7.20
  -5   0  -1  169.08    7.20
   5   0   1  165.88    8.10
  -5   0  -1  149.79    7.60
  -6   0  -1    4.70    2.60
   6   0   1    1.00    1.00
  -6   0  -1    6.10    3.30
  -6   0  -1   10.20    2.90
   6   0   1    9.70    3.70
  -7   0  -1   37.50    5.50
   7   0   1   27.70    5.20
   8   0   1    2.70    4.80
  -8   0  -1    8.70    4.20
  -9   0  -1   74.49    8.00
   9   0   1   52.59    7.50
 -10   0  -1    7.50    4.70
 -10  -1   1   22.00    6.90
  10   1  -1    6.20    7.00
  -9  -1   1    0.90    4.80
   9   1  -1   -4.10    5.70
  -8  -1   1   40.00    7.10
   8  -1  -1   30.00    3.70
   8   1  -1   46.50    7.90
  -8   1   1   34.50    4.30
  -7  -1   1  174.28    9.70
   7  -1  -1  149.09    6.80
  -7  -1   1  151.48   10.30
   7   1  -1  130.19   10.60
   7   1  -1  138.99    9.40
  -7   1   1  154.68    6.80
  -6  -1   1  353.66   14.10
  -6  -1   1  338.07   13.10
   6  -1  -1  343.17   10.20
  -6  -1   1  342.37   13.40
   6   1  -1  333.37   13.60
  -6   1   1  338.17   10.20
  -6   1   1  336.47   10.40
   6   1  -1  363.76   14.50
  -5  -1   1  114.89    7.20
   5  -1  -1  123.59    5.20
  -5  -1   1  104.29    7.80
  -5  -1   1  121.19    7.30
  -5   1   1  126.29    5.10
   5   1  -1  120.19    8.40
   5   1  -1  117.39    7.90
  -5   1   1  109.29    4.70
   4  -1  -1 1994.70   41.20
  -4  -1   1 1921.11   45.10
  -4  -1   1 1910.31   45.30
  -4  -1   1 1834.82   45.40
   4   1  -1 1850.51   45.30
  -4   1   1 1852.21   41.30
   4   1  -1 1884.51   45.50
  -4   1   1 1923.41   41.40
  -3  -1   1 1965.10   46.40
  -3  -1   1 1981.50   46.20
  -3  -1   1 2057.69   46.50
   3  -1  -1 2055.49   42.50
  -3  -1   1 1965.00   46.60
  -3   1   1 1939.61   42.60
   3   1  -1 2045.60   46.60
   3   1  -1 1997.20   46.60
  -3   1   1 1968.00   42.70
   3   1  -1 1985.90   46.60
  -2  -1   1 3055.39   67.99
  -2  -1   1 2897.31   67.79
  -2  -1   1 3037.60   68.19
   2  -1  -1 3205.08   65.79
  -2  -1   1 3000.10   68.19
   2   1  -1 3092.49   68.09
   2   1  -1 3066.59   68.19
  -2   1   1 3193.58   64.89
   2   1  -1 3012.10   67.99
  -2   1   1 3217.38   64.69
   2   1  -1 3020.30   68.29
  -1  -1   1  327.87    9.70
  -1  -1   1  322.47    9.60
   1  -1  -1  327.77    7.90
  -1  -1   1  300.67    9.50
  -1  -1   1  310.27    9.60
   1   1  -1  315.77    9.50
   1   1  -1  330.07    9.80
   1   1  -1  319.57    9.70
   1   1  -1  318.27    9.60
  -1   1   1  324.07    8.10
  -1   1   1  328.77    8.10
   0  -1   1 2564.24   55.79
   0  -1   1 2577.94   55.69
   0  -1  -1 2507.75   55.39
   0  -1   1 2513.85   55.49
   0  -1  -1 2516.65   55.49
   0   1   1 2593.54   55.59
   0   1  -1 2619.24   55.59
   0   1  -1 2508.15   55.49
   0   1  -1 2559.84   55.79
   0   1  -1 2575.54   55.79
   0   1   1 2588.44   55.59
   1  -1   1 5777.02  119.49
   1  -1   1 5533.55  120.99
   1  -1   1 5211.18  120.49
  -1  -1  -1 5701.73  120.89
  -1  -1  -1 5738.03  120.89
   1   1   1 5381.66  120.79
  -1   1  -1 5610.44  120.49
  -1   1  -1 5782.52  119.39
  -1   1  -1 5982.10  119.89
  -1   1  -1 5789.52  122.29
   1   1   1 5627.24  120.99
   2  -1   1   86.09    2.60
   2  -1   1   82.69    3.10
  -2  -1  -1   89.89    5.00
   2  -1   1   90.79    2.80
  -2  -1  -1   74.09    4.80
   2   1   1   87.39    5.40
  -2   1  -1   79.99    3.00
   2   1   1   78.29    5.10
  -2   1  -1   85.39    2.90
  -2   1  -1   85.29    3.10
   3  -1   1 3775.92   81.49
   3  -1   1 3944.41   81.89
  -3  -1  -1 3885.51   84.99
  -3  -1  -1 3814.62   84.79
  -3   1  -1 3866.91   81.29
   3   1   1 3810.62   85.09
  -3   1  -1 3842.22   81.69
   3   1   1 3776.52   84.99
   4  -1   1   22.60    2.80
  -4  -1  -1   28.10    4.20
  -4  -1  -1   15.60    3.90
   4  -1   1   21.90    2.40
   4   1   1   13.60    3.70
  -4   1  -1   17.30    2.10
  -4   1  -1   15.90    1.60
   4   1   1   17.40    4.10
   5  -1   1  507.65   13.30
  -5  -1  -1  494.05   16.20
   5  -1   1  490.95   13.00
  -5  -1  -1  481.15   16.80
  -5  -1  -1  503.35   16.30
  -5   1  -1  488.55   13.00
  -5   1  -1  486.25   12.10
  -5   1  -1  504.95   12.30
   5   1   1  497.85   16.80
   5   1   1  482.25   16.50
  -6  -1  -1  356.96   13.50
   6  -1   1  353.56   10.60
  -6  -1  -1  361.36   13.50
  -6  -1  -1  347.27   14.20
   6  -1   1  342.17   10.60
  -6   1  -1  320.27   10.20
  -6   1  -1  331.57    9.10
   6   1   1  321.87   13.60
  -6   1  -1  319.77   10.60
   6   1   1  344.87   14.10
   7  -1   1  120.09    6.60
  -7  -1  -1  114.99    8.40
  -7  -1  -1  118.39    9.60
   7  -1   1  110.39    6.30
  -7   1  -1  116.59    6.40
   7   1   1  128.29   10.30
   7   1   1  133.49    9.00
  -8  -1  -1    1.10    4.40
   8  -1   1    0.80    3.00
  -8   1  -1    0.40    2.40
   8   1   1    0.00    5.20
  -9  -1  -1    4.10    5.00
   9   1   1   -3.70    6.10
  -9   1  -1    7.50    3.10
 -10  -1  -1   38.10    7.90
  10   1   1   11.60    7.50
 -10  -2   1   -2.20    6.00
  10   2  -1   -7.60    7.00
  -9  -2   1   52.39    9.10
   9   2  -1   48.90   10.10
  -8  -2   1  132.09   12.30
   8   2  -1  119.89   13.00
  -7  -2   1   84.99   10.10
  -7  -2   1   68.59    8.10
   7   2  -1   64.69    9.10
   7   2  -1   82.39    9.10
  -6  -2   1   22.50    5.80
  -6  -2   1   20.20    5.10
   6   2  -1   21.50    6.10
   6   2  -1   17.60    5.50
  -5  -2   1  469.15   17.80
  -5  -2   1  431.96   17.30
  -5  -2   1  461.85   16.90
   5   2  -1  455.55   17.50
   5   2  -1  469.65   17.50
  -4  -2   1 1018.90   28.50
  -4  -2   1 1010.50   29.00
  -4  -2   1 1039.70   28.50
   4   2  -1 1024.10   29.10
   4   2  -1  998.80   28.80
  -3  -2   1   23.60    4.10
   3  -2  -1   18.00    1.70
  -3  -2   1   27.80    4.70
  -3  -2   1   24.60    4.50
   3  -2  -1   17.20    1.60
   3   2  -1   27.50    5.00
   3   2  -1   30.40    5.10
  -3   2   1   16.90    1.90
   2  -2  -1 6015.80  121.59
  -2  -2   1 5400.96  124.89
  -2  -2   1 5661.73  124.99
  -2  -2   1 5657.93  124.79
  -2  -2   1 5477.15  124.79
   2  -2  -1 5619.24  120.59
   2   2  -1 5790.12  125.29
  -2   2   1 5812.32  121.49
   2   2  -1 5825.82  125.29
  -2   2   1 5668.03  121.19
   2   2  -1 5805.82  125.59
   1  -2  -1 3870.41   83.99
   1  -2  -1 3882.71   83.89
  -1  -2   1 3968.20   85.89
  -1  -2   1 3785.22   85.79
  -1  -2   1 3949.50   85.99
   1  -2  -1 3904.61   83.69
  -1  -2   1 3830.92   85.79
  -1   2   1 3837.42   84.09
   1   2  -1 3697.23   86.09
   1   2  -1 3901.61   85.99
   1   2  -1 3976.20   85.99
  -1   2   1 3830.92   83.99
   1   2  -1 3931.41   86.09
   0  -2  -1  191.48    7.50
   0  -2   1  184.18    7.70
   0  -2   1  188.38    7.40
   0  -2   1  185.18    7.50
   0  -2  -1  178.78    7.10
   0  -2  -1  183.38    7.70
   0  -2   1  202.88    7.90
   0   2  -1  191.48    7.80
   0   2  -1  193.38    7.60
   0   2  -1  191.48    7.90
   0   2   1  196.28    7.70
   0   2   1  186.28    7.60
   0   2  -1  179.18    7.40
   1  -2   1   49.90    3.50
  -1  -2  -1   42.00    4.10
   1  -2   1   45.20    3.90
   1  -2   1   42.30    3.50
  -1  -2  -1   45.40    4.80
  -1  -2  -1   42.40    4.90
   1  -2   1   44.70    3.90
  -1   2  -1   42.40    3.50
   1   2   1   40.80    4.60
  -1   2  -1   46.50    3.80
   1   2   1   37.40    4.50
  -1   2  -1   39.90    3.40
  -1   2  -1   47.40    4.00
   2  -2   1  498.35   12.40
  -2  -2  -1  502.85   16.20
   2  -2   1  502.45   12.80
  -2  -2  -1  500.25   15.60
  -2  -2  -1  484.25   15.50
   2   2   1  474.55   15.80
  -2   2  -1  512.95   12.90
  -2   2  -1  495.25   12.70
  -2   2  -1  519.45   13.40
  -2   2  -1  492.45   12.90
   2   2   1  493.15   15.80
  -3  -2  -1   98.79    6.70
   3  -2   1   95.59    3.90
   3  -2   1   98.29    3.70
  -3  -2  -1   95.59    7.20
  -3   2  -1  102.59    3.50
   3   2   1   98.19    7.20
  -3   2  -1  103.79    3.90
   3   2   1   93.49    7.30
  -4  -2  -1  116.99    8.20
  -4  -2  -1  110.19    8.30
  -4  -2  -1  115.49    7.80
  -4   2  -1  118.89    3.90
   4   2   1  110.09    8.40
   4   2   1  101.99    8.20
  -5  -2  -1  271.97   13.20
  -5  -2  -1  263.37   12.40
   5   2   1  259.37   12.70
   5   2   1  277.57   13.10
  -6  -2  -1  119.59    9.20
  -6  -2  -1  122.79   10.20
   6   2   1  115.49   10.10
   6   2   1  112.19    9.70
  -7  -2  -1   67.09    9.30
  -7  -2  -1   55.59    7.50
   7   2   1   53.79    8.50
   7   2   1   52.99    8.20
  -8  -2  -1   90.49   11.20
   8   2   1   84.69   11.00
  -9  -2  -1   45.40    9.00
   9   2   1   33.50    9.00
 -10  -2  -1   44.20    9.50
  10   2   1   44.00   10.30
  -9  -3   1    6.80    7.40
   9   3  -1   -5.40    7.90
  -8  -3   1   14.30    7.80
   8   3  -1    7.30    7.50
  -7  -3   1    2.60    5.30
  -7  -3   1    5.30    6.90
   7   3  -1    8.50    5.60
   7   3  -1   -7.60    5.90
  -6  -3   1   49.10    8.60
  -6  -3   1   60.29    8.80
   6   3  -1   68.99    9.70
   6   3  -1   59.89    9.30
  -5  -3   1  201.88   12.00
  -5  -3   1  189.58   12.80
   5   3  -1  192.58   12.60
   5   3  -1  188.08   12.70
  -4  -3   1  183.48   11.60
   4  -3  -1  181.68    5.10
  -4  -3   1  191.48   11.30
   4   3  -1  200.58   11.90
   4   3  -1  196.48   11.90
  -4   3   1  184.18    6.30
  -3  -3   1 1563.74   41.40
  -3  -3   1 1537.35   40.90
   3  -3  -1 1534.85   35.40
   3  -3  -1 1585.14   33.90
   3  -3  -1 1500.15   33.80
   3   3  -1 1516.75   41.50
   3   3  -1 1553.64   41.40
  -3   3   1 1596.84   36.20
  -3   3   1 1593.64   35.30
  -2  -3   1   14.20    4.70
   2  -3  -1    9.10    2.40
   2  -3  -1   10.30    2.60
   2  -3  -1    9.30    3.00
  -2  -3   1   15.00    4.70
   2  -3  -1   11.20    2.40
   2   3  -1    6.40    4.30
   2   3  -1   10.70    4.20
  -2   3   1   10.10    2.90
  -2   3   1   10.30    2.70
   1  -3  -1  337.87   11.40
  -1  -3   1  326.87   12.70
  -1  -3   1  304.17   12.50
   1  -3  -1  328.57   11.40
   1  -3  -1  336.27   11.80
  -1  -3   1  314.37   12.80
   1   3  -1  340.97   13.00
   1   3  -1  330.07   13.10
   1   3  -1  327.77   13.20
  -1   3   1  328.07   11.70
  -1   3   1  331.17   11.50
   0  -3  -1  167.78    8.70
   0  -3  -1  181.68    8.40
   0  -3   1  169.38    8.60
   0  -3  -1  174.48    8.90
   0  -3   1  172.28    8.60
   0  -3   1  176.08    8.50
   0   3  -1  187.08    9.00
   0   3  -1  182.88    9.00
   0   3   1  186.98    8.90
   0   3   1  176.18    8.70
   0   3  -1  208.28    9.00
   1  -3   1   17.00    3.60
   1  -3   1   14.20    3.20
  -1  -3  -1   20.60    4.30
  -1  -3  -1   13.70    4.20
   1  -3   1   21.50    3.80
  -1  -3  -1    9.90    4.00
   1   3   1   17.80    4.30
  -1   3  -1    9.30    2.70
  -1   3  -1    8.90    3.10
   1   3   1   16.80    4.20
  -1   3  -1   15.50    3.50
  -2  -3  -1  849.91   25.80
   2  -3   1  894.81   22.20
   2  -3   1  888.41   22.80
   2  -3   1  896.71   22.20
  -2  -3  -1  877.21   26.20
   2  -3   1  882.81   22.70
  -2   3  -1  922.31   23.10
  -2   3  -1  883.71   23.30
  -2   3  -1  912.31   23.00
   2   3   1  858.51   25.80
   2   3   1  898.91   26.30
  -3  -3  -1  395.26   16.10
  -3  -3  -1  350.86   15.00
   3  -3   1  373.76   10.00
   3  -3   1  388.16   11.30
   3  -3   1  383.26   10.10
   3   3   1  384.36   15.80
   3   3   1  388.86   16.00
  -3   3  -1  401.46   12.10
  -3   3  -1  380.96   11.10
  -3   3  -1  395.36   11.50
  -4  -3  -1  120.79    9.70
   4  -3   1  114.09    4.50
   4  -3   1  106.49    4.40
  -4  -3  -1  121.99    9.40
   4   3   1  121.29    9.60
   4   3   1  103.89    9.00
  -4   3  -1  107.99    4.60
  -5  -3  -1    8.50    5.10
  -5  -3  -1    8.80    5.40
   5   3   1    4.90    5.20
   5   3   1   12.10    6.10
  -6  -3  -1  142.79   11.60
  -6  -3  -1  202.78   13.80
   6   3   1  151.68   12.30
   6   3   1  174.58   13.30
  -7  -3  -1   84.09    9.90
  -7  -3  -1  105.49   12.30
   7   3   1   87.69   10.60
   7   3   1   83.79   11.50
  -8  -3  -1  113.99   13.50
   8   3   1  112.19   13.80
  -9  -3  -1  119.29   14.60
   9   3   1  131.69   16.10
  -9  -4   1   50.29   12.90
   9   4  -1   -4.40    9.90
  -8  -4   1   18.70    9.00
   8   4  -1   25.40   10.10
  -7  -4   1   32.20    9.60
  -7  -4   1   26.90    7.90
   7   4  -1    7.90    8.30
   7   4  -1   20.00    7.80
  -6  -4   1   12.80    7.90
  -6  -4   1    3.80    5.50
   6   4  -1    4.00    7.20
   6   4  -1    9.80    6.60
  -5  -4   1   19.20    7.80
  -5  -4   1   19.10    7.20
   5   4  -1   15.10    7.30
  -5   4   1   22.90    2.80
   5   4  -1   17.90    7.50
  -4  -4   1  489.15   21.00
   4  -4  -1  486.05   13.60
   4  -4  -1  489.95   13.50
  -4  -4   1  473.25   20.30
   4   4  -1  464.05   20.80
  -4   4   1  482.35   14.70
   4   4  -1  492.05   21.00
  -3  -4   1  370.96   17.10
   3  -4  -1  372.36   12.40
   3  -4  -1  358.66   11.90
  -3  -4   1  343.07   16.10
   3  -4  -1  360.66   11.00
  -3   4   1  371.66   12.20
   3   4  -1  355.36   16.60
  -3   4   1  356.46   13.00
   3   4  -1  373.56   17.40
  -2  -4   1   24.70    6.00
  -2  -4   1   39.10    7.40
   2  -4  -1   31.90    4.70
   2  -4  -1   34.10    4.60
   2  -4  -1   20.10    4.40
  -2   4   1   28.80    4.70
   2   4  -1   23.20    5.80
  -2   4   1   32.00    4.80
   2   4  -1   17.40    5.50
   1  -4  -1  228.28   10.30
   1  -4  -1  219.08   10.00
  -1  -4   1  215.48   11.80
  -1  -4   1  218.58   12.00
   1  -4  -1  206.38   10.50
   1   4  -1  238.28   12.50
  -1   4   1  204.68   10.30
  -1   4   1  201.38   10.40
   1   4  -1  201.48   11.70
   0  -4   1  188.08   10.60
   0  -4  -1  187.38   10.70
   0  -4   1  187.88   10.50
   0  -4  -1  185.28    9.70
   0  -4   1  186.38   10.00
   0  -4  -1  188.68   10.50
   0   4   1  190.88   10.60
   0   4   1  181.18   10.10
   0   4  -1  185.18   10.50
   0   4  -1  195.18   10.80
   0   4  -1  186.28   10.00
  -1  -4  -1  191.08   11.20
   1  -4   1  205.88    9.80
   1  -4   1  181.88    9.40
  -1  -4  -1  190.78   11.20
   1  -4   1  186.68    9.90
  -1   4  -1  175.48    9.70
  -1   4  -1  193.88    9.50
   1   4   1  194.38   11.10
  -1   4  -1  195.58   10.40
   1   4   1  173.88   10.70
  -2  -4  -1  235.88   12.90
   2  -4   1  255.07   10.30
   2  -4   1  243.88   10.70
   2  -4   1  249.08   10.50
  -2  -4  -1  257.57   13.50
  -2   4  -1  265.87   10.80
  -2   4  -1  272.87   11.20
   2   4   1  284.37   13.90
   2   4   1  256.97   13.50
  -2   4  -1  276.37   11.60
  -3  -4  -1  109.19   10.40
  -3  -4  -1  111.09    9.70
   3  -4   1  116.09    6.90
   3  -4   1  109.19    6.50
   3  -4   1   77.99    4.80
  -3   4  -1  104.19    7.20
   3   4   1  118.09   10.30
  -3   4  -1  110.39    6.50
  -3   4  -1   94.99    6.10
   3   4   1  111.39   10.20
   4  -4   1  187.88    7.60
  -4  -4  -1  179.38   12.50
   4  -4   1  185.28    7.80
  -4  -4  -1  219.68   14.40
   4   4   1  204.68   13.70
  -4   4  -1  184.78    8.60
  -4   4  -1  172.68    6.90
  -4   4  -1  185.38    7.80
   4   4   1  203.58   13.90
  -5  -4  -1  138.19   12.50
  -5  -4  -1  158.78   13.70
   5   4   1  141.99   12.60
   5   4   1  112.99   12.50
  -6  -4  -1  171.58   13.90
  -6  -4  -1  198.18   15.80
   6   4   1  165.28   14.00
   6   4   1  149.09   14.80
  -7  -4  -1    9.50    7.90
  -7  -4  -1   11.10    6.70
   7   4   1   -4.20    5.40
   7   4   1    1.50    7.30
  -8  -4  -1   64.29   12.00
   8   4   1   54.69   11.70
  -9  -4  -1   39.60   11.30
   9   4   1   17.00   11.50
  -8  -5   1    1.50   10.30
   8   5  -1    5.40    9.60
  -7  -5   1    0.90    7.00
  -7  -5   1    5.10    9.00
   7   5  -1   20.90    8.60
   7   5  -1    1.20    9.40
  -6  -5   1   72.99   12.20
  -6  -5   1   51.79   10.00
   6   5  -1   40.10   11.00
   6   5  -1   68.99   11.90
  -5  -5   1   45.00   10.60
   5  -5  -1   31.70    4.00
  -5  -5   1   30.10    8.80
  -5   5   1   34.50    4.40
   5   5  -1   33.90    9.00
   5   5  -1   28.50    9.40
  -4  -5   1   33.80    9.10
   4  -5  -1   32.60    4.90
  -4  -5   1   19.70    7.60
  -4   5   1   22.40    4.90
   4   5  -1   40.80    9.40
   4   5  -1   49.60    9.80
   3  -5  -1  182.78   10.00
  -3  -5   1  195.58   14.40
  -3  -5   1  168.18   14.10
   3   5  -1  172.88   14.20
   3   5  -1  172.68   14.00
  -3   5   1  179.98   10.70
   2  -5  -1   76.39    6.80
  -2  -5   1   64.59    9.40
   2  -5  -1   71.79    8.10
  -2  -5   1   80.29   10.50
   2  -5  -1   59.89    6.90
  -2   5   1   63.49    7.80
   2   5  -1   55.49    9.00
   2   5  -1   88.89   11.10
  -2   5   1   65.99    7.70
  -1  -5   1  108.09   10.60
   1  -5  -1  101.89    9.20
  -1  -5   1  106.49   10.60
   1  -5  -1  113.29    8.90
   1  -5  -1   91.79    7.70
   1   5  -1  104.29   10.40
  -1   5   1  107.79    9.60
  -1   5   1  109.89    9.40
   1   5  -1  105.99   10.60
   0  -5   1  116.49   10.20
   0  -5  -1  103.99   10.10
   0  -5   1  115.19   10.10
   0  -5  -1  107.09    9.40
   0   5  -1   83.79    9.60
   0   5   1   91.29    9.30
   0   5  -1   90.29    9.90
   0   5   1   94.79    9.50
   1  -5   1  165.58   10.20
  -1  -5  -1  195.18   12.50
  -1  -5  -1  176.68   12.70
   1  -5   1  178.98   10.90
   1  -5   1  179.88   11.40
   1   5   1  171.88   12.20
   1   5   1  183.78   12.50
  -1   5  -1  177.18   11.80
  -1   5  -1  199.68   12.40
  -1   5  -1  196.48   11.90
   2  -5   1   68.49    7.90
  -2  -5  -1   90.59   11.40
   2  -5   1   58.69    6.70
   2  -5   1   52.69    6.40
  -2  -5  -1   63.99    9.10
  -2   5  -1   66.59    7.90
   2   5   1   58.69    8.90
   2   5   1   61.39    9.30
  -2   5  -1   76.19    8.20
  -3  -5  -1   61.49    9.80
   3  -5   1   58.19    7.30
  -3  -5  -1   89.99   11.60
  -3   5  -1   68.59    7.90
   3   5   1   73.69   10.60
   3   5   1   70.59   10.50
  -4  -5  -1  105.09   12.90
  -4  -5  -1  119.79   13.60
   4  -5   1  102.59    7.40
   4   5   1   95.59   12.30
   4   5   1  120.39   13.60
  -4   5  -1  103.19    8.20
  -5  -5  -1    3.30    7.90
  -5  -5  -1   13.30    7.60
   5  -5   1   11.10    3.10
   5   5   1   25.10    8.60
   5   5   1    7.30    7.70
  -6  -5  -1   12.40    8.30
  -6  -5  -1    7.10    6.70
   6   5   1    1.60    8.10
   6   5   1  -14.90    5.80
  -7  -5  -1   58.29   10.90
  -7  -5  -1   59.79   12.70
   7   5   1   38.40   11.00
   7   5   1   36.20    9.50
  -8  -5  -1   29.50   11.70
   8   5   1    6.00   10.80
  -7  -6   1   50.99   12.10
   7   6  -1   32.50   12.90
  -6  -6   1   30.40    9.60
  -6  -6   1   21.00   10.50
   6   6  -1    7.50    9.30
   6   6  -1    9.80    8.60
  -5  -6   1   84.49   13.30
  -5  -6   1  110.59   14.60
  -5   6   1   80.89    7.40
   5   6  -1   68.89   12.90
   5   6  -1   95.29   14.60
   4  -6  -1   23.80    5.50
  -4  -6   1   35.30    9.80
  -4  -6   1   34.90    9.90
  -4   6   1   25.70    5.90
   4   6  -1   21.60    9.10
   4   6  -1   16.70    8.80
  -3  -6   1   11.60    7.90
  -3  -6   1   13.10    8.10
   3  -6  -1   11.40    5.00
  -3   6   1    8.50    5.20
   3   6  -1   22.80    8.30
   3   6  -1    3.50    7.20
   2  -6  -1  140.39   11.20
  -2  -6   1  138.79   14.20
  -2  -6   1  135.29   14.10
   2   6  -1  147.99   14.30
  -2   6   1  136.89   11.60
   2   6  -1  131.69   14.20
  -1  -6   1  122.29   13.00
  -1  -6   1  116.59   12.60
   1  -6  -1  101.59   11.10
   1  -6  -1   95.19   10.10
  -1   6   1  111.89   11.10
   1   6  -1   89.69   12.00
   1   6  -1  102.09   12.30
  -1   6   1  101.19   11.10
   0  -6   1   45.70    8.70
   0  -6  -1   54.59    9.00
   0  -6  -1   55.79    8.70
   0  -6   1   63.89    9.70
   0   6   1   42.10    8.30
   0   6   1   64.69   10.40
   0   6  -1   43.30    8.70
   0   6  -1   48.60    8.40
   1  -6   1   93.39   10.10
  -1  -6  -1  101.09   11.70
   1  -6   1   95.99   10.40
  -1  -6  -1  113.79   12.40
  -1   6  -1   91.79   10.70
  -1   6  -1   70.39    9.60
   1   6   1  111.89   13.00
   1   6   1   88.99   12.00
  -2  -6  -1   52.29    9.80
  -2  -6  -1   64.19   10.20
   2  -6   1   51.49    7.90
   2   6   1   64.69   10.70
  -2   6  -1   66.29    9.30
   2   6   1   60.19   11.20
  -3  -6  -1   70.59   11.50
   3  -6   1   66.19    8.20
  -3  -6  -1   86.69   12.40
  -3   6  -1   67.09    8.90
   3   6   1   83.89   12.30
   3   6   1   64.59   11.90
   4  -6   1   26.50    5.50
  -4  -6  -1   29.00    9.60
  -4  -6  -1   20.20    8.90
   4   6   1   29.60   10.10
  -4   6  -1   20.60    5.90
   4   6   1   11.60    8.10
  -5  -6  -1   42.30   11.80
  -5  -6  -1   33.30    9.50
   5  -6   1   29.50    5.30
   5   6   1   27.30   10.80
   5   6   1   38.50   10.60
  -6  -6  -1    4.50    8.50
  -6  -6  -1    1.60    6.90
   6   6   1    3.70    9.40
   6   6   1   -0.60    8.00
  -5  -7   1    8.10    8.40
  -5  -7   1    6.10    9.60
   5   7  -1    4.80    8.20
   5   7  -1    4.50    9.90
  -4  -7   1   28.20   11.40
  -4  -7   1   20.00   10.00
   4  -7  -1   17.20    5.50
   4   7  -1   18.90    8.60
   4   7  -1    8.10    9.10
  -4   7   1   11.40    5.60
  -3  -7   1   43.10   11.70
   3  -7  -1   30.40    7.00
  -3  -7   1   28.10   10.20
   3   7  -1   23.80   10.00
  -3   7   1   26.00    7.40
   3   7  -1   22.00    9.10
  -2  -7   1   31.70    9.20
  -2  -7   1   28.70    9.60
   2  -7  -1   14.60    7.00
   2   7  -1   13.40    9.30
   2   7  -1   17.30    8.90
  -2   7   1   23.60    7.90
  -1  -7   1   34.00    9.60
   1  -7  -1   24.60    8.00
  -1  -7   1   37.10    9.60
   1   7  -1   29.80   10.00
   1   7  -1   21.30    9.10
  -1   7   1   19.40    8.30
   0  -7  -1  102.69   13.40
   0  -7   1   79.99   11.20
   0   7  -1   84.99   12.40
   0   7   1   65.59   11.80
  -1  -7  -1   88.59   13.00
   1  -7   1   64.19   10.50
  -1  -7  -1  110.69   13.70
   1   7   1   64.49   11.90
  -1   7  -1   68.09   11.60
   1   7   1   75.69   13.10
   2  -7   1   10.20    6.70
  -2  -7  -1    8.20    7.20
  -2  -7  -1    1.70    7.10
   2   7   1   13.70    8.50
  -2   7  -1   14.10    6.80
   2   7   1    5.30    7.80
  -3  -7  -1   52.19   11.80
   3  -7   1   37.70    7.50
  -3  -7  -1   35.30   10.40
   3   7   1   19.70   10.20
   3   7   1   22.50    8.90
  -3   7  -1   30.20    7.80
  -4  -7  -1   30.20   11.00
   4  -7   1   28.50    6.40
  -4  -7  -1   33.80   11.30
  -4   7  -1   33.90    7.50
   4   7   1   37.10   10.70
   4   7   1   10.60    9.90
  -5  -7  -1    5.90    9.70
  -5  -7  -1    4.90    8.60
   5   7   1   14.90    9.60
   5   7   1  -21.10    7.80
  -1  -8   1   70.19   12.50
   1  -8  -1   82.19   12.70
   1   8  -1   72.69   12.80
  -1   8   1   65.99   11.80
   0  -8   1   20.00    9.60
   0  -8  -1    6.60    9.00
   0   8  -1   12.70    8.00
   0   8   1   27.00    8.80
   1  -8   1   63.99   11.80
  -1  -8  -1   92.19   14.40
  -1   8  -1   49.99   10.70
   1   8   1   70.19   13.60
 -10   0   2   22.70    6.10
  -9   0   2   91.89    8.20
   9   0  -2   87.59    9.20
  -8   0   2    0.40    3.40
   8   0  -2   -2.10    4.10
   7   0  -2  426.76   15.50
  -7   0   2  424.06   15.10
  -6   0   2  301.07   11.20
  -6   0   2  297.97   10.50
  -6   0   2  307.77   11.70
   6   0  -2  310.87   12.10
  -5   0   2  289.47   10.30
  -5   0   2  287.27    9.80
  -5   0   2  272.37   10.30
   5   0  -2  300.17   11.10
  -4   0   2 1313.77   31.70
  -4   0   2 1335.57   31.60
   4   0  -2 1313.67   31.40
   4   0  -2 1314.67   31.70
  -4   0   2 1321.47   31.10
  -4   0   2 1325.37   31.30
  -3   0   2   11.90    2.40
   3   0  -2   12.20    2.30
  -3   0   2   11.30    2.30
   3   0  -2   11.80    2.10
  -3   0   2   15.50    2.50
   3   0  -2   12.10    2.70
  -3   0   2    8.10    2.10
   2   0  -2   19.70    2.30
  -2   0   2   29.10    2.70
  -2   0   2   23.20    2.70
  -2   0   2   25.60    2.90
   2   0  -2   23.40    2.50
  -2   0   2   23.80    2.60
   2   0  -2   29.70    3.40
  -1   0   2 5322.87  112.09
   1   0  -2 5363.26  112.49
  -1   0   2 5205.38  111.99
   1   0  -2 5198.48  112.09
   1   0  -2 5237.48  113.49
  -1   0   2 5331.27  112.39
   0   0  -2  568.54   13.90
   0   0  -2  536.15   13.40
   0   0  -2  568.74   13.60
   0   0   2  566.64   13.60
   0   0   2  560.74   13.80
   0   0   2  556.94   13.50
  -1   0  -2 1563.04   35.20
   1   0   2 1587.74   35.20
  -1   0  -2 1576.14   34.80
   1   0   2 1569.74   34.80
   1   0   2 1539.85   34.70
  -1   0  -2 1544.55   34.70
  -2   0  -2  835.52   20.30
   2   0   2  849.91   20.40
  -2   0  -2  852.11   20.30
   2   0   2  852.31   20.40
  -3   0  -2 2226.88   48.50
   3   0   2 2136.99   48.70
   3   0   2 2138.29   48.50
  -3   0  -2 2157.18   48.60
   4   0   2   23.30    3.60
  -4   0  -2   21.20    3.00
   4   0   2   22.30    3.30
  -4   0  -2   22.30    3.10
   5   0   2   93.19    6.70
  -5   0  -2   77.89    5.30
   5   0   2   90.89    5.70
  -6   0  -2   49.40    4.80
  -6   0  -2   52.39    4.90
   6   0   2   53.29    6.10
   6   0   2   34.20    4.10
   7   0   2  241.88   11.70
  -7   0  -2  227.28   11.20
  -8   0  -2  208.78   11.50
   8   0   2  224.78   12.10
  -9   0  -2   -1.90    3.90
   9   0   2   -6.00    4.50
 -10   0  -2    0.20    4.60
 -10  -1   2    1.60    5.20
  10   1  -2  -13.20    5.50
  -9  -1   2   11.90    5.70
   9   1  -2    1.20    6.20
   8  -1  -2  188.78    7.50
  -8  -1   2  167.58   11.40
  -8   1   2  170.18    8.00
   8   1  -2  180.68   12.40
   7  -1  -2  150.98    6.90
  -7  -1   2  140.89   10.10
  -7  -1   2  146.09    9.20
   7   1  -2  141.79   11.00
  -7   1   2  145.19    6.90
   7   1  -2  156.78    9.80
   6  -1  -2  608.84   15.70
  -6  -1   2  594.54   18.80
  -6  -1   2  590.54   19.20
  -6  -1   2  581.74   19.60
   6   1  -2  577.54   19.50
   6   1  -2  600.44   20.10
  -6   1   2  578.14   15.70
  -6   1   2  588.94   15.80
  -6   1   2  583.54   13.80
  -5  -1   2  902.21   26.00
   5  -1  -2  965.50   22.30
  -5  -1   2  920.41   25.50
  -5  -1   2  934.31   26.00
  -5   1   2  909.91   21.00
   5   1  -2  949.51   26.50
   5   1  -2  926.41   26.30
  -5   1   2  939.21   21.00
  -5   1   2  902.71   22.30
  -5   1   2  974.20   22.50
   4  -1  -2  173.98    5.70
  -4  -1   2  177.68    8.40
   4  -1  -2  176.08    6.00
  -4  -1   2  194.18    8.60
  -4  -1   2  167.78    8.60
  -4   1   2  184.08    5.10
  -4   1   2  178.98    5.90
   4   1  -2  172.18    8.90
  -4   1   2  173.28    5.90
   4   1  -2  173.98    8.40
   4   1  -2  169.58    8.80
  -4   1   2  174.18    5.10
   3  -1  -2  136.09    4.50
  -3  -1   2  139.59    7.10
  -3  -1   2  132.99    6.90
   3  -1  -2  132.79    4.80
  -3  -1   2  140.59    7.00
  -3  -1   2  136.19    7.20
   3   1  -2  134.09    6.70
  -3   1   2  131.29    4.30
  -3   1   2  134.69    4.20
  -3   1   2  139.39    4.60
   3   1  -2  145.39    7.60
   3   1  -2  129.39    6.90
   3   1  -2  129.49    7.30
   2  -1  -2 2782.42   61.09
  -2  -1   2 2685.93   63.29
   2  -1  -2 2941.11   60.59
  -2  -1   2 2883.01   63.89
  -2  -1   2 2846.02   63.49
  -2  -1   2 2666.23   63.09
   2   1  -2 2804.82   63.39
  -2   1   2 2921.21   61.09
   2   1  -2 2845.72   63.99
  -2   1   2 3063.59   61.09
   2   1  -2 2718.33   63.59
  -2   1   2 2916.01   60.79
   2   1  -2 2827.12   63.39
   1  -1  -2 2186.08   46.60
  -1  -1   2 2102.89   48.20
  -1  -1   2 2058.09   47.80
   1  -1  -2 2175.78   46.50
  -1  -1   2 2165.38   48.20
  -1  -1   2 2171.58   48.00
   1   1  -2 2124.99   47.90
   1   1  -2 2120.69   48.20
   1   1  -2 2117.39   48.50
   1   1  -2 2040.30   47.70
  -1   1   2 2153.18   46.90
  -1   1   2 2127.19   46.50
  -1   1   2 2181.38   46.60
   0  -1   2   57.19    3.80
   0  -1  -2   58.59    3.60
   0  -1   2   62.39    3.70
   0  -1   2   63.39    3.80
   0  -1   2   64.09    4.20
   0  -1  -2   55.99    3.40
   0   1   2   61.69    3.60
   0   1  -2   67.69    4.20
   0   1  -2   59.79    3.60
   0   1  -2   61.79    3.90
   0   1   2   52.69    3.40
   0   1  -2   58.49    3.70
   1  -1   2 5925.71  126.09
   1  -1   2 5914.11  126.39
   1  -1   2 6091.99  126.59
  -1  -1  -2 5827.02  127.09
   1  -1   2 5882.41  125.99
  -1  -1  -2 5984.10  127.19
   1   1   2 5897.41  127.29
   1   1   2 5969.50  127.29
  -1   1  -2 5955.40  126.09
  -1   1  -2 5964.60  126.49
  -1   1  -2 5836.62  127.69
  -2  -1  -2 1372.46   32.90
  -2  -1  -2 1424.96   33.00
   2  -1   2 1330.47   31.20
   2  -1   2 1386.36   31.00
   2   1   2 1376.06   33.10
   2   1   2 1330.17   32.90
  -2   1  -2 1418.26   31.40
  -2   1  -2 1356.46   30.90
  -2   1  -2 1414.86   30.90
   3  -1   2  310.17    8.70
  -3  -1  -2  310.47   10.70
   3  -1   2  294.47    8.00
  -3  -1  -2  302.67   10.60
   3   1   2  293.87   10.90
  -3   1  -2  293.87    8.30
  -3   1  -2  298.27    8.50
   3   1   2  294.97   10.80
   4  -1   2  148.69    4.90
  -4  -1  -2  149.99    7.50
   4  -1   2  146.29    5.80
  -4   1  -2  154.78    5.40
   4   1   2  150.18    8.20
   4   1   2  151.28    8.10
  -4   1  -2  142.79    5.50
  -5  -1  -2  450.45   15.00
   5  -1   2  383.56   12.10
   5  -1   2  429.26   12.20
   5  -1   2  421.76   10.40
  -5   1  -2  410.16   12.00
   5   1   2  435.36   15.50
   5   1   2  428.36   15.00
   6  -1   2  274.17    9.80
  -6  -1  -2  273.67   12.00
   6  -1   2  283.27    9.80
  -6  -1  -2  283.97   12.10
  -6  -1  -2  260.07   12.80
  -6   1  -2  257.27    9.20
  -6   1  -2  270.67    8.50
   6   1   2  285.67   12.90
   6   1   2  285.27   12.50
  -7  -1  -2  161.08   11.00
  -7  -1  -2  164.28    9.80
   7  -1   2  179.88    8.20
   7   1   2  168.48   11.60
   7   1   2  160.98   10.10
  -7   1  -2  168.28    8.00
  -8  -1  -2  195.48   12.70
   8  -1   2  220.38    9.30
   8   1   2  205.18   13.40
  -8   1  -2  200.78    9.20
  -9  -1  -2   14.40    6.30
  -9   1  -2   12.30    3.50
   9   1   2    7.70    6.50
 -10  -1  -2    4.20    5.30
  10   1   2  -20.20    5.30
 -10  -2   2    3.90    6.50
  10   2  -2   -0.80    7.80
  -9  -2   2   33.00    8.00
   9   2  -2   26.40    8.50
  -8  -2   2   16.40    6.60
   8   2  -2   14.30    7.40
  -7  -2   2  181.38   12.50
  -7  -2   2  160.18   10.70
   7   2  -2  165.58   13.20
   7   2  -2  167.68   12.00
  -6  -2   2  158.08   10.10
  -6  -2   2  152.68   10.90
   6   2  -2  131.69   10.50
   6   2  -2  141.09   11.00
  -5  -2   2   98.99    8.60
  -5  -2   2  111.59    8.30
   5   2  -2   93.49    8.70
   5   2  -2  104.99    9.20
  -4  -2   2 1052.19   28.80
  -4  -2   2  988.10   28.70
  -4  -2   2 1042.20   28.50
   4   2  -2  993.30   28.90
   4   2  -2  994.00   29.00
  -4   2   2 1015.10   22.50
  -3  -2   2  386.56   14.10
  -3  -2   2  352.66   13.50
  -3  -2   2  373.36   13.70
   3  -2  -2  363.56    9.40
   3   2  -2  368.76   14.10
   3   2  -2  376.26   14.20
  -3   2   2  370.96    9.20
  -3   2   2  384.06    9.80
   3   2  -2  386.36   13.90
  -3   2   2  368.26    9.10
  -2  -2   2 1132.59   29.60
   2  -2  -2 1194.08   26.10
  -2  -2   2 1141.49   29.80
  -2  -2   2 1125.39   29.70
  -2  -2   2 1145.29   29.60
   2  -2  -2  994.40   26.10
   2   2  -2 1141.39   30.20
  -2   2   2 1164.18   26.60
   2   2  -2 1155.08   29.60
   2   2  -2 1182.48   30.10
  -2   2   2 1150.68   26.40
   2   2  -2 1163.78   29.80
  -2   2   2 1141.29   26.60
   1  -2  -2  495.95   13.50
  -1  -2   2  504.15   15.50
  -1  -2   2  486.85   15.20
   1  -2  -2  500.55   13.70
  -1  -2   2  511.25   15.50
  -1  -2   2  489.25   15.30
   1   2  -2  500.85   15.60
   1   2  -2  498.15   15.70
   1   2  -2  530.05   15.50
  -1   2   2  511.65   13.90
   1   2  -2  503.45   15.20
  -1   2   2  493.35   13.80
   0  -2   2  532.05   15.20
   0  -2   2  487.85   14.70
   0  -2   2  500.05   14.90
   0  -2   2  498.35   14.70
   0  -2  -2  518.75   14.50
   0  -2  -2  516.65   14.60
   0   2  -2  527.05   14.90
   0   2  -2  539.65   15.30
   0   2   2  476.75   14.60
   0   2  -2  522.15   15.30
   0   2   2  517.65   14.90
   0   2  -2  513.85   14.90
  -1  -2  -2  156.28    7.20
   1  -2   2  160.28    6.60
   1  -2   2  152.98    6.30
   1  -2   2  164.68    6.90
  -1  -2  -2  151.48    7.20
   1  -2   2  162.68    6.60
  -1   2  -2  158.78    6.50
  -1   2  -2  153.78    6.80
  -1   2  -2  157.88    6.90
   1   2   2  145.49    7.40
   1   2   2  138.89    7.30
  -1   2  -2  154.18    6.40
   2  -2   2   92.89    4.50
   2  -2   2   78.29    4.70
  -2  -2  -2   76.99    6.20
   2  -2   2   85.79    4.70
  -2  -2  -2   84.79    6.00
   2   2   2   79.79    6.30
   2   2   2   89.69    6.70
  -2   2  -2   87.59    4.40
  -2   2  -2   90.69    4.40
  -2   2  -2   90.69    5.00
  -2   2  -2   86.39    4.70
   3  -2   2  731.13   17.60
   3  -2   2  761.02   18.40
   3  -2   2  750.22   17.40
  -3  -2  -2  766.52   22.20
  -3   2  -2  769.62   18.60
   3   2   2  774.02   22.70
  -3   2  -2  781.02   18.70
  -3   2  -2  787.72   18.20
   3   2   2  765.82   22.70
  -4  -2  -2  408.46   16.10
   4  -2   2  438.86   11.30
   4  -2   2  411.96   10.90
  -4  -2  -2  432.56   15.50
  -4   2  -2  399.86   11.00
   4   2   2  417.06   15.80
   4   2   2  434.56   16.20
  -4   2  -2  415.96   10.10
  -5  -2  -2  144.19    9.30
   5  -2   2  130.19    4.80
   5  -2   2  132.39    4.70
  -5  -2  -2  146.49   10.10
   5   2   2  131.19    9.70
   5   2   2  156.98   10.00
  -5   2  -2  132.09    5.00
  -6  -2  -2  457.85   18.80
  -6  -2  -2  463.25   17.80
   6   2   2  492.25   19.10
  -6   2  -2  437.96   12.10
   6   2   2  474.25   18.50
  -7  -2  -2  146.79   10.50
  -7  -2  -2  124.39   11.40
  -7   2  -2  117.99    5.20
   7   2   2  111.59   10.10
   7   2   2  116.69   11.40
  -8  -2  -2   15.80    6.90
   8   2   2   -1.00    6.20
  -9  -2  -2  149.79   13.70
   9   2   2  120.39   13.90
 -10  -2  -2   26.90    8.90
  10   2   2   32.40    9.70
  -9  -3   2   14.70    8.40
   9   3  -2   11.20    8.80
  -8  -3   2   28.40    8.80
   8   3  -2   26.90    9.10
  -7  -3   2   13.10    7.50
  -7  -3   2   14.50    6.20
   7   3  -2   13.90    6.20
   7   3  -2    3.60    6.80
  -6  -3   2   46.60    9.00
  -6  -3   2   28.50    6.70
   6   3  -2   22.30    6.80
   6   3  -2   38.70    8.60
  -5  -3   2   49.80    8.00
  -5  -3   2   63.19    9.00
   5   3  -2   44.60    7.70
   5   3  -2   65.59    9.40
   4  -3  -2  145.59    4.80
  -4  -3   2  146.99   10.60
  -4  -3   2  144.49   10.10
   4  -3  -2  129.29    4.70
   4   3  -2  148.59   10.70
  -4   3   2  135.89    5.40
   4   3  -2  122.19    9.80
  -3  -3   2  519.65   19.00
   3  -3  -2  561.54   13.30
   3  -3  -2  530.85   13.30
  -3  -3   2  539.75   19.60
  -3   3   2  534.35   15.00
  -3   3   2  525.25   14.30
  -3   3   2  577.04   14.50
   3   3  -2  551.74   20.20
   3   3  -2  548.95   19.80
  -2  -3   2  185.78   10.20
   2  -3  -2  181.68    7.30
   2  -3  -2  182.28    7.50
   2  -3  -2  183.88    7.30
  -2  -3   2  186.58   10.50
   2   3  -2  197.48   10.70
  -2   3   2  188.08    7.90
   2   3  -2  194.68   10.70
  -2   3   2  184.18    7.70
  -1  -3   2 1850.11   46.20
   1  -3  -2 1892.11   44.20
  -1  -3   2 1837.92   46.20
  -1  -3   2 1940.91   46.50
   1  -3  -2 1814.32   44.30
  -1   3   2 1907.21   44.60
   1   3  -2 1896.61   47.00
   1   3  -2 1882.51   46.60
  -1   3   2 1867.01   44.70
   1   3  -2 1912.21   46.50
   0  -3   2    2.40    3.00
   0  -3   2    2.00    2.80
   0  -3   2    5.00    3.20
   0  -3  -2    0.10    2.80
   0  -3  -2    0.30    2.40
   0   3  -2    1.40    3.00
   0   3  -2    1.10    3.00
   0   3  -2    3.20    2.70
   0   3   2    5.70    3.20
   0   3   2   -1.60    2.50
   1  -3   2  302.17   10.90
  -1  -3  -2  292.87   12.50
   1  -3   2  301.97   11.10
   1  -3   2  292.47   11.00
  -1  -3  -2  290.57   11.80
   1   3   2  311.77   12.60
  -1   3  -2  299.27   11.50
   1   3   2  304.97   12.40
  -1   3  -2  313.77   11.10
  -1   3  -2  265.67   10.90
   2  -3   2 1303.57   32.40
   2  -3   2 1354.96   32.30
  -2  -3  -2 1283.07   35.80
   2  -3   2 1338.17   31.80
  -2   3  -2 1358.36   33.40
  -2   3  -2 1310.27   32.40
   2   3   2 1338.37   35.70
   2   3   2 1319.97   35.70
  -2   3  -2 1343.87   32.50
   3  -3   2   11.80    2.80
   3  -3   2   15.40    2.40
   3  -3   2   20.50    3.40
  -3  -3  -2   16.10    5.30
   3  -3   2   19.20    2.50
   3   3   2    9.30    5.20
  -3   3  -2   15.40    2.60
  -3   3  -2   19.30    3.20
  -3   3  -2   15.70    2.80
   3   3   2   21.00    5.80
  -4  -3  -2  419.76   17.80
   4  -3   2  418.66   11.60
   4  -3   2  421.66   11.80
  -4  -3  -2  445.46   17.60
   4   3   2  437.66   17.60
   4   3   2  426.36   17.60
  -4   3  -2  416.66   11.20
  -4   3  -2  408.56   11.90
  -5  -3  -2  260.87   14.50
  -5  -3  -2  253.07   13.70
  -5   3  -2  224.18    7.30
   5   3   2  227.78   13.90
   5   3   2  236.68   13.60
  -6  -3  -2  305.97   15.90
  -6  -3  -2  325.67   17.40
   6   3   2  320.27   16.50
   6   3   2  346.97   17.80
  -7  -3  -2   14.80    6.20
  -7  -3  -2   16.10    7.30
   7   3   2   10.60    6.60
   7   3   2   12.30    7.70
  -8  -3  -2   73.59   11.90
   8   3   2   67.29   11.70
  -9  -3  -2  101.99   13.60
   9   3   2  114.79   14.60
  -9  -4   2   95.79   14.80
   9   4  -2   90.89   15.40
  -8  -4   2   12.80    9.00
   8   4  -2   -6.20    8.10
  -7  -4   2    8.50    6.90
  -7  -4   2    9.40    7.90
   7   4  -2    5.60    6.40
   7   4  -2    9.20    7.90
  -6  -4   2  113.29   13.70
  -6  -4   2   76.59   10.60
   6   4  -2   77.29   11.10
   6   4  -2   77.39   11.80
  -5  -4   2   21.60    7.30
  -5  -4   2   18.10    7.60
  -5   4   2   13.60    2.50
   5   4  -2   15.80    7.10
   5   4  -2   18.90    7.40
  -4  -4   2   73.79    9.60
  -4  -4   2   88.99   10.60
   4  -4  -2   65.49    5.00
   4  -4  -2   57.89    4.50
   4   4  -2   67.29    9.80
  -4   4   2   56.69    5.10
   4   4  -2   82.69   10.90
   3  -4  -2  352.76   11.20
  -3  -4   2  398.26   17.40
   3  -4  -2  349.57   12.50
  -3  -4   2  410.76   18.00
   3  -4  -2  358.66   12.20
   3   4  -2  355.26   17.20
   3   4  -2  378.86   17.60
  -3   4   2  361.46   13.10
  -3   4   2  392.46   12.60
   2  -4  -2   39.00    4.70
   2  -4  -2   34.30    5.10
   2  -4  -2   40.10    5.00
  -2  -4   2   38.70    7.50
  -2  -4   2   41.30    7.00
   2   4  -2   39.80    6.90
  -2   4   2   37.60    5.10
   2   4  -2   33.30    6.70
  -2   4   2   45.30    5.60
  -1  -4   2   -3.20    4.20
   1  -4  -2   -2.40    2.20
   1  -4  -2   -3.80    2.80
   1  -4  -2   -1.90    3.30
  -1  -4   2   -3.60    4.00
   1   4  -2   -1.90    4.10
   1   4  -2    0.10    3.90
  -1   4   2   -1.30    2.80
  -1   4   2   -1.60    3.00
   0  -4   2  270.07   12.70
   0  -4  -2  270.97   12.50
   0  -4  -2  261.07   11.80
   0  -4   2  273.27   12.40
   0  -4   2  286.47   12.80
   0   4  -2  294.47   13.50
   0   4   2  286.07   12.70
   0   4  -2  294.87   13.30
   0   4  -2  277.67   12.60
   0   4   2  267.67   12.60
   1  -4   2   37.10    5.20
   1  -4   2   29.50    4.90
   1  -4   2   39.30    5.80
  -1  -4  -2   31.60    5.90
   1   4   2   29.30    5.60
  -1   4  -2   35.80    5.80
   1   4   2   45.10    6.70
  -1   4  -2   38.60    5.30
  -1   4  -2   33.90    5.30
   2  -4   2   59.69    6.00
  -2  -4  -2   70.79    8.70
   2  -4   2   67.19    6.00
  -2  -4  -2   72.29    8.70
   2  -4   2   63.99    6.60
  -2   4  -2   56.89    6.10
   2   4   2   51.99    7.40
   2   4   2   68.79    8.20
  -2   4  -2   60.79    6.50
  -2   4  -2   68.99    5.80
   3  -4   2  343.17   12.20
   3  -4   2  329.37   12.10
  -3  -4  -2  357.46   16.90
  -3  -4  -2  357.16   16.70
   3   4   2  332.17   16.30
  -3   4  -2  339.57   13.20
   3   4   2  347.07   16.50
  -3   4  -2  325.07   12.10
  -3   4  -2  329.47   12.10
  -4  -4  -2  206.08   13.90
  -4  -4  -2  187.68   12.80
   4  -4   2  203.28    8.50
   4   4   2  207.88   14.10
   4   4   2  191.58   13.40
  -4   4  -2  192.78    8.30
  -4   4  -2  180.78    7.70
  -5  -4  -2   61.49    9.80
  -5  -4  -2   58.99    9.40
   5  -4   2   40.10    3.70
   5  -4   2   47.80    4.00
   5   4   2   49.99    9.30
   5   4   2   53.59    9.40
  -6  -4  -2   64.99   10.20
  -6  -4  -2   67.19   11.10
   6   4   2   56.29    9.90
   6   4   2   62.19   11.10
  -7  -4  -2    0.70    5.30
  -7  -4  -2   24.60    8.90
   7   4   2   20.70    9.10
   7   4   2   20.50    7.90
  -8  -4  -2   92.59   14.20
   8   4   2   55.09   11.80
  -8  -5   2   57.69   13.90
   8   5  -2   25.40   12.30
  -7  -5   2   21.60    8.10
  -7  -5   2   32.40   11.40
   7   5  -2   21.40   10.20
   7   5  -2   32.20    9.40
  -6  -5   2   -0.60    6.60
  -6  -5   2    6.90    7.70
   6   5  -2    1.40    6.80
   6   5  -2   -2.00    7.50
  -5  -5   2   77.59   11.90
   5  -5  -2   57.79    4.60
  -5  -5   2   84.49   13.20
  -5   5   2   57.69    5.10
   5   5  -2   63.69   11.00
   5   5  -2   62.79   11.20
   4  -5  -2  213.48    9.70
  -4  -5   2  187.28   15.10
  -4  -5   2  222.18   16.60
  -4   5   2  201.98   10.40
   4   5  -2  208.28   16.10
   4   5  -2  201.28   15.60
  -3  -5   2   72.39   10.80
  -3  -5   2   83.09   11.00
   3  -5  -2   61.49    7.30
  -3   5   2   66.69    7.60
   3   5  -2   67.39   10.40
   3   5  -2   60.99    9.90
   2  -5  -2  302.67   13.80
  -2  -5   2  307.57   16.70
   2  -5  -2  301.77   12.70
  -2  -5   2  274.97   15.80
  -2   5   2  273.77   13.00
   2   5  -2  282.37   16.50
  -2   5   2  287.87   13.80
   2   5  -2  299.77   16.70
  -1  -5   2   53.59    8.80
   1  -5  -2   57.29    6.50
   1  -5  -2   65.79    8.50
   1  -5  -2   54.59    7.30
  -1  -5   2   62.69    8.80
   1   5  -2   51.49    8.20
  -1   5   2   70.69    8.30
   1   5  -2   59.09    9.20
  -1   5   2   53.19    7.50
   0  -5  -2  114.29   10.40
   0  -5   2  118.89   10.30
   0  -5   2  116.89   10.20
   0  -5  -2  107.99    9.70
   0   5  -2  109.69   10.50
   0   5   2  111.29    9.80
   0   5  -2  103.19   10.10
   0   5   2  115.99   10.10
   1  -5   2  247.98   13.20
  -1  -5  -2  285.17   15.00
   1  -5   2  253.57   12.70
  -1  -5  -2  246.48   14.50
   1  -5   2  273.97   13.20
   1   5   2  257.07   14.40
   1   5   2  258.67   14.70
  -1   5  -2  258.57   13.60
  -1   5  -2  261.27   13.90
   2  -5   2  225.48   11.10
  -2  -5  -2  234.68   14.80
  -2  -5  -2  221.48   14.40
   2  -5   2  242.98   12.30
  -2   5  -2  203.88   12.30
   2   5   2  239.28   14.70
   2   5   2  227.08   14.50
  -2   5  -2  204.78   11.70
   3  -5   2   52.99    6.80
  -3  -5  -2   48.10    9.40
  -3  -5  -2   29.10    8.30
   3   5   2   39.00    8.30
   3   5   2   51.79    9.30
  -3   5  -2   52.79    7.50
  -4  -5  -2  217.98   15.70
   4  -5   2  227.88   10.50
  -4  -5  -2  251.07   17.00
   4   5   2  212.08   16.00
   4   5   2  217.18   15.80
  -4   5  -2  198.68   11.00
   5  -5   2   32.70    4.10
  -5  -5  -2   29.10    8.20
  -5  -5  -2   36.90    9.60
   5   5   2   40.70   10.20
   5   5   2   28.60    8.50
  -6  -5  -2   30.00    9.50
  -6  -5  -2   19.10    8.10
   6   5   2   19.40    9.30
   6   5   2   10.10    8.10
  -7  -5  -2   63.49   13.30
  -7  -5  -2   52.49   11.30
   7   5   2   29.90   11.00
   7   5   2   43.10   10.90
  -8  -5  -2   39.70   11.80
   8   5   2   22.80   11.90
  -6  -6   2   47.90   12.70
  -6  -6   2   50.79   11.40
   6   6  -2   39.80   12.20
   6   6  -2   48.80   11.10
  -5  -6   2  112.69   16.00
  -5  -6   2   92.19   13.60
   5   6  -2  107.79   16.10
  -5   6   2   88.19    7.50
   5   6  -2  107.19   15.10
  -4  -6   2   51.89   11.60
  -4  -6   2   22.20    8.90
   4  -6  -2   26.30    5.40
  -4   6   2   23.20    6.20
   4   6  -2   23.30    8.80
   4   6  -2   23.70    9.50
  -3  -6   2  163.18   16.10
   3  -6  -2  146.19   10.70
  -3  -6   2  167.28   15.40
  -3   6   2  141.39   11.20
   3   6  -2  136.09   15.20
   3   6  -2  174.38   15.20
   2  -6  -2   91.29   10.00
  -2  -6   2   87.29   12.40
  -2  -6   2   87.19   11.80
   2   6  -2   73.09   11.10
  -2   6   2   96.59   10.30
   2   6  -2   87.89   11.90
   1  -6  -2  232.98   14.00
   1  -6  -2  239.58   14.50
  -1  -6   2  250.87   16.10
  -1  -6   2  238.98   15.90
  -1   6   2  230.18   14.70
   1   6  -2  221.88   15.90
   1   6  -2  228.38   16.30
  -1   6   2  211.78   14.30
   0  -6   2  116.19   11.70
   0  -6  -2  106.39   10.90
   0  -6  -2  119.19   11.90
   0  -6   2   99.69   11.70
   0   6  -2   89.79   11.30
   0   6  -2  100.09   11.90
   0   6   2   96.99   11.00
   0   6   2  115.29   11.60
   1  -6   2   66.29    9.00
   1  -6   2  101.49   10.40
  -1  -6  -2   96.49   11.00
  -1  -6  -2  102.49   12.20
   1   6   2   81.09   11.30
   1   6   2  104.09   12.80
  -1   6  -2   88.99   10.70
  -2  -6  -2   32.20    9.40
  -2  -6  -2   22.40    7.80
   2  -6   2   16.90    6.20
   2   6   2   16.50    7.70
  -2   6  -2   18.10    6.20
   2   6   2   23.50    8.10
  -3  -6  -2   57.39   10.80
  -3  -6  -2   66.89   11.40
   3  -6   2   46.10    7.20
   3   6   2   52.39   10.50
   3   6   2   62.79   10.60
  -3   6  -2   51.89    8.30
  -4  -6  -2   50.19   11.40
   4  -6   2   44.30    6.40
  -4  -6  -2   57.79   11.70
  -4   6  -2   37.00    6.90
   4   6   2   45.20   10.60
   4   6   2   42.70   11.00
  -5  -6  -2   65.59   12.60
   5  -6   2   62.29    6.70
  -5  -6  -2   71.49   12.90
   5   6   2   61.89   13.00
   5   6   2   74.29   14.10
  -6  -6  -2   39.30   10.80
  -6  -6  -2   18.20    8.50
   6   6   2   36.20   11.20
   6   6   2   27.00   11.50
  -5  -7   2   92.59   16.20
  -5  -7   2   83.19   14.90
   5   7  -2   80.19   14.10
   5   7  -2   80.89   15.90
  -4  -7   2   27.70    9.90
  -4  -7   2   54.59   13.50
   4  -7  -2   21.80    5.70
   4   7  -2   15.40   10.30
   4   7  -2   44.00   11.40
  -4   7   2   30.00    7.10
   3  -7  -2   12.90    5.80
  -3  -7   2   13.50    8.50
  -3  -7   2   21.00    9.50
   3   7  -2    5.50    9.30
   3   7  -2   17.50    8.20
  -3   7   2    5.90    5.80
  -2  -7   2   41.30   11.00
  -2  -7   2   35.10   10.10
   2  -7  -2   56.99    9.60
   2   7  -2   21.80    9.70
  -2   7   2   26.20    8.30
   2   7  -2   27.60    9.10
  -1  -7   2   20.00    8.40
  -1  -7   2   23.50    8.40
   1  -7  -2   11.50    7.30
   1   7  -2    2.40    7.40
   1   7  -2   13.10    7.80
  -1   7   2    3.10    6.60
   0  -7   2   54.29   10.60
   0  -7  -2   44.80    9.70
   0   7  -2   50.29    9.60
   0   7   2   59.59   10.80
  -1  -7  -2   17.20    8.00
   1  -7   2   12.30    6.90
   1   7   2   -8.00    6.60
   1   7   2    4.90    7.30
  -1   7  -2   20.40    7.80
  -2  -7  -2  120.09   14.90
   2  -7   2  125.19   12.50
  -2  -7  -2  135.29   14.50
  -2   7  -2  112.89   12.80
   2   7   2   96.49   14.40
   2   7   2  138.69   15.50
  -3  -7  -2   51.29   11.20
   3  -7   2   28.10    7.10
  -3  -7  -2   40.60   10.10
  -3   7  -2   49.30    8.80
   3   7   2   30.10   10.90
   3   7   2   37.20   10.80
  -4  -7  -2   15.90   10.10
  -4  -7  -2   15.00    9.60
   4  -7   2   13.00    5.20
  -4   7  -2   12.60    5.40
   4   7   2    5.70    8.60
   4   7   2  -13.50    8.10
  -5  -7  -2   14.70   10.70
  -5  -7  -2    4.00    9.10
   5   7   2    7.40    9.50
   5   7   2  -18.40    7.70
   1  -8  -2    5.00    7.70
  -1  -8   2   -5.30    8.90
  -1   8   2   10.20    8.40
   1   8  -2   13.80    8.60
   0  -8  -2   25.90   10.40
   0  -8   2   17.60    9.80
   0   8   2   50.99   12.20
   0   8  -2   35.90   10.10
   1  -8   2   43.50   10.70
  -1  -8  -2   38.10   11.80
 -10   0   3   -4.90    4.50
  -9   0   3    2.40    4.30
   9   0  -3   -2.60    4.50
   8   0  -3   15.00    5.50
  -8   0   3   18.70    5.10
  -7   0   3  364.46   14.00
   7   0  -3  377.86   14.80
  -6   0   3    1.80    3.00
  -6   0   3    0.70    2.30
  -6   0   3    1.50    2.40
   6   0  -3    0.70    3.60
  -5   0   3   85.49    5.50
  -5   0   3   84.79    5.70
  -5   0   3   95.19    6.20
   5   0  -3   89.59    5.90
   5   0  -3   87.69    7.10
  -4   0   3  508.35   14.70
  -4   0   3  521.65   15.60
   4   0  -3  486.45   14.10
   4   0  -3  498.05   14.50
  -4   0   3  502.45   14.90
  -4   0   3  492.65   14.20
   4   0  -3  494.95   15.10
  -3   0   3    4.90    2.30
  -3   0   3    0.60    1.90
   3   0  -3    1.80    2.10
  -3   0   3    1.10    1.90
   3   0  -3    5.60    2.80
  -3   0   3    2.50    2.00
   3   0  -3    2.60    2.00
  -2   0   3   44.70    3.70
   2   0  -3   42.90    4.00
  -2   0   3   45.70    3.60
   2   0  -3   40.90    3.60
  -2   0   3   43.30    3.40
   2   0  -3   41.30    3.30
  -1   0   3  784.72   19.00
  -1   0   3  785.22   19.10
   1   0  -3  772.52   19.00
   1   0  -3  780.62   19.50
  -1   0   3  765.92   19.30
   1   0  -3  788.52   19.00
   0   0  -3 1365.26   30.90
   0   0   3 1339.87   30.90
   0   0  -3 1312.07   30.80
   0   0   3 1350.86   31.30
   0   0   3 1352.76   30.90
   0   0  -3 1376.06   31.50
   1   0   3 1888.61   42.50
  -1   0  -3 1931.71   42.50
  -1   0  -3 1838.92   43.00
   1   0   3 1876.51   42.50
   1   0   3 1915.51   43.10
  -1   0  -3 1895.31   42.50
  -2   0  -3  248.58    8.30
   2   0   3  249.88    9.00
   2   0   3  268.47    8.90
  -2   0  -3  247.68    8.30
   2   0   3  265.67    8.70
   3   0   3  272.67   10.00
   3   0   3  267.77    9.40
  -3   0  -3  274.07    9.20
  -3   0  -3  265.07    9.10
   3   0   3  280.57    9.70
   4   0   3  168.28    7.90
  -4   0  -3  178.58    7.40
   4   0   3  167.18    7.50
   5   0   3    5.00    3.50
   5   0   3    8.50    2.90
  -5   0  -3    4.60    2.30
   6   0   3   21.30    4.70
   6   0   3   18.70    3.70
  -6   0  -3   18.20    3.60
   7   0   3   40.10    6.30
   8   0   3  428.16   16.80
  -8   0  -3  423.36   16.90
  -9   0  -3   47.80    7.40
   9   0   3   40.50    7.10
 -10   0  -3    4.00    4.90
 -10  -1   3   35.10    7.90
  10   1  -3   12.70    7.30
  -9  -1   3   28.00    6.90
   9   1  -3   22.60    7.60
  -8  -1   3   15.00    5.70
   8  -1  -3   11.10    3.50
   8   1  -3   11.00    6.00
  -8   1   3   11.00    3.40
   7  -1  -3  233.08    9.10
  -7  -1   3  222.48   12.30
  -7  -1   3  225.78   12.80
  -7   1   3  226.08    9.00
   7   1  -3  233.78   13.50
  -6  -1   3  561.84   19.30
  -6  -1   3  572.34   19.00
   6  -1  -3  591.14   15.80
  -6  -1   3  595.14   18.70
  -6   1   3  552.04   15.60
   6   1  -3  569.34   19.40
   6   1  -3  554.74   19.60
  -6   1   3  549.25   14.00
  -6   1   3  536.15   15.60
  -5  -1   3  444.26   15.10
  -5  -1   3  446.36   15.50
   5  -1  -3  418.86   12.10
  -5  -1   3  445.36   15.70
   5  -1  -3  452.55   12.80
   5   1  -3  451.55   15.50
   5   1  -3  440.06   16.10
  -5   1   3  431.26   12.40
  -5   1   3  439.26   11.60
   5   1  -3  438.46   15.90
  -5   1   3  429.56   12.60
  -5   1   3  437.96   11.50
  -4  -1   3  612.94   18.40
   4  -1  -3  632.14   16.20
  -4  -1   3  603.14   18.70
  -4  -1   3  632.04   19.00
  -4   1   3  626.04   15.50
  -4   1   3  614.54   16.30
   4   1  -3  621.94   19.40
  -4   1   3  630.84   15.30
  -4   1   3  629.44   15.90
   4   1  -3  616.44   18.50
   4   1  -3  621.84   19.20
   3  -1  -3  201.88    6.20
  -3  -1   3  209.68    9.00
  -3  -1   3  184.88    8.50
   3  -1  -3  187.48    7.00
  -3  -1   3  189.28    8.70
  -3  -1   3  207.78    9.60
  -3   1   3  216.48    6.90
   3   1  -3  191.58    8.60
  -3   1   3  197.58    6.40
   3   1  -3  211.38    8.90
  -3   1   3  208.68    6.80
   3   1  -3  209.18    9.70
   3   1  -3  197.88    9.40
  -2  -1   3 2372.96   53.89
   2  -1  -3 2322.67   51.99
   2  -1  -3 2344.67   51.29
  -2  -1   3 2354.16   53.59
  -2  -1   3 2344.37   54.09
   2  -1  -3 2384.86   51.59
  -2  -1   3 2301.37   53.59
   2   1  -3 2323.87   53.49
   2   1  -3 2339.47   54.39
   2   1  -3 2302.67   53.49
  -2   1   3 2369.36   51.59
  -2   1   3 2400.76   51.59
  -2   1   3 2342.27   51.89
   2   1  -3 2358.16   54.09
   1  -1  -3   43.90    3.10
   1  -1  -3   40.60    3.70
  -1  -1   3   40.30    4.00
  -1  -1   3   43.20    4.10
  -1  -1   3   39.80    3.80
  -1  -1   3   40.10    3.80
   1  -1  -3   43.00    3.30
  -1   1   3   46.40    3.40
  -1   1   3   41.90    3.30
  -1   1   3   43.90    3.30
   1   1  -3   40.10    3.90
   1   1  -3   40.20    4.30
   1   1  -3   43.90    4.30
   1   1  -3   44.40    3.80
   0  -1   3 3784.92   82.59
   0  -1   3 3780.82   82.29
   0  -1  -3 3805.42   81.79
   0  -1  -3 3799.32   81.89
   0  -1   3 3807.42   81.99
   0  -1   3 3670.43   81.89
   0   1   3 3767.12   82.39
   0   1   3 3785.92   81.99
   0   1  -3 3745.23   81.99
   0   1  -3 3668.73   82.39
   0   1  -3 3842.32   81.99
   0   1   3 3682.43   81.79
   1  -1   3 2624.34   58.29
   1  -1   3 2564.84   57.79
  -1  -1  -3 2658.63   58.69
   1  -1   3 2520.85   57.69
  -1  -1  -3 2645.14   58.69
  -1   1  -3 2631.94   58.39
   1   1   3 2603.04   58.79
  -1   1  -3 2622.04   57.89
  -1   1  -3 2692.03   57.89
   1   1   3 2677.13   58.89
  -2  -1  -3  586.84   16.50
   2  -1   3  574.94   14.90
   2  -1   3  582.04   15.60
   2  -1   3  592.54   15.20
  -2  -1  -3  582.74   16.40
   2   1   3  575.34   16.60
  -2   1  -3  588.14   15.00
  -2   1  -3  585.14   15.60
   2   1   3  567.84   16.60
  -2   1  -3  593.04   15.20
  -3  -1  -3  336.07   11.60
   3  -1   3  318.57   10.10
   3  -1   3  334.87   10.60
  -3   1  -3  349.57   10.00
   3   1   3  331.27   12.10
   3   1   3  351.36   12.20
  -3   1  -3  319.57    9.90
   4  -1   3   84.19    5.20
   4  -1   3   74.19    4.80
  -4  -1  -3   72.69    5.60
  -4   1  -3   79.19    4.50
   4   1   3   73.19    6.20
   4   1   3   66.99    6.40
  -4   1  -3   82.59    4.40
   5  -1   3  189.38    7.80
   5  -1   3  177.28    6.50
  -5  -1  -3  186.88    9.20
   5   1   3  189.88   10.30
   5   1   3  187.68    9.80
  -5   1  -3  173.68    7.20
  -6  -1  -3   18.50    4.70
   6  -1   3   19.40    2.40
   6  -1   3   20.80    3.90
  -6   1  -3   16.30    3.00
   6   1   3   19.60    4.90
   6   1   3   17.60    5.30
  -7  -1  -3  322.07   15.40
  -7  -1  -3  302.67   14.80
   7  -1   3  335.77   12.10
   7   1   3  332.47   15.50
   7   1   3  326.87   15.40
  -8  -1  -3   94.79   10.00
   8  -1   3   88.89    7.10
   8   1   3   81.29    9.90
  -8   1  -3   81.19    6.40
  -9  -1  -3   20.30    6.50
   9   1   3   15.50    6.80
  -9   1  -3   10.20    4.10
 -10  -1  -3   44.90    8.60
  10   1   3   32.50    8.20
 -10  -2   3    2.40    6.30
  10   2  -3   -5.40    7.20
  -9  -2   3   43.10    8.70
   9   2  -3   36.90    9.50
  -8  -2   3    6.10    6.00
   8   2  -3    1.00    6.70
  -7  -2   3   27.10    6.00
  -7  -2   3   30.20    7.20
   7   2  -3   42.50    8.50
   7   2  -3   27.50    7.00
  -6  -2   3   74.39    9.10
  -6  -2   3   74.49    8.00
  -6   2   3   71.99    3.20
  -6   2   3   78.49    3.40
   6   2  -3  100.19   10.30
   6   2  -3   70.19    8.90
  -5  -2   3  334.67   14.70
  -5  -2   3  321.27   13.80
  -5   2   3  309.57    8.90
  -5   2   3  320.57    8.70
   5   2  -3  313.47   14.80
   5   2  -3  329.27   14.90
  -4  -2   3  350.26   14.60
  -4  -2   3  375.06   14.80
  -4  -2   3  374.26   14.50
   4  -2  -3  359.26    9.60
   4   2  -3  371.76   15.80
  -4   2   3  373.26   10.10
   4   2  -3  384.46   14.60
   4   2  -3  379.96   15.40
  -4   2   3  363.46    8.70
  -3  -2   3  215.48   10.20
  -3  -2   3  215.28   10.30
  -3  -2   3  187.18    9.80
   3  -2  -3  207.08    5.90
  -3   2   3  204.08    6.70
  -3   2   3  201.78    6.50
   3   2  -3  215.08   10.80
  -3   2   3  198.98    6.80
   3   2  -3  194.28   10.50
   3   2  -3  182.68    9.60
   2  -2  -3  218.68    7.60
  -2  -2   3  219.28   10.00
  -2  -2   3  235.28   10.20
  -2  -2   3  214.18   10.00
   2  -2  -3  216.28    7.20
  -2  -2   3  209.78    9.90
   2   2  -3  212.18   10.60
   2   2  -3  222.28   10.50
   2   2  -3  214.28   10.10
   2   2  -3  220.78    9.90
  -2   2   3  226.88    7.80
  -2   2   3  216.48    7.60
  -2   2   3  216.18    7.60
  -1  -2   3  517.45   16.10
   1  -2  -3  553.84   14.70
   1  -2  -3  546.15   14.90
  -1  -2   3  538.55   16.60
  -1  -2   3  529.55   16.40
  -1  -2   3  539.55   16.60
  -1   2   3  525.55   14.90
   1   2  -3  542.85   16.90
  -1   2   3  528.25   15.00
   1   2  -3  532.95   16.30
   1   2  -3  521.65   16.10
   1   2  -3  521.75   17.00
   0  -2   3 1366.56   33.70
   0  -2   3 1377.46   34.10
   0  -2   3 1346.27   33.70
   0  -2   3 1399.86   34.20
   0  -2  -3 1410.16   33.50
   0  -2  -3 1382.76   33.50
   0   2  -3 1448.46   35.00
   0   2  -3 1404.16   33.80
   0   2  -3 1383.86   33.80
   0   2   3 1443.66   33.90
   0   2  -3 1388.86   34.30
   0   2   3 1334.77   33.60
   1  -2   3  871.91   22.30
   1  -2   3  854.41   22.20
   1  -2   3  843.62   21.90
  -1  -2  -3  868.11   23.00
  -1  -2  -3  844.32   22.70
   1  -2   3  831.22   21.70
  -1   2  -3  845.32   21.80
   1   2   3  866.11   23.30
  -1   2  -3  853.01   22.80
  -1   2  -3  870.41   22.00
   1   2   3  826.72   23.10
  -1   2  -3  861.71   22.40
   2  -2   3   78.39    4.60
   2  -2   3   73.29    4.60
   2  -2   3   80.09    5.10
  -2  -2  -3   81.09    6.00
   2  -2   3   82.09    5.50
  -2   2  -3   87.29    4.90
  -2   2  -3   83.69    4.70
  -2   2  -3   82.59    5.10
   2   2   3   77.19    6.60
   2   2   3   86.19    6.50
   3  -2   3  146.39    5.70
  -3  -2  -3  135.39    8.00
   3  -2   3  132.09    6.30
   3  -2   3  134.59    6.00
  -3   2  -3  144.29    5.70
   3   2   3  141.79    8.80
   3   2   3  134.99    8.50
  -3   2  -3  138.79    6.10
  -3   2  -3  138.59    5.90
   4  -2   3  182.48    7.00
   4  -2   3  166.68    5.50
   4  -2   3  171.48    5.30
   4   2   3  184.88   10.60
   4   2   3  186.98   10.70
  -4   2  -3  158.48    6.50
  -4   2  -3  172.28    6.10
  -5  -2  -3  236.38   13.00
   5  -2   3  232.68    8.30
   5  -2   3  248.38    8.30
   5   2   3  250.87   12.70
   5   2   3  256.37   13.00
  -5   2  -3  253.67    8.40
   6  -2   3  257.17    8.20
  -6  -2  -3  265.57   14.40
  -6   2  -3  225.98    8.40
   6   2   3  258.07   13.40
   6   2   3  248.88   14.20
  -7  -2  -3   48.40    8.30
  -7  -2  -3   60.69    8.10
   7  -2   3   49.60    3.70
   7   2   3   56.29    9.00
   7   2   3   62.69    8.60
  -8  -2  -3   24.70    7.20
   8   2   3   26.70    8.10
  -8   2  -3   25.60    3.50
  -9  -2  -3  136.59   13.40
   9   2   3  135.99   14.10
  -9  -3   3   19.50    8.80
   9   3  -3   11.40    8.60
  -8  -3   3   10.00    7.70
   8   3  -3   12.70    8.10
  -7  -3   3   16.90    7.70
  -7  -3   3    5.70    5.60
   7   3  -3    4.30    5.60
   7   3  -3   -5.50    7.10
  -6  -3   3  139.29   11.60
  -6  -3   3  121.19   12.40
   6   3  -3  118.59   11.60
   6   3  -3  115.49   12.30
  -5  -3   3    2.70    5.40
  -5  -3   3    4.90    4.70
  -5   3   3    6.60    1.60
   5   3  -3   13.60    6.20
   5   3  -3    4.60    5.80
  -4  -3   3  179.18   11.40
   4  -3  -3  189.48    6.40
  -4  -3   3  198.08   12.20
   4   3  -3  187.78   12.20
  -4   3   3  197.38    7.00
   4   3  -3  181.08   12.00
  -4   3   3  195.48    5.80
   3  -3  -3  892.11   22.10
  -3  -3   3  949.31   28.00
  -3  -3   3  928.11   28.30
   3  -3  -3  948.31   22.10
  -3   3   3  923.31   23.50
  -3   3   3  927.61   22.90
   3   3  -3  980.50   29.30
   3   3  -3  881.41   28.20
   2  -3  -3  330.57   11.00
  -2  -3   3  314.77   13.80
   2  -3  -3  330.87   11.10
  -2  -3   3  343.97   14.10
   2   3  -3  334.27   14.60
  -2   3   3  337.57   11.30
  -2   3   3  338.87   11.50
   2   3  -3  333.77   14.50
   1  -3  -3   34.70    4.20
   1  -3  -3   28.40    4.30
  -1  -3   3   33.60    5.30
  -1  -3   3   39.60    5.30
  -1  -3   3   46.20    6.60
   1   3  -3   46.70    6.60
  -1   3   3   35.10    4.50
  -1   3   3   46.10    5.10
   1   3  -3   44.50    6.20
   0  -3  -3  734.03   21.20
   0  -3  -3  756.52   22.10
   0  -3   3  744.93   21.60
   0  -3   3  760.82   21.90
   0  -3   3  752.32   22.00
   0   3   3  759.22   21.80
   0   3  -3  755.02   21.80
   0   3  -3  743.83   22.20
   0   3   3  737.33   21.80
   0   3  -3  719.13   22.50
   1  -3   3  232.58    9.70
   1  -3   3  244.38   10.20
   1  -3   3  238.28   10.10
  -1  -3  -3  226.38   11.20
  -1  -3  -3  241.68   10.50
  -1   3  -3  236.18   10.60
  -1   3  -3  228.88   10.10
   1   3   3  231.28   11.00
  -1   3  -3  229.98    9.70
   1   3   3  235.88   11.00
   2  -3   3  138.09    7.40
   2  -3   3  146.09    7.00
  -2  -3  -3  133.59    9.60
   2  -3   3  130.89    7.20
  -2   3  -3  148.99    7.90
   2   3   3  146.09    9.20
   2   3   3  135.99    9.30
  -2   3  -3  138.69    7.00
  -2   3  -3  138.49    7.50
   3  -3   3  414.66   13.00
  -3  -3  -3  388.96   17.00
   3  -3   3  420.26   12.80
   3   3   3  392.76   16.30
  -3   3  -3  413.36   12.80
  -3   3  -3  401.26   12.80
   3   3   3  402.96   16.70
   4  -3   3  623.04   15.40
   4  -3   3  677.83   17.60
   4  -3   3  665.13   15.70
  -4  -3  -3  674.53   23.70
  -4   3  -3  669.03   17.50
   4   3   3  630.24   22.70
  -4   3  -3  660.73   17.80
   4   3   3  699.33   23.60
  -5  -3  -3   82.29   10.00
   5  -3   3   72.79    4.70
   5  -3   3   81.69    4.70
   5   3   3   93.19   10.30
  -5   3  -3   83.89    4.70
   5   3   3   80.69    9.30
  -6  -3  -3  168.58   13.40
  -6  -3  -3  159.98   11.80
   6   3   3  151.68   11.90
   6   3   3  154.58   13.20
  -7  -3  -3  104.59   10.70
  -7  -3  -3  106.39   12.60
   7   3   3  124.49   13.50
   7   3   3   85.99   10.80
  -8  -3  -3   36.40    9.20
   8   3   3   30.50    9.30
  -9  -3  -3   18.70    8.70
   9   3   3    7.20    8.40
  -8  -4   3   40.00   10.60
   8   4  -3   38.50   11.20
  -7  -4   3   16.20    8.30
  -7  -4   3   -4.60    5.70
   7   4  -3   -3.70    7.10
   7   4  -3   -3.60    5.80
  -6  -4   3   15.20    7.90
  -6  -4   3   14.10    7.10
   6   4  -3   -0.10    7.30
   6   4  -3   -0.40    6.30
  -5  -4   3   14.30    6.70
  -5  -4   3   21.20    8.00
   5  -4  -3   20.60    2.20
   5  -4  -3   19.90    2.40
   5   4  -3   15.90    7.40
   5   4  -3   24.40    7.80
  -5   4   3   27.40    3.40
  -4  -4   3  117.59   12.10
   4  -4  -3  106.29    5.60
  -4  -4   3  108.19   11.30
   4  -4  -3  110.89    6.30
   4   4  -3  105.39   11.50
  -4   4   3  108.49    6.40
   4   4  -3   86.49   10.70
  -3  -4   3    4.10    4.90
   3  -4  -3    4.20    2.60
   3  -4  -3    0.70    1.10
  -3  -4   3    3.10    5.20
   3   4  -3    3.90    5.00
   3   4  -3   -2.00    4.70
  -3   4   3   -0.60    2.60
  -3   4   3    1.60    2.50
   2  -4  -3   81.59    6.10
  -2  -4   3   84.69    9.70
  -2  -4   3   77.49    9.20
   2  -4  -3   79.39    6.10
   2   4  -3   80.79    8.90
   2   4  -3   85.19    9.10
  -2   4   3   79.59    6.70
  -2   4   3   83.19    6.60
  -1  -4   3   37.50    6.40
  -1  -4   3   47.70    7.20
   1  -4  -3   46.00    5.50
   1  -4  -3   50.19    6.40
  -1   4   3   45.10    5.90
   1   4  -3   61.89    7.60
  -1   4   3   52.09    6.60
   1   4  -3   40.10    7.00
   0  -4  -3   32.80    5.80
   0  -4   3   40.50    6.10
   0  -4   3   26.00    5.30
   0  -4  -3   40.50    5.50
   0   4   3   40.90    6.00
   0   4  -3   39.80    6.40
   0   4  -3   43.10    6.90
   0   4   3   36.40    5.80
   1  -4   3    3.10    3.60
   1  -4   3    2.90    3.90
  -1  -4  -3    7.10    4.50
   1  -4   3    1.40    3.30
  -1   4  -3    9.70    4.20
   1   4   3   12.40    5.00
  -1   4  -3    5.00    3.90
   1   4   3    5.00    4.10
  -1   4  -3    7.70    3.50
  -2  -4  -3  590.44   22.10
   2  -4   3  606.24   19.20
   2  -4   3  634.04   18.70
   2  -4   3  613.94   19.20
   2   4   3  610.44   22.30
  -2   4  -3  599.84   19.30
  -2   4  -3  637.14   20.70
  -2   4  -3  622.24   19.60
   2   4   3  625.44   22.30
   3  -4   3  482.35   15.60
  -3  -4  -3  466.45   20.00
   3  -4   3  462.15   14.30
   3  -4   3  476.75   15.60
   3   4   3  474.55   19.90
  -3   4  -3  461.15   15.50
   3   4   3  494.25   20.10
  -3   4  -3  456.35   16.60
  -3   4  -3  460.85   15.60
   4  -4   3  668.43   17.90
  -4  -4  -3  735.83   27.00
  -4  -4  -3  714.33   26.10
   4  -4   3  754.92   20.20
   4   4   3  731.43   26.70
   4   4   3  752.92   26.90
  -5  -4  -3  575.14   24.00
   5  -4   3  535.75   14.90
  -5  -4  -3  529.85   22.40
   5   4   3  520.05   22.70
   5   4   3  507.55   23.00
  -6  -4  -3   79.09   11.90
  -6  -4  -3   70.59    9.80
   6   4   3   60.49   10.80
   6   4   3   52.39    9.50
  -7  -4  -3   59.39   11.80
  -7  -4  -3   68.29   11.00
   7   4   3   70.39   12.00
   7   4   3   60.19   10.30
  -8  -4  -3    3.60    8.70
   8   4   3  -13.00    7.00
  -8  -5   3   20.00   11.00
   8   5  -3   -6.40    9.50
  -7  -5   3   49.30   11.40
  -7  -5   3   17.20    8.40
   7   5  -3   13.80   10.50
   7   5  -3   21.00    9.10
  -6  -5   3   90.39   14.10
  -6  -5   3   79.49   11.60
   6   5  -3   69.09   12.20
   6   5  -3   74.89   13.60
   5  -5  -3   14.60    3.10
  -5  -5   3   -2.30    7.10
  -5  -5   3   19.70    7.80
   5   5  -3   35.90    9.40
   5   5  -3    6.50    7.90
  -5   5   3   13.30    3.60
   4  -5  -3   24.60    4.70
  -4  -5   3   37.50    9.70
  -4  -5   3   35.50    8.90
  -4   5   3   14.00    4.20
   4   5  -3   26.00    9.00
   4   5  -3   40.70    9.90
  -3  -5   3  233.88   16.30
  -3  -5   3  217.78   15.60
   3  -5  -3  232.98   11.50
   3   5  -3  210.48   15.90
  -3   5   3  206.88   11.40
   3   5  -3  224.38   15.90
  -2  -5   3  380.46   18.60
   2  -5  -3  353.86   14.00
   2  -5  -3  370.36   15.50
  -2  -5   3  324.47   17.40
  -2   5   3  333.27   15.10
   2   5  -3  324.47   18.20
  -2   5   3  376.76   15.00
   2   5  -3  351.26   18.60
   1  -5  -3   80.09    9.30
   1  -5  -3   83.19    8.30
  -1  -5   3   95.09   11.10
   1  -5  -3   65.69    7.00
  -1  -5   3   85.29   10.40
  -1   5   3   69.69    8.50
  -1   5   3   72.29    8.20
   1   5  -3   82.49   10.10
   1   5  -3   77.79    9.70
   0  -5   3  140.89   10.80
   0  -5  -3  124.99   10.10
   0  -5  -3  139.39   11.50
   0  -5   3  140.19   11.40
   0   5  -3  157.48   11.80
   0   5  -3  160.88   11.80
   0   5   3  136.99   10.70
   0   5   3  133.89   10.80
   1  -5   3  413.26   17.20
   1  -5   3  426.36   16.70
  -1  -5  -3  362.96   18.00
  -1  -5  -3  406.66   18.20
   1   5   3  426.06   18.90
  -1   5  -3  395.06   17.80
  -1   5  -3  405.16   17.30
   1   5   3  420.36   18.50
  -2  -5  -3   27.90    7.50
   2  -5   3   24.70    5.70
   2  -5   3   16.90    4.80
  -2  -5  -3   19.70    7.10
   2   5   3   23.80    7.00
  -2   5  -3   24.50    6.20
   2   5   3   29.70    7.40
  -2   5  -3   22.30    5.40
  -3  -5  -3  313.67   17.40
  -3  -5  -3  287.67   17.30
   3  -5   3  299.67   13.40
   3   5   3  321.17   17.90
  -3   5  -3  288.87   14.20
   3   5   3  297.47   17.60
  -4  -5  -3  180.08   15.30
  -4  -5  -3  172.38   14.90
   4  -5   3  204.28   10.40
   4   5   3  167.88   14.90
   4   5   3  188.78   15.00
  -5  -5  -3   11.60    7.50
   5  -5   3   14.50    3.90
  -5  -5  -3    9.70    7.70
   5   5   3    5.40    6.90
   5   5   3    8.90    8.30
  -6  -5  -3   91.59   13.50
  -6  -5  -3  102.09   13.90
   6   5   3   87.39   12.70
   6   5   3   83.69   13.20
  -7  -5  -3   32.70   11.10
  -7  -5  -3   12.50    8.50
   7   5   3    0.20    9.30
   7   5   3    4.90    7.60
  -6  -6   3    9.20    8.20
  -6  -6   3   14.90    9.70
   6   6  -3   -6.80    9.10
   6   6  -3   13.80    9.00
  -5  -6   3   31.00    9.80
  -5  -6   3   44.50   12.20
   5   6  -3   37.00   10.40
  -5   6   3   27.50    5.30
   5   6  -3   21.20    9.90
  -4  -6   3  124.29   15.40
  -4  -6   3  136.99   15.30
   4  -6  -3  132.79    9.40
   4   6  -3  121.09   15.10
   4   6  -3  134.39   15.90
  -4   6   3  137.79   10.40
  -3  -6   3   10.00    7.70
   3  -6  -3   10.90    5.00
  -3  -6   3   29.30    9.30
   3   6  -3   -5.90    6.40
  -3   6   3    2.00    4.80
   3   6  -3   14.50    7.10
  -2  -6   3  120.69   14.10
  -2  -6   3  138.39   14.60
   2  -6  -3  139.99   11.30
   2   6  -3  137.79   14.10
   2   6  -3  141.49   13.80
  -2   6   3  117.39   11.00
   1  -6  -3  205.28   13.70
  -1  -6   3  200.28   15.10
  -1  -6   3  194.68   15.00
  -1   6   3  197.78   13.90
   1   6  -3  189.78   15.10
   1   6  -3  164.78   14.50
  -1   6   3  183.28   14.20
   0  -6   3   35.20    8.00
   0  -6  -3   30.40    7.10
   0  -6  -3   49.40    9.00
   0  -6   3   46.40    8.80
   0   6   3   26.90    7.20
   0   6  -3   28.40    8.30
   0   6  -3   42.30    8.80
   0   6   3   26.10    7.50
   1  -6   3  109.49   11.30
   1  -6   3  100.69   11.10
  -1  -6  -3   98.09   11.20
  -1  -6  -3   97.69   11.80
   1   6   3  102.79   12.30
   1   6   3  106.19   12.10
  -1   6  -3   83.19   10.50
  -1   6  -3  105.69   11.80
  -2  -6  -3   38.50    8.90
  -2  -6  -3   32.30    8.90
   2  -6   3   25.50    6.70
   2   6   3   46.30   10.10
   2   6   3   37.60    9.00
  -2   6  -3   30.60    7.50
  -3  -6  -3   55.09   11.20
  -3  -6  -3   36.70    9.70
   3  -6   3   36.80    7.10
   3   6   3   47.50   10.30
   3   6   3   31.00    8.50
  -3   6  -3   43.40    8.30
  -4  -6  -3   26.40    9.20
   4  -6   3    9.80    4.90
  -4  -6  -3   27.20    9.60
   4   6   3   -0.80    6.90
   4   6   3   17.30    9.00
   5  -6   3   32.50    5.40
  -5  -6  -3   46.80   11.00
  -5  -6  -3   39.90   11.30
   5   6   3   31.40   10.90
   5   6   3   34.00   10.60
  -6  -6  -3   48.00   12.10
  -6  -6  -3   33.30   10.10
   6   6   3   44.40   12.70
   6   6   3   35.50   11.50
  -5  -7   3    5.10    9.80
  -5  -7   3   25.00   12.00
   5   7  -3   10.80   10.30
  -4  -7   3   63.59   13.20
  -4  -7   3   38.40   11.40
   4  -7  -3   44.10    7.10
  -4   7   3   58.79    9.10
   4   7  -3   58.89   13.40
   4   7  -3   29.10   12.10
   3  -7  -3   -1.30    5.20
  -3  -7   3    4.00    8.80
  -3  -7   3    7.60    8.70
   3   7  -3   20.80    9.00
  -3   7   3    2.10    5.30
   3   7  -3   15.30    9.10
   2  -7  -3   20.30    7.40
  -2  -7   3    7.40    8.50
  -2  -7   3   30.30   10.20
   2   7  -3   10.60    8.90
  -2   7   3   21.20    7.90
   2   7  -3   24.60    9.10
  -1  -7   3   39.80   11.30
  -1  -7   3   35.40    9.90
   1  -7  -3   36.90    9.20
   1   7  -3   36.70   10.50
   1   7  -3   29.80    9.30
  -1   7   3   30.80    8.70
   0  -7   3   90.19   12.50
   0  -7  -3  114.19   13.80
   0   7  -3   73.69   12.30
   0   7   3  119.39   14.90
   1  -7   3    7.90    7.20
  -1  -7  -3    4.10    7.80
  -1   7  -3   13.40    7.60
   1   7   3   -0.80    7.20
   1   7   3   -0.80    6.90
  -2  -7  -3   60.89   11.00
  -2  -7  -3   45.70   11.10
   2  -7   3   46.70    9.00
   2   7   3   55.59   10.80
   2   7   3   46.30   11.50
  -2   7  -3   29.80    8.50
  -3  -7  -3    9.50    8.60
  -3  -7  -3    9.20    7.60
   3  -7   3    5.40    5.50
   3   7   3   11.20    8.70
   3   7   3   -5.00    8.00
  -3   7  -3    1.80    5.90
  -4  -7  -3    6.40    8.80
  -4  -7  -3    7.90    8.30
   4  -7   3    8.00    5.50
   4   7   3    0.80    8.30
   4   7   3  -15.00    8.00
 -10   0   4   35.60    6.80
   9   0  -4   -6.80    4.40
  -9   0   4    6.10    4.90
  -8   0   4    6.50    4.70
   8   0  -4    8.90    4.90
   7   0  -4   75.59    8.60
  -7   0   4   69.79    7.50
  -6   0   4  358.96   12.50
  -6   0   4  352.06   13.30
  -6   0   4  355.46   13.50
   6   0  -4  391.56   14.50
   6   0  -4  363.76   13.10
   5   0  -4   85.79    6.30
  -5   0   4   80.99    6.20
   5   0  -4   70.69    7.10
  -5   0   4   86.89    5.80
  -5   0   4   83.59    6.00
   4   0  -4   24.50    3.70
  -4   0   4   20.50    3.60
  -4   0   4   21.30    3.30
  -4   0   4   19.30    3.40
   4   0  -4   24.40    4.20
  -3   0   4    7.50    2.60
  -3   0   4    7.70    2.50
   3   0  -4    7.10    2.20
  -3   0   4    8.40    2.60
  -3   0   4    6.90    2.90
   3   0  -4    6.40    2.60
   3   0  -4    6.10    3.10
   2   0  -4  377.46   11.50
  -2   0   4  370.76   11.60
  -2   0   4  407.66   12.00
   2   0  -4  390.56   11.70
  -2   0   4  384.16   12.10
   2   0  -4  380.26   12.30
  -1   0   4  318.37   10.00
   1   0  -4  307.27   10.20
   1   0  -4  290.27    9.50
   1   0  -4  309.77    9.70
  -1   0   4  290.37    9.60
  -1   0   4  305.77   10.10
   0   0  -4 1898.61   43.40
   0   0   4 1864.71   42.60
   0   0   4 1861.51   43.10
   0   0  -4 1865.31   42.50
   0   0   4 1796.72   42.40
   0   0  -4 1879.71   42.60
   1   0   4  644.84   17.20
   1   0   4  625.34   17.10
  -1   0  -4  631.84   16.90
   1   0   4  653.03   17.80
  -1   0  -4  620.74   17.60
  -1   0  -4  651.23   17.10
   2   0   4  272.77   10.20
  -2   0  -4  287.97    9.60
   2   0   4  278.77    9.70
  -2   0  -4  279.17    9.60
   2   0   4  283.47    9.90
  -3   0  -4  153.28    7.00
   3   0   4  153.98    7.30
   3   0   4  155.78    7.70
   3   0   4  151.58    7.40
   4   0   4  163.08    7.60
   4   0   4  142.99    7.90
   4   0   4  148.49    7.80
  -4   0  -4  132.69    6.80
  -5   0  -4  106.79    6.50
   5   0   4  111.59    7.00
   5   0   4  113.79    7.70
   5   0   4  118.59    7.60
   6   0   4  126.99    8.80
   6   0   4  130.59    7.80
  -6   0  -4  128.19    7.50
   6   0   4  129.39    8.30
   7   0   4   25.10    5.90
  -8   0  -4  119.59    9.90
   8   0   4  112.29   10.20
  -9   0  -4    9.70    5.10
   9   0   4    3.30    5.00
  10   0   4   69.29    9.10
 -10   0  -4   57.09    8.40
 -10  -1   4   15.20    7.40
  10   1  -4   11.40    7.00
  -9  -1   4   25.50    6.70
   9   1  -4   20.10    7.30
  -8  -1   4   79.59    9.30
   8  -1  -4   78.59    6.50
   8   1  -4   74.99    9.50
  -8   1   4   81.69    6.40
  -7  -1   4  295.47   14.40
   7  -1  -4  295.27   11.30
  -7   1   4  297.17   11.10
   7   1  -4  325.17   15.70
  -6  -1   4  116.29    8.30
   6  -1  -4  118.19    7.30
  -6  -1   4  110.69    8.90
  -6  -1   4  115.79    8.40
   6   1  -4  120.69   10.10
  -6   1   4  105.59    5.00
  -6   1   4  107.29    6.10
  -6   1   4  118.59    6.40
  -5  -1   4  100.29    7.30
  -5  -1   4   85.39    7.00
   5  -1  -4  104.29    6.40
  -5  -1   4   92.39    7.60
  -5   1   4   96.29    5.50
   5   1  -4   89.19    8.60
  -5   1   4   95.79    5.60
  -5   1   4   92.39    4.70
   5   1  -4   94.09    7.20
   4  -1  -4  542.95   15.20
  -4  -1   4  551.44   18.00
   4  -1  -4  553.34   14.60
  -4  -1   4  590.04   17.90
   4  -1  -4  563.64   15.90
  -4  -1   4  571.04   18.20
   4   1  -4  588.14   18.70
  -4   1   4  559.44   15.00
  -4   1   4  595.84   15.70
   4   1  -4  569.24   18.70
  -4   1   4  579.74   15.40
   4   1  -4  574.24   17.90
  -3  -1   4  322.37   12.10
  -3  -1   4  316.97   11.70
   3  -1  -4  307.07   10.40
   3  -1  -4  319.27    9.50
   3  -1  -4  327.57    9.90
  -3  -1   4  305.07   11.70
   3   1  -4  311.37   12.40
   3   1  -4  317.27   12.40
   3   1  -4  316.57   11.60
  -3   1   4  311.27    9.70
  -3   1   4  339.97   10.20
  -2  -1   4  418.56   13.40
  -2  -1   4  419.26   13.80
   2  -1  -4  426.66   12.10
  -2  -1   4  439.96   14.20
  -2  -1   4  416.66   13.60
   2  -1  -4  430.46   11.90
   2  -1  -4  419.56   12.70
   2   1  -4  405.56   14.00
  -2   1   4  424.56   12.50
   2   1  -4  413.36   13.30
   2   1  -4  429.06   13.50
  -2   1   4  423.86   12.10
  -2   1   4  417.36   12.20
   1  -1  -4  958.30   24.80
   1  -1  -4 1008.10   24.20
   1  -1  -4 1009.00   24.30
  -1  -1   4 1002.30   25.20
  -1  -1   4  992.90   25.50
  -1  -1   4  982.20   25.80
  -1  -1   4  966.20   25.00
   1   1  -4  960.60   25.50
  -1   1   4  998.30   24.30
  -1   1   4  976.00   24.70
   1   1  -4  980.80   25.00
  -1   1   4  999.00   24.30
   1   1  -4  971.60   24.90
   0  -1  -4 2656.33   58.99
   0  -1   4 2616.04   58.99
   0  -1   4 2595.44   59.49
   0  -1   4 2615.04   59.09
   0  -1  -4 2666.53   58.99
   0   1  -4 2662.63   59.09
   0   1   4 2681.03   59.19
   0   1   4 2627.44   58.99
   0   1  -4 2611.44   59.79
   0   1  -4 2649.83   59.09
   0   1   4 2529.55   59.49
   1  -1   4  604.24   16.20
  -1  -1  -4  610.84   16.70
   1  -1   4  598.14   16.80
  -1  -1  -4  592.34   16.70
   1  -1   4  586.94   16.30
   1   1   4  563.84   17.10
   1   1   4  609.14   17.10
  -1   1  -4  593.04   16.20
   1   1   4  585.04   16.90
  -1   1  -4  613.34   16.30
  -1   1  -4  593.24   16.80
   2  -1   4  961.00   23.70
  -2  -1  -4  960.10   24.70
   2  -1   4  968.40   24.30
  -2  -1  -4  943.21   24.60
   2  -1   4  935.71   23.40
   2   1   4  927.51   24.90
  -2   1  -4  940.91   23.40
  -2   1  -4  915.01   23.50
  -2   1  -4  938.21   24.20
   2   1   4  938.61   24.90
   3  -1   4   69.89    4.60
   3  -1   4   62.99    4.90
   3  -1   4   71.79    5.30
  -3  -1  -4   69.19    5.20
   3   1   4   57.79    5.80
  -3   1  -4   59.59    4.80
  -3   1  -4   60.09    4.30
  -3   1  -4   62.29    4.40
   3   1   4   47.10    5.30
   4  -1   4  368.76   11.50
   4  -1   4  369.06   12.60
   4  -1   4  366.96   12.00
  -4  -1  -4  363.46   13.30
   4   1   4  367.26   13.90
  -4   1  -4  357.76   11.60
   4   1   4  373.36   13.90
   5  -1   4   56.99    5.40
  -5  -1  -4   59.99    5.90
   5  -1   4   59.19    5.60
   5   1   4   53.29    6.70
  -5   1  -4   59.49    4.70
   5   1   4   60.19    6.50
   6  -1   4    0.30    2.00
  -6  -1  -4    5.40    3.30
   6  -1   4    2.70    3.50
   6  -1   4    6.00    3.20
  -6   1  -4    1.80    2.20
   6   1   4   -1.40    3.60
   6   1   4    4.60    4.80
   7  -1   4  112.79    8.20
   7   1   4  104.59   10.40
   8  -1   4   53.89    6.20
  -8  -1  -4   72.79    9.50
   8   1   4   58.69    8.80
  -9  -1  -4   15.40    6.60
  -9   1  -4   27.20    5.30
   9   1   4   15.50    7.10
 -10  -1  -4   43.20    8.50
  10   1   4   25.70    8.00
  10   2  -4    4.90    8.50
  -9  -2   4  110.49   12.50
   9   2  -4   98.89   12.40
  -8  -2   4    1.30    5.70
   8   2  -4  -10.50    6.20
  -7  -2   4   67.29    9.20
  -7  -2   4   66.99    8.60
  -7   2   4   70.79    4.20
   7   2  -4   89.39    9.60
   7   2  -4   94.19   11.40
  -6  -2   4   67.79    8.80
  -6  -2   4   67.09    8.10
  -6   2   4   56.89    3.70
  -6   2   4   68.49    4.10
   6   2  -4   56.29    8.00
   6   2  -4   74.59    9.40
   5  -2  -4   42.40    3.20
  -5  -2   4   42.50    6.20
  -5  -2   4   42.30    6.30
  -5   2   4   36.70    2.10
   5   2  -4   39.70    7.10
  -5   2   4   40.20    3.40
   5   2  -4   43.80    7.30
  -4  -2   4  119.39    8.80
   4  -2  -4  122.89    5.30
  -4  -2   4  130.09    8.80
   4   2  -4  129.09    9.80
   4   2  -4  129.99    9.60
  -4   2   4  129.89    5.70
  -4   2   4  128.19    4.90
  -3  -2   4  519.15   17.60
   3  -2  -4  524.35   13.60
  -3  -2   4  510.05   17.80
   3  -2  -4  517.95   14.20
   3   2  -4  546.75   18.60
  -3   2   4  535.35   14.20
   3   2  -4  555.84   18.40
  -3   2   4  527.05   14.50
   3   2  -4  513.45   18.60
  -3   2   4  504.95   14.40
   2  -2  -4  807.12   20.90
   2  -2  -4  798.22   20.50
  -2  -2   4  793.22   23.30
  -2  -2   4  815.42   23.90
  -2  -2   4  778.42   23.10
  -2   2   4  822.42   21.40
   2   2  -4  811.82   24.00
   2   2  -4  859.71   24.90
  -2   2   4  842.12   21.00
  -2   2   4  841.22   21.30
   2   2  -4  835.72   23.50
   1  -2  -4  190.78    7.70
   1  -2  -4  182.48    7.40
  -1  -2   4  161.68    8.60
  -1  -2   4  180.18    8.80
  -1  -2   4  181.48    8.90
  -1  -2   4  183.18    9.00
   1   2  -4  171.48    9.40
   1   2  -4  172.98    8.50
  -1   2   4  175.28    7.80
   1   2  -4  179.68    8.50
  -1   2   4  183.28    7.80
  -1   2   4  184.58    8.00
   1   2  -4  156.18    8.70
   0  -2  -4 3853.91   85.19
   0  -2   4 3862.31   86.09
   0  -2   4 3674.83   85.39
   0  -2  -4 4004.80   85.59
   0  -2   4 3780.72   86.19
   0   2  -4 3978.30   85.99
   0   2   4 3911.51   85.59
   0   2  -4 3824.12   85.59
   0   2  -4 3684.33   86.09
   0   2  -4 3862.51   86.99
   0   2   4 3795.42   85.59
   1  -2   4 1568.54   37.10
  -1  -2  -4 1529.35   37.30
   1  -2   4 1502.05   36.20
  -1  -2  -4 1504.65   37.30
   1  -2   4 1513.95   37.10
   1  -2   4 1515.55   36.50
  -1   2  -4 1528.75   37.20
   1   2   4 1514.95   37.70
  -1   2  -4 1490.65   36.30
  -1   2  -4 1494.95   36.40
   1   2   4 1472.75   37.50
   2  -2   4 1169.58   28.80
   2  -2   4 1194.98   29.70
   2  -2   4 1199.08   29.80
   2  -2   4 1189.78   29.20
  -2   2  -4 1191.48   29.30
   2   2   4 1156.18   31.30
   2   2   4 1177.78   31.50
  -2   2  -4 1207.08   29.90
   3  -2   4  840.52   21.70
   3  -2   4  786.42   20.50
   3  -2   4  815.22   21.10
   3   2   4  834.02   24.40
  -3   2  -4  809.82   21.20
   3   2   4  759.82   23.90
  -3   2  -4  816.92   21.60
   4  -2   4  500.65   14.50
   4  -2   4  576.84   15.90
   4  -2   4  559.44   16.20
   4   2   4  565.94   19.70
  -4   2  -4  558.34   15.80
  -4   2  -4  577.94   16.10
   4   2   4  590.54   19.80
   5  -2   4  113.79    4.50
   5  -2   4  121.19    6.40
  -5   2  -4  117.59    6.00
   5   2   4  131.39    9.80
   5   2   4  119.29    9.90
   6  -2   4   33.40    4.20
   6  -2   4   36.10    4.40
   6   2   4   42.40    7.40
   6   2   4   41.40    7.80
  -7  -2  -4  304.47   15.40
   7  -2   4  313.57   10.70
  -7  -2  -4  326.77   17.20
   7   2   4  331.17   16.20
   7   2   4  335.37   17.30
  -8  -2  -4   35.60    8.60
   8   2   4   29.30    8.20
  -9  -2  -4   15.70    7.30
   9   2   4   -6.90    6.20
  -9  -3   4   17.60    8.40
   9   3  -4   -5.30    8.20
  -8  -3   4   77.89   11.70
   8   3  -4   58.39   11.40
  -7  -3   4    0.10    5.30
  -7  -3   4    1.20    6.50
   7   3  -4    5.80    6.00
   7   3  -4   -1.00    7.00
  -6  -3   4   18.40    7.60
  -6  -3   4   12.10    6.30
   6   3  -4   21.80    7.10
   6   3  -4   15.10    7.60
   5  -3  -4  117.79    4.50
  -5  -3   4   99.99   10.00
  -5  -3   4  104.99   10.80
   5   3  -4  115.79   11.50
   5   3  -4  105.79   11.20
  -5   3   4  111.89    5.10
   4  -3  -4  184.98    7.20
  -4  -3   4  200.58   12.10
  -4  -3   4  208.08   12.60
  -4   3   4  201.58    7.00
   4   3  -4  208.78   13.00
  -4   3   4  206.68    7.80
   4   3  -4  205.98   13.00
  -3  -3   4  419.26   16.90
  -3  -3   4  405.16   16.60
   3  -3  -4  406.26   12.50
  -3   3   4  377.36   12.70
   3   3  -4  426.06   17.80
  -3   3   4  420.46   12.50
   3   3  -4  394.06   17.10
  -2  -3   4 1058.49   30.30
   2  -3  -4 1059.49   27.20
  -2  -3   4 1056.79   30.50
  -2   3   4 1068.49   27.30
   2   3  -4 1077.99   31.70
  -2   3   4 1053.09   27.60
   2   3  -4 1061.19   30.90
  -1  -3   4  468.65   16.70
  -1  -3   4  469.15   16.70
   1  -3  -4  462.25   14.80
   1   3  -4  477.35   17.80
  -1   3   4  461.55   15.40
  -1   3   4  477.75   15.30
   1   3  -4  461.65   17.10
   0  -3   4   15.50    4.10
   0  -3   4   12.40    3.90
   0  -3   4   18.20    4.50
   0  -3  -4   18.10    3.80
   0   3  -4   23.40    4.60
   0   3   4   15.70    4.10
   0   3   4   22.30    4.40
   0   3  -4   20.60    5.20
   0   3  -4   15.60    3.90
   1  -3   4  242.28   10.60
   1  -3   4  245.98   10.50
   1  -3   4  240.78   10.20
  -1   3  -4  252.07   11.50
   1   3   4  256.67   11.60
  -1   3  -4  252.77   11.10
   1   3   4  238.98   11.40
  -1   3  -4  237.78   10.20
   2  -3   4   64.19    6.10
   2  -3   4   65.79    6.00
   2  -3   4   69.19    6.00
  -2   3  -4   61.49    5.10
   2   3   4   48.40    6.60
  -2   3  -4   67.39    6.00
   2   3   4   52.69    6.90
   3  -3   4  178.08    7.50
   3  -3   4  184.48    8.40
   3  -3   4  177.68    8.50
  -3   3  -4  169.78    7.90
  -3   3  -4  176.68    8.40
   3   3   4  158.38   10.70
   3   3   4  194.28   11.60
   4  -3   4   48.30    5.10
   4  -3   4   51.49    3.70
   4  -3   4   61.49    5.50
  -4   3  -4   53.59    4.50
  -4   3  -4   51.89    4.60
   4   3   4   51.09    7.80
   4   3   4   43.30    7.20
   5  -3   4  359.66   12.00
  -5  -3  -4  384.36   18.50
   5  -3   4  395.66   12.20
   5   3   4  388.86   18.30
  -5   3  -4  359.06   12.90
   5   3   4  412.06   18.20
   6  -3   4  403.06   11.90
  -6  -3  -4  424.26   20.50
   6   3   4  428.96   19.50
   6   3   4  420.36   20.00
  -7  -3  -4   49.30    9.90
  -7  -3  -4   41.90    7.70
   7   3   4   25.90    7.10
   7   3   4   53.09    9.90
  -8  -3  -4   27.80    8.70
   8   3   4   19.40    8.90
  -9  -3  -4   42.00   11.20
   9   3   4   35.60   10.90
  -8  -4   4   -9.40    7.20
   8   4  -4  -14.70    6.80
  -7  -4   4   43.30   10.40
  -7  -4   4   40.00    9.00
   7   4  -4   35.70   10.50
   7   4  -4   33.80    9.30
  -6  -4   4    9.90    6.80
  -6  -4   4   15.00    8.10
   6   4  -4   11.70    8.20
  -6   4   4   11.80    2.20
   6   4  -4   12.30    7.30
   5  -4  -4   97.99    5.00
  -5  -4   4  125.89   13.50
  -5  -4   4  105.29   11.30
   5   4  -4  112.09   13.30
   5   4  -4  104.79   12.10
  -5   4   4  105.69    5.90
  -4  -4   4  114.99   11.70
  -4  -4   4  102.29   12.00
  -4   4   4   89.79    6.10
   4   4  -4   96.09   11.80
   4   4  -4  106.99   12.30
  -3  -4   4  329.27   16.70
  -3  -4   4  351.86   17.20
   3  -4  -4  347.67   12.20
   3   4  -4  329.57   17.30
  -3   4   4  347.17   13.10
   3   4  -4  353.56   17.90
  -3   4   4  342.97   12.30
  -2  -4   4    7.90    5.20
   2  -4  -4    6.30    3.20
  -2  -4   4    0.40    4.90
   2  -4  -4    4.10    2.70
  -2   4   4   10.70    3.70
   2   4  -4    7.00    5.30
   2   4  -4    4.60    5.20
  -2   4   4    6.30    3.30
  -1  -4   4  118.69    9.80
   1  -4  -4  117.89    7.70
  -1  -4   4  107.79    9.00
   1  -4  -4  116.89    8.20
   1   4  -4  108.69    9.90
  -1   4   4  113.49    8.30
   1   4  -4  126.89   10.20
  -1   4   4  103.59    7.90
   0  -4   4   35.50    6.30
   0  -4  -4   38.30    6.50
   0  -4   4   40.90    6.30
   0   4  -4   30.00    5.90
   0   4   4   37.80    6.20
   0   4   4   46.90    6.70
   0   4  -4   40.70    6.80
   1  -4   4  195.58   10.50
  -1  -4  -4  204.58   12.00
   1  -4   4  191.18   10.70
   1  -4   4  207.58   10.70
  -1   4  -4  209.68   11.10
   1   4   4  210.38   11.90
   1   4   4  205.78   11.80
  -1   4  -4  199.98   10.50
  -1   4  -4  206.88   11.80
   2  -4   4  309.87   13.10
   2  -4   4  321.47   12.70
  -2  -4  -4  332.57   15.90
   2  -4   4  326.67   13.30
   2   4   4  347.37   16.10
  -2   4  -4  328.37   13.10
  -2   4  -4  333.07   13.70
  -2   4  -4  312.67   14.20
   2   4   4  324.17   15.60
   3  -4   4  281.17   12.00
   3  -4   4  280.77   11.00
  -3  -4  -4  317.47   16.40
   3  -4   4  297.77   12.30
  -3   4  -4  295.07   12.40
   3   4   4  306.27   15.90
   3   4   4  304.07   16.00
  -3   4  -4  287.47   11.90
   4  -4   4  751.32   21.40
  -4  -4  -4  756.82   28.00
   4   4   4  726.83   27.00
   4   4   4  775.32   27.90
  -5  -4  -4   55.69    9.60
   5  -4   4   44.20    5.10
   5   4   4   40.70    8.10
   5   4   4   39.10    8.50
  -6  -4  -4   28.50    8.00
  -6  -4  -4   48.30    9.80
   6  -4   4   28.60    3.40
   6   4   4   30.60    8.90
   6   4   4   32.80    8.60
  -7  -4  -4   99.49   12.30
  -7  -4  -4  103.39   14.40
   7   4   4   71.99   11.30
   7   4   4   69.19   11.60
  -8  -4  -4   49.99   11.40
   8   4   4   95.89   14.30
  -7  -5   4   12.80    9.80
  -7  -5   4   12.30    8.90
   7   5  -4   -2.70    8.30
   7   5  -4    1.40    6.80
  -6  -5   4   -5.10    7.00
  -6  -5   4    8.70    8.80
   6   5  -4    1.60    7.50
   6   5  -4    5.80    8.00
  -5  -5   4   24.60    9.20
  -5  -5   4   21.40    8.00
   5  -5  -4   32.50    4.10
  -5   5   4   26.80    4.40
   5   5  -4   28.60    9.80
   5   5  -4   27.60    9.20
   4  -5  -4  129.29    8.40
  -4  -5   4  111.39   13.40
  -4  -5   4  149.39   14.90
   4   5  -4  113.39   13.80
  -4   5   4  126.89    8.60
   4   5  -4  124.19   14.40
  -3  -5   4   25.70    8.40
  -3  -5   4   45.90    9.70
   3  -5  -4   43.50    6.30
   3   5  -4   55.49   10.00
   3   5  -4   41.60    9.10
  -3   5   4   41.20    6.40
  -2  -5   4   52.19    9.50
  -2  -5   4   42.90    8.70
   2  -5  -4   46.50    6.60
  -2   5   4   40.30    6.30
   2   5  -4   32.00    8.00
  -2   5   4   44.90    6.80
   2   5  -4   48.10    9.10
   1  -5  -4  172.78   10.70
  -1  -5   4  147.59   12.50
  -1  -5   4  158.38   12.30
  -1   5   4  166.88   11.30
   1   5  -4  157.78   13.10
  -1   5   4  155.88   10.80
   1   5  -4  145.09   12.80
   0  -5   4   97.79   10.20
   0  -5  -4   91.49    9.50
   0  -5   4  113.29   10.60
   0   5  -4   85.99   10.50
   0   5   4  103.69   10.10
   0   5   4   99.59    9.60
   0   5  -4   97.49   10.60
   1  -5   4  185.38   11.40
  -1  -5  -4  168.18   12.20
   1  -5   4  162.28   11.40
   1   5   4  171.28   12.40
  -1   5  -4  173.18   11.60
  -1   5  -4  193.28   12.80
   1   5   4  182.98   13.10
   2  -5   4  145.39   10.60
   2  -5   4  149.29    9.70
  -2  -5  -4  146.39   12.60
  -2   5  -4  149.79   10.60
   2   5   4  147.09   12.70
   2   5   4  141.69   12.40
  -2   5  -4  157.08   11.50
   3  -5   4  130.09    9.90
  -3  -5  -4  110.49   12.20
   3   5   4  116.39   12.40
   3   5   4  114.09   12.20
  -4  -5  -4   35.40    8.60
  -4  -5  -4   43.30    9.90
   4  -5   4   52.09    6.70
   4   5   4   49.00    9.60
   4   5   4   37.80    9.10
  -5  -5  -4   15.60    8.20
   5  -5   4   14.50    4.20
  -5  -5  -4   14.70    8.10
   5   5   4   14.50    7.40
   5   5   4   16.90    8.30
  -6  -5  -4  119.79   14.80
  -6  -5  -4  106.79   14.20
   6   5   4   77.69   12.30
   6   5   4   92.09   13.70
  -7  -5  -4   10.30    9.60
  -7  -5  -4   14.00    8.20
   7   5   4    9.90    8.50
   7   5   4   -5.40    8.70
  -6  -6   4   77.69   12.80
  -6  -6   4   72.19   14.10
   6   6  -4   76.89   14.40
   6   6  -4   82.19   14.60
  -5  -6   4    8.10    8.80
  -5  -6   4   32.00   10.60
   5   6  -4    5.00    9.00
   5   6  -4    6.00    8.40
  -5   6   4    6.80    4.50
   4  -6  -4   56.49    7.30
  -4  -6   4   55.39   11.10
  -4  -6   4   96.99   14.50
   4   6  -4   58.19   12.10
  -4   6   4   50.39    7.50
   4   6  -4   46.40   10.50
   3  -6  -4   87.59    9.60
  -3  -6   4  108.99   14.10
  -3  -6   4  119.99   15.00
   3   6  -4  107.39   14.60
  -3   6   4   86.89    9.70
   3   6  -4   97.19   13.30
  -2  -6   4   29.40    9.40
   2  -6  -4   14.60    5.80
  -2  -6   4   21.60    8.40
  -2   6   4   13.50    5.70
   2   6  -4   28.80    9.00
   2   6  -4   23.30    8.90
  -1  -6   4   15.70    7.80
   1  -6  -4   19.80    7.30
  -1  -6   4    8.90    7.10
   1   6  -4   12.50    7.50
   1   6  -4   11.70    7.80
  -1   6   4   13.80    6.30
   0  -6  -4    2.80    5.30
   0  -6  -4   -2.30    6.10
   0  -6   4   -1.50    5.60
   0  -6   4   -1.20    5.90
   0   6   4  -12.30    4.00
   0   6   4    3.30    5.30
   0   6  -4   -3.90    6.00
   0   6  -4    1.80    6.00
   1  -6   4   94.29   11.40
  -1  -6  -4   98.39   13.00
  -1  -6  -4   82.29   10.50
   1   6   4   95.99   13.00
  -1   6  -4   85.59   11.90
   1   6   4   82.99   11.60
  -2  -6  -4   10.50    7.40
   2  -6   4   11.60    5.70
  -2  -6  -4   -9.60    6.50
   2   6   4   -2.20    6.10
  -2   6  -4    9.70    6.00
   2   6   4    2.80    6.40
  -3  -6  -4   91.99   12.70
   3  -6   4   72.59    9.10
  -3  -6  -4   79.99   12.50
   3   6   4   69.99   11.60
   3   6   4   82.39   13.10
  -3   6  -4   78.29   10.20
  -4  -6  -4   14.20    8.60
  -4  -6  -4    9.70    8.00
   4  -6   4   11.00    5.50
   4   6   4   -5.10    7.60
   4   6   4    8.50    7.30
  -5  -6  -4   -0.80    7.70
  -5  -6  -4   10.50    8.70
   5  -6   4   10.00    4.60
   5   6   4   -8.20    8.50
   5   6   4    3.70    8.20
  -6  -6  -4   17.00   10.00
  -6  -6  -4    5.60    8.10
   6   6   4    9.30    9.20
   6   6   4    5.90    9.40
  -4  -7   4   11.60    9.80
   4  -7  -4   17.20    5.30
  -4  -7   4   20.20   10.10
   4   7  -4   24.20   10.10
   4   7  -4   -7.10    8.90
  -4   7   4    9.00    6.40
  -3  -7   4   26.90    9.70
  -3  -7   4   29.10   10.70
   3  -7  -4   31.00    7.50
   3   7  -4   13.10    8.60
  -3   7   4   20.80    6.90
   2  -7  -4   31.30    7.80
  -2  -7   4   23.30    9.60
  -2  -7   4   31.80   10.40
   2   7  -4   -3.70    7.30
  -2   7   4   22.30    7.80
   2   7  -4   21.70    8.50
   1  -7  -4  147.29   14.20
  -1  -7   4  128.29   15.00
   1   7  -4  124.39   16.10
   1   7  -4  127.19   15.80
  -1   7   4  103.99   13.50
   0  -7   4   42.20    9.40
   0  -7  -4   35.70    8.90
   0   7   4   28.00    8.60
   0   7  -4   27.50    9.50
  -1  -7  -4   92.79   13.40
   1  -7   4   78.39   11.60
   1   7   4   81.49   13.30
  -1   7  -4   79.89   12.30
  -2  -7  -4   98.19   13.80
  -2  -7  -4   78.89   13.50
   2  -7   4   90.89   11.70
  -2   7  -4   74.49   11.80
   2   7   4   66.19   12.10
   2   7   4   52.89   10.70
  -3  -7  -4   31.50    9.50
   3  -7   4   25.10    7.00
  -3  -7  -4   21.40    9.10
   3   7   4   24.70   10.40
  -3   7  -4   27.50    7.50
   3   7   4   24.40   10.00
  -4  -7  -4    0.70    8.90
  -4  -7  -4   13.80    9.00
   4  -7   4   -8.30    5.40
   4   7   4  -10.60    7.30
   4   7   4    0.00    8.30
 -10   0   5    4.50    5.60
   9   0  -5   77.59    9.60
  -9   0   5   73.89    8.90
   8   0  -5  209.98   12.40
  -8   0   5  197.98   11.50
  -7   0   5  286.67   13.10
   7   0  -5  303.27   14.00
  -6   0   5    5.70    3.10
  -6   0   5    2.40    3.50
   6   0  -5    6.70    3.10
  -6   0   5    1.80    2.80
   6   0  -5   -1.50    4.10
  -5   0   5  717.23   21.40
   5   0  -5  728.13   21.90
   5   0  -5  733.53   20.90
  -5   0   5  702.43   21.00
  -5   0   5  723.63   20.40
   4   0  -5  963.20   26.00
   4   0  -5  940.71   25.00
  -4   0   5  937.51   25.90
  -4   0   5  912.51   25.10
  -4   0   5  954.90   24.70
  -3   0   5   16.90    3.60
  -3   0   5   18.30    3.30
   3   0  -5   16.20    4.00
   3   0  -5   20.60    3.50
  -3   0   5   18.70    3.60
  -2   0   5  694.43   18.80
   2   0  -5  671.93   19.50
  -2   0   5  700.03   19.00
  -2   0   5  662.23   19.10
   2   0  -5  689.73   18.70
   2   0  -5  677.63   18.70
   1   0  -5  613.44   17.40
  -1   0   5  644.24   18.30
   1   0  -5  647.44   18.60
   1   0  -5  647.14   17.60
  -1   0   5  639.64   17.80
  -1   0   5  649.04   17.80
   0   0   5  538.55   15.80
   0   0  -5  565.24   15.90
   0   0   5  555.24   16.00
   0   0  -5  563.34   16.80
   0   0   5  544.35   16.40
   0   0  -5  559.34   15.80
   1   0   5  811.52   21.50
   1   0   5  798.12   22.00
   1   0   5  814.12   21.50
  -1   0  -5  825.82   22.40
  -1   0  -5  775.92   21.10
  -1   0  -5  789.92   21.20
  -2   0  -5  186.48    8.90
   2   0   5  206.08    9.20
   2   0   5  191.78    8.60
  -2   0  -5  189.98    8.20
  -2   0  -5  204.18    8.40
   2   0   5  195.88    8.60
  -3   0  -5  238.68    9.50
   3   0   5  253.67   10.10
   3   0   5  238.08   10.40
   3   0   5  226.88    9.80
   4   0   5   33.10    5.00
  -4   0  -5   26.00    3.90
   4   0   5   30.70    5.00
   4   0   5   29.80    4.80
   5   0   5    2.50    3.60
  -5   0  -5    2.50    2.30
   5   0   5   -0.60    2.60
   5   0   5   -0.90    2.90
   6   0   5  232.48   11.40
   6   0   5  216.98   11.70
   6   0   5  228.88   10.70
   7   0   5    2.70    4.90
   8   0   5  216.68   13.10
   9   0   5   -2.40    5.10
  -9   0  -5    4.40    5.00
 -10  -1   5   23.20    7.80
  10   1  -5    2.70    6.40
  -9  -1   5  111.59   11.70
  -9   1   5   98.09    7.80
   9   1  -5  102.99   11.70
   8  -1  -5    1.20    3.60
  -8  -1   5    2.10    5.20
  -8   1   5    9.60    3.70
   8   1  -5   -2.50    5.60
   7  -1  -5   86.19    7.50
  -7  -1   5   82.29    9.20
   7   1  -5   90.79   11.00
  -7   1   5   71.89    6.50
  -6  -1   5  395.56   16.30
  -6  -1   5  407.26   15.60
  -6  -1   5  410.86   16.50
   6  -1  -5  423.76   14.10
  -6   1   5  409.06   12.40
   6   1  -5  409.26   15.70
  -6   1   5  402.36   13.50
  -6   1   5  376.06   13.50
   6   1  -5  428.46   17.50
  -5  -1   5   18.10    4.60
   5  -1  -5   18.50    3.20
  -5  -1   5   15.40    4.50
  -5  -1   5   14.90    4.30
   5  -1  -5   20.60    4.10
   5   1  -5   23.90    4.70
  -5   1   5   18.30    2.90
  -5   1   5   19.40    3.40
  -5   1   5   20.10    3.80
   5   1  -5   23.50    5.80
  -4  -1   5   65.09    6.10
   4  -1  -5   63.69    6.10
  -4  -1   5   61.19    6.40
  -4  -1   5   73.49    6.50
   4  -1  -5   59.59    5.10
   4   1  -5   67.49    7.40
   4   1  -5   68.59    6.30
  -4   1   5   65.69    5.10
  -4   1   5   68.59    4.60
  -3  -1   5 1258.57   32.20
   3  -1  -5 1238.28   30.90
   3  -1  -5 1225.98   31.10
  -3  -1   5 1277.27   33.30
  -3  -1   5 1174.38   32.20
   3  -1  -5 1241.08   30.30
  -3   1   5 1257.67   30.60
   3   1  -5 1291.47   32.40
  -3   1   5 1309.17   30.50
   3   1  -5 1229.58   33.10
  -2  -1   5  229.88   10.40
   2  -1  -5  234.38    8.50
  -2  -1   5  224.48    9.60
  -2  -1   5  218.48    9.60
   2  -1  -5  216.88    9.30
   2  -1  -5  227.68    8.70
   2   1  -5  238.48   10.70
  -2   1   5  225.78    9.00
  -2   1   5  224.08    8.60
   2   1  -5  232.58    9.70
  -2   1   5  238.68    8.90
   1  -1  -5  242.98    8.90
  -1  -1   5  235.98    9.90
  -1  -1   5  220.58    9.30
   1  -1  -5  234.58    8.90
   1  -1  -5  230.98    9.50
  -1  -1   5  248.18   10.20
  -1  -1   5  229.48    9.60
   1   1  -5  229.18   10.00
  -1   1   5  244.98    9.20
  -1   1   5  238.28    9.50
   1   1  -5  237.38    9.40
  -1   1   5  235.48    9.10
   1   1  -5  233.98    9.40
   0  -1   5  862.31   22.90
   0  -1   5  837.82   22.20
   0  -1  -5  859.51   22.10
   0  -1  -5  864.31   22.20
   0  -1  -5  842.02   23.00
   0  -1   5  834.52   22.30
   0   1   5  799.12   22.00
   0   1   5  823.32   22.20
   0   1  -5  829.42   22.10
   0   1  -5  790.62   22.70
   0   1  -5  818.32   22.00
   0   1   5  793.82   22.50
   1  -1   5 2480.65   56.29
  -1  -1  -5 2454.15   56.69
  -1  -1  -5 2439.36   56.69
   1  -1   5 2510.15   56.99
   1  -1   5 2388.96   56.09
  -1   1  -5 2488.95   56.39
  -1   1  -5 2464.05   57.19
  -1   1  -5 2482.45   56.29
   1   1   5 2468.65   56.99
   1   1   5 2474.15   57.69
   1   1   5 2435.66   56.89
  -2  -1  -5  159.98    7.80
   2  -1   5  162.68    8.10
   2  -1   5  169.68    7.70
   2  -1   5  165.28    7.80
   2   1   5  164.28    8.70
  -2   1  -5  165.68    8.10
  -2   1  -5  168.58    7.50
   2   1   5  150.28    8.40
   2   1   5  161.58    8.50
   3  -1   5  150.38    7.20
   3  -1   5  158.28    8.10
  -3  -1  -5  146.89    7.80
   3  -1   5  150.28    7.50
  -3   1  -5  150.88    7.80
   3   1   5  150.38    8.60
  -3   1  -5  148.09    7.10
   3   1   5  145.89    8.80
   3   1   5  150.18    8.70
   4  -1   5  222.18    9.70
  -4  -1  -5  202.48    9.80
   4  -1   5  212.78    9.50
   4  -1   5  209.78    8.80
   4   1   5  204.28   10.90
  -4   1  -5  194.28    8.50
   4   1   5  200.28   10.70
   5  -1   5   84.49    5.70
   5  -1   5   88.69    6.80
   5  -1   5   89.39    6.90
  -5  -1  -5   91.29    7.20
   5   1   5   77.79    7.40
   5   1   5   81.99    8.10
  -5   1  -5   83.79    5.80
   6  -1   5  295.47   12.30
   6   1   5  277.47   13.40
   6   1   5  296.27   14.40
   7  -1   5  161.08    9.80
   7   1   5  157.88   12.50
   8  -1   5   45.40    6.40
  -8  -1  -5   39.70    8.10
   8   1   5   44.10    8.30
   9  -1   5   13.20    5.10
  -9  -1  -5   18.20    6.80
   9   1   5    3.90    6.60
  -9   1  -5   17.30    5.30
  -9  -2   5    1.80    6.50
   9   2  -5   -2.60    7.20
  -8  -2   5   38.70    8.80
   8   2  -5   27.90    8.80
  -7  -2   5   93.39   11.30
  -7  -2   5   91.09   10.10
  -7   2   5   84.29    5.20
   7   2  -5   95.29   11.60
   6  -2  -5   30.80    3.50
  -6  -2   5   13.70    5.30
  -6  -2   5   21.50    6.20
   6   2  -5   20.10    7.00
  -6   2   5   29.30    3.70
   6   2  -5   24.20    6.80
   5  -2  -5  147.89    6.60
  -5  -2   5  172.58   11.10
  -5  -2   5  167.08   10.60
   5   2  -5  156.38   11.20
  -5   2   5  167.18    6.00
   5   2  -5  152.28   11.40
  -5   2   5  158.28    7.10
  -4  -2   5  301.37   13.50
   4  -2  -5  254.77    9.60
  -4  -2   5  312.97   14.00
   4   2  -5  329.87   14.80
  -4   2   5  318.07    9.80
   4   2  -5  318.47   14.50
  -4   2   5  311.47   10.50
  -3  -2   5  109.59    7.80
  -3  -2   5  105.09    8.00
   3  -2  -5  104.69    5.90
   3   2  -5  102.19    8.60
  -3   2   5  109.89    6.10
  -3   2   5  108.69    5.80
   3   2  -5  111.49    9.00
   2  -2  -5   37.60    4.10
  -2  -2   5   29.30    4.90
  -2  -2   5   36.20    5.60
   2   2  -5   30.30    5.90
  -2   2   5   37.80    4.50
  -2   2   5   39.10    4.30
   2   2  -5   36.20    5.90
  -1  -2   5  808.32   23.20
   1  -2  -5  819.32   21.90
  -1  -2   5  838.62   23.40
  -1  -2   5  820.52   23.70
  -1   2   5  822.92   22.20
   1   2  -5  807.62   23.90
   1   2  -5  784.72   24.40
   1   2  -5  825.02   23.30
  -1   2   5  782.02   22.10
   0  -2   5 2331.97   56.09
   0  -2  -5 2373.66   55.79
   0  -2   5 2385.36   56.19
   0  -2   5 2395.96   56.79
   0   2   5 2424.66   56.39
   0   2   5 2436.26   56.29
   0   2  -5 2462.45   57.39
   0   2  -5 2406.36   56.29
  -1  -2  -5  124.39    7.30
   1  -2   5  131.59    7.50
   1  -2   5  147.79    7.80
   1  -2   5  159.88    8.30
   1   2   5  148.89    8.40
   1   2   5  136.89    8.30
  -1   2  -5  141.29    7.30
  -1   2  -5  142.39    8.10
   2  -2   5 1624.44   39.60
   2  -2   5 1618.84   39.00
   2  -2   5 1578.94   38.60
  -2   2  -5 1590.44   39.00
   2   2   5 1630.54   41.30
   2   2   5 1610.34   41.10
  -2   2  -5 1634.24   39.90
   3  -2   5  443.26   13.90
   3  -2   5  450.35   14.30
   3  -2   5  463.35   15.00
  -3   2  -5  436.96   14.60
  -3   2  -5  451.95   14.20
   3   2   5  452.55   16.80
   3   2   5  436.06   16.70
   4  -2   5  307.57   11.10
   4  -2   5  252.27    9.70
   4   2   5  327.47   14.30
   4   2   5  299.67   14.00
  -4   2  -5  286.77   10.70
  -4   2  -5  298.37   11.20
   5  -2   5  424.16   13.80
   5  -2   5  400.56   12.10
  -5   2  -5  390.86   13.30
   5   2   5  404.56   17.40
   5   2   5  401.26   17.00
   6  -2   5  285.67   11.10
   6   2   5  262.57   15.60
   6   2   5  282.67   15.10
  -7  -2  -5   94.99   11.60
   7  -2   5  109.89    7.50
   7   2   5  114.49   10.40
   7   2   5  104.29   11.80
   8  -2   5   78.19    6.70
  -8  -2  -5   96.69   12.00
   8   2   5   89.49   11.60
  -9  -2  -5   86.89   12.30
  -9  -3   5    9.10    8.40
   9   3  -5   13.40    9.90
  -8  -3   5   45.70   10.30
   8   3  -5   46.10   11.20
  -7  -3   5    4.50    6.40
  -7  -3   5   -0.80    4.70
   7   3  -5    0.10    7.50
   7   3  -5    7.50    6.10
  -6  -3   5    5.80    7.10
  -6  -3   5   11.30    5.90
   6   3  -5    0.60    5.70
  -6   3   5    5.20    2.10
   6   3  -5   11.60    7.40
  -5  -3   5  114.99   11.00
  -5  -3   5  115.19   11.30
   5  -3  -5  114.69    5.70
  -5   3   5  114.19    5.90
   5   3  -5  134.59   12.60
   5   3  -5  118.79   11.40
   4  -3  -5   53.39    3.60
  -4  -3   5   63.29    8.40
  -4  -3   5   66.39    8.50
  -4   3   5   58.39    4.40
   4   3  -5   59.89    8.90
  -4   3   5   54.59    4.80
   4   3  -5   50.89    8.10
  -3  -3   5  198.28   12.10
  -3  -3   5  195.38   12.00
   3  -3  -5  196.18    8.60
  -3   3   5  197.58    8.50
  -3   3   5  207.08    9.10
   3   3  -5  199.08   12.80
   3   3  -5  206.48   12.90
  -2  -3   5  918.31   27.90
   2  -3  -5  893.21   24.60
  -2  -3   5  890.71   27.40
   2   3  -5  869.61   27.90
   2   3  -5  975.50   29.70
  -2   3   5  957.80   25.10
  -2   3   5  945.71   25.40
  -1  -3   5   90.49    8.10
  -1  -3   5   84.69    7.50
   1  -3  -5  100.89    6.80
  -1   3   5   96.79    6.90
   1   3  -5   92.09    8.50
  -1   3   5  104.09    7.00
   1   3  -5   96.89    8.70
   0  -3   5    5.00    3.50
   0  -3   5    5.20    3.90
   0  -3  -5    4.90    3.20
   0  -3   5    7.60    4.00
   0   3  -5    8.00    4.10
   0   3   5    8.30    3.40
   0   3   5    9.30    3.90
   0   3  -5    8.20    3.30
   0   3  -5    6.90    3.80
   1  -3   5  273.87   11.90
   1  -3   5  276.77   11.60
   1  -3   5  281.97   11.80
  -1   3  -5  268.67   12.10
  -1   3  -5  275.57   11.50
   1   3   5  265.27   12.30
   1   3   5  253.97   12.30
   2  -3   5  280.67   11.70
   2  -3   5  280.57   11.30
   2  -3   5  305.47   12.00
   2   3   5  288.57   13.60
   2   3   5  289.57   13.70
  -2   3  -5  280.07   12.10
  -2   3  -5  296.97   11.60
   3  -3   5   89.09    6.90
   3  -3   5   86.59    6.60
   3  -3   5   85.69    6.00
  -3   3  -5   94.59    6.30
   3   3   5   75.89    8.80
   3   3   5   78.49    8.60
  -3   3  -5   88.99    6.60
   4  -3   5  771.12   21.30
   4  -3   5  685.03   21.10
   4   3   5  768.82   26.20
  -4   3  -5  744.93   21.40
   4   3   5  808.22   26.40
  -4   3  -5  725.23   21.10
   5  -3   5  175.18    8.80
   5   3   5  180.58   12.80
   5   3   5  180.98   13.70
  -6  -3  -5   12.90    7.40
   6  -3   5   12.10    3.60
   6   3   5   10.60    6.30
   6   3   5   16.80    7.40
   7  -3   5  140.09    6.80
  -7  -3  -5  148.69   14.40
   7   3   5  151.18   12.90
   7   3   5  135.59   14.20
  -8  -3  -5   14.00    7.70
   8   3   5   -4.20    7.20
  -9  -3  -5    7.20    9.30
   9   3   5   -1.80    8.50
  -8  -4   5   54.39   11.70
   8   4  -5   30.40   11.40
  -7  -4   5   32.40   10.30
  -7  -4   5   26.30    8.50
   7   4  -5   35.50   10.50
   7   4  -5   24.20    8.40
  -6  -4   5    6.80    7.00
  -6  -4   5   22.60    8.10
  -6   4   5   -1.50    1.80
   6   4  -5    8.50    6.90
   6   4  -5  -12.10    6.90
  -5  -4   5  298.27   17.90
  -5  -4   5  233.18   15.40
   5   4  -5  288.67   18.20
  -5   4   5  256.57   10.10
   5   4  -5  262.27   17.30
  -4  -4   5  161.18   13.40
  -4  -4   5  175.08   14.00
   4   4  -5  160.68   13.90
  -4   4   5  161.58    8.40
   4   4  -5  160.28   14.40
   3  -4  -5   36.50    4.70
  -3  -4   5   22.70    6.60
  -3  -4   5   20.50    7.30
   3  -4  -5   24.00    3.90
   3   4  -5   35.80    8.30
  -3   4   5   18.90    4.20
   3   4  -5   13.50    6.60
  -3   4   5   34.90    5.10
  -2  -4   5  325.47   16.00
   2  -4  -5  314.47   12.40
  -2  -4   5  308.47   15.30
   2  -4  -5  293.37   12.50
   2   4  -5  332.97   17.10
  -2   4   5  308.37   13.10
   2   4  -5  318.47   16.50
  -2   4   5  312.67   12.90
  -1  -4   5  604.04   21.40
   1  -4  -5  573.74   19.70
   1  -4  -5  573.14   18.90
  -1  -4   5  588.14   21.30
   1   4  -5  557.84   21.60
   1   4  -5  617.34   22.90
  -1   4   5  577.54   19.60
  -1   4   5  558.64   19.90
   0  -4   5   78.49    8.80
   0  -4   5   82.69    8.50
   0   4  -5   76.69    9.00
   0   4   5   75.29    7.80
   0   4   5   79.89    8.00
   0   4  -5   84.69    8.80
   1  -4   5   48.60    6.30
   1  -4   5   44.50    6.20
   1  -4   5   61.39    7.30
   1   4   5   66.69    8.10
  -1   4  -5   57.49    7.70
   1   4   5   51.39    7.20
  -1   4  -5   46.20    6.80
   2  -4   5  440.86   16.60
   2  -4   5  437.26   16.60
   2  -4   5  455.65   16.10
   2   4   5  448.26   19.10
  -2   4  -5  466.25   17.40
   2   4   5  464.75   19.30
  -2   4  -5  456.05   16.70
   3  -4   5   26.50    5.20
   3  -4   5   45.40    5.70
   3  -4   5   39.70    5.90
  -3  -4  -5   46.60    8.40
   3   4   5   45.00    8.10
  -3   4  -5   36.60    5.60
  -3   4  -5   41.50    5.80
   3   4   5   46.40    8.60
  -4  -4  -5   78.69   10.70
   4  -4   5   90.29    7.90
   4   4   5   92.59   11.00
   4   4   5   91.79   11.30
   5  -4   5   71.99    7.00
  -5  -4  -5   81.89   12.10
   5   4   5   78.69   11.20
   5   4   5   97.19   12.30
   6  -4   5   46.70    5.50
  -6  -4  -5   62.39   11.40
   6   4   5   46.80   10.40
   6   4   5   63.69   10.80
  -7  -4  -5   24.30    8.00
  -7  -4  -5   42.80   10.60
   7   4   5   41.10    9.30
   7   4   5   34.30    9.40
  -8  -4  -5   31.30   10.60
   8   4   5    5.70    9.30
  -7  -5   5   14.30    8.40
  -7  -5   5   28.00   11.20
   7   5  -5   13.60    8.60
   7   5  -5   17.60   10.50
  -6  -5   5   14.40    8.00
  -6  -5   5   35.00   11.40
   6   5  -5    8.90    9.80
   6   5  -5   14.90    8.50
  -5  -5   5   -9.00    6.70
  -5  -5   5    5.90    8.70
   5  -5  -5    7.10    3.10
   5   5  -5    5.50    7.30
   5   5  -5    3.50    7.90
  -5   5   5    6.20    3.40
  -4  -5   5    5.90    7.60
  -4  -5   5    8.80    8.00
  -4   5   5    1.50    3.60
   4   5  -5   -2.10    6.90
   4   5  -5    8.00    8.00
  -3  -5   5  628.34   25.80
  -3  -5   5  597.14   25.20
   3   5  -5  600.44   26.30
   3   5  -5  569.24   25.20
  -3   5   5  588.84   20.80
  -2  -5   5   46.00    9.50
  -2  -5   5   56.29   10.20
   2  -5  -5   48.00    6.40
   2   5  -5   40.20    8.90
  -2   5   5   45.20    7.30
  -2   5   5   44.10    6.70
   2   5  -5   44.40    9.80
  -1  -5   5  377.26   18.20
  -1  -5   5  343.67   17.50
   1  -5  -5  325.07   15.40
   1   5  -5  346.07   18.60
   1   5  -5  359.96   18.30
  -1   5   5  346.57   16.40
  -1   5   5  352.36   15.90
   0  -5   5  177.78   12.50
   0  -5  -5  160.48   11.70
   0  -5   5  176.08   12.50
   0   5   5  184.58   12.20
   0   5   5  177.18   12.50
   0   5  -5  196.98   13.50
   0   5  -5  177.88   13.40
  -1  -5  -5   88.69   10.90
   1  -5   5   89.39    9.40
   1  -5   5   82.49    9.80
   1   5   5   76.79    9.70
  -1   5  -5   68.89    9.50
   1   5   5   89.79   10.30
  -1   5  -5   95.99    9.90
  -2  -5  -5   34.40    8.50
   2  -5   5   28.40    5.80
   2  -5   5   23.40    6.10
   2   5   5   34.50    7.80
   2   5   5   29.20    8.30
  -2   5  -5   29.70    6.50
  -2   5  -5   31.40    7.10
   3  -5   5   36.10    6.80
  -3  -5  -5   47.20    9.30
   3   5   5   28.60    8.60
   3   5   5   31.70    8.70
  -4  -5  -5  142.29   14.20
   4  -5   5  140.79   10.10
   4   5   5  134.89   14.20
   4   5   5  154.28   14.50
  -5  -5  -5   16.60    8.20
   5  -5   5    8.10    4.30
  -5  -5  -5   14.40    8.30
   5   5   5   12.60    8.10
   5   5   5    2.70    6.60
  -6  -5  -5    4.90    7.70
  -6  -5  -5    7.50    7.80
   6   5   5   10.00    7.50
   6   5   5    7.90    8.30
  -7  -5  -5   28.50   11.40
  -7  -5  -5   19.90    8.90
   7   5   5   -1.70    8.80
   7   5   5    4.50    7.40
  -6  -6   5    5.20   10.30
  -6  -6   5    2.40    9.00
   6   6  -5   -1.00    9.20
   6   6  -5   11.10    8.60
  -5  -6   5   40.90   10.60
  -5  -6   5   53.69   12.90
   5  -6  -5   40.30    6.10
   5   6  -5   24.60   10.80
   5   6  -5   34.70   10.90
  -5   6   5   33.90    6.00
   4  -6  -5   35.80    6.20
  -4  -6   5   39.40   10.30
  -4  -6   5   48.10   11.60
   4   6  -5   10.10    8.60
   4   6  -5   37.70   10.80
  -4   6   5   37.10    6.80
  -3  -6   5   69.09   11.80
  -3  -6   5   53.49   10.60
   3  -6  -5   64.69    8.50
  -3   6   5   70.29    9.10
   3   6  -5   93.69   14.00
   3   6  -5   63.29   11.90
  -2  -6   5   31.20    9.70
   2  -6  -5   25.10    6.70
  -2  -6   5   30.00    9.10
  -2   6   5   21.90    6.80
   2   6  -5   27.90    9.10
   2   6  -5   24.40    9.70
   1  -6  -5   43.30    8.90
  -1  -6   5   40.30    9.60
  -1  -6   5   31.70    8.60
   1   6  -5   31.60    9.00
   1   6  -5   19.30    8.00
  -1   6   5   32.30    7.90
   0  -6  -5   57.79    9.00
   0  -6   5   56.59    9.60
   0  -6   5   39.00    8.40
   0   6   5   44.00    8.70
   0   6   5   59.89   10.40
   0   6  -5   57.09   10.80
   0   6  -5   46.10    9.80
  -1  -6  -5    9.80    6.30
  -1  -6  -5    1.60    6.60
   1  -6   5    1.10    5.90
   1   6   5   -2.30    5.60
  -1   6  -5   -5.40    5.10
   1   6   5    5.30    6.40
   2  -6   5   33.40    7.30
  -2  -6  -5   34.80    8.70
  -2  -6  -5   47.70   10.60
   2   6   5   31.10    8.70
  -2   6  -5   40.90    9.10
   2   6   5   31.60    8.60
  -3  -6  -5   71.79   12.30
  -3  -6  -5   66.09   11.50
   3  -6   5   42.20    7.80
   3   6   5   52.29   10.90
   3   6   5   56.79   11.10
   4  -6   5    9.60    5.60
  -4  -6  -5    2.50    8.00
  -4  -6  -5    1.10    7.40
   4   6   5    5.10    7.00
   4   6   5   -2.30    7.70
  -5  -6  -5    5.00    8.00
  -5  -6  -5   20.00    9.80
   5  -6   5   21.60    5.30
   5   6   5    8.70    8.60
   5   6   5    2.10    8.60
  -6  -6  -5   39.60   13.40
  -6  -6  -5   20.30   10.00
   6   6   5   24.60   10.40
   6   6   5   32.70   10.90
  -4  -7   5   -4.70    9.40
   4  -7  -5    5.70    4.70
  -4  -7   5   -5.50    8.50
   4   7  -5    8.50    9.20
  -4   7   5    7.20    6.00
   4   7  -5   -8.70    8.40
  -3  -7   5   -3.00    8.00
  -3  -7   5   10.50    9.60
   3  -7  -5   15.30    6.30
   3   7  -5   11.60    8.40
  -3   7   5    4.10    5.60
   3   7  -5   -5.10    9.30
  -2  -7   5   17.40    9.70
  -2  -7   5   25.10   10.10
   2  -7  -5   30.00    7.80
   2   7  -5   19.40    9.30
   2   7  -5   25.10   10.90
  -2   7   5   35.20    8.40
   1  -7  -5   26.70    8.40
  -1  -7   5   23.90    8.60
   1   7  -5   25.70    9.90
   1   7  -5   17.70    7.80
  -1   7   5    8.00    6.80
   0  -7  -5   16.90    8.60
   0  -7   5    6.40    8.10
   0   7  -5   23.00    8.80
   0   7   5   20.80    8.10
  -1  -7  -5   57.49   11.90
   1  -7   5   35.70    8.80
   1   7   5   58.49   11.80
  -1   7  -5   45.00    9.50
  -2  -7  -5   50.99   11.10
  -2  -7  -5   39.50   10.60
   2  -7   5   37.00    8.50
   2   7   5   37.50   10.00
   2   7   5   32.60    9.70
  -2   7  -5   45.80   10.10
   3  -7   5    6.90    6.50
  -3  -7  -5   17.70    9.30
  -3  -7  -5   14.10    8.20
   3   7   5   -4.30    7.10
   3   7   5    6.70    8.40
  -4  -7  -5   22.70   10.00
   4  -7   5   19.70    6.70
  -4  -7  -5   17.90   10.10
   4   7   5   15.30    8.90
   4   7   5   18.90   10.50
 -10   0   6    2.50    5.90
  -9   0   6   53.69    7.90
   9   0  -6   51.79    8.00
   8   0  -6   81.99    9.90
  -8   0   6   76.39    8.80
   7   0  -6   38.50    7.10
  -7   0   6   28.80    5.90
  -6   0   6  901.81   25.20
  -6   0   6  887.71   26.20
   6   0  -6  887.31   25.80
   6   0  -6  934.71   27.40
   5   0  -6  283.67   11.50
   5   0  -6  268.87   12.60
  -5   0   6  249.88   10.80
  -5   0   6  268.57   11.80
  -5   0   6  277.27   11.90
  -4   0   6   62.79    6.10
  -4   0   6   65.99    5.90
  -4   0   6   61.19    5.80
   4   0  -6   64.09    5.90
   4   0  -6   56.89    6.90
   3   0  -6  274.47   10.60
   3   0  -6  274.57   11.60
  -3   0   6  251.97   10.70
  -3   0   6  270.07   10.60
   2   0  -6   76.59    6.50
   2   0  -6   79.99    5.90
  -2   0   6   83.79    6.30
  -2   0   6   91.49    6.30
  -1   0   6 1918.21   45.40
  -1   0   6 1959.00   46.20
   1   0  -6 1892.21   45.10
   1   0  -6 1937.31   46.50
  -1   0   6 1915.71   45.40
   1   0  -6 1839.32   45.00
   0   0  -6   42.20    4.50
   0   0  -6   43.60    4.80
   0   0   6   43.80    5.30
   0   0   6   42.10    5.30
   0   0   6   43.00    4.80
   0   0  -6   52.69    5.70
   1   0   6 1949.41   47.70
   1   0   6 2027.20   47.10
  -1   0  -6 1991.30   46.80
  -1   0  -6 1919.61   47.80
  -1   0  -6 1985.00   46.90
   1   0   6 1976.70   47.00
  -2   0  -6  283.77   11.00
   2   0   6  281.97   11.50
   2   0   6  303.27   12.00
   2   0   6  297.37   11.50
  -2   0  -6  303.77   12.20
   3   0   6   23.70    4.60
   3   0   6   27.80    4.60
   3   0   6   23.50    4.60
  -3   0  -6   20.00    3.60
   4   0   6   13.50    4.10
   4   0   6   21.00    4.40
  -4   0  -6   10.70    3.20
   4   0   6   13.40    4.40
   5   0   6  378.96   14.60
   5   0   6  382.26   15.30
   5   0   6  419.66   15.60
  -5   0  -6  355.56   14.00
   6   0   6   40.20    6.00
   6   0   6   38.00    6.60
   7   0   6  398.96   17.20
   8   0   6  125.29   11.60
   9   0   6   55.19    8.50
  10   1  -6    9.60    6.60
  -9  -1   6   10.60    7.00
  -9   1   6   13.40    4.70
   9   1  -6   11.60    7.40
  -8  -1   6   84.49   10.60
   8  -1  -6   93.19    8.40
  -8   1   6   94.19    8.00
   8   1  -6   88.19   10.60
  -7  -1   6  134.39   11.10
   7  -1  -6  120.89    9.20
   7   1  -6  150.28   12.70
  -7   1   6  124.29    8.50
  -6  -1   6   47.90    6.60
  -6  -1   6   47.20    7.40
   6  -1  -6   40.60    5.40
   6  -1  -6   41.90    5.90
   6   1  -6   51.39    7.40
  -6   1   6   44.90    5.60
   6   1  -6   56.49    8.20
  -5  -1   6  175.38    9.80
  -5  -1   6  164.38   10.20
  -5  -1   6  161.18   10.00
   5  -1  -6  165.98    8.20
   5  -1  -6  162.98    9.20
  -5   1   6  161.68    7.60
   5   1  -6  182.18   11.10
  -5   1   6  161.78    8.50
  -5   1   6  151.08    8.30
   5   1  -6  175.98    9.90
   4  -1  -6   39.30    5.20
  -4  -1   6   32.60    5.00
   4  -1  -6   33.50    4.40
  -4  -1   6   29.50    5.40
  -4  -1   6   29.00    5.30
  -4   1   6   41.60    5.10
   4   1  -6   34.40    5.20
  -4   1   6   31.90    4.10
   4   1  -6   40.30    6.40
  -3  -1   6  311.47   13.30
  -3  -1   6  335.47   13.00
   3  -1  -6  316.57   12.40
   3  -1  -6  328.77   11.60
  -3   1   6  338.87   11.60
   3   1  -6  341.67   14.00
   3   1  -6  336.17   12.90
  -3   1   6  331.07   11.80
  -2  -1   6  180.98    9.30
   2  -1  -6  159.98    7.70
  -2  -1   6  158.78    8.80
  -2  -1   6  177.08    9.00
   2  -1  -6  169.38    8.70
   2   1  -6  163.18    9.50
   2   1  -6  183.58    8.70
  -2   1   6  174.28    8.00
  -2   1   6  165.28    8.00
   1  -1  -6  495.05   16.40
   1  -1  -6  497.25   15.40
  -1  -1   6  508.35   16.10
  -1  -1   6  525.05   16.40
  -1  -1   6  514.75   16.90
  -1   1   6  507.25   15.70
   1   1  -6  496.45   16.90
   1   1  -6  474.75   17.00
  -1   1   6  486.55   15.60
   1   1  -6  477.65   15.70
   0  -1   6  748.83   21.00
   0  -1  -6  771.02   21.50
   0  -1  -6  702.53   21.50
   0  -1   6  716.73   20.90
   0  -1  -6  734.53   20.70
   0  -1   6  706.13   21.30
   0   1  -6  722.63   20.80
   0   1  -6  755.22   20.90
   0   1   6  724.93   21.40
   0   1   6  742.03   21.00
   0   1   6  721.13   20.90
   0   1  -6  724.43   21.70
   1  -1   6 1334.57   34.30
   1  -1   6 1345.97   35.00
   1  -1   6 1370.26   34.50
  -1  -1  -6 1415.46   35.00
  -1  -1  -6 1367.86   34.80
  -1   1  -6 1414.56   35.70
   1   1   6 1376.46   35.10
   1   1   6 1407.66   35.20
  -1   1  -6 1359.56   34.40
   1   1   6 1411.96   35.90
   2  -1   6 1166.48   30.30
   2  -1   6 1167.58   29.60
  -2  -1  -6 1156.38   30.20
   2  -1   6 1150.78   29.40
   2   1   6 1066.19   30.00
   2   1   6 1124.79   30.40
   2   1   6 1143.19   31.20
  -2   1  -6 1127.19   30.40
  -2   1  -6 1124.49   29.40
   3  -1   6  492.65   16.00
   3  -1   6  496.55   16.70
   3  -1   6  483.95   15.70
  -3  -1  -6  512.65   17.80
   3   1   6  507.15   17.80
   3   1   6  485.25   17.20
   3   1   6  510.45   17.40
  -3   1  -6  500.25   15.80
  -3   1  -6  503.95   16.70
   4  -1   6  289.37   12.30
   4  -1   6  298.67   11.70
   4  -1   6  311.77   12.20
   4   1   6  325.27   13.60
  -4   1  -6  286.27   11.40
   4   1   6  295.37   13.70
   4   1   6  313.67   13.60
   5  -1   6   68.49    6.70
   5  -1   6   89.59    7.70
   5  -1   6   91.29    6.60
   5   1   6   77.79    7.90
   5   1   6   93.09    9.10
  -5   1  -6   69.89    5.80
   6  -1   6  234.78   11.60
   6   1   6  216.08   12.40
   6   1   6  233.28   13.50
   7  -1   6   16.00    5.60
   7   1   6   30.60    7.50
   8  -1   6  173.98   11.50
   8   1   6  181.88   14.20
  -9  -1  -6  170.28   14.10
   9  -1   6  150.18   10.70
   9   1   6  161.48   14.60
  -9  -2   6   55.39   10.60
   9   2  -6   56.79   10.90
  -8  -2   6   42.60    8.90
   8   2  -6   54.99   10.70
  -8   2   6   60.29    5.80
  -7  -2   6    2.40    6.20
  -7   2   6    9.50    2.90
   7   2  -6   17.20    7.80
   6  -2  -6  487.55   15.30
  -6  -2   6  471.35   20.30
  -6  -2   6  503.35   19.60
   6   2  -6  513.45   21.50
  -6   2   6  482.55   15.20
  -5  -2   6  219.98   13.10
   5  -2  -6  212.48    9.50
  -5  -2   6  244.28   12.90
   5   2  -6  198.88   13.30
  -5   2   6  203.28    8.00
  -5   2   6  201.58    8.90
  -4  -2   6  234.68   12.30
   4  -2  -6  222.08    9.10
  -4  -2   6  224.48   12.40
   4  -2  -6  234.18   10.10
  -4   2   6  238.28    9.70
  -4   2   6  230.38    9.00
   4   2  -6  227.58   12.90
  -3  -2   6  306.87   13.40
  -3  -2   6  281.97   13.30
   3  -2  -6  281.97   10.70
  -3   2   6  284.07   10.70
  -3   2   6  291.47   11.10
   3   2  -6  291.97   14.00
  -2  -2   6  997.10   29.20
  -2  -2   6 1002.30   29.00
   2  -2  -6 1067.09   27.40
   2   2  -6 1037.60   30.30
  -2   2   6 1131.49   27.80
  -2   2   6 1048.40   27.60
   1  -2  -6   89.59    6.20
  -1  -2   6   88.19    7.10
  -1  -2   6   90.29    7.50
  -1   2   6   97.59    6.80
   1   2  -6   99.39    7.80
  -1   2   6  102.19    6.90
   0  -2   6  521.35   17.10
   0  -2   6  508.65   17.50
   0  -2   6  493.95   16.80
   0  -2  -6  520.45   16.60
   0   2   6  512.45   17.10
   0   2  -6  520.65   16.90
   0   2  -6  523.95   17.90
   0   2   6  522.95   17.00
   1  -2   6  534.75   17.60
   1  -2   6  526.85   16.90
   1  -2   6  517.55   16.90
   1   2   6  515.95   17.80
  -1   2  -6  526.65   17.00
   1   2   6  532.35   17.80
  -1   2  -6  554.44   18.00
   2  -2   6  197.58    9.50
   2  -2   6  206.08   10.00
   2  -2   6  204.38    9.40
   2   2   6  207.28   10.90
   2   2   6  202.08   10.80
  -2   2  -6  217.08    9.40
  -2   2  -6  196.68    9.80
   3  -2   6  356.86   12.90
   3  -2   6  371.06   13.50
   3   2   6  391.96   15.80
  -3   2  -6  380.86   13.20
  -3   2  -6  368.36   13.90
   3   2   6  354.66   15.10
   4  -2   6   10.30    3.20
   4  -2   6    4.70    3.60
   4  -2   6    4.10    3.40
   4   2   6   12.80    5.30
  -4   2  -6    4.80    2.70
  -4   2  -6    7.60    3.30
   4   2   6    4.10    4.40
   5  -2   6   79.59    7.30
   5   2   6   75.69    9.50
  -5   2  -6   73.29    6.80
   5   2   6   69.19    8.60
   6  -2   6   27.80    5.10
   6   2   6   31.50    7.10
   6   2   6   26.10    7.70
   7  -2   6   61.79    7.20
   7   2   6   70.39   10.20
  -8  -2  -6   37.70    8.90
   8  -2   6   32.30    5.20
   8   2   6   11.70    7.90
  -9  -2  -6   -5.00    6.00
   9   2   6   -6.00    6.70
  -9  -3   6   -0.10    8.30
   9   3  -6    3.20    9.00
  -8  -3   6    5.90    7.80
   8   3  -6    3.50    8.60
  -7  -3   6    6.50    5.80
  -7  -3   6    2.40    6.70
  -7   3   6    9.30    2.70
   7   3  -6    1.90    8.00
   7   3  -6   18.70    6.70
  -6  -3   6    4.30    6.00
  -6  -3   6    6.70    7.00
   6   3  -6    4.50    5.60
   6   3  -6   -4.40    6.00
  -6   3   6    3.70    2.50
  -5  -3   6   18.50    6.70
  -5  -3   6   31.90    7.70
   5   3  -6   15.80    6.70
  -5   3   6   19.10    3.60
   5   3  -6   20.90    8.10
   4  -3  -6  808.82   22.70
  -4  -3   6  858.61   28.50
  -4  -3   6  878.51   28.20
   4   3  -6  864.31   29.70
  -4   3   6  860.91   23.60
  -4   3   6  859.01   22.60
   4   3  -6  827.92   28.60
  -3  -3   6   25.00    6.30
  -3  -3   6   40.70    7.10
   3  -3  -6   31.80    4.40
  -3   3   6   34.60    4.90
   3   3  -6   28.30    6.50
   3   3  -6   34.50    7.50
  -3   3   6   35.50    4.70
  -2  -3   6  818.12   26.50
  -2  -3   6  840.22   26.80
   2  -3  -6  842.92   23.90
   2   3  -6  866.71   27.70
  -2   3   6  896.21   24.50
  -2   3   6  854.21   24.70
   2   3  -6  899.41   28.80
  -1  -3   6  639.94   21.30
  -1  -3   6  594.54   20.80
   1  -3  -6  644.54   19.70
  -1   3   6  670.43   20.30
   1   3  -6  649.04   22.30
   1   3  -6  580.74   22.20
  -1   3   6  629.64   20.20
   0  -3   6   62.19    7.20
   0  -3   6   61.69    7.20
   0   3   6   78.99    7.40
   0   3  -6   56.49    6.90
   0   3   6   66.89    6.90
   1  -3   6   31.50    5.40
   1  -3   6   21.60    4.70
   1  -3   6   22.50    4.50
   1   3   6   24.00    5.20
   1   3   6   21.90    5.30
  -1   3  -6   24.40    5.00
  -1   3  -6   23.70    4.30
   2  -3   6  524.15   17.60
   2  -3   6  565.44   17.50
   2  -3   6  510.85   17.80
   2   3   6  488.95   19.10
  -2   3  -6  513.65   17.40
  -2   3  -6  539.05   18.40
   2   3   6  517.65   19.60
   3  -3   6   96.79    7.70
   3  -3   6   90.69    6.70
   3  -3   6   82.69    7.60
   3   3   6  100.39   10.10
   3   3   6  111.99    9.80
  -3   3  -6   94.59    6.80
  -3   3  -6   99.39    7.60
   4  -3   6   67.29    7.00
   4  -3   6   57.59    5.40
   4  -3   6   70.59    7.30
  -4   3  -6   55.19    5.80
  -4   3  -6   66.89    6.50
   4   3   6   59.59    8.60
   4   3   6   67.79    9.30
   5  -3   6  478.55   16.20
   5   3   6  496.45   21.80
   5   3   6  472.25   20.80
   6  -3   6   48.00    5.90
   6   3   6   54.09    9.60
   6   3   6   43.50    8.40
   7  -3   6   15.10    4.00
  -7  -3  -6   18.40    7.50
   7   3   6   19.00    8.30
   7   3   6   20.70    7.10
  -8  -3  -6   16.20    8.00
   8   3   6    3.00    8.00
  -8  -4   6   20.10    9.80
   8   4  -6    9.40    9.60
  -7  -4   6   14.00    8.70
  -7  -4   6  -11.00    5.70
   7   4  -6    5.10    6.80
   7   4  -6   -1.80    7.70
  -6  -4   6   -2.60    7.00
  -6  -4   6   -5.40    6.00
   6   4  -6    8.50    8.70
   6   4  -6   14.10    7.60
  -6   4   6    3.30    2.40
  -5  -4   6    9.90    7.60
  -5  -4   6   13.60    7.00
  -5   4   6    9.10    3.10
   5   4  -6   12.60    8.10
   5   4  -6   13.10    8.20
  -4  -4   6  133.89   13.20
  -4  -4   6  124.09   12.00
  -4   4   6  127.29    8.20
   4   4  -6  126.39   13.10
   4   4  -6  128.09   13.90
   3  -4  -6  250.17   10.90
   3  -4  -6  250.57   11.60
  -3  -4   6  283.87   16.10
  -3  -4   6  264.67   15.80
   3   4  -6  249.88   16.30
  -3   4   6  258.07   12.00
   3   4  -6  249.18   16.20
  -3   4   6  254.57   11.30
   2  -4  -6  439.36   16.00
  -2  -4   6  439.66   19.60
  -2  -4   6  453.65   19.50
   2   4  -6  446.26   20.10
   2   4  -6  449.95   20.80
  -2   4   6  454.75   17.10
  -2   4   6  476.55   16.80
  -1  -4   6  283.37   14.80
   1  -4  -6  271.57   12.50
  -1  -4   6  292.57   14.90
  -1   4   6  286.67   13.60
   1   4  -6  281.17   15.20
   1   4  -6  266.67   15.30
  -1   4   6  286.97   13.40
   0  -4   6  358.56   15.50
   0  -4   6  349.77   15.50
   0   4   6  328.97   15.30
   0   4   6  353.96   15.50
   0   4  -6  323.67   15.80
   0   4  -6  333.47   16.50
   1  -4   6  290.87   13.80
   1  -4   6  296.07   13.60
  -1   4  -6  280.97   14.30
   1   4   6  303.97   14.90
   1   4   6  272.47   14.50
   2  -4   6   98.79    8.40
   2  -4   6  121.09    9.50
   2  -4   6   99.99    8.20
   2   4   6   97.19   10.20
  -2   4  -6  114.19    8.50
  -2   4  -6  116.29    9.20
   2   4   6  108.99   10.10
   3  -4   6  193.68   11.00
   3  -4   6  167.88    9.50
  -3   4  -6  176.98   10.60
   3   4   6  174.48   13.50
   3   4   6  189.28   13.50
   4  -4   6  351.26   14.10
   4   4   6  350.36   18.90
   4   4   6  300.37   17.60
  -5  -4  -6   -2.90    7.10
   5  -4   6    6.30    4.50
   5   4   6   15.80    8.00
   5   4   6    1.10    6.30
   6  -4   6   11.50    4.10
  -6  -4  -6   21.90    8.70
   6   4   6   10.40    8.00
   6   4   6    4.60    6.70
  -7  -4  -6   12.60    7.30
  -7  -4  -6   21.10    9.20
   7   4   6    8.40    8.30
   7   4   6    5.60    6.60
  -8  -4  -6    5.90    7.70
   8   4   6    0.20    8.90
  -7  -5   6   16.40    8.90
  -7  -5   6    4.40   10.10
   7   5  -6   15.30    8.80
   7   5  -6   -7.80    9.00
  -6  -5   6   18.10    9.90
  -6  -5   6   24.40    9.10
   6   5  -6   24.90   10.10
   6   5  -6   22.00    9.00
  -5  -5   6    0.70    7.50
  -5  -5   6   11.10    9.10
   5   5  -6    0.00    8.10
   5   5  -6    5.20    7.30
  -5   5   6    6.30    3.60
  -4  -5   6   12.70    7.80
  -4  -5   6    3.70    8.10
   4   5  -6   30.90    9.10
   4   5  -6    2.30    7.10
  -4   5   6    8.80    4.60
  -3  -5   6   83.19   11.90
  -3  -5   6   76.19   11.50
   3   5  -6   81.09   12.10
  -3   5   6   66.99    8.00
   3   5  -6   72.79   11.60
  -2  -5   6   69.99   11.00
  -2  -5   6   90.49   12.20
   2  -5  -6   57.79    7.20
  -2   5   6   68.09    8.10
  -2   5   6   58.09    8.40
   2   5  -6   64.79   11.20
   2   5  -6   48.30    9.30
  -1  -5   6  170.18   13.60
  -1  -5   6  156.88   13.10
   1  -5  -6  141.39   10.80
   1   5  -6  146.09   13.50
   1   5  -6  125.79   12.20
  -1   5   6  157.88   11.90
  -1   5   6  153.58   11.50
   0  -5  -6    9.20    5.40
   0  -5   6   16.20    6.40
   0  -5   6    7.30    6.10
   0   5  -6   16.90    6.40
   0   5  -6   16.40    6.70
   0   5   6    2.40    5.50
   0   5   6    9.90    5.70
  -1  -5  -6   83.39   10.40
   1  -5   6   85.89    9.30
   1  -5   6   89.59   10.10
  -1   5  -6   84.79   11.10
   1   5   6   67.29    9.60
  -1   5  -6   74.19    9.20
   1   5   6   77.49    9.90
   2  -5   6  189.68   11.60
  -2  -5  -6  195.48   14.30
   2  -5   6  209.18   12.70
  -2   5  -6  205.78   12.80
   2   5   6  198.58   14.60
   2   5   6  217.28   15.10
   3  -5   6  162.58   11.60
  -3  -5  -6  203.78   15.10
   3   5   6  172.18   14.70
   3   5   6  175.48   14.70
   4  -5   6   32.00    6.30
  -4  -5  -6   37.50    9.70
   4   5   6   33.10    9.70
   4   5   6   38.30    9.70
   5  -5   6   53.79    7.10
  -5  -5  -6   57.89   11.60
   5   5   6   35.50    9.50
   5   5   6   36.80   10.40
  -6  -5  -6   88.09   13.40
  -6  -5  -6   87.29   13.60
   6   5   6   59.09   11.50
   6   5   6   64.69   11.60
  -7  -5  -6   25.00   10.30
  -7  -5  -6   22.50    9.00
   7   5   6    1.50    7.20
   7   5   6   15.20   10.10
  -6  -6   6   10.80    9.00
  -6  -6   6   23.20   12.60
   6   6  -6   13.10    8.60
   6   6  -6    9.10   11.50
  -5  -6   6   33.50   10.90
  -5  -6   6   21.70   10.90
   5  -6  -6   21.90    4.90
   5   6  -6   14.10   10.30
  -5   6   6   13.50    5.10
   5   6  -6   15.30    9.60
   4  -6  -6   30.50    6.10
  -4  -6   6   23.30   11.10
  -4  -6   6   26.60   10.00
   4   6  -6   30.70   11.20
   4   6  -6    6.90    7.80
  -4   6   6   19.70    6.10
  -3  -6   6   20.10    9.00
   3  -6  -6    9.70    5.30
  -3  -6   6   23.10   10.20
  -3   6   6    9.10    5.50
   3   6  -6   13.40    8.10
   3   6  -6   14.40    8.40
  -2  -6   6  120.49   14.20
  -2  -6   6  113.49   13.40
   2   6  -6   89.59   13.80
   2   6  -6  105.99   13.90
  -2   6   6  124.09   11.60
  -1  -6   6   32.50    8.50
  -1  -6   6   39.90    9.30
   1   6  -6   23.80    8.00
  -1   6   6   20.90    7.00
   1   6  -6   27.00    8.50
   0  -6   6   99.99   11.70
   0  -6  -6   80.79   10.60
   0  -6   6   72.19   10.30
   0   6   6   75.79   10.00
   0   6   6   63.99   10.30
   0   6  -6   84.79   12.60
   0   6  -6   68.19   10.30
  -1  -6  -6   78.79   11.50
   1  -6   6   73.29   10.70
   1   6   6   56.99    9.20
   1   6   6   57.09    9.90
  -1   6  -6   73.99   11.50
  -2  -6  -6   -2.20    5.70
   2  -6   6  -10.20    5.10
   2   6   6    2.90    6.50
   2   6   6    3.00    6.10
   3  -6   6   11.00    6.50
  -3  -6  -6    7.70    7.30
   3   6   6    0.90    6.80
   3   6   6   17.00    9.00
  -4  -6  -6   64.29   12.50
  -4  -6  -6   32.30    9.60
   4  -6   6   48.80    8.40
   4   6   6   39.50    9.60
   4   6   6   26.80   10.00
   5  -6   6   -0.70    4.60
  -5  -6  -6   10.70    8.40
  -5  -6  -6   11.40    7.90
   5   6   6   -0.50    7.90
   5   6   6   -1.90    6.80
  -6  -6  -6   13.80    8.90
   6   6   6    0.70    9.90
   6   6   6    4.80    8.00
  -4  -7   6    1.80   10.10
   4  -7  -6   10.40    5.50
  -4  -7   6   14.40   10.40
   4   7  -6    2.00   10.20
   4   7  -6   11.00   10.60
  -4   7   6    9.70    6.20
   3  -7  -6   -0.30    5.10
  -3  -7   6   -3.00    9.00
  -3  -7   6   17.10   10.00
  -3   7   6    4.80    5.90
   3   7  -6   19.20    9.90
   3   7  -6   -7.00    7.80
   2  -7  -6   15.00    7.00
  -2  -7   6   12.00    8.80
  -2  -7   6    2.40    8.30
   2   7  -6    8.70    8.90
  -2   7   6   10.60    6.80
   2   7  -6    7.30    8.20
   1  -7  -6   -1.80    6.20
  -1  -7   6    0.20    7.60
  -1   7   6   -3.50    6.00
   1   7  -6   -2.50    6.40
   0  -7  -6   10.60    7.50
   0  -7   6    2.30    7.40
   0   7  -6    6.50    7.20
   0   7   6    6.60    6.90
  -1  -7  -6   65.79   12.60
   1  -7   6   71.19   11.50
   1   7   6   46.90   11.50
  -1   7  -6   55.19   10.80
   2  -7   6    2.60    6.60
  -2  -7  -6    1.80    6.90
  -2  -7  -6    0.90    7.60
   2   7   6   -2.20    7.60
   2   7   6   -7.80    6.60
   3  -7   6   15.60    7.70
  -3  -7  -6   11.40    7.90
  -3  -7  -6   23.90   10.20
   3   7   6    8.80    8.60
   3   7   6    2.70    8.80
  -9   0   7   -9.50    4.80
   9   0  -7   -4.30    5.10
   8   0  -7   -3.20    5.10
  -8   0   7   10.80    5.60
   7   0  -7  191.08   12.90
  -7   0   7  170.48   11.40
  -6   0   7   44.40    6.80
  -6   0   7   37.00    5.50
   6   0  -7   56.29    7.90
  -5   0   7   63.19    7.30
  -5   0   7   51.49    6.20
   5   0  -7   75.69    8.20
   5   0  -7   61.69    6.40
  -5   0   7   58.39    6.40
   4   0  -7    6.40    3.40
  -4   0   7    1.90    3.00
  -4   0   7    8.60    3.80
  -4   0   7    0.90    2.90
   4   0  -7    8.30    4.30
   3   0  -7    2.20    2.70
  -3   0   7    4.10    3.30
  -3   0   7   -3.50    2.60
   3   0  -7    0.20    3.40
  -2   0   7   50.59    5.80
   2   0  -7   52.19    6.30
   2   0  -7   46.20    5.40
  -2   0   7   50.79    5.60
   1   0  -7 1007.40   26.60
   1   0  -7  985.10   27.90
  -1   0   7  977.40   26.70
  -1   0   7  964.40   26.70
   0   0  -7  163.68    9.30
   0   0   7  144.89    8.40
   0   0   7  163.28    8.80
  -1   0  -7   10.40    3.70
  -1   0  -7   11.70    3.40
   1   0   7   13.70    4.00
   1   0   7   11.40    3.90
   1   0   7   17.60    4.30
  -2   0  -7  128.89    7.40
   2   0   7  103.49    7.70
   2   0   7  112.59    7.70
  -2   0  -7  111.29    7.90
   2   0   7  100.09    7.40
   3   0   7  365.26   14.70
  -3   0  -7  366.06   13.70
   3   0   7  363.16   14.30
   3   0   7  380.46   14.90
   4   0   7   -0.30    3.70
   4   0   7   -1.20    3.50
   4   0   7   -1.80    3.10
  -4   0  -7   -0.10    2.70
   5   0   7   59.69    7.70
   5   0   7   69.99    7.40
   5   0   7   79.59    7.50
  -5   0  -7   59.99    6.60
   6   0   7   69.99    7.70
   6   0   7   81.69    9.70
   7   0   7   14.70    6.20
   8   0   7   29.90    7.40
   9   0   7   76.19   10.10
  -9  -1   7   26.60    8.10
   9   1  -7   23.40    8.50
  -9   1   7   23.90    5.80
  -8  -1   7   -4.50    5.40
   8  -1  -7   10.40    5.10
  -8   1   7    8.50    4.80
   8   1  -7   14.70    7.30
  -7  -1   7   67.99    8.90
   7  -1  -7   73.89    8.70
   7   1  -7   73.99   10.00
  -7   1   7   62.19    7.60
   6  -1  -7  286.07   13.40
  -6  -1   7  291.57   13.90
  -6  -1   7  283.37   14.50
  -6   1   7  271.97   12.20
   6   1  -7  282.97   15.80
  -5  -1   7  414.56   16.70
  -5  -1   7  429.66   16.40
   5  -1  -7  406.16   14.20
   5  -1  -7  395.36   15.50
  -5   1   7  393.36   13.90
  -5   1   7  365.76   14.70
   5   1  -7  423.36   17.90
  -5   1   7  398.16   14.60
   5   1  -7  399.46   16.00
  -4  -1   7  105.59    8.20
   4  -1  -7  111.39    7.10
   4  -1  -7  108.99    8.30
  -4  -1   7  104.19    8.30
  -4   1   7  101.19    7.20
   4   1  -7   96.99    7.70
  -4   1   7  103.89    6.90
   4   1  -7  110.39    9.40
   3  -1  -7  534.15   16.70
   3  -1  -7  529.25   17.90
  -3  -1   7  490.95   18.10
  -3  -1   7  582.84   18.50
   3   1  -7  544.35   19.30
  -3   1   7  531.85   16.80
  -3   1   7  520.45   17.00
   2  -1  -7  101.89    6.60
  -2  -1   7  111.59    7.80
  -2  -1   7   90.79    7.50
   2  -1  -7   94.39    7.40
  -2   1   7   97.69    6.80
  -2   1   7  104.99    7.10
   2   1  -7   88.39    7.60
  -1  -1   7  925.11   26.00
   1  -1  -7  934.31   25.20
   1  -1  -7  909.81   26.30
  -1  -1   7  900.71   25.70
  -1   1   7  964.70   25.60
   1   1  -7  891.01   26.80
  -1   1   7  903.71   25.40
   0  -1  -7 1407.96   36.90
   0  -1  -7 1402.76   35.50
   0  -1   7 1423.56   35.90
   0  -1   7 1337.47   35.50
   0   1  -7 1409.26   37.00
   0   1   7 1344.57   35.50
   0   1   7 1427.16   35.90
   1  -1   7  666.83   20.10
   1  -1   7  657.33   20.00
   1  -1   7  638.84   20.50
   1   1   7  656.23   20.40
   1   1   7  681.13   20.70
  -1   1  -7  656.53   21.10
  -1   1  -7  647.44   19.80
   2  -1   7    3.10    3.40
   2  -1   7    2.30    3.30
   2  -1   7   -2.30    3.00
   2   1   7    2.10    3.60
  -2   1  -7    2.60    3.00
   2   1   7    0.00    3.40
  -2   1  -7    0.00    2.50
   3  -1   7  126.29    8.60
   3  -1   7  104.39    7.80
   3  -1   7  119.49    8.20
  -3   1  -7  112.49    7.30
   3   1   7  104.79    8.70
   3   1   7  106.49    8.80
  -3   1  -7  119.99    8.10
   4  -1   7  284.67   12.00
   4  -1   7  264.27   12.30
   4  -1   7  277.67   12.20
   4   1   7  260.87   13.20
  -4   1  -7  286.77   11.80
   4   1   7  268.97   13.10
   5  -1   7   62.79    6.90
   5  -1   7   57.49    6.40
   5  -1   7   56.59    7.10
   5   1   7   74.29    9.00
   5   1   7   50.29    7.40
  -5   1  -7   56.09    5.90
   6  -1   7   10.70    5.10
   6   1   7    3.50    5.90
   6   1   7    7.30    5.00
   7  -1   7  177.78   11.70
   7   1   7  161.18   13.50
   8  -1   7   84.09    9.90
   8   1   7   92.09   11.30
   9  -1   7    3.90    5.10
   9   1   7    9.00    6.90
  -9  -2   7   46.10   10.20
   9   2  -7   43.00   10.10
  -8  -2   7  132.59   13.90
  -8   2   7  102.09    7.10
   8   2  -7  122.39   14.70
  -7  -2   7  203.38   15.00
  -7   2   7  184.08    9.30
   7   2  -7  196.08   15.70
   6  -2  -7  199.68   10.20
  -6  -2   7  180.48   12.50
  -6  -2   7  196.48   14.00
   6   2  -7  199.08   14.90
  -6   2   7  188.58    9.60
   5  -2  -7  166.68    9.60
   5  -2  -7  168.08    8.50
  -5  -2   7  158.38   11.80
  -5  -2   7  174.38   11.70
   5   2  -7  184.28   13.30
  -5   2   7  170.38    9.10
  -5   2   7  159.88    7.90
   4  -2  -7  557.94   17.90
   4  -2  -7  502.95   16.30
  -4  -2   7  525.15   19.90
  -4  -2   7  552.94   19.90
  -4   2   7  515.05   16.40
   4   2  -7  529.95   20.80
  -4   2   7  521.95   17.00
  -3  -2   7  305.17   14.00
   3  -2  -7  304.57   11.90
  -3  -2   7  320.17   14.30
   3  -2  -7  325.57   13.10
  -3   2   7  301.77   11.90
   3   2  -7  319.37   15.20
  -3   2   7  311.27   12.40
  -2  -2   7   81.09    7.90
   2  -2  -7   72.99    6.10
  -2  -2   7   73.79    7.80
  -2   2   7   67.39    6.30
   2   2  -7   69.69    8.50
  -2   2   7   73.59    6.50
   1  -2  -7  809.12   23.30
  -1  -2   7  809.62   24.40
  -1  -2   7  783.52   24.30
  -1   2   7  773.22   23.40
  -1   2   7  829.72   23.60
   1   2  -7  832.12   25.60
   0  -2   7   78.69    6.90
   0  -2   7   91.99    7.70
   0   2   7   87.79    7.30
   0   2   7   95.99    7.50
   0   2  -7   80.19    7.60
   1  -2   7  247.38   11.90
   1  -2   7  238.28   11.20
   1  -2   7  250.47   11.50
   1   2   7  255.77   12.10
  -1   2  -7  257.17   12.10
   1   2   7  265.57   12.20
  -1   2  -7  252.87   11.20
   2  -2   7  500.85   16.70
   2  -2   7  499.75   16.80
   2  -2   7  480.45   17.10
  -2   2  -7  482.75   17.50
   2   2   7  473.15   18.00
   2   2   7  482.15   18.20
  -2   2  -7  489.05   16.60
   3  -2   7   72.99    6.80
   3  -2   7   83.99    7.50
   3  -2   7   66.39    7.00
   3   2   7   77.19    8.40
  -3   2  -7   72.39    6.30
  -3   2  -7   75.79    7.10
   3   2   7   77.79    8.10
   4  -2   7  103.19    7.40
   4  -2   7  106.69    8.20
   4   2   7   83.39    9.60
   4   2   7  116.79    9.90
  -4   2  -7   97.39    7.10
  -4   2  -7  109.39    7.90
   5  -2   7  191.58    9.30
   5  -2   7  173.18   10.50
   5   2   7  177.38   13.10
   5   2   7  168.68   11.90
   6  -2   7   52.09    7.00
   6   2   7   42.90    8.60
   6   2   7   42.90    8.00
   7  -2   7   -0.40    4.30
   7   2   7    4.20    6.80
   8  -2   7   26.20    5.60
   8   2   7   16.90    8.30
  -9  -2  -7    0.10    7.50
   9   2   7   -9.90    7.60
  -9  -3   7  133.29   17.00
   9   3  -7  104.09   15.50
  -8  -3   7    2.40    8.30
   8   3  -7   -6.90    7.80
  -7  -3   7    5.90    6.60
  -7  -3   7    5.20    7.30
   7   3  -7    9.90    8.40
  -7   3   7    9.50    3.00
  -6  -3   7  151.48   13.20
  -6  -3   7  155.18   14.90
  -6   3   7  150.38    8.10
   6   3  -7  161.78   15.00
  -5  -3   7   15.60    7.20
  -5  -3   7    7.70    6.00
  -5   3   7   19.60    4.30
   5   3  -7   21.40    7.80
  -4  -3   7    4.70    5.50
  -4  -3   7    5.30    5.50
   4  -3  -7   12.70    3.60
   4   3  -7   18.00    7.10
   4   3  -7    5.90    5.90
  -4   3   7   17.90    4.50
  -4   3   7   12.60    3.50
  -3  -3   7 1158.68   34.20
   3  -3  -7 1066.09   29.70
  -3  -3   7 1133.09   33.80
  -3   3   7 1128.79   30.00
   3   3  -7 1100.19   34.70
  -3   3   7 1129.89   30.70
  -2  -3   7  509.95   19.50
  -2  -3   7  463.95   18.90
   2  -3  -7  462.45   16.30
  -2   3   7  509.35   17.60
  -2   3   7  519.85   17.20
   2   3  -7  485.25   20.10
  -1  -3   7  155.78   10.70
   1  -3  -7  158.28    8.90
  -1  -3   7  160.58   10.70
  -1   3   7  170.28    9.80
   1   3  -7  159.98   11.10
  -1   3   7  175.28   10.20
   0  -3   7  665.13   21.60
   0  -3   7  635.84   21.50
   0   3  -7  641.84   22.60
   0   3   7  617.44   21.10
   0   3   7  632.74   21.60
   1  -3   7  348.07   14.50
   1  -3   7  341.67   14.40
  -1   3  -7  348.97   15.20
   1   3   7  341.07   15.30
   1   3   7  354.06   15.50
   2  -3   7  155.48    9.50
   2  -3   7  168.68   10.20
   2  -3   7  157.18    9.70
   2   3   7  163.48   11.30
  -2   3  -7  169.58   10.50
  -2   3  -7  172.68    9.60
   2   3   7  164.98   11.10
   3  -3   7  402.96   15.10
   3  -3   7  425.56   16.00
   3  -3   7  430.66   16.40
  -3   3  -7  438.66   16.80
   3   3   7  439.06   19.00
   3   3   7  426.56   18.50
  -3   3  -7  396.06   15.40
   4  -3   7  276.47   11.70
   4  -3   7  292.87   13.10
   4   3   7  317.67   16.60
   4   3   7  276.97   16.20
  -4   3  -7  281.77   13.00
   5  -3   7  123.39    9.10
   5   3   7  122.49   11.90
   5   3   7  122.89   13.00
   6  -3   7  145.69    9.50
   6   3   7  133.09   12.90
   6   3   7  125.19   14.00
   7  -3   7   49.80    6.20
   7   3   7   60.29   11.00
  -8  -3  -7   31.10    9.20
   8   3   7   39.70   11.00
  -8  -4   7  139.99   17.90
   8   4  -7   84.19   15.00
  -7  -4   7   -0.40    6.70
  -7  -4   7   -0.80    8.00
   7   4  -7  -10.90    7.50
  -6  -4   7   12.70    8.90
  -6  -4   7    0.30    6.80
  -6   4   7   11.80    3.20
   6   4  -7   15.40    8.90
   6   4  -7    9.50    6.80
  -5  -4   7    0.00    6.30
  -5  -4   7   10.10    8.20
   5   4  -7   -1.30    6.30
   5   4  -7    6.10    7.70
  -5   4   7    4.10    3.30
  -4  -4   7  214.68   15.00
  -4  -4   7  237.98   16.30
  -4   4   7  230.18   11.60
   4   4  -7  240.58   16.50
   4   4  -7  241.38   17.30
  -3  -4   7  211.58   15.00
  -3  -4   7  224.88   15.50
   3   4  -7  228.28   15.80
  -3   4   7  208.48   11.00
   3   4  -7  189.78   15.30
  -3   4   7  205.18   11.40
  -2  -4   7  196.08   13.80
   2  -4  -7  168.88    9.60
  -2  -4   7  190.78   13.60
  -2   4   7  172.58   10.50
   2   4  -7  189.68   14.30
  -2   4   7  182.98   11.10
   2   4  -7  209.48   14.00
  -1  -4   7  627.74   23.20
  -1  -4   7  631.94   23.30
  -1   4   7  641.24   22.00
   1   4  -7  615.64   24.70
   1   4  -7  631.94   24.20
  -1   4   7  584.74   21.60
   0  -4   7  128.29   10.40
   0  -4   7  138.49   10.90
   0   4  -7  105.59   10.80
   0   4   7  122.49   10.20
   0   4   7  112.09    9.90
   1  -4   7  111.09    9.90
   1  -4   7  133.79    9.90
  -1   4  -7  117.29   10.50
   1   4   7   95.29   10.30
   1   4   7  110.69   10.50
   2  -4   7  134.89   10.30
   2  -4   7  124.79    9.30
   2   4   7  113.99   10.70
  -2   4  -7  118.49   10.00
   2   4   7  119.09   11.30
   3  -4   7  155.48    9.90
   3  -4   7  184.28   11.50
   3   4   7  179.18   14.00
  -3   4  -7  176.08   11.20
   3   4   7  188.68   14.10
   4  -4   7   43.50    7.00
   4   4   7   47.70    8.70
   4   4   7   40.40    9.30
   5  -4   7  103.09    9.40
   5   4   7  102.89   12.60
   5   4   7  101.99   13.20
   6  -4   7   76.49    8.10
  -6  -4  -7   87.39   13.40
   6   4   7   76.09   11.80
   6   4   7   54.09   10.90
  -7  -4  -7   20.80    8.70
   7   4   7    8.50    6.90
   7   4   7    8.60    8.50
  -8  -4  -7    5.00    8.80
   8   4   7   -1.70    9.00
  -7  -5   7   37.90   13.80
  -7  -5   7   12.40    8.30
   7   5  -7   19.60   10.80
  -6  -5   7   44.30   12.20
  -6  -5   7   36.80    9.80
   6   5  -7   22.70   11.20
  -6   5   7   25.90    5.20
   6   5  -7   28.90    9.10
  -5  -5   7   24.70    8.70
  -5  -5   7   16.40    9.60
   5   5  -7   19.00    8.30
   5   5  -7   14.50    9.60
  -5   5   7   11.00    4.50
  -4  -5   7   22.40   10.10
  -4  -5   7   13.70    7.50
   4   5  -7   22.30    8.30
  -4   5   7    5.80    4.60
   4   5  -7    8.00    7.90
  -3  -5   7  118.49   14.30
  -3  -5   7  110.39   13.80
   3   5  -7   94.79   13.10
  -3   5   7   96.89    9.60
   3   5  -7  128.59   15.10
  -2  -5   7   28.50    8.60
  -2  -5   7   32.70    9.40
  -2   5   7   27.50    6.40
   2   5  -7   21.40    8.00
   2   5  -7   32.20    9.50
  -1  -5   7   67.09    9.70
   1  -5  -7   73.19    8.80
  -1  -5   7   68.79    9.70
  -1   5   7   77.49    9.20
   1   5  -7   60.09    9.70
  -1   5   7   71.49    9.60
   1   5  -7   74.69   11.70
   0  -5   7    8.40    5.50
   0  -5  -7    6.20    5.00
   0  -5   7    9.70    6.20
   0   5   7   12.20    6.20
   0   5  -7    5.70    5.90
   0   5   7    8.30    5.90
   0   5  -7   12.60    6.30
   1  -5   7   60.59    9.20
   1  -5   7   79.29    9.70
  -1  -5  -7   63.89    9.20
   1   5   7   57.19    9.30
   1   5   7   58.89    9.10
  -1   5  -7   40.40    8.00
  -2  -5  -7  215.08   15.50
   2  -5   7  220.68   13.50
   2  -5   7  228.98   13.90
  -2   5  -7  231.78   14.00
   2   5   7  246.28   16.20
   2   5   7  232.98   15.90
  -3  -5  -7   -2.30    6.20
   3  -5   7   -2.30    4.80
   3   5   7   10.90    7.70
   3   5   7    4.30    6.70
   4  -5   7  388.56   16.90
  -4  -5  -7  380.76   21.50
   4   5   7  355.96   21.00
   4   5   7  375.26   20.90
   5  -5   7    8.80    5.10
  -5  -5  -7    1.10    7.60
   5   5   7    7.90    8.50
   5   5   7    1.50    6.90
   6  -5   7    3.60    4.00
  -6  -5  -7   -3.50    7.10
   6   5   7    5.30    8.10
   6   5   7    5.00    9.40
  -7  -5  -7   30.80   10.20
  -7  -5  -7   55.99   13.30
   7   5   7   29.60   10.40
   7   5   7   40.50   12.50
  -5  -6   7   77.39   14.70
   5  -6  -7   59.79    7.40
  -5  -6   7   69.09   12.70
   5   6  -7   71.99   13.40
   5   6  -7   68.59   14.40
  -5   6   7   74.79    8.80
  -4  -6   7   10.40    8.60
  -4  -6   7   -9.40    8.50
  -4   6   7    2.80    5.00
   4   6  -7   -5.60    7.80
   4   6  -7   13.20    8.50
  -3  -6   7   24.80    9.40
  -3  -6   7   25.90   10.30
  -3   6   7   15.70    6.30
   3   6  -7   37.80   11.10
   3   6  -7   44.80   11.50
  -2  -6   7   51.19   10.60
  -2  -6   7   61.19   11.70
  -2   6   7   45.80    8.30
   2   6  -7   39.60    9.70
   2   6  -7   41.50    9.90
  -1  -6   7   23.70    8.40
  -1  -6   7    7.70    7.70
   1   6  -7    2.40    6.60
   1   6  -7    9.10    7.30
  -1   6   7    6.10    6.50
   0  -6   7   16.30    7.40
   0  -6   7   29.00    8.50
   0  -6  -7   23.20    6.60
   0   6   7   24.80    7.20
   0   6  -7   12.60    7.20
   0   6  -7   36.50    9.50
   0   6   7   15.00    7.30
   1  -6   7   23.10    7.50
  -1  -6  -7   30.90    8.10
   1   6   7   21.30    7.30
   1   6   7   27.70    8.10
   2  -6   7   36.90    8.30
  -2  -6  -7   49.20   10.10
   2   6   7   32.80    9.10
   2   6   7   35.30    9.30
   3  -6   7   22.60    7.40
  -3  -6  -7   30.90    9.50
   3   6   7   16.50    8.10
   3   6   7   21.40    9.00
   4  -6   7   71.89    9.30
  -4  -6  -7   75.69   12.60
   4   6   7   49.20   10.80
   4   6   7   84.49   14.30
  -5  -6  -7   22.60    9.40
  -5  -6  -7    2.70    7.20
   5  -6   7    7.00    5.20
   5   6   7   18.80    8.50
   5   6   7   19.30   10.10
  -3  -7   7    3.60    9.30
  -3  -7   7    4.00    9.80
   3  -7  -7   -1.20    5.10
  -3   7   7   14.80    7.10
   3   7  -7   16.50   10.20
   3   7  -7   -5.10    8.90
   2  -7  -7   -5.80    5.20
  -2  -7   7    3.60    9.30
  -2  -7   7    0.50    8.50
   2   7  -7    7.20    8.80
  -2   7   7    7.40    6.90
   2   7  -7   -0.80    7.90
  -1  -7   7    8.50    8.00
   1  -7  -7   16.60    7.80
   1   7  -7    8.60    7.80
  -1   7   7   16.70    7.80
   0  -7   7    4.40    7.90
   0  -7  -7   12.80    8.10
   0   7  -7    3.70    7.10
   0   7   7   -8.60    6.00
   1  -7   7   53.79   10.80
  -1  -7  -7   70.19   12.80
   1   7   7   63.29   12.40
  -2  -7  -7    2.60    8.30
   2  -7   7    5.90    7.60
   2   7   7   17.40   10.20
   2   7   7    0.60    7.90
   3  -7   7   48.70    9.90
  -3  -7  -7   46.90   11.80
  -3  -7  -7   51.89   10.50
   3   7   7   44.20   12.30
   3   7   7   36.80   10.90
  -9   0   8   -2.50    5.20
   9   0  -8    1.40    5.70
   8   0  -8   -5.00    5.70
  -8   0   8    0.40    5.30
   7   0  -8   -3.00    5.50
  -7   0   8    2.80    5.10
  -6   0   8   34.00    6.30
   6   0  -8   33.30    7.30
  -6   0   8   23.10    5.90
  -5   0   8  208.58   11.80
   5   0  -8  221.28   12.90
  -5   0   8  224.18   12.10
   5   0  -8  212.18   11.00
  -5   0   8  238.98   11.40
   4   0  -8    9.50    4.60
  -4   0   8    5.90    3.70
  -4   0   8   -1.10    3.40
  -4   0   8    2.50    3.00
   4   0  -8    0.60    2.70
  -3   0   8  404.06   15.70
  -3   0   8  443.36   15.60
   3   0  -8  424.16   16.70
   3   0  -8  409.86   15.10
  -2   0   8  309.17   13.00
   2   0  -8  314.57   12.90
   2   0  -8  325.47   14.20
  -2   0   8  328.67   13.10
  -1   0   8   90.69    7.20
   1   0  -8   97.89    7.80
  -1   0   8   94.19    7.40
   0   0   8 1064.89   29.60
   0   0  -8 1079.59   30.80
   0   0   8 1066.69   29.50
   1   0   8 1599.24   40.40
   1   0   8 1554.14   40.20
  -1   0  -8 1559.34   41.60
   2   0   8  658.43   21.30
  -2   0  -8  684.53   22.50
   2   0   8  663.53   21.40
   3   0   8  450.35   17.00
   3   0   8  475.45   17.20
   4   0   8   20.90    5.40
   4   0   8   12.20    4.80
   5   0   8    4.50    4.90
   5   0   8   -1.30    3.90
   6   0   8   13.10    5.40
   6   0   8    9.50    6.00
   7   0   8  300.57   16.30
   8   0   8   42.80    8.70
   9   0   8    6.80    6.70
  -9  -1   8   17.90    7.60
   9   1  -8   21.30    8.20
  -9   1   8   21.20    6.00
  -8  -1   8    7.20    6.70
   8  -1  -8   22.70    5.90
   8   1  -8    5.90    7.30
  -8   1   8    7.70    4.90
   7  -1  -8  189.08   12.40
  -7  -1   8  233.38   14.60
   7   1  -8  195.88   15.10
  -7   1   8  194.08   11.40
  -6  -1   8   57.59    7.60
   6  -1  -8   49.10    7.00
  -6  -1   8   58.19    8.90
   6   1  -8   47.70    8.50
  -6   1   8   51.99    7.10
  -5  -1   8   30.60    6.60
   5  -1  -8   24.60    5.80
  -5  -1   8   32.40    5.90
   5  -1  -8   16.70    4.30
  -5   1   8   22.60    5.30
  -5   1   8   19.30    4.30
   5   1  -8   29.70    7.10
   4  -1  -8  256.47   11.30
  -4  -1   8  261.37   13.30
  -4  -1   8  256.57   12.50
   4  -1  -8  269.37   12.80
   4   1  -8  274.57   14.20
  -4   1   8  264.17   11.50
  -4   1   8  249.48   11.70
  -3  -1   8   76.19    7.90
   3  -1  -8   70.59    6.30
  -3  -1   8   80.59    7.70
   3  -1  -8   74.99    7.80
  -3   1   8   79.09    7.00
   3   1  -8   78.59    8.60
  -3   1   8   83.09    7.20
  -2  -1   8  149.99    9.50
   2  -1  -8  155.68    8.60
   2  -1  -8  160.38    9.90
  -2  -1   8  153.98    9.80
  -2   1   8  155.38    9.10
  -2   1   8  159.88    8.90
   2   1  -8  141.49    9.70
  -1  -1   8  504.95   17.60
   1  -1  -8  520.05   18.40
   1  -1  -8  478.75   17.90
  -1  -1   8  516.05   17.80
  -1   1   8  490.95   17.10
   1   1  -8  492.95   18.50
  -1   1   8  499.55   17.10
   0  -1   8  602.54   19.60
   0  -1  -8  579.54   20.30
   0  -1   8  612.44   19.70
   0   1   8  611.64   19.80
   0   1  -8  614.94   20.90
   0   1   8  593.14   19.50
   1  -1   8  409.76   15.50
  -1  -1  -8  414.66   16.70
   1  -1   8  449.56   16.00
   1   1   8  412.56   15.80
  -1   1  -8  446.86   16.90
   1   1   8  441.16   16.20
   2  -1   8  398.66   15.20
   2  -1   8  364.06   15.10
   2  -1   8  372.86   14.70
   2   1   8  362.76   15.00
   2   1   8  370.36   15.70
  -2   1  -8  371.76   15.50
   3  -1   8   68.99    7.20
   3  -1   8   89.29    7.80
   3  -1   8   68.99    7.60
  -3   1  -8   59.49    6.20
   3   1   8   64.69    8.00
  -3   1  -8   68.89    7.30
   3   1   8   64.49    8.00
   4  -1   8   95.29    8.60
   4  -1   8  107.99    8.60
   4  -1   8  104.89    8.80
  -4   1  -8   87.79    7.50
   4   1   8   99.49    9.40
   4   1   8   97.39    9.20
   5  -1   8  194.68   10.90
   5  -1   8  185.78   11.70
   5   1   8  208.38   12.40
   5   1   8  201.08   13.10
   6  -1   8  132.09   10.90
   6   1   8  138.19   11.10
   6   1   8  154.78   12.80
   7  -1   8   40.50    7.40
   7   1   8   64.19   10.20
   8  -1   8   96.69   10.70
   8   1   8   73.39   10.90
   9  -1   8   21.70    6.80
   9   1   8   11.30    7.90
  -9  -2   8   29.30   10.40
   9   2  -8   21.40    9.50
  -8  -2   8   18.10    8.40
   8   2  -8   18.20    8.50
  -8   2   8   16.80    4.80
   7  -2  -8   12.30    4.70
  -7  -2   8   15.30    7.40
  -7   2   8   10.20    4.50
   7   2  -8   37.80    9.60
   6  -2  -8  136.99    9.70
  -6  -2   8  156.78   13.20
  -6  -2   8  150.78   12.10
   6   2  -8  139.89   14.00
  -6   2   8  120.69    8.90
  -5  -2   8   55.09    8.40
   5  -2  -8   51.39    6.90
  -5  -2   8   43.00    7.80
   5   2  -8   49.99    8.70
  -5   2   8   58.89    7.20
  -4  -2   8  160.28   11.60
  -4  -2   8  142.59   10.70
   4  -2  -8  167.48   10.30
   4  -2  -8  147.59    8.50
  -4   2   8  161.08    9.10
  -4   2   8  152.48    9.50
   4   2  -8  143.09   11.60
  -3  -2   8   46.40    6.90
   3  -2  -8   43.80    6.30
   3  -2  -8   44.70    5.50
  -3  -2   8   39.20    6.50
  -3   2   8   46.60    6.00
   3   2  -8   51.29    8.20
  -3   2   8   53.59    6.30
  -2  -2   8   23.70    5.40
   2  -2  -8   37.00    5.90
   2  -2  -8   31.90    4.90
  -2  -2   8   27.10    5.90
  -2   2   8   40.20    5.60
  -2   2   8   34.00    5.40
   2   2  -8   32.30    6.70
  -1  -2   8  162.78   10.40
  -1  -2   8  170.08   10.90
   1   2  -8  140.59   10.70
  -1   2   8  158.68    9.50
  -1   2   8  173.28    9.90
   0  -2   8  397.16   15.70
   0  -2   8  434.96   16.70
   0   2   8  427.16   16.30
   0   2   8  398.16   16.10
   0   2  -8  415.36   17.10
   1  -2   8  251.87   12.30
   1  -2   8  272.27   12.50
   1   2   8  244.48   12.40
  -1   2  -8  257.47   12.90
   1   2   8  262.17   12.90
   2  -2   8   43.50    6.10
   2  -2   8   36.70    5.90
   2  -2   8   38.50    5.90
   2   2   8   43.00    6.80
  -2   2  -8   39.10    6.20
   2   2   8   42.00    6.70
   3  -2   8   19.50    4.80
   3  -2   8   10.60    4.10
   3  -2   8   21.30    5.10
  -3   2  -8   18.70    4.50
   3   2   8   25.70    5.90
   3   2   8   17.50    5.60
  -3   2  -8   17.20    4.80
   4  -2   8   82.89    7.60
   4  -2   8   75.59    8.30
  -4   2  -8   85.89    7.70
   4   2   8   85.59    9.50
   4   2   8   89.79   10.40
  -4   2  -8   90.89    8.10
   5  -2   8  145.49   10.40
   5   2   8  116.39   12.00
   5   2   8  148.29   11.90
   6  -2   8   11.00    5.20
   6   2   8    3.60    6.50
   6   2   8    3.20    5.50
   7  -2   8   76.69    9.00
   7   2   8   81.49   11.40
   8  -2   8   91.29    9.50
   8   2   8   76.89   11.90
  -8  -3   8   84.09   13.20
   8   3  -8   66.19   12.10
  -7  -3   8  118.89   14.90
  -7   3   8  120.39    7.70
   7   3  -8  109.79   14.30
  -6  -3   8  110.29   12.10
  -6  -3   8   76.49   11.60
   6   3  -8   83.19   12.40
  -6   3   8  100.69    7.60
  -5  -3   8  500.25   21.60
  -5  -3   8  506.45   22.50
   5   3  -8  473.65   22.80
  -5   3   8  496.55   17.40
  -4  -3   8  287.87   16.30
  -4  -3   8  258.97   15.50
  -4   3   8  275.77   12.70
  -4   3   8  234.38   11.40
   4   3  -8  270.27   17.00
   3  -3  -8  311.57   13.00
  -3  -3   8  311.47   15.80
  -3  -3   8  318.97   16.30
  -3   3   8  329.37   13.40
   3   3  -8  319.47   17.50
  -3   3   8  314.17   13.90
   2  -3  -8  115.29    7.90
  -2  -3   8  107.49   10.60
  -2  -3   8  116.99   10.60
   2   3  -8  120.49   11.50
  -2   3   8  105.19    8.90
  -2   3   8   95.09    8.10
  -1  -3   8  156.38   11.20
  -1  -3   8  168.88   11.60
  -1   3   8  152.08   10.20
  -1   3   8  152.18   10.00
   1   3  -8  146.09   11.20
   0  -3   8  468.95   18.30
   0  -3   8  506.55   18.70
   0   3   8  466.35   18.40
   0   3  -8  469.15   19.30
   0   3   8  437.36   17.60
   1  -3   8  212.18   11.80
   1  -3   8  209.48   11.80
  -1   3  -8  218.68   12.50
   1   3   8  204.58   12.30
   1   3   8  209.08   12.50
   2  -3   8  178.88   11.00
   2  -3   8  188.38   10.90
   2   3   8  174.38   11.90
  -2   3  -8  168.98   11.10
   2   3   8  173.58   12.10
   3  -3   8  343.37   15.20
   3  -3   8  344.97   15.10
   3  -3   8  331.37   14.20
  -3   3  -8  330.17   14.50
  -3   3  -8  341.47   15.40
   3   3   8  347.47   17.40
   3   3   8  372.16   17.70
   4  -3   8   -3.30    4.70
   4  -3   8   -1.70    3.50
   4   3   8   -0.60    5.60
   4   3   8   -3.40    5.60
  -4   3  -8    0.40    3.70
   5  -3   8   12.00    5.30
   5   3   8    5.10    7.10
   5   3   8    7.70    6.50
   6  -3   8  134.59   10.20
   6   3   8  139.99   14.70
   6   3   8  116.39   13.10
   7  -3   8   20.90    5.50
   7   3   8    9.70    8.50
  -8  -3  -8    6.20    8.10
   8   3   8   21.10   10.20
  -8  -4   8   54.49   12.50
   8   4  -8   47.60   13.10
  -7  -4   8    6.20    9.50
   7   4  -8   13.60    9.70
  -6  -4   8  128.39   15.90
  -6  -4   8  124.99   13.70
   6   4  -8  107.99   14.10
  -6   4   8  105.99    7.70
  -5  -4   8   56.99   10.40
  -5  -4   8   47.80   10.30
   5   4  -8   33.60    9.60
  -5   4   8   40.30    6.40
  -4  -4   8    7.50    7.10
  -4  -4   8   10.90    7.10
   4   4  -8    3.70    7.40
  -4   4   8    2.10    4.70
  -3  -4   8  519.95   23.00
  -3  -4   8  551.04   23.20
  -3   4   8  503.65   19.40
   3   4  -8  495.85   23.50
  -2  -4   8  256.57   15.70
   2   4  -8  239.28   15.60
  -2   4   8  254.67   13.30
  -2   4   8  256.37   13.80
  -1  -4   8   25.00    7.10
  -1  -4   8   21.80    6.40
  -1   4   8   17.90    5.70
   1   4  -8   17.60    6.50
  -1   4   8   22.10    6.30
   0  -4   8  276.07   14.80
   0  -4   8  270.97   15.10
   0   4   8  277.27   14.90
   0   4  -8  271.97   15.90
   0   4   8  275.87   15.00
   1  -4   8    7.10    4.90
   1  -4   8    3.90    5.20
   1   4   8    7.00    5.90
   1   4   8    4.50    5.90
  -1   4  -8    9.00    5.20
   2  -4   8   25.10    6.40
   2  -4   8   36.90    7.00
  -2   4  -8   28.80    6.50
   2   4   8   25.00    7.10
   2   4   8   35.60    7.70
   3  -4   8   96.09   10.10
   3  -4   8  100.09    9.00
   3   4   8   98.29   11.80
  -3   4  -8   94.99    9.40
   3   4   8   89.99   11.20
   4  -4   8  179.38   12.00
   4   4   8  158.88   14.70
   4   4   8  190.68   15.10
   5  -4   8   98.99    9.90
   5   4   8   88.29   11.90
   5   4   8   87.19   12.00
   6  -4   8    2.60    5.00
   6   4   8   13.90    7.20
   6   4   8    8.90    8.50
  -7  -4  -8   32.70   10.70
   7   4   8    9.30    8.70
  -7  -5   8   90.39   16.20
  -7  -5   8   76.79   14.30
   7   5  -8   67.09   14.50
  -6  -5   8   14.50    8.90
  -6  -5   8    8.20    9.30
  -6   5   8    6.70    4.00
   6   5  -8    3.50    8.90
   6   5  -8   21.60    8.50
  -5  -5   8   48.00   12.30
  -5  -5   8   60.09   11.30
   5   5  -8   59.49   11.70
   5   5  -8   49.40   11.70
  -5   5   8   49.00    7.20
  -4  -5   8   95.69   13.80
  -4  -5   8  101.89   13.80
   4   5  -8   85.89   13.80
  -4   5   8   75.89    8.90
   4   5  -8   88.49   13.80
  -3  -5   8  166.98   15.60
  -3  -5   8  161.18   15.70
   3   5  -8  130.29   15.40
   3   5  -8  155.08   15.30
  -3   5   8  142.59   11.40
  -2  -5   8  111.19   13.00
  -2  -5   8  115.89   13.60
   2   5  -8   97.19   13.30
  -2   5   8   97.49   10.70
   2   5  -8  123.19   13.90
  -1  -5   8  179.98   14.20
  -1  -5   8  162.48   13.40
  -1   5   8  164.38   12.90
   1   5  -8  172.08   14.80
  -1   5   8  194.08   13.00
   0  -5   8   93.69   11.60
   0  -5   8  112.49   12.00
   0   5  -8  106.99   12.50
   0   5   8   86.99   10.70
   0   5   8   83.99   11.00
   1  -5   8  260.27   15.60
   1  -5   8  279.37   15.40
   1   5   8  264.37   16.50
  -1   5  -8  263.07   16.10
   1   5   8  268.57   16.90
   2  -5   8  221.58   14.50
   2   5   8  246.88   16.50
   2   5   8  214.88   16.40
  -3  -5  -8  115.09   13.60
   3  -5   8  136.79   12.00
   3   5   8  142.69   14.40
   3   5   8  146.49   14.50
   4  -5   8   14.10    6.20
  -4  -5  -8   19.90    8.20
   4   5   8    7.60    7.10
   4   5   8   19.70    8.90
   5  -5   8  191.88   12.50
  -5  -5  -8  178.58   17.00
   5   5   8  162.38   16.40
   5   5   8  163.08   16.20
  -6  -5  -8   19.60    9.50
   6  -5   8   13.40    5.40
   6   5   8    8.20    7.90
   6   5   8    3.90    8.40
   5  -6  -8   75.49    8.10
  -5  -6   8   59.89   12.00
  -5  -6   8   92.39   15.50
   5   6  -8   80.49   13.20
  -5   6   8   79.49    9.50
   5   6  -8   62.59   13.10
  -4  -6   8   18.50   10.70
  -4  -6   8   19.20    9.40
   4   6  -8    5.50    8.60
  -4   6   8   13.50    6.20
   4   6  -8   10.70    8.10
  -3  -6   8   40.90   11.90
  -3  -6   8   22.10    9.40
  -3   6   8   15.50    6.60
   3   6  -8   31.90    9.50
   3   6  -8   14.30    8.60
  -2  -6   8   71.09   11.70
  -2  -6   8   69.99   12.00
  -2   6   8   74.69   10.60
   2   6  -8   81.79   13.70
   2   6  -8   72.69   12.10
  -1  -6   8   69.49   11.50
  -1  -6   8   82.19   12.10
   1   6  -8   58.79   10.50
  -1   6   8   57.89   10.10
   1   6  -8   61.89   11.90
   0  -6   8  104.79   12.90
   0  -6   8   98.79   12.70
   0   6   8   77.49   11.50
   0   6   8   89.89   12.30
   0   6  -8   85.19   12.30
  -1  -6  -8   36.60    9.00
   1  -6   8   15.90    7.60
   1   6   8   42.60    9.60
   1   6   8   39.40    9.30
  -2  -6  -8   28.70    8.70
   2  -6   8   39.70    9.80
   2   6   8   48.70   11.00
   2   6   8   55.09   10.70
   3  -6   8    7.90    6.70
  -3  -6  -8    9.70    7.80
   3   6   8   13.20    8.70
   3   6   8    8.40    7.60
   4  -6   8  158.68   13.20
  -4  -6  -8  171.98   16.80
   4   6   8  102.69   14.30
   4   6   8  156.68   17.10
  -5  -6  -8   20.80    9.50
   5  -6   8   31.00    7.30
   5   6   8   21.80    9.60
   5   6   8    8.90    8.20
   3   7  -8    1.00    9.10
  -2  -7   8   12.30    9.20
  -2  -7   8  -12.50    8.30
  -2   7   8   -0.80    6.40
   2   7  -8    1.10    9.10
   2   7  -8  -13.40    8.20
  -1  -7   8   10.90    9.10
   1   7  -8   17.00    9.70
  -1   7   8    5.20    8.00
   0  -7   8    4.30    8.40
   0   7   8   18.80    9.30
   1  -7   8   -3.50    7.70
   1   7   8    0.30    7.60
   2  -7   8   49.30   10.70
   2   7   8   64.89   12.30
   9   0  -9    9.90    6.10
  -9   0   9   -4.10    5.10
   8   0  -9   13.30    6.90
  -8   0   9   16.40    6.50
  -7   0   9   49.30    8.20
   7   0  -9   48.00    8.60
   6   0  -9   20.40    6.80
  -6   0   9   22.50    6.50
  -5   0   9   61.69    7.40
   5   0  -9   73.49    9.20
  -5   0   9   50.79    7.50
   4   0  -9  146.09   10.90
  -4   0   9  158.88    9.90
  -4   0   9  149.09   10.20
  -3   0   9   58.99    7.30
   3   0  -9   59.39    8.10
  -3   0   9   54.69    6.80
  -2   0   9  127.39    9.00
   2   0  -9  129.79   10.00
  -2   0   9  133.19    9.20
  -1   0   9   41.30    6.70
  -1   0   9   29.90    5.40
   1   0  -9   36.70    6.80
   0   0   9  364.76   15.00
   0   0   9  357.06   14.90
   0   0  -9  351.06   15.70
   1   0   9   13.20    4.70
   1   0   9    8.00    4.60
  -1   0  -9   11.60    4.90
   2   0   9 1197.98   32.60
   2   0   9 1124.49   32.30
  -2   0  -9 1078.29   33.20
   3   0   9  913.21   28.00
   3   0   9  925.31   28.10
   4   0   9   21.20    5.80
   4   0   9   12.30    5.40
   5   0   9  251.17   14.60
   5   0   9  254.57   13.80
   6   0   9   38.80    7.80
   7   0   9   58.09    9.50
   8   0   9   43.00    9.20
  -9  -1   9   41.60    9.40
  -9   1   9   34.40    7.30
   9   1  -9   26.60    8.50
  -8  -1   9   15.70    7.70
   8  -1  -9   12.60    6.20
  -8   1   9   17.80    6.10
   8   1  -9   22.80    8.70
  -7  -1   9   61.39    9.70
   7  -1  -9   64.19    8.50
  -7   1   9   58.89    7.90
   7   1  -9   55.69   10.00
  -6  -1   9  139.89   12.20
  -6  -1   9  166.68   11.90
   6  -1  -9  162.88   12.20
   6   1  -9  142.89   13.50
  -6   1   9  158.58   11.00
  -5  -1   9  121.39   10.50
  -5  -1   9  117.49   10.90
   5  -1  -9  110.99   10.50
  -5   1   9  108.89    8.50
  -5   1   9  115.29    9.60
   5   1  -9  118.59   11.80
  -4  -1   9   58.59    7.80
   4  -1  -9   64.89    6.80
  -4  -1   9   64.09    8.20
   4  -1  -9   57.59    7.60
   4   1  -9   68.39    9.20
  -4   1   9   64.89    7.70
  -4   1   9   62.29    7.20
  -3  -1   9   12.00    4.60
  -3  -1   9   24.60    5.90
   3  -1  -9   21.40    4.40
   3  -1  -9   15.10    5.00
  -3   1   9   16.80    4.80
   3   1  -9   25.50    6.20
  -3   1   9   19.50    4.60
   2  -1  -9  103.49    9.10
  -2  -1   9  129.29    9.70
  -2  -1   9  109.39    8.50
  -2   1   9  121.59    8.60
   2   1  -9  126.29   10.30
  -2   1   9  110.89    8.90
  -1  -1   9  181.88   10.60
   1  -1  -9  185.78   11.50
  -1  -1   9  179.58   10.80
  -1   1   9  178.98   10.50
  -1   1   9  172.68   10.40
   1   1  -9  168.08   11.30
   0  -1   9  195.68   11.20
   0  -1   9  170.38   10.70
   0  -1  -9  172.38   10.80
   0   1  -9  169.58   11.20
   0   1   9  174.18   10.70
   0   1   9  185.18   10.80
   1  -1   9  924.21   27.50
  -1  -1  -9  913.61   29.00
   1  -1   9  942.91   27.50
  -1   1  -9  857.91   28.10
   1   1   9  931.51   27.80
   1   1   9  919.91   27.80
   2  -1   9  445.06   17.20
   2  -1   9  472.05   17.60
  -2   1  -9  479.95   18.80
   2   1   9  454.85   18.10
   2   1   9  474.05   18.30
   3  -1   9  164.48   10.50
   3  -1   9  147.99   10.30
   3   1   9  143.69   11.00
   3   1   9  143.69   10.90
  -3   1  -9  188.28   11.20
   4  -1   9  144.09   10.20
   4  -1   9  145.79   10.60
   4   1   9  150.88   11.70
   4   1   9  155.18   11.60
   5  -1   9  123.59   10.00
   5  -1   9  122.99   10.70
   5   1   9  100.79   11.30
   5   1   9  119.69   11.00
   6  -1   9   26.50    6.80
   6   1   9   21.20    8.00
   6   1   9   25.30    6.70
   7  -1   9   11.10    6.60
   7   1   9   29.80    8.30
   8  -1   9  100.39   11.50
   8   1   9   75.49   11.60
   9   2  -9   11.10    9.50
  -8  -2   9  113.69   14.30
  -8   2   9   83.59    8.80
   8   2  -9   70.69   12.20
  -7  -2   9   16.50    8.30
   7  -2  -9   11.10    5.30
  -7   2   9    9.60    4.90
   7   2  -9    1.90    7.50
   6  -2  -9   27.40    6.40
  -6  -2   9   17.70    6.90
  -6  -2   9   20.90    7.90
  -6   2   9   20.10    5.40
   6   2  -9   36.20    9.70
  -5  -2   9  487.15   20.50
   5  -2  -9  474.95   18.50
  -5  -2   9  478.75   21.10
   5   2  -9  475.85   22.00
  -5   2   9  447.96   17.50
  -4  -2   9  480.85   20.20
   4  -2  -9  444.86   17.00
  -4  -2   9  436.36   18.80
   4  -2  -9  464.75   18.30
   4   2  -9  447.36   20.30
  -4   2   9  480.05   17.00
  -4   2   9  457.35   17.40
  -3  -2   9   48.20    7.50
   3  -2  -9   64.19    8.10
  -3  -2   9   40.40    7.30
   3  -2  -9   48.10    6.20
   3   2  -9   47.40    8.70
  -3   2   9   65.49    7.60
  -3   2   9   49.40    6.60
  -2  -2   9  336.07   15.70
  -2  -2   9  347.17   15.50
   2  -2  -9  354.26   15.60
  -2   2   9  346.47   14.50
  -2   2   9  321.87   14.30
   2   2  -9  355.76   17.00
  -1  -2   9  398.66   16.80
  -1  -2   9  370.76   16.40
  -1   2   9  381.26   15.50
  -1   2   9  389.16   15.80
   1   2  -9  401.16   17.70
   0  -2   9  162.08   11.10
   0  -2   9  208.28   11.90
   0   2   9  196.78   11.50
   0   2   9  202.78   11.60
   0   2  -9  175.48   11.80
   1  -2   9   22.10    5.70
   1  -2   9   29.30    6.30
   1   2   9   13.20    5.20
   1   2   9   18.50    5.60
  -1   2  -9   21.90    5.90
   2  -2   9  187.48   11.00
   2  -2   9  177.08   10.80
  -2   2  -9  163.18   11.10
   2   2   9  147.39   11.20
   2   2   9  158.38   11.50
   3  -2   9  261.17   13.40
   3  -2   9  305.87   13.80
  -3   2  -9  281.77   14.20
   3   2   9  276.17   15.10
   3   2   9  263.67   15.00
   4  -2   9   20.70    7.40
   4  -2   9    5.70    5.10
   4   2   9    9.10    6.10
   4   2   9   16.80    6.20
  -4   2  -9   16.40    5.40
   5  -2   9  110.69   10.40
   5   2   9  101.29   12.30
   5   2   9  115.79   11.80
   6  -2   9  125.09   10.90
   6   2   9  117.49   12.20
   6   2   9  109.99   13.60
   7  -2   9   47.00    7.70
   7   2   9   44.70   10.10
   8  -2   9    0.10    5.20
   8   2   9    0.20    7.60
  -8  -3   9   69.19   13.30
   8   3  -9   58.39   12.60
  -7  -3   9   -7.10    7.80
   7   3  -9    0.90    7.70
  -7   3   9    1.40    3.60
  -6  -3   9  104.69   14.10
  -6  -3   9   97.69   12.20
   6   3  -9   93.39   13.50
  -6   3   9   89.39    8.40
  -5  -3   9  139.89   13.50
  -5  -3   9  156.28   14.20
  -5   3   9  117.69    9.60
   5   3  -9  136.09   14.60
  -4  -3   9   27.30    7.70
  -4  -3   9   37.10    8.50
   4   3  -9   22.50    8.30
  -4   3   9   24.20    6.10
  -3  -3   9  669.03   25.00
  -3  -3   9  665.83   24.80
  -3   3   9  652.43   22.50
   3   3  -9  656.53   26.40
  -3   3   9  661.53   21.90
  -2  -3   9  166.88   12.80
  -2  -3   9  161.68   13.00
   2   3  -9  178.28   13.80
  -2   3   9  168.48   11.00
  -2   3   9  196.68   11.80
  -1  -3   9  321.77   16.10
  -1  -3   9  348.57   16.70
   1   3  -9  301.57   16.20
  -1   3   9  318.27   14.90
  -1   3   9  325.57   15.30
   0  -3   9   16.20    6.00
   0  -3   9   15.60    5.80
   0   3   9   16.10    5.60
   0   3  -9   18.70    6.30
   0   3   9   14.10    5.60
   1  -3   9   31.90    6.30
   1  -3   9   29.70    6.50
   1   3   9   26.70    6.60
   1   3   9   29.80    7.20
  -1   3  -9   30.50    7.10
   2  -3   9    8.00    4.80
   2  -3   9    0.90    4.50
   2   3   9    1.40    5.60
  -2   3  -9   -0.70    4.40
   2   3   9   -0.50    4.90
   3  -3   9   29.50    6.40
   3  -3   9   23.20    6.50
  -3   3  -9   17.50    5.60
   3   3   9   27.20    7.10
   3   3   9   19.30    7.10
   4  -3   9  142.59   11.20
   4   3   9  138.29   13.60
   4   3   9  158.68   13.20
   5  -3   9    4.40    5.40
   5   3   9    4.10    6.20
   5   3   9    3.30    6.80
   6  -3   9    3.30    5.00
   6   3   9   -5.40    6.70
   6   3   9   -6.80    5.60
   7  -3   9   35.80    6.90
   7   3   9   25.60    9.00
   8   3   9    1.80    9.60
  -7  -4   9    5.60    9.40
   7   4  -9   -2.60    8.10
  -6  -4   9   39.90    9.80
  -6  -4   9   45.90   11.30
  -6   4   9   39.50    6.60
   6   4  -9   29.10   10.60
  -5  -4   9   62.79   12.30
  -5  -4   9   46.10   10.00
   5   4  -9   25.10   10.30
  -5   4   9   45.60    7.00
  -4  -4   9  204.88   16.60
  -4  -4   9  212.88   16.10
   4   4  -9  189.18   16.70
  -4   4   9  182.58   12.20
  -3  -4   9  260.77   17.30
  -3  -4   9  252.97   16.70
   3   4  -9  196.38   16.50
  -3   4   9  218.68   13.30
  -2  -4   9  452.05   21.10
  -2  -4   9  422.66   20.60
  -2   4   9  458.25   19.10
   2   4  -9  426.06   21.50
  -2   4   9  457.15   18.60
  -1  -4   9  271.47   16.10
  -1  -4   9  301.87   16.90
   1   4  -9  258.47   16.30
  -1   4   9  302.87   15.50
  -1   4   9  316.67   16.20
   0  -4   9   19.20    6.90
   0  -4   9   18.70    6.60
   0   4  -9   25.00    7.00
   0   4   9   18.30    6.50
   0   4   9   17.80    6.10
   1  -4   9   19.90    6.90
   1  -4   9   12.10    6.20
   1   4   9   18.50    6.80
   1   4   9   14.00    6.30
  -1   4  -9   25.20    7.20
   2  -4   9    4.60    5.50
   2  -4   9    8.80    6.00
  -2   4  -9    8.40    5.10
   2   4   9    9.80    6.70
   2   4   9   10.60    7.00
   3  -4   9   63.89    8.80
   3   4   9   69.09   11.00
   3   4   9   77.29   10.90
   4  -4   9   66.09    8.70
   4   4   9   61.99   10.60
   4   4   9   74.99   11.60
   5  -4   9  147.19   12.00
   5   4   9  113.09   14.50
   5   4   9  125.79   15.40
   6  -4   9  114.69   10.70
   6   4   9  138.79   15.90
   6   4   9  100.69   14.30
   7  -4   9    3.10    4.70
  -7  -4  -9    1.50    8.40
   7   4   9    1.00    9.10
  -6  -5   9    9.60   10.90
  -6  -5   9   17.50    9.00
   6   5  -9   11.80   10.00
  -6   5   9   12.90    4.90
  -5  -5   9   89.49   14.10
  -5  -5   9   61.29   11.50
   5   5  -9   64.99   13.20
  -5   5   9   63.79    8.30
  -4  -5   9    6.30    8.60
  -4  -5   9   -3.20    7.70
   4   5  -9   -3.40    7.40
  -4   5   9   -2.40    4.70
  -3  -5   9   27.40    8.80
  -3  -5   9   27.60    9.30
  -3   5   9   32.50    7.30
   3   5  -9   31.30    8.90
  -2  -5   9  163.88   15.40
  -2  -5   9  141.19   13.70
   2   5  -9  177.38   16.10
  -2   5   9  165.18   13.10
  -1  -5   9   97.39   12.50
  -1  -5   9  104.09   12.60
  -1   5   9   61.79    9.30
  -1   5   9   98.59   10.70
   1   5  -9   85.19   12.20
   0  -5   9   92.99   11.40
   0  -5   9   85.59   11.10
   0   5   9   74.19   10.70
   0   5  -9   78.49   11.00
   0   5   9  100.09   11.50
   1  -5   9   32.00    7.80
   1  -5   9   33.40    8.30
   1   5   9   37.10    8.50
   1   5   9   42.40    9.30
  -1   5  -9   33.40    8.30
   2  -5   9   53.69    9.20
   2   5   9   61.29   11.30
   2   5   9   43.60    9.00
   3  -5   9   13.30    6.60
   3   5   9   10.00    7.80
   3   5   9   18.00    8.30
   4  -5   9   40.60    8.50
   4   5   9   45.70   10.70
   4   5   9   12.30    8.40
   5  -5   9   94.49   10.70
  -5  -5  -9   72.59   12.40
   5   5   9   50.39   11.90
   5   5   9   38.80   10.00
  -6  -5  -9   12.80    9.30
   6  -5   9   15.70    5.80
   6   5   9    4.70    9.80
   6   5   9    5.00    8.30
  -5  -6   9   11.10   10.60
  -5  -6   9   -6.30    9.00
  -5   6   9   -4.10    4.50
   5   6  -9   -1.50    9.30
  -4  -6   9   20.20   10.00
  -4  -6   9   21.50   11.10
  -4   6   9    7.00    5.40
   4   6  -9    0.20    9.20
  -3  -6   9   23.30   10.40
  -3  -6   9   26.70   10.30
  -3   6   9   13.40    6.80
   3   6  -9    9.60    9.10
  -2  -6   9   -3.60    8.10
  -2  -6   9    6.60    8.10
   2   6  -9    2.80    8.30
  -2   6   9    6.30    6.10
  -1  -6   9  114.69   14.30
  -1  -6   9  104.29   13.20
   1   6  -9   65.59   11.60
  -1   6   9   75.49   10.80
   0  -6   9   81.79   11.90
   0   6  -9   43.30    9.40
   0   6   9   54.89   10.50
  -1  -6  -9   39.50    8.60
   1  -6   9   23.50    8.90
   1   6   9   33.70    9.60
   1   6   9   24.00    9.00
   2  -6   9   82.89   11.00
  -2  -6  -9  112.89   13.60
   2   6   9   74.29   11.90
   2   6   9   84.19   12.50
   3  -6   9   45.90    9.20
  -3  -6  -9   58.49   11.70
   3   6   9   23.30    9.00
   3   6   9   51.99   11.30
   4  -6   9   11.20    6.40
  -4  -6  -9   13.80    8.60
   4   6   9    9.80    9.20
   4   6   9    5.30    8.60
   2   7  -9    4.60    8.60
  -1  -7   9   29.90   10.60
  -1   7   9   10.10    8.10
   0  -7   9   46.40   12.40
   0   7   9   24.70    9.40
   1  -7   9   53.09   11.50
   1   7   9   66.09   13.10
  -9   0  10   22.80    7.80
   9   0 -10   23.10    7.40
   8   0 -10    3.60    6.60
  -8   0  10   12.00    6.70
   7   0 -10   38.00    8.30
  -7   0  10   25.70    7.40
   6   0 -10  651.23   25.20
  -6   0  10  628.74   23.70
  -5   0  10   60.59    7.70
   5   0 -10   63.19    9.70
  -5   0  10   62.59    9.00
  -4   0  10   14.00    5.40
  -4   0  10   13.80    5.30
   4   0 -10    0.70    5.10
  -3   0  10   64.99    7.90
   3   0 -10   73.69    9.20
  -3   0  10   71.39    8.30
  -2   0  10   -1.70    3.40
  -2   0  10    1.00    4.00
   2   0 -10   -2.40    4.10
  -1   0  10   10.60    4.70
  -1   0  10   12.60    5.10
   1   0 -10   15.60    5.40
   0   0  10   36.70    6.60
   0   0  10   39.60    6.80
   0   0 -10   34.30    6.80
   1   0  10  452.65   17.80
   1   0  10  462.45   18.20
  -1   0 -10  476.85   19.60
   2   0  10  674.33   23.40
  -2   0 -10  682.23   24.70
   2   0  10  707.63   23.60
   3   0  10    4.80    5.20
   3   0  10    2.40    4.80
   4   0  10  153.88   11.80
   4   0  10  143.59   11.60
   5   0  10  678.23   25.30
   5   0  10  711.23   25.00
   6   0  10   33.10    8.40
   7   0  10   14.30    7.60
   8   0  10   28.30    8.70
   9   1 -10   51.59   11.30
  -8  -1  10    0.40    6.80
   8  -1 -10    8.20    5.90
  -8   1  10   11.60    5.90
   8   1 -10    9.30    8.00
   7  -1 -10  115.09   11.70
  -7  -1  10  114.29   13.10
  -7   1  10  108.49   10.90
   7   1 -10  129.39   14.10
   6  -1 -10   94.79   11.10
  -6  -1  10  101.79   12.30
  -6  -1  10   96.79   11.80
  -6   1  10  102.59   10.10
   6   1 -10   86.19   12.00
   5  -1 -10   51.39    8.30
  -5  -1  10   63.49    8.80
  -5  -1  10   47.20    8.80
  -5   1  10   54.29    7.10
  -5   1  10   53.69    7.70
   5   1 -10   60.79   10.00
   4  -1 -10   54.19    8.10
  -4  -1  10   48.30    8.50
  -4  -1  10   49.00    7.40
  -4   1  10   51.89    7.30
   4   1 -10   48.70    8.60
  -4   1  10   34.80    6.70
  -3  -1  10   44.90    7.60
   3  -1 -10   51.59    7.60
  -3  -1  10   54.29    7.90
  -3   1  10   43.30    7.20
  -3   1  10   45.60    6.90
   3   1 -10   40.70    8.10
   2  -1 -10  119.89   10.00
  -2  -1  10  110.19    9.70
  -2  -1  10  112.89    9.90
  -2   1  10  103.59    9.30
  -2   1  10  115.69    9.40
   2   1 -10  121.29   10.50
  -1  -1  10  167.18   10.80
  -1  -1  10  189.08   11.60
   1  -1 -10  180.88   11.80
   1   1 -10  198.08   12.70
  -1   1  10  198.28   11.50
  -1   1  10  165.98   10.90
   0  -1 -10  257.17   13.90
   0  -1  10  256.57   13.20
   0  -1  10  281.27   14.00
   0   1  10  287.67   14.10
   0   1 -10  253.47   14.40
   0   1  10  256.37   13.30
  -1  -1 -10  243.88   14.20
   1  -1  10  232.98   13.10
   1  -1  10  251.27   13.30
   1   1  10  276.97   13.80
   1   1  10  261.67   13.70
  -1   1 -10  255.17   14.30
   2  -1  10  200.18   12.20
   2  -1  10  178.28   11.50
  -2   1 -10  189.78   12.40
   2   1  10  205.78   12.70
   2   1  10  186.68   11.90
   3  -1  10  130.89   10.50
   3  -1  10  124.29   10.40
   3   1  10  127.69   11.40
   3   1  10  122.49   11.20
  -3   1 -10  138.59   10.80
   4  -1  10   62.19    8.70
   4  -1  10   48.30    8.10
   4   1  10   45.90    8.40
   4   1  10   51.59    8.70
   5  -1  10   -0.60    4.30
   5  -1  10    1.10    5.50
   5   1  10   -0.10    5.80
   5   1  10   -5.20    4.90
   6  -1  10  275.57   15.80
   6   1  10  256.97   15.60
   6   1  10  300.57   17.60
   7  -1  10   23.70    7.50
   7   1  10   29.70    9.20
   8  -1  10   52.99    9.40
   8   1  10   55.39   11.00
  -8  -2  10   67.19   11.60
   8   2 -10   63.39   12.00
  -8   2  10   61.79    8.50
  -7  -2  10   25.40    9.40
   7  -2 -10   28.90    6.70
  -7   2  10    9.60    5.30
   7   2 -10   15.20    8.70
  -6  -2  10   78.19   10.00
   6  -2 -10   86.09   10.10
  -6  -2  10   69.39   10.70
  -6   2  10   77.09    9.10
   6   2 -10   88.59   12.90
  -5  -2  10  395.46   18.80
  -5  -2  10  395.26   20.00
   5  -2 -10  383.76   17.70
   5   2 -10  345.07   19.50
  -5   2  10  391.66   16.70
  -4  -2  10  109.99   12.00
  -4  -2  10   90.69   10.90
   4  -2 -10   96.19   10.40
   4   2 -10   75.09   10.90
  -4   2  10   93.09    9.40
  -4   2  10  100.19    9.10
   3  -2 -10  132.49   10.90
  -3  -2  10  136.79   11.50
  -3  -2  10  131.39   11.90
  -3   2  10  124.79    9.70
   3   2 -10  128.19   12.60
  -3   2  10  133.89   10.30
  -2  -2  10  871.31   28.40
   2  -2 -10  837.72   28.00
  -2  -2  10  870.81   28.20
  -2   2  10  798.62   26.40
  -2   2  10  821.02   26.40
   2   2 -10  857.61   29.50
  -1  -2  10  215.98   13.40
  -1  -2  10  230.88   13.10
  -1   2  10  215.78   12.40
  -1   2  10  249.48   13.20
   1   2 -10  193.18   13.10
   0  -2  10  279.17   14.30
   0  -2  10  239.28   13.60
   0   2 -10  284.37   15.40
   0   2  10  281.57   14.30
   0   2  10  271.17   14.10
   1  -2  10  508.15   19.40
   1  -2  10  482.35   19.20
  -1   2 -10  483.85   20.50
   1   2  10  493.55   19.60
   1   2  10  486.55   19.80
   2  -2  10  173.48   11.40
   2  -2  10  161.48   11.40
   2   2  10  167.48   12.40
   2   2  10  166.08   12.40
  -2   2 -10  153.08   11.70
   3  -2  10   31.40    7.30
   3  -2  10   34.30    6.90
   3   2  10   40.40    8.30
   3   2  10   39.40    8.40
  -3   2 -10   51.99    8.00
   4  -2  10  222.98   13.70
   4  -2  10  230.18   12.70
  -4   2 -10  246.08   13.90
   4   2  10  209.38   14.80
   4   2  10  227.38   15.00
   5  -2  10  167.48   12.50
   5   2  10  167.88   14.90
   5   2  10  163.48   13.50
   6  -2  10   15.80    6.50
   6   2  10    1.00    6.10
   6   2  10   21.00    8.50
   7  -2  10   40.30    7.90
   7   2  10   59.49   10.90
   8  -2  10   41.30    7.90
   8   2  10   27.00   10.30
  -8  -3  10   37.10   11.50
   8   3 -10   31.20   11.40
  -7  -3  10   25.50    9.60
   7   3 -10   34.70   10.90
  -7   3  10   28.10    6.30
  -6  -3  10   -1.10    6.50
  -6  -3  10   -1.60    7.30
   6   3 -10    7.80    8.10
  -6   3  10    2.60    4.50
  -5  -3  10   37.90    9.20
  -5  -3  10   34.20    9.00
   5   3 -10   31.20   10.10
  -5   3  10   26.40    6.30
  -4  -3  10    3.60    7.10
  -4  -3  10   18.50    7.70
  -4   3  10    5.10    4.90
   4   3 -10   12.40    8.00
  -3  -3  10  284.47   17.00
  -3  -3  10  326.07   17.90
  -3   3  10  295.07   14.50
  -3   3  10  294.67   15.10
   3   3 -10  288.17   18.40
  -2  -3  10   87.29   10.80
  -2  -3  10  111.99   11.80
  -2   3  10   82.09    9.50
   2   3 -10   80.09   10.80
  -2   3  10   84.09    9.60
  -1  -3  10  534.55   21.80
  -1  -3  10  546.75   22.20
   1   3 -10  556.34   23.20
  -1   3  10  541.65   21.30
  -1   3  10  531.55   20.80
   0  -3  10  289.57   15.20
   0  -3  10  287.27   15.60
   0   3  10  288.77   15.40
   0   3 -10  263.27   15.80
   0   3  10  299.77   15.70
   1  -3  10   16.10    6.30
   1  -3  10   -1.90    4.80
   1   3  10    6.20    5.50
   1   3  10    7.70    6.20
  -1   3 -10    9.00    5.90
   2  -3  10  130.19   11.20
   2  -3  10  119.09   10.70
   2   3  10  124.99   12.10
  -2   3 -10  106.19   11.10
   2   3  10  118.39   11.60
   3  -3  10   52.19    8.30
   3  -3  10   61.89    8.10
  -3   3 -10   56.79    8.50
   3   3  10   53.69    9.70
   3   3  10   62.19   10.20
   4  -3  10    8.60    6.10
   4   3  10    7.60    6.80
   4   3  10   -0.10    5.90
   5  -3  10   19.50    6.60
   5   3  10   13.60    7.70
   5   3  10    7.80    7.50
   6  -3  10   56.09    8.50
   6   3  10   60.79   11.50
   6   3  10   65.29   10.70
   7  -3  10   19.10    6.50
   7   3  10   11.50    9.10
  -7  -4  10   47.10   13.60
   7   4 -10   38.90   12.20
  -6  -4  10   -4.90    8.30
  -6  -4  10    0.40    7.10
   6   4 -10   -4.20    8.00
  -6   4  10    3.60    4.80
  -5  -4  10   50.79   10.70
  -5  -4  10   38.70   10.60
  -5   4  10   53.69    8.20
   5   4 -10   49.20   11.40
  -4  -4  10   14.70    7.60
  -4  -4  10   -4.60    7.10
  -4   4  10    3.60    5.10
   4   4 -10   -1.00    7.10
  -3  -4  10  112.99   13.70
  -3  -4  10   78.19   11.30
  -3   4  10  101.99   11.00
   3   4 -10  114.09   13.30
  -2  -4  10  265.47   17.20
  -2  -4  10  260.37   17.00
  -2   4  10  258.97   14.60
  -2   4  10  257.67   15.40
   2   4 -10  277.87   18.40
  -1  -4  10   23.00    8.20
  -1  -4  10   22.70    7.90
   1   4 -10   13.10    7.30
  -1   4  10   19.30    6.60
  -1   4  10   22.50    7.10
   0  -4  10   30.80    8.30
   0  -4  10   40.30    8.50
   0   4  10   45.10    8.50
   0   4  10   31.20    8.30
   0   4 -10   28.00    7.80
   1  -4  10    4.00    5.50
   1  -4  10   26.50    7.50
   1   4  10   17.00    7.30
  -1   4 -10   14.60    6.40
   1   4  10   31.10    7.80
   2  -4  10   32.90    7.90
   2  -4  10   51.79    8.80
   2   4  10   37.20    8.40
   2   4  10   39.00    8.90
  -2   4 -10   34.10    7.60
   3  -4  10   53.69    8.50
   3   4  10   48.60   10.30
   3   4  10   33.30    8.50
   4  -4  10   30.00    7.70
   4   4  10   20.40    7.90
   4   4  10   36.80    8.90
   5  -4  10   20.40    7.00
   5   4  10    6.90    7.90
   5   4  10    1.80    7.10
   6  -4  10   25.60    7.10
   6   4  10   15.10    7.90
   6   4  10   25.90   11.00
  -6  -5  10    5.30    8.80
  -6  -5  10    5.20   11.40
  -6   5  10   -0.10    4.40
   6   5 -10   -5.20    9.10
  -5  -5  10   69.19   12.30
  -5  -5  10   93.09   14.20
  -5   5  10   50.99    8.20
   5   5 -10   35.40   10.70
  -4  -5  10   20.30    9.70
  -4  -5  10   21.50   10.10
  -4   5  10   18.40    6.20
   4   5 -10   22.30   10.40
  -3  -5  10   19.20    9.90
  -3  -5  10   18.60    9.50
   3   5 -10   31.30   10.20
  -3   5  10   23.30    6.80
  -2  -5  10   23.30    9.30
  -2  -5  10   29.80    9.50
   2   5 -10    5.50    7.30
  -2   5  10   11.90    6.20
  -1  -5  10   41.90    9.40
  -1  -5  10   16.10    8.30
  -1   5  10   32.30    7.90
  -1   5  10   33.20    8.60
   1   5 -10   22.10    8.30
   0  -5  10   15.70    7.40
   0  -5  10   16.20    8.00
   0   5 -10   19.00    8.20
   0   5  10   29.40    8.30
   0   5  10   16.90    7.00
   1  -5  10   17.30    6.90
   1  -5  10   14.30    7.50
   1   5  10   16.60    8.00
   1   5  10   19.50    8.20
  -1   5 -10   25.40    7.90
   2  -5  10   18.30    7.50
   2   5  10   25.00    8.80
   2   5  10   23.30    8.50
   3  -5  10   18.10    7.30
   3   5  10    6.00    7.10
   3   5  10    9.00    7.70
   4   5  10  105.09   14.10
   4   5  10  124.29   15.30
   5  -5  10   42.60    8.50
   5   5  10   20.40    8.90
   5   5  10   29.80   11.30
  -4  -6  10   53.49   11.60
  -4  -6  10   39.20   12.40
   4   6 -10   32.40   10.80
  -4   6  10   59.99    9.50
  -3  -6  10   60.19   12.60
  -3  -6  10   58.49   13.10
  -3   6  10   50.39    9.00
   3   6 -10   26.70    9.80
  -2  -6  10   43.50   11.50
  -2  -6  10   31.60    9.90
   2   6 -10   28.10    9.40
  -2   6  10   22.70    7.90
  -1  -6  10   13.40    8.40
  -1  -6  10   12.10    8.80
  -1   6  10    6.40    7.10
   1   6 -10  -11.10    5.80
   0  -6  10   17.20    8.30
   0   6  10   14.30    8.00
   1  -6  10   47.60    9.60
  -1  -6 -10   47.20   10.20
   1   6  10   54.99   10.60
   1   6  10   48.70   11.30
   2  -6  10   64.89   10.90
  -2  -6 -10   78.69   11.90
   2   6  10   50.09   10.60
   2   6  10   60.99   11.40
   3  -6  10   79.09   11.00
  -3  -6 -10   53.49   11.20
   3   6  10   90.69   14.90
   3   6  10   60.29   11.80
   4  -6  10   38.10    9.00
   4   6  10   39.90   11.90
   4   6  10   57.79   11.80
   8   0 -11    8.00    6.90
  -8   0  11    5.70    6.60
  -7   0  11    6.30    6.60
   7   0 -11    6.20    7.00
  -6   0  11  391.86   18.90
   6   0 -11  375.56   20.00
  -5   0  11    8.30    5.20
   5   0 -11   -6.80    5.50
  -5   0  11   -3.40    5.20
  -4   0  11  686.53   25.00
   4   0 -11  717.73   26.70
  -4   0  11  716.13   24.60
  -3   0  11   90.49    9.90
   3   0 -11   95.99   10.90
  -3   0  11   87.39    9.50
  -2   0  11    4.30    5.10
   2   0 -11   -0.10    5.00
  -2   0  11    3.70    4.80
   1   0 -11  170.08   12.10
  -1   0  11  156.78   11.40
  -1   0  11  176.28   11.90
   0   0  11  841.82   27.30
   0   0  11  813.02   27.10
   0   0 -11  850.21   29.10
   1   0  11    5.90    5.60
  -1   0 -11    6.60    5.10
   1   0  11    6.50    5.40
  -2   0 -11  692.23   25.80
   2   0  11  648.44   23.90
   2   0  11  705.43   24.40
   3   0  11 1193.28   34.60
   3   0  11 1029.50   33.40
   4   0  11  148.69   12.30
   4   0  11  143.19   12.30
   5   0  11   32.20    8.40
   5   0  11   25.20    7.00
   6   0  11   47.10    9.10
   7   0  11   38.30    9.50
   8   0  11    6.10    7.80
   8  -1 -11    4.40    5.90
  -8  -1  11   -1.90    7.20
  -8   1  11   -4.50    5.10
   8   1 -11   14.90    8.10
  -7  -1  11   52.69   10.40
   7  -1 -11   46.20    8.90
   7   1 -11   34.70    9.50
  -7   1  11   40.90    7.90
   6  -1 -11   90.59   10.90
  -6  -1  11   55.79    9.90
   6   1 -11   63.49   10.70
  -6   1  11   55.29    8.50
  -5  -1  11  216.58   15.30
   5  -1 -11  233.98   14.80
  -5  -1  11  226.68   14.00
  -5   1  11  191.18   13.20
   5   1 -11  185.68   15.50
   4  -1 -11   44.80    8.80
  -4  -1  11   36.10    8.40
  -4  -1  11   47.60    8.40
  -4   1  11   54.99    8.20
  -4   1  11   49.90    8.20
   4   1 -11   28.10    8.10
   3  -1 -11  378.36   18.50
  -3  -1  11  403.56   18.00
  -3  -1  11  411.96   18.60
  -3   1  11  370.16   17.00
  -3   1  11  405.26   17.10
   3   1 -11  364.06   18.70
  -2  -1  11  359.26   17.00
   2  -1 -11  347.37   17.20
  -2  -1  11  370.46   17.10
  -2   1  11  384.16   17.10
  -2   1  11  376.96   16.60
   2   1 -11  351.86   17.70
  -1  -1  11  104.19   10.40
  -1  -1  11  115.09   10.50
   1  -1 -11  108.59   10.90
  -1   1  11  128.89   10.60
  -1   1  11  132.89   10.50
   1   1 -11  107.09   11.30
   0  -1  11  347.27   16.60
   0  -1  11  373.36   17.00
   0  -1 -11  351.66   17.60
   0   1  11  377.66   17.00
   0   1 -11  351.06   17.60
   0   1  11  379.06   17.00
   1  -1  11  965.70   30.60
  -1  -1 -11  978.80   32.50
   1  -1  11  939.91   30.20
  -1   1 -11 1012.30   32.60
   1   1  11  992.30   30.90
   1   1  11  961.50   30.90
   2  -1  11   34.70    7.50
   2  -1  11   39.90    7.80
   2   1  11   32.70    7.70
  -2   1 -11   37.70    7.60
   2   1  11   39.00    7.60
   3  -1  11  124.79   11.10
   3  -1  11  106.39   10.80
  -3   1 -11  142.39   11.80
   3   1  11  139.49   11.70
   3   1  11  133.69   12.20
   4  -1  11  250.37   14.70
   4  -1  11  257.17   15.30
   4   1  11  287.87   16.60
   4   1  11  300.57   16.90
   5  -1  11  192.78   13.80
   5   1  11  191.48   15.00
   5   1  11  190.78   14.00
   6  -1  11   62.79    9.60
   6   1  11   66.29   10.60
   7  -1  11   65.49   10.00
   7   1  11   57.19   10.20
   8  -1  11  136.89   13.70
   8   1  11  110.19   14.80
  -8  -2  11   12.90    9.90
   8  -2 -11    8.80    5.10
   8   2 -11   10.40    9.30
  -8   2  11    4.10    5.70
   7  -2 -11   86.69   10.70
  -7  -2  11   83.19   13.00
   7   2 -11   59.99   11.80
  -7   2  11   67.29    9.50
   6  -2 -11   50.89    8.70
  -6  -2  11   53.69   10.70
  -6  -2  11   69.59   10.30
  -6   2  11   48.40    8.40
   6   2 -11   58.39   10.60
  -5  -2  11   65.89   10.00
  -5  -2  11   50.89   10.40
   5  -2 -11   57.49    9.00
   5   2 -11   50.69   10.70
  -5   2  11   58.69    8.60
   4  -2 -11  248.38   15.10
  -4  -2  11  265.07   16.50
  -4  -2  11  248.58   15.80
  -4   2  11  261.67   13.80
   4   2 -11  236.88   17.00
  -4   2  11  244.58   14.20
   3  -2 -11   18.90    6.60
  -3  -2  11   14.60    6.60
  -3  -2  11    9.10    7.00
   3   2 -11   13.80    7.20
  -3   2  11    9.60    5.40
  -3   2  11   13.30    6.00
  -2  -2  11   87.69   10.20
  -2  -2  11  116.39   11.90
   2  -2 -11   98.09   11.00
   2   2 -11  110.79   12.20
  -2   2  11   91.49    9.90
  -2   2  11  102.89   10.30
  -1  -2  11   49.60    8.40
  -1  -2  11   49.90    8.10
   1   2 -11   70.79    9.90
  -1   2  11   76.59    9.30
  -1   2  11   55.29    8.30
   0  -2  11   86.29    9.60
   0  -2  11   93.39   10.70
   0   2  11  107.39   10.50
   0   2 -11   98.59   11.60
   0   2  11  107.39   10.70
   1  -2  11  348.27   17.00
   1  -2  11  372.96   17.40
   1   2  11  351.26   17.40
   1   2  11  365.96   17.70
  -1   2 -11  367.66   18.30
   2  -2  11   85.59   10.20
   2  -2  11   57.69    8.50
  -2   2 -11   76.89   10.00
   2   2  11   57.79    8.80
   2   2  11   52.99    8.90
   3  -2  11  420.06   19.00
   3  -2  11  433.76   18.60
  -3   2 -11  500.05   20.90
   3   2  11  428.76   20.30
   3   2  11  388.96   19.40
   4  -2  11  110.59   10.50
   4  -2  11  119.89   11.60
   4   2  11  108.59   11.80
  -4   2 -11  122.49   11.10
   4   2  11  115.39   12.50
   5  -2  11   36.70    8.40
   5   2  11   34.00    8.70
   5   2  11   37.10    8.90
   6  -2  11   40.20    8.50
   6   2  11   39.30   10.00
   6   2  11   49.30    9.80
   7  -2  11   55.19    9.10
   7   2  11   56.69   11.30
  -7  -3  11   40.20   11.50
   7   3 -11   35.20   11.30
  -7   3  11   38.30    7.10
  -6  -3  11   -5.90    6.40
  -6  -3  11    6.60    8.50
  -6   3  11   10.40    5.20
   6   3 -11    0.10    8.10
  -5  -3  11    9.10    7.30
  -5  -3  11   12.60    8.60
   5   3 -11   20.90    8.80
  -5   3  11   23.30    6.50
  -4  -3  11   41.00   10.20
  -4  -3  11   55.39   10.60
  -4   3  11   48.10    8.30
   4   3 -11   32.90    9.60
  -3  -3  11   24.50    8.20
  -3  -3  11   11.30    7.90
  -3   3  11   17.00    6.10
  -3   3  11   14.00    6.20
   3   3 -11   24.70    8.10
  -2  -3  11   25.90    8.70
  -2  -3  11   27.50    7.80
   2   3 -11   33.60    8.60
  -2   3  11   21.60    6.30
  -2   3  11   21.20    6.80
  -1  -3  11   62.99    9.80
  -1  -3  11   76.39   11.00
  -1   3  11   67.69    9.60
  -1   3  11   83.39   10.10
   1   3 -11   74.39   10.50
   0  -3  11   45.10    8.70
   0  -3  11   53.29    9.10
   0   3  11   42.90    8.10
   0   3  11   39.20    8.40
   0   3 -11   37.30    8.10
   1  -3  11    9.90    6.40
   1  -3  11    8.30    6.10
   1   3  11   12.30    6.60
   1   3  11   14.40    7.00
  -1   3 -11   11.40    6.20
   2  -3  11  112.09   11.40
   2  -3  11  120.29   11.10
  -2   3 -11  107.79   11.30
   2   3  11  136.29   12.90
   2   3  11  118.79   12.30
   3  -3  11    5.50    5.70
   3  -3  11   -3.90    5.60
   3   3  11   -0.70    6.40
   3   3  11    2.60    6.20
  -3   3 -11   -7.40    4.30
   4  -3  11  123.19   12.50
   4   3  11  135.59   14.20
   4   3  11  141.99   14.00
   5  -3  11   15.10    6.90
   5   3  11   11.90    7.70
   5   3  11   10.60    7.70
   6  -3  11   -7.70    5.70
   6   3  11    0.30    8.40
   6   3  11   -6.50    6.40
   7  -3  11   26.20    7.40
   7   3  11   22.50   10.20
   7   4 -11   40.60   13.10
  -6  -4  11   13.90   10.20
  -6  -4  11   12.30    9.30
  -6   4  11   16.80    6.70
   6   4 -11   18.40   10.50
  -5  -4  11    6.00    8.90
  -5  -4  11   -8.80    7.30
   5   4 -11   -4.40    8.00
  -5   4  11   -1.10    5.20
  -4  -4  11   38.10   11.10
  -4  -4  11   31.40    9.60
   4   4 -11   34.30   10.50
  -4   4  11   32.80    7.60
  -3  -4  11   67.49   11.50
  -3  -4  11   53.49   10.80
   3   4 -11   51.49   11.20
  -3   4  11   56.69    9.20
  -2  -4  11   46.50   10.00
  -2  -4  11   49.40   10.00
  -2   4  11   50.39    9.30
  -2   4  11   27.50    6.80
   2   4 -11   37.30    9.20
  -1  -4  11    8.80    7.20
  -1  -4  11    8.60    7.40
   1   4 -11    4.20    6.60
  -1   4  11   11.70    6.60
  -1   4  11    4.70    5.70
   0  -4  11  112.49   12.70
   0  -4  11   89.39   11.30
   0   4  11  126.39   12.80
   0   4 -11  114.69   12.50
   0   4  11  126.59   12.80
   1  -4  11  139.29   12.90
   1  -4  11  119.89   12.50
   1   4  11  134.39   13.20
  -1   4 -11  130.89   13.10
   1   4  11  167.98   14.20
   2  -4  11    8.60    6.60
   2  -4  11   28.70    7.80
   2   4  11   17.40    7.60
   2   4  11   11.90    6.90
  -2   4 -11    4.80    5.70
   3  -4  11   35.80    8.60
   3   4  11   45.90    9.60
   3   4  11   57.69   11.50
   4  -4  11   33.80    8.30
   4   4  11   31.00    9.30
   4   4  11   23.60    9.00
   5  -4  11  125.79   12.70
   5   4  11   87.89   13.10
   5   4  11   82.39   12.20
   6  -4  11   10.20    6.20
   6   4  11    3.10    6.70
   6   4  11    7.80    9.20
   6   5 -11   13.90   10.70
  -5  -5  11   65.59   14.60
  -5  -5  11   34.50   11.10
  -5   5  11   47.80    8.10
   5   5 -11   46.20   12.30
  -4  -5  11   43.80   12.40
  -4  -5  11   29.00   10.00
   4   5 -11   31.10   10.30
  -4   5  11   33.80    7.80
  -3  -5  11   11.30    8.50
  -3  -5  11    0.50    8.40
  -3   5  11    3.00    5.60
   3   5 -11   -0.30    7.50
  -2  -5  11  133.69   15.10
  -2  -5  11   96.99   13.00
   2   5 -11  115.39   15.00
  -2   5  11  120.59   12.60
  -1  -5  11    5.50    8.10
  -1  -5  11    3.10    7.20
   1   5 -11    9.00    7.50
  -1   5  11    1.40    6.40
   0  -5  11   35.70    9.20
   0  -5  11   24.80    8.10
   0   5 -11   20.50    8.00
   0   5  11   45.90    9.90
   0   5  11   28.30    8.50
   1  -5  11   67.59   11.60
  -1   5 -11   22.20    7.30
   1   5  11   37.20    9.70
   1   5  11   38.90    9.70
   2  -5  11   17.40    7.20
   2   5  11   24.30    8.80
   2   5  11   19.80    8.60
   3  -5  11   14.70    7.30
   3   5  11   10.70    8.20
   3   5  11   33.80    9.10
   4  -5  11  101.89   12.80
   4   5  11   85.79   14.10
   4   5  11  100.89   14.70
   5  -5  11   36.50    8.90
   5   5  11   11.90    7.90
   5   5  11   23.00   10.70
   4   6 -11   10.50   10.10
  -3  -6  11   47.10   13.00
  -3  -6  11   25.40   10.30
   3   6 -11   19.40   10.10
  -3   6  11   27.90    8.30
  -2  -6  11   -3.10    8.20
  -2  -6  11   10.90    9.00
   2   6 -11   -1.20    8.10
  -2   6  11    0.60    6.50
  -1  -6  11   60.49   12.60
  -1  -6  11   74.09   13.20
  -1   6  11   60.29   11.40
   1   6 -11   29.70   10.00
   0  -6  11   29.10   10.10
   0   6  11   11.10    8.00
   1  -6  11   36.00    9.80
   1   6  11   28.20    9.50
   1   6  11   27.80   10.30
  -2  -6 -11   27.60    8.80
   2  -6  11   29.40    9.90
   2   6  11   30.40   11.10
   2   6  11   21.60    9.60
  -3  -6 -11   20.40    8.40
   3  -6  11   13.90    8.70
   3   6  11   27.60   11.20
   3   6  11   21.70   10.30
  -8   0  12   36.70    8.90
   8   0 -12   35.10    9.20
   7   0 -12   -2.10    6.60
  -7   0  12   -1.10    6.40
   6   0 -12   98.09   12.40
  -6   0  12  101.89   12.50
  -5   0  12   13.90    5.80
  -5   0  12   12.30    7.30
   5   0 -12    8.00    7.40
  -4   0  12   40.20    8.10
  -4   0  12   39.80    7.50
   4   0 -12   44.50    9.70
  -3   0  12   25.00    6.70
  -3   0  12   13.50    6.40
   3   0 -12   16.50    6.90
   2   0 -12  139.39   12.60
  -2   0  12  150.38   12.20
  -2   0  12  154.78   12.30
  -1   0  12  180.68   13.20
   1   0 -12  182.28   14.10
  -1   0  12  204.48   13.50
   0   0  12   77.49    9.90
   0   0  12   70.79    9.30
   0   0 -12   61.89    9.50
  -1   0 -12 2188.18   59.29
   1   0  12 2142.29   56.89
   1   0  12 2166.78   56.99
  -2   0 -12   39.10    8.00
   2   0  12   41.60    8.50
   2   0  12   46.20    8.50
   3   0  12   34.20    7.90
   3   0  12   38.40    7.90
   4   0  12  100.19   11.90
   4   0  12   76.99   10.30
   5   0  12    1.80    6.10
   5   0  12   -0.80    6.10
   6   0  12   14.40    8.00
   7   0  12   -5.80    6.60
   8  -1 -12   39.00    8.70
  -8  -1  12   22.60    9.50
   8   1 -12   41.40   10.90
  -8   1  12   41.20    8.80
  -7  -1  12   37.60    9.90
   7  -1 -12   40.70    9.30
  -7   1  12   26.00    7.30
   7   1 -12   38.40   10.20
  -6  -1  12   30.60    9.40
   6  -1 -12   25.90    8.00
   6   1 -12    9.10    8.10
  -6   1  12   39.40    8.40
   5  -1 -12   17.40    7.90
  -5  -1  12   25.20    8.30
  -5  -1  12   22.00    7.10
  -5   1  12   31.70    7.70
   5   1 -12   28.60    9.20
  -4  -1  12  241.38   15.90
  -4  -1  12  238.68   14.90
   4  -1 -12  233.88   15.70
  -4   1  12  225.18   13.60
   4   1 -12  226.78   16.50
  -4   1  12  224.58   14.70
   3  -1 -12  152.48   13.50
  -3  -1  12  164.68   13.50
  -3  -1  12  164.08   12.80
  -3   1  12  168.28   12.40
   3   1 -12  161.58   13.90
  -3   1  12  136.59   12.20
  -2  -1  12   17.00    6.80
   2  -1 -12   26.30    7.30
  -2  -1  12   16.20    6.60
  -2   1  12   13.80    6.20
   2   1 -12   23.20    7.20
  -2   1  12   12.00    5.70
   1  -1 -12  687.83   26.60
  -1  -1  12  709.83   25.80
  -1  -1  12  731.53   26.10
  -1   1  12  722.13   25.60
   1   1 -12  709.73   27.70
  -1   1  12  747.23   25.90
   0  -1 -12   98.29   11.40
   0  -1  12   89.59   11.30
   0  -1  12  114.29   10.80
   0   1 -12   95.99   11.90
   0   1  12  115.29   10.70
   0   1  12  114.79   10.90
   1  -1  12    8.30    6.40
   1  -1  12   -2.90    5.20
  -1  -1 -12    5.10    6.10
   1   1  12   17.60    6.50
  -1   1 -12   10.20    6.40
   1   1  12    0.90    5.40
   2  -1  12  141.49   12.20
   2  -1  12  131.89   12.20
   2   1  12  152.68   12.80
   2   1  12  133.89   12.70
  -2   1 -12  151.28   13.00
   3  -1  12  515.65   21.70
   3  -1  12  525.25   21.40
  -3   1 -12  524.55   22.80
   3   1  12  515.35   22.40
   3   1  12  528.85   22.50
   4  -1  12   41.70    8.50
   4  -1  12   47.80    8.90
   4   1  12   30.10    8.20
   4   1  12   46.90    9.20
   5  -1  12   12.20    7.10
   5   1  12    9.10    6.60
   5   1  12   10.70    7.00
   6  -1  12  113.09   13.30
   6   1  12  115.99   14.00
   7  -1  12   17.40    7.80
   7   1  12   -2.10    7.50
   8  -2 -12   25.60    6.90
   8   2 -12   28.80   11.20
   7  -2 -12    8.20    6.10
  -7  -2  12  -10.30    7.10
   7   2 -12  -13.30    7.30
  -7   2  12    0.10    5.50
  -6  -2  12   33.50    9.70
   6  -2 -12   31.80    8.20
   6   2 -12   32.60   10.30
  -6   2  12   34.60    8.30
  -5  -2  12   33.80    8.10
   5  -2 -12   33.80    8.20
  -5  -2  12   33.40    9.30
  -5   2  12   41.00    8.10
   5   2 -12   34.90    9.40
   4  -2 -12    5.10    6.40
  -4  -2  12    6.90    7.20
  -4  -2  12   22.30    7.70
   4   2 -12    4.00    7.20
  -4   2  12    4.10    6.20
  -3  -2  12  159.48   13.60
   3  -2 -12  155.08   13.50
  -3  -2  12  162.78   14.40
   3   2 -12  173.98   15.00
  -3   2  12  150.98   11.90
  -3   2  12  154.98   12.70
  -2  -2  12  207.98   15.20
   2  -2 -12  212.38   15.00
  -2  -2  12  190.78   14.40
  -2   2  12  222.38   13.90
   2   2 -12  217.38   15.40
  -2   2  12  177.08   13.30
  -1  -2  12  203.38   14.30
  -1  -2  12  220.68   14.90
   1   2 -12  177.58   14.60
  -1   2  12  192.28   13.40
  -1   2  12  185.28   13.30
   0  -2  12   51.59    9.20
   0  -2  12   65.19   10.30
   0   2  12   54.39    8.50
   0   2 -12   61.99    9.70
   0   2  12   46.10    8.70
   1  -2  12   28.60    7.80
   1  -2  12   39.40    8.30
   1   2  12   35.70    8.40
   1   2  12   38.90    8.40
  -1   2 -12   24.10    7.30
   2  -2  12   35.20    8.70
   2  -2  12   32.80    7.50
  -2   2 -12   49.00    9.00
   2   2  12   37.30    8.60
   2   2  12   48.50    9.40
   3  -2  12  216.08   14.50
   3  -2  12  224.88   14.70
   3   2  12  241.08   15.90
  -3   2 -12  196.48   14.60
   3   2  12  234.38   16.20
   4  -2  12   79.69   10.30
   4   2  12  108.19   13.30
   4   2  12  108.89   12.50
  -4   2 -12  110.99   11.70
   5  -2  12  125.49   13.10
   5   2  12  129.89   13.40
   5   2  12   98.29   13.50
   6  -2  12    3.20    6.60
   6   2  12    8.70    7.80
   7  -2  12   50.59    9.50
   7   2  12   37.50   10.80
  -7  -3  12   66.39   13.00
  -7   3  12   59.79    9.10
   7   3 -12   50.59   12.90
  -6  -3  12   25.10   10.50
  -6  -3  12    9.50    7.60
   6   3 -12    6.70    9.00
  -6   3  12   26.60    7.40
  -5  -3  12   -2.60    6.50
  -5  -3  12   -3.10    7.60
   5   3 -12   -2.40    7.40
  -5   3  12   -4.90    4.90
  -4  -3  12   68.79   11.70
  -4  -3  12   59.29   10.20
  -4   3  12   91.39   10.80
   4   3 -12   67.69   11.70
  -3  -3  12  135.59   14.30
  -3  -3  12  141.69   13.80
  -3   3  12  150.48   12.80
   3   3 -12  145.89   15.20
  -2  -3  12   33.40    8.90
  -2  -3  12   22.10    7.90
  -2   3  12   28.40    7.70
  -2   3  12   34.50    8.10
   2   3 -12   28.40    8.50
  -1  -3  12  168.48   14.40
  -1  -3  12  166.78   14.00
  -1   3  12  169.38   13.60
   1   3 -12  193.38   15.60
  -1   3  12  183.58   13.80
   0  -3  12   63.29   10.00
   0  -3  12   74.39   10.70
   0   3 -12   49.20    9.60
   0   3  12   45.60    8.30
   0   3  12   58.89   10.00
   1  -3  12   37.40    8.80
   1  -3  12   47.80    9.50
  -1   3 -12   33.00    8.40
   1   3  12   35.80    8.40
   1   3  12   53.19    9.50
   2  -3  12   25.30    7.60
   2  -3  12   19.50    6.80
  -2   3 -12   13.80    7.00
   2   3  12    4.40    7.20
   2   3  12    7.40    6.80
   3  -3  12   13.30    6.90
   3  -3  12   14.00    6.80
  -3   3 -12   11.50    6.30
   3   3  12   19.70    7.80
   3   3  12   15.70    7.10
   4  -3  12  137.49   13.40
   4   3  12  116.69   13.50
   4   3  12  138.29   15.20
   5  -3  12   79.19   10.80
   5   3  12   54.69   10.90
   5   3  12   80.39   12.10
   6  -3  12   91.39   11.90
   6   3  12   72.79   13.00
   6   3  12  100.29   13.60
  -6  -4  12   32.70   10.60
  -6  -4  12   44.30   13.50
   6   4 -12   25.50   11.20
  -6   4  12   30.10    7.60
  -5  -4  12   23.50    9.40
  -5  -4  12    9.50    9.50
  -5   4  12   39.20    8.60
   5   4 -12    6.60    9.10
  -4  -4  12   16.00    8.50
  -4  -4  12   13.70    9.00
  -4   4  12   16.10    7.50
   4   4 -12   18.20    9.20
  -3  -4  12   29.30   10.30
  -3  -4  12    5.20    7.00
   3   4 -12    5.20    7.20
  -3   4  12   12.10    7.00
  -2  -4  12   14.80    8.10
  -2  -4  12   31.30   10.10
   2   4 -12    0.20    7.10
  -2   4  12   15.40    7.30
  -1  -4  12   17.40    7.90
  -1  -4  12   22.50    8.20
  -1   4  12   24.80    8.20
  -1   4  12   13.00    6.80
   1   4 -12   28.70    8.80
   0  -4  12   66.89   11.00
   0  -4  12   24.50    8.10
   0   4 -12   53.39   10.10
   0   4  12   54.19   10.10
   0   4  12   53.39    9.60
   1  -4  12   17.00    7.60
   1  -4  12   42.20    8.90
   1   4  12   32.10    8.50
  -1   4 -12   22.70    8.00
   1   4  12   28.20    8.00
   2  -4  12   45.20    8.90
   2  -4  12   52.59   10.20
   2   4  12   44.50    9.90
  -2   4 -12   30.40    8.00
   2   4  12   27.00    8.50
   3  -4  12   12.50    7.60
   3   4  12    0.70    7.00
   3   4  12    1.00    7.50
   4  -4  12   13.50    7.40
   4   4  12   17.50    8.60
   4   4  12   16.40    9.10
   5  -4  12  150.48   13.80
   5   4  12   88.79   12.90
   5   4  12  105.69   14.40
  -5  -5  12   -8.70    8.10
  -5  -5  12    7.00   11.20
   5   5 -12  -13.90    8.90
  -5   5  12    2.00    5.80
  -4  -5  12   20.50   10.30
  -4  -5  12   24.50   10.50
  -4   5  12   31.30    7.80
   4   5 -12   19.00   10.10
  -3  -5  12   34.20   11.30
  -3  -5  12   21.90    9.70
   3   5 -12   30.20   10.30
  -3   5  12   44.80    9.30
  -2  -5  12   11.70    9.30
  -2  -5  12   33.00    9.60
   2   5 -12   20.20    9.40
  -2   5  12   17.90    7.70
  -1  -5  12   23.80    8.70
  -1  -5  12   39.10   11.00
   1   5 -12   17.50    8.50
  -1   5  12   37.40    9.60
   0  -5  12   67.09   11.10
   0  -5  12   89.69   12.80
   0   5 -12   48.10    9.70
   0   5  12   33.60    9.40
   0   5  12   43.40    9.70
   1  -5  12    0.50    6.80
   1   5  12    0.90    7.20
   1   5  12    4.10    7.50
   2  -5  12    7.10    6.80
   2   5  12   10.80    8.70
   2   5  12  -11.60    6.40
   3  -5  12   30.30    8.50
   3   5  12   30.80    9.30
   3   5  12   53.09   11.40
   4  -5  12    6.50    7.50
   4   5  12   16.40    9.80
   4   5  12    5.10    7.90
   3   6 -12  -16.20    7.70
  -2  -6  12   11.10    9.80
  -2  -6  12    9.20   10.60
   2   6 -12   -6.40    7.50
  -2   6  12    8.90    8.30
  -1  -6  12   33.30   10.40
   1   6 -12   30.20    9.70
  -1   6  12   12.10    8.60
   0  -6  12    1.00    7.50
   0   6  12    2.30    8.40
   1  -6  12   97.49   14.70
   1   6  12   88.89   14.80
  -7   0  13    6.90    7.30
   7   0 -13   15.60    8.30
  -6   0  13   31.00    8.90
   6   0 -13   39.20    9.70
   5   0 -13   92.59   12.80
  -5   0  13  105.19   13.20
   4   0 -13  224.38   16.40
  -4   0  13  191.98   13.80
  -4   0  13  196.08   15.00
   3   0 -13   18.00    8.10
  -3   0  13   -6.60    5.50
  -3   0  13    1.60    6.30
  -2   0  13    3.90    5.70
  -2   0  13    4.50    6.20
   2   0 -13    5.30    6.90
   1   0 -13  495.45   23.20
  -1   0  13  524.65   22.20
  -1   0  13  462.05   20.60
   0   0  13   -5.00    5.50
   0   0  13    2.60    6.20
   0   0 -13   -0.20    5.40
   1   0  13   15.30    6.40
   1   0  13   25.70    7.40
  -1   0 -13   18.10    6.90
   2   0  13  289.97   16.60
  -2   0 -13  276.87   17.50
   2   0  13  294.37   16.70
   3   0  13    5.30    7.30
   3   0  13    9.40    6.70
   4   0  13   11.10    6.90
   4   0  13    9.00    6.70
   5   0  13   23.20    8.40
   6   0  13   18.70    7.80
   7   0  13   -1.40    8.00
  -7  -1  13    2.80    7.50
   7  -1 -13   14.20    7.60
   7   1 -13   15.40    8.90
  -7   1  13   16.20    7.40
  -6  -1  13  109.79   14.10
   6  -1 -13  121.19   14.20
  -6   1  13  111.39   12.70
   6   1 -13   90.69   13.40
  -5  -1  13  246.98   16.10
   5  -1 -13  273.17   18.30
  -5  -1  13  251.67   17.50
  -5   1  13  270.87   16.70
   5   1 -13  271.47   18.80
  -4  -1  13   29.60    8.00
   4  -1 -13   12.80    7.50
  -4  -1  13   10.30    7.70
  -4   1  13   29.90    7.50
  -4   1  13    5.60    6.40
   4   1 -13   24.70    9.00
   3  -1 -13  296.97   18.20
  -3  -1  13  345.97   18.00
  -3  -1  13  287.87   17.40
  -3   1  13  286.87   16.30
  -3   1  13  302.27   17.30
   3   1 -13  302.07   18.80
  -2  -1  13   62.79   10.00
  -2  -1  13   43.70    8.80
   2  -1 -13   49.60    9.30
  -2   1  13   36.20    7.90
   2   1 -13   60.69   10.60
  -2   1  13   52.89    9.00
  -1  -1  13   66.79   10.60
   1  -1 -13   33.70    8.80
  -1  -1  13   42.60    8.50
  -1   1  13   57.99   10.20
   1   1 -13   31.80    8.30
  -1   1  13   43.30    8.60
   0  -1  13  145.49   13.00
   0  -1 -13  140.69   13.50
   0  -1  13  122.89   12.60
   0   1  13  128.99   12.70
   0   1 -13  144.69   13.70
   0   1  13  130.09   12.60
  -1  -1 -13  290.77   17.80
   1  -1  13  306.87   17.30
   1  -1  13  328.57   18.00
   1   1  13  332.87   17.50
   1   1  13  321.87   17.50
  -1   1 -13  314.27   18.30
   2  -1  13  532.55   22.60
   2  -1  13  547.05   22.70
  -2   1 -13  552.54   24.20
   2   1  13  512.85   22.70
   2   1  13  469.35   22.40
   3  -1  13   21.20    7.50
   3  -1  13   17.10    7.30
   3   1  13   22.40    7.80
  -3   1 -13   13.30    6.80
   3   1  13   26.30    8.30
   4  -1  13  141.69   12.80
   4  -1  13  124.39   13.40
   4   1  13  127.99   13.60
   4   1  13  137.89   13.80
   5  -1  13   67.49   10.80
   5   1  13   52.39   10.10
   5   1  13   33.20    8.40
   6  -1  13   29.80    8.90
   6   1  13   34.20    9.20
   7  -1  13   15.10    8.70
   7   1  13   19.80   10.20
  -7  -2  13   13.90    9.90
   7  -2 -13   15.00    6.90
  -7   2  13   11.60    7.20
   7   2 -13    9.10    9.90
  -6  -2  13    1.80    8.70
   6  -2 -13    2.90    6.30
  -6   2  13    6.40    6.70
   6   2 -13   13.10    8.90
   5  -2 -13   37.50    8.70
  -5  -2  13   38.40   10.70
  -5  -2  13   46.20    9.70
  -5   2  13   40.10    8.30
   5   2 -13   49.30   10.80
  -4  -2  13   33.60    8.90
   4  -2 -13   44.00    9.70
  -4  -2  13   36.20   10.20
  -4   2  13   26.60    7.40
   4   2 -13   33.50    9.10
   3  -2 -13   74.49   11.30
  -3  -2  13   88.49   11.90
  -3  -2  13   65.79   10.40
  -3   2  13   69.39   10.70
   3   2 -13   72.29   11.50
  -3   2  13   60.09    8.90
   2  -2 -13   43.00    9.50
  -2  -2  13   58.09   10.60
  -2  -2  13   48.70    9.00
  -2   2  13   40.60    8.70
  -2   2  13   35.10    7.50
   2   2 -13   37.40    8.90
  -1  -2  13  266.07   16.40
  -1  -2  13  269.67   16.80
   1   2 -13  251.67   17.40
  -1   2  13  225.08   15.10
  -1   2  13  235.28   15.50
   0  -2  13  292.07   17.20
   0  -2  13  296.47   17.30
   0   2 -13  263.17   17.10
   0   2  13  305.27   17.40
   0   2  13  275.27   16.20
   1  -2  13   14.90    7.30
   1  -2  13    3.80    6.30
   1   2  13   12.70    7.10
   1   2  13    9.50    6.70
  -1   2 -13   11.60    6.60
   2  -2  13   48.50    9.40
   2  -2  13   49.50    8.90
  -2   2 -13   44.20    8.90
   2   2  13   37.60    9.10
   2   2  13   50.79   10.00
   3  -2  13  171.98   13.90
   3  -2  13  171.68   13.80
   3   2  13  167.88   14.40
   3   2  13  191.08   15.20
  -3   2 -13  151.98   13.90
   4  -2  13   22.30    8.10
   4   2  13   16.30    7.80
   4   2  13   16.00    7.90
   5  -2  13   29.00    8.80
   5   2  13   20.60    8.60
   5   2  13   30.40    8.80
   6  -2  13  110.39   13.10
   6   2  13   80.49   12.30
  -6  -3  13   -3.60    9.10
  -6   3  13    1.50    6.00
   6   3 -13    5.50    8.80
  -5  -3  13   34.00   10.90
  -5  -3  13   34.70   10.00
  -5   3  13   43.50    8.30
   5   3 -13   51.19   11.70
  -4  -3  13   38.50    9.50
  -4  -3  13   43.20   11.30
  -4   3  13   40.10    8.50
   4   3 -13   38.40   11.30
  -3  -3  13    7.70    7.50
  -3  -3  13   12.20    7.50
   3   3 -13    3.00    7.30
  -3   3  13    5.80    6.40
  -2  -3  13  158.28   14.70
  -2  -3  13  152.58   15.20
  -2   3  13  138.19   13.30
   2   3 -13  145.19   15.30
  -2   3  13  148.69   13.00
  -1  -3  13  232.48   16.40
  -1  -3  13  188.48   15.70
  -1   3  13  227.08   15.80
  -1   3  13  212.48   15.40
   1   3 -13  155.08   15.50
   0  -3  13   11.40    7.70
   0  -3  13    5.30    7.30
   0   3 -13    9.90    6.80
   0   3  13    1.10    6.80
   0   3  13   13.60    7.90
   1  -3  13   50.09    9.60
   1  -3  13   30.40    8.80
   1   3  13   31.80    8.30
  -1   3 -13   28.00    8.30
   1   3  13   36.80    8.90
   2  -3  13  181.98   13.80
   2  -3  13  152.48   13.80
   2   3  13  168.58   15.00
  -2   3 -13  155.98   14.50
   2   3  13  156.08   14.80
   3  -3  13   10.90    7.70
   3   3  13   10.80    7.90
   3   3  13   10.60    7.90
   4  -3  13    1.90    6.80
   4   3  13   10.40    7.90
   4   3  13    4.70    7.70
   5  -3  13  107.09   13.10
   5   3  13   64.99   11.50
   5   3  13   79.99   12.80
   6  -3  13   29.20    8.90
   6   3  13   25.30    9.90
   6   4 -13   17.50   11.10
  -5  -4  13   -4.80    9.60
  -5  -4  13    6.00    7.80
   5   4 -13   -5.00    8.50
  -5   4  13    8.60    6.50
  -4  -4  13    7.70    8.70
  -4  -4  13   -4.80    8.70
  -4   4  13   15.20    7.20
   4   4 -13    9.50    8.50
  -3  -4  13   50.39   11.10
  -3  -4  13   70.39   12.40
  -3   4  13   40.20    9.10
   3   4 -13   42.60   11.10
  -2  -4  13   17.70    9.10
  -2  -4  13   34.50    9.90
  -2   4  13   22.00    8.30
   2   4 -13   18.60    8.50
  -1  -4  13   59.89   11.30
  -1  -4  13   71.19   11.90
   1   4 -13   43.40    9.70
  -1   4  13   50.79   11.10
  -1   4  13   37.60    8.40
   0  -4  13   43.30   10.30
   0  -4  13   32.10    8.90
   0   4  13   25.20    7.70
   0   4  13    8.70    7.90
   0   4 -13   37.00    9.40
   1  -4  13   18.80    8.00
   1  -4  13   22.40    8.40
   1   4  13   26.30    8.80
  -1   4 -13   22.10    8.20
   1   4  13    8.80    7.30
   2  -4  13   10.70    7.60
   2   4  13   -6.60    6.30
   2   4  13    1.50    7.40
   3  -4  13   39.00    9.30
   3   4  13   28.60    9.00
   3   4  13   25.70    9.80
   4  -4  13    9.70    7.90
   4   4  13    5.00    8.40
   4   4  13   28.00   10.00
   5  -4  13   10.00    7.60
   5   4  13   -4.90    7.90
   5   4  13   11.60   10.10
  -4  -5  13   22.60   10.90
  -4  -5  13   21.20   10.20
  -4   5  13   27.00    8.70
   4   5 -13   18.20   11.00
  -3  -5  13   52.79   12.90
  -3  -5  13   37.20   12.20
  -3   5  13   39.10    9.00
   3   5 -13   23.90   10.20
  -2  -5  13  177.08   17.20
  -2  -5  13  144.29   16.60
  -2   5  13  179.78   15.90
  -1  -5  13   26.20    9.90
  -1  -5  13   29.40    9.80
  -1   5  13   13.80    8.30
   1   5 -13    3.90    7.30
   0  -5  13   36.30   10.40
   0  -5  13   41.70   10.70
   0   5 -13   23.10    8.60
   0   5  13   30.60    8.80
   0   5  13   26.40   10.00
   1  -5  13   10.50    7.50
   1   5  13   15.70    8.50
   1   5  13   -6.80    7.50
   2  -5  13    1.10    7.20
   2   5  13   10.10    8.20
   2   5  13   10.50    8.90
   3  -5  13    4.00    8.40
   3   5  13   20.20   10.90
   3   5  13   16.60    9.20
   1   6 -13    0.90    8.40
  -7   0  14   12.70    8.50
   7   0 -14    5.00    9.00
  -6   0  14   42.10   10.10
   6   0 -14   48.20   11.20
  -5   0  14   96.49   12.40
   5   0 -14   95.49   13.00
   4   0 -14  111.69   14.10
  -4   0  14  108.49   14.00
  -4   0  14   97.49   12.20
  -3   0  14  128.19   13.30
   3   0 -14  126.39   14.30
  -3   0  14  134.89   12.90
  -2   0  14   65.09   10.20
   2   0 -14   40.40   10.10
  -2   0  14   38.30    8.80
  -1   0  14   61.59   10.10
   1   0 -14   74.49   11.20
  -1   0  14   78.49   10.60
   0   0  14   40.60    9.10
   0   0 -14   48.90    9.70
   0   0  14   34.20    8.80
  -1   0 -14   53.39    9.70
   1   0  14   57.69    9.80
   1   0  14   50.79    9.90
   2   0  14  111.29   13.20
   2   0  14  100.09   12.80
  -2   0 -14  109.69   12.40
   3   0  14   93.09   12.20
   3   0  14  114.79   13.10
   4   0  14   12.20    7.90
   4   0  14   24.70    8.20
   5   0  14   53.69   10.70
   6   0  14   47.90   11.20
   7  -1 -14   36.80   10.10
  -7  -1  14   17.60   10.20
  -7   1  14   29.10    8.80
   7   1 -14   18.50   10.80
   6  -1 -14   39.00    9.90
  -6  -1  14   47.10   11.20
  -6   1  14   57.39   10.80
   6   1 -14   44.70   10.80
   5  -1 -14   -4.70    7.40
  -5  -1  14   13.30    8.70
   5   1 -14    5.30    8.30
  -5   1  14    1.30    6.70
   4  -1 -14   71.89   11.10
  -4  -1  14   62.29   10.30
  -4  -1  14   60.79   11.20
   4   1 -14   50.39   11.30
  -4   1  14   54.89   10.10
  -3  -1  14   21.50    8.10
   3  -1 -14   11.90    7.00
  -3  -1  14   33.70    8.80
   3   1 -14    9.10    7.80
  -3   1  14   22.40    7.60
  -3   1  14   16.50    7.40
  -2  -1  14   65.89   11.10
   2  -1 -14   64.09   11.40
  -2  -1  14   45.30    9.30
  -2   1  14   75.59   10.90
  -2   1  14   50.99    9.40
   2   1 -14   69.49   11.70
  -1  -1  14   82.19   11.00
   1  -1 -14   85.89   12.30
  -1  -1  14   78.19   10.80
  -1   1  14   87.79   11.40
  -1   1  14  103.79   12.30
   1   1 -14   94.89   13.20
   0  -1 -14   43.90    9.70
   0  -1  14   34.70    8.60
   0  -1  14   13.80    7.30
   0   1 -14   26.70    7.80
   0   1  14   27.50    8.10
   0   1  14   26.30    7.80
   1  -1  14  210.08   15.60
   1  -1  14  196.28   15.30
   1   1  14  221.48   16.10
   1   1  14  185.58   14.80
  -1   1 -14  206.38   15.70
   2  -1  14   34.90    8.30
   2  -1  14   46.60    9.90
  -2   1 -14   41.20    9.30
   2   1  14   45.60    9.40
   2   1  14   45.60    9.50
   3  -1  14   32.00    8.50
   3  -1  14   54.29    9.80
   3   1  14   46.40    9.80
  -3   1 -14   30.60    8.00
   3   1  14   42.40    9.40
   4  -1  14   49.50    9.60
   4  -1  14   42.30   10.30
   4   1  14   41.70   10.10
   4   1  14   52.79   10.50
   5  -1  14   10.30    7.60
   5   1  14   16.70    8.40
   5   1  14    2.90    7.10
   6  -1  14   -2.50    7.20
   6   1  14    6.40    8.60
   6  -2 -14   22.10    8.10
  -6  -2  14   23.90   10.20
   6   2 -14   16.10    9.90
  -6   2  14   23.70    8.30
  -5  -2  14   44.10   12.00
  -5  -2  14   50.59   10.50
   5  -2 -14   33.80    9.70
   5   2 -14   35.10   11.00
  -5   2  14   34.60    8.30
   4  -2 -14    6.80    7.60
  -4  -2  14    8.30    8.60
  -4  -2  14   13.50    7.80
   4   2 -14   -3.30    7.60
  -4   2  14    4.00    6.60
   3  -2 -14   71.49   11.60
  -3  -2  14   68.69   11.10
  -3  -2  14   71.79   11.90
  -3   2  14   67.19   10.20
  -3   2  14   63.49   10.70
   3   2 -14   88.49   13.30
  -2  -2  14  107.59   13.60
   2  -2 -14  123.69   13.90
  -2  -2  14  146.79   14.20
  -2   2  14  120.29   13.10
  -2   2  14  122.39   12.70
   2   2 -14  106.09   13.40
  -1  -2  14   45.60    9.60
  -1  -2  14   47.30    9.60
  -1   2  14   50.59    9.80
   1   2 -14   40.50    9.70
  -1   2  14   40.30    8.70
   0  -2  14   -1.70    6.20
   0  -2  14    6.40    7.50
   0   2 -14    4.10    7.10
   0   2  14   -1.10    6.50
   0   2  14    3.90    6.70
   1  -2  14   75.69   11.40
   1  -2  14   59.29   10.10
   1   2  14   69.09   10.60
   1   2  14   86.59   11.80
  -1   2 -14   57.79   10.50
   2  -2  14   55.99   10.10
   2  -2  14   64.49   10.00
   2   2  14   48.20    9.50
  -2   2 -14   63.59   10.30
   2   2  14   61.79   11.10
   3  -2  14    5.70    6.80
   3  -2  14    3.60    7.20
  -3   2 -14   10.50    6.50
   3   2  14    9.40    7.50
   3   2  14    5.70    7.80
   4  -2  14   59.29   11.40
   4   2  14   35.40    9.30
   4   2  14   61.09   11.90
   5  -2  14   92.39   12.30
   5   2  14   62.89   12.60
   5   2  14   66.59   11.20
   6  -2  14   22.20    9.00
   6   2  14    5.80    9.30
  -6  -3  14    6.20   10.50
   6   3 -14   19.90   11.00
  -6   3  14   25.70    8.20
  -5  -3  14   10.80    8.70
  -5  -3  14   20.60   11.70
   5   3 -14   -6.70    7.50
  -5   3  14   10.00    6.70
  -4  -3  14   19.70    8.60
  -4  -3  14   -3.40    8.40
   4   3 -14   -5.40    7.50
  -4   3  14    3.90    6.60
  -3  -3  14   34.50   10.60
  -3  -3  14   33.50    9.70
   3   3 -14   28.20    9.50
  -3   3  14   41.70    9.00
  -2  -3  14    9.80    8.30
  -2  -3  14   13.50    8.20
  -2   3  14    3.70    7.30
   2   3 -14    3.30    7.60
  -2   3  14    5.80    6.10
  -1  -3  14   74.49   12.50
  -1  -3  14   77.79   11.80
   1   3 -14   62.39   11.40
  -1   3  14   58.09    9.70
  -1   3  14   77.79   11.10
   0  -3  14  172.78   15.30
   0  -3  14  151.68   14.80
   0   3  14  154.48   14.60
   0   3  14  181.78   15.50
   0   3 -14  159.08   15.50
   1  -3  14    6.90    7.40
   1  -3  14    4.40    6.40
  -1   3 -14    2.30    6.00
   1   3  14    4.40    6.50
   1   3  14    7.70    7.80
   2  -3  14   11.70    7.00
   2  -3  14    6.10    7.00
  -2   3 -14   13.20    7.40
   2   3  14   -8.10    6.10
   2   3  14    0.90    7.00
   3  -3  14   80.29   11.50
   3   3  14   65.49   11.10
   3   3  14   76.19   11.60
   4  -3  14   19.80    8.20
   4   3  14   -0.90    6.40
   4   3  14    4.00    8.30
   5  -3  14   31.60    9.50
   5   3  14   20.40    8.80
   5   3  14   10.20    9.40
   5   4 -14   12.80   11.00
  -4  -4  14   -1.80    9.70
  -4  -4  14   -3.30    8.00
   4   4 -14   17.80   10.10
  -4   4  14    3.60    7.10
  -3  -4  14    4.30    8.60
  -3  -4  14   17.70    9.10
  -3   4  14   10.90    7.90
   3   4 -14   12.80    9.70
  -2  -4  14   91.69   13.40
  -2  -4  14   85.79   13.30
   2   4 -14   72.09   12.20
  -2   4  14   70.29   11.90
  -1  -4  14   65.29   12.40
  -1  -4  14   42.20   10.60
   1   4 -14   32.80    9.00
  -1   4  14   47.30   10.60
  -1   4  14   36.50   10.80
   0  -4  14    2.80    7.00
   0  -4  14   16.10    8.80
   0   4  14    4.00    7.40
   0   4 -14    5.20    6.70
   0   4  14   -4.50    6.50
   1  -4  14   82.69   12.70
   1  -4  14   54.99   10.50
  -1   4 -14   39.20    9.80
   1   4  14   54.99   11.00
   1   4  14   50.79   11.10
   2  -4  14   56.99   10.50
   2   4  14   56.79   11.00
   2   4  14   50.49   10.00
   3  -4  14   -0.10    7.00
   3   4  14   -3.60    7.60
   3   4  14    7.00    8.00
   4  -4  14   67.49   11.60
   4   4  14   39.00   10.90
   4   4  14   51.89   10.80
   3   5 -14   27.30    9.80
  -2  -5  14    9.10    9.40
  -2  -5  14    4.20    9.60
  -2   5  14   10.10    7.90
   2   5 -14   -4.70    7.70
  -1  -5  14   36.50   11.00
  -1  -5  14   45.70   12.10
   1   5 -14   17.40    9.10
  -1   5  14   25.30    9.20
   0  -5  14   55.49   12.40
   0   5  14   60.59   12.50
   0   5 -14   25.40    9.40
   1  -5  14   11.60    7.90
   1   5  14   -2.70    8.30
   1   5  14    7.00    8.00
   2  -5  14   31.40   10.20
   2   5  14   20.80    9.30
   2   5  14   21.60   10.60
  -6   0  15   66.99   11.70
   6   0 -15   59.59   12.50
   5   0 -15   17.30    9.10
  -5   0  15   -1.40    7.40
   4   0 -15   58.49   11.20
  -4   0  15   36.70    9.50
  -4   0  15   56.89   10.10
  -3   0  15  160.78   14.90
   3   0 -15  162.68   16.50
  -3   0  15  178.38   15.50
   2   0 -15   19.10    8.20
  -2   0  15   36.90    9.00
  -2   0  15   44.30   10.30
   1   0 -15   -5.30    5.90
  -1   0  15   -1.20    6.40
  -1   0  15   -5.60    6.00
   0   0  15   42.90   10.00
   0   0  15   47.50    9.60
   0   0 -15   40.60    9.80
  -1   0 -15  213.78   17.20
   1   0  15  203.98   16.40
   1   0  15  210.48   16.00
  -2   0 -15    2.00    7.10
   2   0  15   -4.40    6.80
   2   0  15    9.90    7.40
   3   0  15   21.40    8.70
   3   0  15   25.70    8.80
   4   0  15  116.89   14.50
   4   0  15  127.69   14.00
   5   0  15   16.90    8.70
   6  -1 -15   20.60    9.40
  -6  -1  15   13.60    9.60
  -6   1  15    4.10    7.90
   6   1 -15   19.50   10.70
   5  -1 -15   67.59   12.10
  -5  -1  15   52.39   11.10
  -5   1  15   76.69   12.60
   5   1 -15   70.59   13.20
  -4  -1  15   35.60    9.20
  -4  -1  15   36.20   10.50
   4  -1 -15   40.70   10.00
   4   1 -15   16.20    9.80
  -4   1  15   42.70   10.60
   3  -1 -15   19.10    8.60
  -3  -1  15    8.60    7.50
  -3  -1  15   21.60    8.00
  -3   1  15   11.60    7.00
  -3   1  15   16.50    8.00
   3   1 -15   -1.70    8.50
  -2  -1  15   -2.40    6.70
  -2  -1  15   -5.40    6.60
   2  -1 -15    4.90    7.80
   2   1 -15    3.30    7.10
  -2   1  15    3.00    6.90
  -2   1  15    5.20    6.90
  -1  -1  15  123.69   14.00
  -1  -1  15  120.59   14.10
   1  -1 -15  135.09   14.90
   1   1 -15  130.59   14.10
  -1   1  15  145.99   13.80
  -1   1  15  138.29   14.10
   0  -1  15    9.10    7.80
   0  -1 -15   -5.30    6.30
   0  -1  15    8.40    7.70
   0   1  15   -3.50    6.60
   0   1  15   -3.70    6.70
   0   1 -15    0.90    7.40
   1  -1  15  106.39   13.30
   1  -1  15  129.09   13.80
   1   1  15   81.59   11.90
   1   1  15   97.69   13.10
  -1   1 -15  114.69   14.10
   2  -1  15   79.79   11.50
   2  -1  15   95.19   12.90
  -2   1 -15  126.89   14.50
   2   1  15   64.99   11.50
   2   1  15   98.99   13.20
   3  -1  15   45.10    9.50
   3  -1  15   49.40   10.40
  -3   1 -15   55.49   10.90
   3   1  15   41.90    9.70
   3   1  15   59.89   10.40
   4  -1  15   27.10    8.90
   4   1  15   14.70    8.30
   4   1  15   19.80    8.70
   5  -1  15    9.90    8.40
   5   1  15   -2.20    7.20
   6  -2 -15   63.79   11.70
  -6  -2  15   68.79   13.60
   6   2 -15   32.80   11.40
  -6   2  15   65.39   11.50
  -5  -2  15   13.40   10.10
  -5  -2  15   -1.60    7.80
   5  -2 -15    7.10    7.50
   5   2 -15   12.10    9.30
  -5   2  15   10.50    7.60
  -4  -2  15  112.49   14.00
   4  -2 -15  121.59   15.10
  -4  -2  15  100.59   14.40
   4   2 -15   85.09   13.40
  -4   2  15   98.49   12.90
  -3  -2  15  129.29   14.30
  -3  -2  15  109.99   14.10
   3  -2 -15  149.39   15.80
   3   2 -15  102.99   14.20
  -3   2  15   75.69   11.00
  -2  -2  15    4.20    7.00
  -2  -2  15    0.80    7.70
   2   2 -15    3.30    7.20
  -2   2  15   14.70    7.80
  -2   2  15   13.40    7.60
  -1  -2  15   78.39   11.90
  -1  -2  15   86.09   13.00
  -1   2  15  115.89   13.00
   1   2 -15   80.99   12.40
  -1   2  15   73.89   11.50
   0  -2  15   81.49   12.70
   0  -2  15   58.69   10.40
   0   2  15   81.59   11.90
   0   2  15   71.59   11.10
   0   2 -15   57.19   11.30
   1  -2  15   43.10   10.30
   1  -2  15   53.29   10.60
   1   2  15   58.69   10.90
   1   2  15   57.59   11.30
  -1   2 -15   39.80    9.40
   2  -2  15   28.90    9.00
   2  -2  15   46.20   10.10
   2   2  15   21.80    8.60
   2   2  15   21.60    9.10
  -2   2 -15   35.90    9.30
   3  -2  15  114.69   13.70
   3  -2  15   92.19   13.80
   3   2  15   74.19   12.00
   3   2  15   76.49   12.30
  -3   2 -15  127.89   13.90
   4  -2  15   42.60   10.00
   4   2  15   32.60   10.30
   4   2  15   44.00   11.00
   5  -2  15    9.00    8.90
   5   2  15   -6.30    6.20
   5   2  15    3.70    8.60
  -5  -3  15    6.20    8.10
  -5  -3  15   -9.10    9.10
  -5   3  15    1.90    7.60
   5   3 -15    3.30    8.90
  -4  -3  15   21.40   10.00
  -4  -3  15   13.70    9.40
  -4   3  15   33.40    9.20
   4   3 -15   15.90    9.70
  -3  -3  15   -0.40    8.80
  -3  -3  15    3.20    8.10
   3   3 -15   10.00    8.10
  -3   3  15    2.00    7.40
  -2  -3  15  165.88   16.70
  -2  -3  15  170.78   16.40
   2   3 -15  133.49   16.50
  -2   3  15  153.28   15.20
  -1  -3  15   19.50    8.90
  -1  -3  15   12.50    9.10
   1   3 -15   13.20    8.30
  -1   3  15   10.90    8.00
  -1   3  15   15.60    7.80
   0  -3  15   18.90    9.00
   0  -3  15   -2.60    7.00
   0   3  15    5.00    7.50
   0   3 -15    2.40    7.30
   0   3  15   -5.80    6.50
   1  -3  15  104.99   14.10
   1  -3  15   81.79   12.20
  -1   3 -15   86.79   13.10
   1   3  15  119.39   14.00
   1   3  15  125.39   14.80
   2  -3  15   11.90    8.10
   2  -3  15   -1.10    6.70
   2   3  15    6.30    7.50
  -2   3 -15    1.40    6.70
   2   3  15    7.10    8.40
   3  -3  15   17.20    8.60
   3   3  15    2.00    7.60
   3   3  15    3.60    8.20
   4  -3  15   38.80    9.90
   4   3  15   69.29   13.10
   4   3  15   23.50    9.50
   4   4 -15    3.40   10.00
  -3  -4  15    7.50    9.50
  -3  -4  15   20.50    9.40
  -3   4  15   14.90    8.80
   3   4 -15   18.50    9.90
  -2  -4  15    3.70    8.20
  -2  -4  15   -3.30    7.70
  -2   4  15   -1.10    7.30
   2   4 -15    5.50    7.80
  -1  -4  15   20.80    9.90
  -1  -4  15   31.30   11.40
   1   4 -15   14.70    8.70
  -1   4  15   34.00   10.20
   0  -4  15   50.39   10.70
   0  -4  15   61.39   12.60
   0   4  15   55.49   12.10
   0   4 -15   34.10    9.50
   0   4  15   49.60   10.10
   1  -4  15   12.10    8.10
  -1   4 -15   17.50    8.40
   1   4  15   13.30    9.60
   1   4  15   15.40    8.60
   2  -4  15   -1.40    7.20
   2   4  15   13.00    9.20
   2   4  15   10.50    9.00
   3  -4  15   76.99   13.00
   3   4  15   60.19   11.40
   3   4  15   79.39   13.50
   1   5 -15   -4.80    6.60
   6   0 -16   14.00   10.40
  -5   0  16  173.38   17.00
   5   0 -16  219.28   20.30
  -4   0  16  173.18   16.50
   4   0 -16  137.39   16.30
  -3   0  16   14.00    8.00
  -3   0  16  -10.00    7.20
   3   0 -16   -3.50    7.70
  -2   0  16   57.79   10.70
   2   0 -16   75.79   12.70
  -2   0  16   82.49   11.70
  -1   0  16  122.59   14.40
   1   0 -16  119.29   14.50
  -1   0  16   89.19   12.50
   0   0  16   12.70    7.70
   0   0 -16   14.00    8.30
   0   0  16    6.70    8.00
   1   0  16   11.40    8.40
   1   0  16    5.10    7.90
  -1   0 -16   24.30    9.20
   2   0  16   17.10    8.30
   2   0  16   37.70    9.40
  -2   0 -16   57.19   11.40
   3   0  16   19.70    8.20
   3   0  16    0.90    7.80
   4   0  16   -4.00    6.90
   5   0  16    0.50    8.60
   5  -1 -16   16.70   10.10
  -5  -1  16    5.20    8.50
   5   1 -16   12.70   10.40
  -5   1  16    7.10    8.50
  -4  -1  16   22.70    8.70
  -4  -1  16   42.00   10.60
   4  -1 -16   31.80    9.80
   4   1 -16   46.20   11.60
  -4   1  16   55.09   11.30
   3  -1 -16   88.89   13.30
  -3  -1  16   62.59   11.50
  -3  -1  16   60.49   11.70
  -3   1  16   66.09   11.60
  -3   1  16   90.99   12.00
   3   1 -16   81.19   13.10
  -2  -1  16    7.90    7.50
  -2  -1  16   10.20    8.30
   2  -1 -16   15.90    9.40
   2   1 -16   11.80    8.80
  -2   1  16   14.40    7.80
  -2   1  16   -0.60    7.00
  -1  -1  16   -4.60    7.00
  -1  -1  16    3.70    7.90
   1  -1 -16   -2.20    7.30
  -1   1  16   -2.60    6.90
  -1   1  16    3.70    7.30
   1   1 -16    8.20    7.60
   0  -1  16  162.78   15.80
   0  -1 -16  154.58   15.70
   0  -1  16  156.68   15.50
   0   1  16  163.78   16.10
   0   1 -16  168.88   17.10
   0   1  16  145.19   15.20
   1  -1  16   46.50   10.20
   1  -1  16   55.19   11.20
   1   1  16   37.60    9.40
   1   1  16   57.39   11.30
  -1   1 -16   47.20   10.50
   2  -1  16   49.40   10.00
   2  -1  16   41.40   10.20
   2   1  16   38.20   10.20
  -2   1 -16   42.40   10.30
   2   1  16   54.09   10.30
   3  -1  16  107.79   14.30
   3  -1  16  110.39   13.20
   3   1  16   81.09   12.70
   3   1  16   75.69   11.50
  -3   1 -16  101.59   14.10
   4  -1  16   19.90    8.80
   4   1  16   23.80    9.50
   4   1  16   30.80    9.60
   5  -2 -16   20.70   10.00
  -5  -2  16   18.60   11.00
   5   2 -16   14.10   10.50
  -5   2  16   25.70    9.80
  -4  -2  16   68.29   11.90
  -4  -2  16   60.29   13.20
   4  -2 -16   46.50   11.50
  -4   2  16   45.10   10.50
   4   2 -16   51.69   11.20
  -3  -2  16   -2.50    7.10
   3  -2 -16    0.70    7.30
  -3  -2  16    4.40    7.80
  -3   2  16    6.30    7.90
   3   2 -16   13.10    9.40
  -2  -2  16    6.90    8.00
  -2  -2  16    7.90    8.10
   2   2 -16   11.20    9.50
  -2   2  16   13.80    8.10
  -2   2  16   17.40    7.80
  -1  -2  16  112.09   14.60
  -1  -2  16  134.09   15.70
  -1   2  16  154.28   15.20
   1   2 -16  146.49   16.80
  -1   2  16  142.79   15.10
   0  -2  16   24.40    8.90
   0  -2  16   41.60   10.80
   0   2  16   44.60    9.90
   0   2  16   38.20   10.30
   0   2 -16   18.50    8.70
   1  -2  16   42.10   10.20
   1  -2  16   45.30   10.10
   1   2  16   60.99   11.40
   1   2  16   62.29   11.60
  -1   2 -16   54.89   12.10
   2  -2  16   71.59   11.90
   2  -2  16   88.69   13.40
  -2   2 -16   60.39   11.90
   2   2  16   64.19   12.40
   2   2  16   64.89   12.60
   3  -2  16   15.50    8.10
   3   2  16   19.60    8.70
   3   2  16   14.70    8.40
   4  -2  16    7.70    8.60
   4   2  16    8.00    9.60
   4   2  16    8.40    8.40
  -4  -3  16  -10.30    9.20
  -4  -3  16   11.80    9.20
   4   3 -16    9.50    9.60
  -4   3  16   -2.20    7.80
  -3  -3  16    1.00    9.30
  -3  -3  16    0.50    7.80
  -3   3  16   12.30    8.80
   3   3 -16    4.90    8.20
  -2  -3  16   36.00   10.70
  -2  -3  16   20.10    8.80
   2   3 -16   48.10   12.50
  -2   3  16   35.30    9.70
  -1  -3  16   46.00   10.40
  -1  -3  16   68.39   13.00
   1   3 -16   32.00   10.10
  -1   3  16   47.80   10.30
  -1   3  16   62.49   11.70
   0  -3  16   64.89   11.20
   0  -3  16   58.19   10.80
   0   3 -16   55.49   12.10
   0   3  16   88.99   13.90
   0   3  16   64.59   11.90
   1  -3  16   31.70    8.90
   1  -3  16   41.70   11.40
   1   3  16   41.70   10.40
  -1   3 -16   34.50    9.70
   1   3  16   30.10   10.00
   2  -3  16   19.00    8.90
   2   3  16   22.20    9.90
   2   3  16    9.30    8.00
   3  -3  16   23.70   10.10
   3   3  16   18.30    9.40
   3   3  16   19.50    9.80
  -2  -4  16   26.00   10.20
  -2  -4  16   29.30   10.80
  -2   4  16   14.40    9.60
   2   4 -16   21.80    8.80
  -1  -4  16   18.30    9.90
  -1  -4  16    0.40    8.00
   1   4 -16   -1.10    8.00
  -1   4  16   -0.60    8.50
   0  -4  16    3.50    9.10
   0  -4  16   -8.80    6.90
   0   4 -16    1.60    7.10
   0   4  16  -12.00    8.50
   0   4  16    0.90    7.20
   1  -4  16   26.60   10.40
   1   4  16   14.20    8.50
   1   4  16   11.10   10.40
   5   0 -17   50.19   13.90
  -4   0  17   -6.60    8.40
   4   0 -17   16.20    9.90
   3   0 -17   87.49   13.90
  -3   0  17  125.09   15.30
  -3   0  17  138.89   17.10
  -2   0  17   11.10    7.80
   2   0 -17    7.40    9.10
  -2   0  17    5.20    7.70
  -1   0  17    4.00    8.00
   1   0 -17    0.00    7.10
  -1   0  17   -2.70    7.50
   0   0  17   -0.20    8.20
   0   0 -17    7.60    7.90
   0   0  17    3.20    7.90
   1   0  17   12.60    9.30
   1   0  17   13.60    8.80
  -1   0 -17   18.30    9.50
   2   0  17   -1.70    8.30
  -2   0 -17  -12.80    5.90
   2   0  17  -10.00    6.70
   3   0  17   40.40   10.30
   3   0  17   36.00   10.50
   4   0  17   31.10   10.80
   4  -1 -17   41.30   12.20
  -4  -1  17   42.00   11.60
  -4   1  17   32.80   10.10
   4   1 -17   36.90   12.50
  -3  -1  17    2.10    8.10
   3  -1 -17    5.20    8.30
  -3  -1  17   10.40    8.60
   3   1 -17    3.90    9.00
  -3   1  17    2.80    8.10
  -2  -1  17   60.49   11.60
   2  -1 -17   77.79   13.70
  -2  -1  17   64.59   12.60
  -2   1  17   60.09   11.60
   2   1 -17   68.69   12.20
  -2   1  17   53.39   11.20
  -1  -1  17  104.19   14.80
   1  -1 -17   70.29   12.80
  -1  -1  17   75.69   12.00
  -1   1  17   85.99   13.40
  -1   1  17   67.99   12.00
   1   1 -17   57.99   11.50
   0  -1  17   21.60    9.30
   0  -1  17    6.80    8.20
   0  -1 -17   -0.40    7.60
   0   1  17   11.60    8.50
   0   1 -17    0.10    7.50
   0   1  17   21.70    8.80
   1  -1  17   71.89   12.70
   1  -1  17   47.00   10.50
   1   1  17   32.00   10.10
   1   1  17   35.20    9.80
  -1   1 -17   60.69   12.30
   2  -1  17  126.79   15.10
   2  -1  17   99.19   14.90
  -2   1 -17   84.19   13.30
   2   1  17   94.69   13.80
   2   1  17   76.39   12.50
   3  -1  17   17.40    9.00
   3  -1  17   22.70   10.00
  -3   1 -17   27.10    9.10
   3   1  17   37.10   10.60
   3   1  17   33.80    9.70
   4   2 -17    8.10   10.80
  -3  -2  17   52.59   11.80
  -3  -2  17   58.19   12.00
  -3   2  17   63.69   12.40
   3   2 -17   32.10   10.80
  -2  -2  17    2.40    8.30
  -2  -2  17    8.30    8.90
   2   2 -17    8.80    9.00
  -2   2  17    0.80    7.40
  -1  -2  17   31.10    9.90
  -1  -2  17   25.10    9.80
  -1   2  17   16.80    8.20
   1   2 -17   14.80    8.80
  -1   2  17    5.10    7.80
   0  -2  17    0.20    8.50
   0  -2  17   17.70    9.00
   0   2  17  -12.90    6.70
   0   2 -17    7.80    7.80
   0   2  17    5.40    8.20
   1  -2  17   61.59   11.60
   1  -2  17   48.00   10.90
  -1   2 -17   34.40    9.90
   1   2  17   50.39   10.30
   1   2  17   39.40    9.90
   2  -2  17   16.30    9.00
   2  -2  17   31.80    9.70
   2   2  17   40.50   10.50
   2   2  17   11.30    8.80
  -2   2 -17   18.70    8.40
   3  -2  17   48.20   10.80
   3   2  17   36.50   11.00
   3   2  17   35.50   10.80
   3   3 -17   13.60    9.90
  -2  -3  17   80.39   13.60
  -2  -3  17   72.59   12.90
   2   3 -17   62.89   13.20
  -2   3  17   85.19   14.00
  -1  -3  17   33.70   10.80
  -1  -3  17   24.20    8.90
  -1   3  17   18.70   10.10
   1   3 -17   10.60    8.20
   0  -3  17   46.60   11.90
   0  -3  17   45.90   11.20
   0   3 -17   52.59   11.60
   0   3  17   51.29   11.70
   0   3  17   49.80   12.50
   1  -3  17   10.10    8.60
   1  -3  17   14.30    8.90
  -1   3 -17    5.10    7.50
   1   3  17   17.30    8.90
   1   3  17    1.20    9.40
   3   0 -18   -3.50    9.80
  -3   0  18   -1.50    9.40
  -3   0  18   -2.20    9.00
  -2   0  18   21.00   11.00
  -2   0  18   26.40    9.50
   2   0 -18   21.00   10.50
  -1   0  18    2.60    9.30
  -1   0  18    3.50    8.80
   1   0 -18    1.00    8.10
   0   0  18   35.60   10.10
   0   0  18   48.80   11.80
   0   0 -18   31.20   10.00
  -1   0 -18   -5.40    7.70
   1   0  18   -5.70    7.90
   1   0  18   -9.10    7.90
   2   0  18    6.00    7.90
   2   0  18   11.40    9.50
  -3  -1  18   10.70    9.20
   3  -1 -18    4.50    9.30
  -3  -1  18   22.30   10.60
   3   1 -18   12.20   10.80
  -3   1  18    9.80   10.10
  -2  -1  18   33.30   12.10
  -2  -1  18   36.50   10.10
   2  -1 -18   51.39   13.20
   2   1 -18   22.40   11.30
  -2   1  18   44.20   10.70
  -2   1  18   52.79   12.00
  -1  -1  18   19.80    9.80
   1  -1 -18    5.10    9.20
  -1  -1  18  -15.10    6.90
  -1   1  18    3.00    8.10
  -1   1  18    1.60    8.60
   1   1 -18   -1.10    7.60
   0  -1  18   32.60    9.40
   0  -1  18   51.99   11.20
   0   1  18   25.10    9.60
   0   1 -18   25.20    9.70
   0   1  18   20.10    8.90
   1  -1  18   40.40   10.90
   1  -1  18   25.00   10.10
   1   1  18   23.40   10.20
  -1   1 -18   14.40   10.30
   1   1  18   26.90    9.50
   2  -1  18   17.80    9.20
   2  -1  18   19.30   10.60
   2   1  18   11.10    7.60
   2   1  18   15.10    9.30
  -2   1 -18   17.40    8.20
   2   2 -18   16.30   10.80
  -1  -2  18  121.99   16.30
  -1  -2  18  107.49   16.30
  -1   2  18  147.49   18.40
  -1   2  18  119.39   15.40
   0  -2  18   17.80    9.20
   0  -2  18   16.40   10.60
   0   2  18    3.10    8.30
   0   2  18   20.00   10.50
   0   2 -18   12.40    8.80
   1  -2  18   57.49   12.20
   1  -2  18   78.39   13.90
   1   2  18  101.59   14.50
   1   2  18   89.59   15.20
  -1   2 -18   48.90   11.60
   0   0 -19   -0.80    8.70
   0   0   0    0.00    0.00
;
_shelx_hkl_checksum              69830
_shelx_res_file
;
TITL P3t.res in P2(1) Z=2
    shelx.res
    created by SHELXL-2018/1 at 19:25:02 on 22-Dec-2017
CELL  0.71073   8.0762   6.2486  14.5096   90.000   92.161   90.000
ZERR     2.00   0.0004   0.0004   0.0010    0.000    0.002    0.000
LATT  -1
SYMM  - X, 1/2 + Y, - Z
SFAC  C    H    N    O    S
UNIT  22 38 2 14 2
REM   MERG   2
OMIT     0   0   1
DFIX  0.9 0.02 N1 H1A N1 H1B N1 H1C O7 H7E O7 H7D
DFIX  1.47 0.02 H1A H1B H1B H1C H1C H1A H7E H7D
EQIV $1 x+1, y, z
HTAB C9 O1_$1
HTAB C11 O5
HTAB O5 O3
HTAB O5 S1
EQIV $2 x+1, y+1, z
HTAB O6 O2_$2
HTAB O6 S1_$2
EQIV $3 -x+2, y-1/2, -z
HTAB N1 O7_$3
EQIV $4 -x+1, y+1/2, -z
HTAB N1 O4_$4
EQIV $5 x, y-1, z
HTAB N1 O7_$5
HTAB O7 O1_$4
HTAB O7 O6
FMAP   2
PLAN   20
SIZE     0.100   0.150   0.150
ACTA
BOND   $H
CONF
L.S.  10
TEMP    23.00
WGHT    0.033200    0.119600
FVAR       1.17655
C1    1    0.190223    0.262218    0.329790    11.00000    0.02809    0.03846 =
         0.02975    0.00707   -0.00128   -0.00191
C2    1    0.160924    0.190406    0.417704    11.00000    0.07156    0.04015 =
         0.03289    0.00547    0.00129   -0.01491
AFIX  43
H2    2    0.116375    0.054961    0.426354    11.00000   -1.20000
AFIX   0
C3    1    0.197932    0.320200    0.492794    11.00000    0.08920    0.05895 =
         0.02746    0.00547    0.00114   -0.00803
AFIX  43
H3    2    0.176111    0.271176    0.551625    11.00000   -1.20000
AFIX   0
C4    1    0.266663    0.521337    0.482633    11.00000    0.06460    0.04534 =
         0.03898   -0.00455   -0.00447   -0.00056
C5    1    0.292323    0.591384    0.394240    11.00000    0.06310    0.03637 =
         0.04708   -0.00093    0.00432   -0.00951
AFIX  43
H5    2    0.336603    0.726971    0.385569    11.00000   -1.20000
AFIX   0
C6    1    0.253907    0.465204    0.318124    11.00000    0.05534    0.04084 =
         0.03250    0.00558    0.00489   -0.00822
AFIX  43
H6    2    0.270923    0.516931    0.259131    11.00000   -1.20000
AFIX   0
C7    1    0.310152    0.660866    0.565254    11.00000    0.11341    0.06674 =
         0.04839   -0.01604   -0.00665   -0.01315
AFIX 137
H7A   2    0.299896    0.808749    0.548036    11.00000   -1.50000
H7B   2    0.422038    0.632250    0.586385    11.00000   -1.50000
H7C   2    0.236118    0.630136    0.613767    11.00000   -1.50000
AFIX   0
C8    1    0.586017    0.283036    0.114589    11.00000    0.02536    0.02365 =
         0.03098   -0.00074    0.00134    0.00175
C9    1    0.731306    0.434437    0.110145    11.00000    0.01971    0.02628 =
         0.02628    0.00225   -0.00047    0.00004
AFIX  13
H9    2    0.827748    0.370261    0.142508    11.00000   -1.20000
AFIX   0
C10   1    0.694147    0.652648    0.154066    11.00000    0.02948    0.02701 =
         0.02955   -0.00375    0.00209   -0.00694
AFIX  13
H10   2    0.583673    0.699233    0.132162    11.00000   -1.20000
AFIX   0
C11   1    0.697749    0.643648    0.258586    11.00000    0.06433    0.05155 =
         0.03351   -0.01005    0.01001   -0.02278
AFIX 137
H11A  2    0.804857    0.595975    0.281004    11.00000   -1.50000
H11B  2    0.614560    0.545714    0.278236    11.00000   -1.50000
H11C  2    0.676108    0.783559    0.282673    11.00000   -1.50000
AFIX   0
O1    4    0.106396    0.228909    0.156251    11.00000    0.05774    0.05666 =
         0.02878    0.01055   -0.00490    0.00110
O2    4    0.022781   -0.053027    0.258805    11.00000    0.04224    0.07252 =
         0.04045   -0.00025    0.00308   -0.03273
O3    4    0.306568   -0.020110    0.218029    11.00000    0.03708    0.03316 =
         0.05128    0.00155    0.00675   -0.00434
O4    4    0.494962    0.247394    0.048803    11.00000    0.04148    0.05509 =
         0.03457    0.00124   -0.00614   -0.02470
O5    4    0.571285    0.201520    0.196596    11.00000    0.04002    0.04537 =
         0.03736    0.01002   -0.00145   -0.01533
AFIX  83
H5A   2    0.483804    0.135286    0.198317    11.00000   -1.50000
AFIX   0
O6    4    0.812648    0.801084    0.122635    11.00000    0.05614    0.03687 =
         0.03112   -0.00119    0.00011   -0.02100
AFIX  83
H6A   2    0.877061    0.833342    0.165426    11.00000   -1.50000
AFIX   0
O7    4    0.869192    1.053413   -0.027435    11.00000    0.04975    0.02874 =
         0.03997   -0.00316    0.00682    0.00143
S1    5    0.152160    0.093123    0.233718    11.00000    0.03044    0.04051 =
         0.02814    0.00477   -0.00027   -0.00968
N1    3    0.768919    0.466244    0.011763    11.00000    0.02519    0.02442 =
         0.03103   -0.00164    0.00357   -0.00140
H1B   2    0.864977    0.541864    0.007457    11.00000    0.03251
H1C   2    0.683441    0.534876   -0.013441    11.00000    0.06016
H1A   2    0.781753    0.338118   -0.015920    11.00000    0.05004
H7E   2    0.848486    0.980139   -0.078193    11.00000    0.04819
H7D   2    0.835521    0.983479    0.021185    11.00000    0.08815
HKLF 4
REM  P3t.res in P2(1) Z=2
REM R1 =  0.0371 for    2705 Fo > 4sig(Fo)  and  0.0559 for all    3347 data
REM    203 parameters refined using     10 restraints
END
WGHT      0.0332      0.1196
REM Highest difference peak  0.185,  deepest hole -0.193,  1-sigma level  0.042
Q1    1   0.0019  0.0734  0.2405  11.00000  0.05    0.19
Q2    1   0.1445  0.2199  0.2945  11.00000  0.05    0.18
Q3    1   0.2037  0.2143  0.1685  11.00000  0.05    0.18
Q4    1   0.2792 -0.1757  0.1838  11.00000  0.05    0.16
Q5    1   0.3464 -0.0303  0.1783  11.00000  0.05    0.16
Q6    1   0.7820  1.0800 -0.0595  11.00000  0.05    0.15
Q7    1   0.3552  0.5833  0.6220  11.00000  0.05    0.15
Q8    1   0.7404  0.9756  0.1249  11.00000  0.05    0.15
Q9    1   0.8165  0.8113  0.0786  11.00000  0.05    0.15
Q10   1   0.0776 -0.0629  0.2559  11.00000  0.05    0.15
Q11   1   0.0323 -0.1718  0.1990  11.00000  0.05    0.14
Q12   1   0.2835  0.0871  0.1975  11.00000  0.05    0.14
Q13   1   0.7485  0.4378  0.0721  11.00000  0.05    0.14
Q14   1   0.3757  0.4711  0.2640  11.00000  0.05    0.14
Q15   1   0.2515  0.1116  0.4226  11.00000  0.05    0.14
Q16   1   0.1966  0.7859  0.5754  11.00000  0.05    0.14
Q17   1   0.2157 -0.0227  0.1584  11.00000  0.05    0.14
Q18   1   0.9046  0.4628  0.3554  11.00000  0.05    0.14
Q19   1   0.0457  0.3582  0.1566  11.00000  0.05    0.14
Q20   1   0.0841  0.2215  0.1982  11.00000  0.05    0.14
;
_shelx_res_checksum              11537
loop_
_space_group_symop_operation_xyz
'x, y, z'
'-x, y+1/2, -z'
loop_
_atom_site_type_symbol
_atom_site_label
_atom_site_fract_x
_atom_site_fract_y
_atom_site_fract_z
_atom_site_U_iso_or_equiv
_atom_site_adp_type
_atom_site_calc_flag
_atom_site_occupancy
C C1 0.1902(4) 0.2622(5) 0.3298(2) 0.0322(7) Uani d 1
C C2 0.1609(5) 0.1904(6) 0.4177(2) 0.0482(9) Uani d 1
H H2 0.116375 0.054961 0.426354 0.058 Uiso calc 1
C C3 0.1979(5) 0.3202(7) 0.4928(3) 0.0586(11) Uani d 1
H H3 0.176111 0.271176 0.551625 0.070 Uiso calc 1
C C4 0.2667(5) 0.5213(6) 0.4826(3) 0.0498(10) Uani d 1
C C5 0.2923(4) 0.5914(7) 0.3942(2) 0.0488(9) Uani d 1
H H5 0.336603 0.726971 0.385569 0.059 Uiso calc 1
C C6 0.2539(4) 0.4652(6) 0.3181(2) 0.0428(8) Uani d 1
H H6 0.270923 0.516931 0.259131 0.051 Uiso calc 1
C C7 0.3102(7) 0.6609(7) 0.5653(3) 0.0764(14) Uani d 1
H H7A 0.299896 0.808749 0.548036 0.115 Uiso calc 1
H H7B 0.422038 0.632250 0.586385 0.115 Uiso calc 1
H H7C 0.236118 0.630136 0.613767 0.115 Uiso calc 1
C C8 0.5860(4) 0.2830(5) 0.1146(2) 0.0267(7) Uani d 1
C C9 0.7313(3) 0.4344(5) 0.1101(2) 0.0241(6) Uani d 1
H H9 0.827748 0.370261 0.142508 0.029 Uiso calc 1
C C10 0.6941(4) 0.6526(4) 0.1541(2) 0.0287(7) Uani d 1
H H10 0.583673 0.699233 0.132162 0.034 Uiso calc 1
C C11 0.6977(5) 0.6436(6) 0.2586(2) 0.0496(10) Uani d 1
H H11A 0.804857 0.595975 0.281004 0.074 Uiso calc 1
H H11B 0.614560 0.545714 0.278236 0.074 Uiso calc 1
H H11C 0.676108 0.783559 0.282673 0.074 Uiso calc 1
O O1 0.1064(3) 0.2289(4) 0.15625(16) 0.0479(6) Uani d 1
O O2 0.0228(3) -0.0530(5) 0.25880(16) 0.0517(7) Uani d 1
O O3 0.3066(3) -0.0201(3) 0.21803(16) 0.0404(6) Uani d 1
O O4 0.4950(3) 0.2474(4) 0.04880(15) 0.0439(6) Uani d 1
O O5 0.5713(3) 0.2015(4) 0.19660(15) 0.0410(6) Uani d 1
H H5A 0.483804 0.135286 0.198317 0.061 Uiso calc 1
O O6 0.8126(3) 0.8011(3) 0.12263(15) 0.0414(6) Uani d 1
H H6A 0.877061 0.833342 0.165426 0.062 Uiso calc 1
O O7 0.8692(3) 1.0534(3) -0.02744(18) 0.0394(6) Uani d 1
S S1 0.15216(9) 0.09312(13) 0.23372(5) 0.0331(2) Uani d 1
N N1 0.7689(3) 0.4662(4) 0.01176(17) 0.0268(6) Uani d 1
H H1B 0.865(3) 0.542(4) 0.007(2) 0.033(9) Uiso d 1
H H1C 0.683(3) 0.535(5) -0.013(2) 0.060(13) Uiso d 1
H H1A 0.782(4) 0.338(4) -0.016(2) 0.050(11) Uiso d 1
H H7E 0.848(4) 0.980(5) -0.0782(17) 0.048(11) Uiso d 1
H H7D 0.836(5) 0.983(7) 0.0212(19) 0.088(17) Uiso d 1
loop_
_atom_site_aniso_label
_atom_site_aniso_U_11
_atom_site_aniso_U_22
_atom_site_aniso_U_33
_atom_site_aniso_U_12
_atom_site_aniso_U_13
_atom_site_aniso_U_23
C1 0.0281(16) 0.0385(17) 0.0298(17) -0.0019(14) -0.0013(13) 0.0071(14)
C2 0.072(3) 0.0402(19) 0.0329(19) -0.0149(19) 0.0013(17) 0.0055(17)
C3 0.089(3) 0.059(3) 0.027(2) -0.008(2) 0.001(2) 0.0055(19)
C4 0.065(2) 0.045(2) 0.039(2) -0.0006(18) -0.0045(18) -0.0046(17)
C5 0.063(2) 0.0364(18) 0.047(2) -0.010(2) 0.0043(17) -0.001(2)
C6 0.055(2) 0.0408(19) 0.0325(19) -0.0082(18) 0.0049(16) 0.0056(16)
C7 0.113(4) 0.067(3) 0.048(3) -0.013(3) -0.007(2) -0.016(2)
C8 0.0254(15) 0.0237(15) 0.0310(17) 0.0018(13) 0.0013(13) -0.0007(13)
C9 0.0197(14) 0.0263(14) 0.0263(16) 0.0000(12) -0.0005(12) 0.0022(13)
C10 0.0295(16) 0.0270(16) 0.0296(16) -0.0069(12) 0.0021(12) -0.0037(12)
C11 0.064(2) 0.052(2) 0.0335(18) -0.0228(19) 0.0100(16) -0.0100(16)
O1 0.0577(15) 0.0567(15) 0.0288(13) 0.0011(13) -0.0049(11) 0.0106(12)
O2 0.0422(13) 0.0725(17) 0.0404(14) -0.0327(13) 0.0031(11) -0.0002(14)
O3 0.0371(12) 0.0332(12) 0.0513(15) -0.0043(11) 0.0068(11) 0.0016(11)
O4 0.0415(13) 0.0551(15) 0.0346(13) -0.0247(12) -0.0061(11) 0.0012(11)
O5 0.0400(13) 0.0454(13) 0.0374(13) -0.0153(11) -0.0015(10) 0.0100(11)
O6 0.0561(15) 0.0369(13) 0.0311(13) -0.0210(12) 0.0001(11) -0.0012(11)
O7 0.0497(14) 0.0287(13) 0.0400(14) 0.0014(11) 0.0068(11) -0.0032(12)
S1 0.0304(4) 0.0405(4) 0.0281(4) -0.0097(4) -0.0003(3) 0.0048(4)
N1 0.0252(14) 0.0244(13) 0.0310(14) -0.0014(12) 0.0036(11) -0.0016(12)
loop_
_atom_type_symbol
_atom_type_description
_atom_type_scat_dispersion_real
_atom_type_scat_dispersion_imag
_atom_type_scat_source
C C 0.0033 0.0016 'International Tables Vol C Tables 4.2.6.8 and 6.1.1.4'
H H 0.0000 0.0000 'International Tables Vol C Tables 4.2.6.8 and 6.1.1.4'
N N 0.0061 0.0033 'International Tables Vol C Tables 4.2.6.8 and 6.1.1.4'
O O 0.0106 0.0060 'International Tables Vol C Tables 4.2.6.8 and 6.1.1.4'
S S 0.1246 0.1234 'International Tables Vol C Tables 4.2.6.8 and 6.1.1.4'
loop_
_geom_angle_atom_site_label_1
_geom_angle_atom_site_label_2
_geom_angle_atom_site_label_3
_geom_angle
C2 C1 C6 119.3(3)
C2 C1 S1 120.2(3)
C6 C1 S1 120.5(2)
C1 C2 C3 119.9(3)
C1 C2 H2 120.1
C3 C2 H2 120.1
C2 C3 C4 121.6(3)
C2 C3 H3 119.2
C4 C3 H3 119.2
C5 C4 C3 117.5(4)
C5 C4 C7 121.1(4)
C3 C4 C7 121.4(4)
C4 C5 C6 121.7(4)
C4 C5 H5 119.2
C6 C5 H5 119.2
C1 C6 C5 119.9(3)
C1 C6 H6 120.0
C5 C6 H6 120.0
C4 C7 H7A 109.5
C4 C7 H7B 109.5
H7A C7 H7B 109.5
C4 C7 H7C 109.5
H7A C7 H7C 109.5
H7B C7 H7C 109.5
O4 C8 O5 125.3(3)
O4 C8 C9 122.3(3)
O5 C8 C9 112.4(3)
N1 C9 C8 108.2(2)
N1 C9 C10 109.3(2)
C8 C9 C10 111.9(2)
N1 C9 H9 109.1
C8 C9 H9 109.1
C10 C9 H9 109.1
O6 C10 C11 110.9(2)
O6 C10 C9 107.5(2)
C11 C10 C9 112.6(3)
O6 C10 H10 108.6
C11 C10 H10 108.6
C9 C10 H10 108.6
C10 C11 H11A 109.5
C10 C11 H11B 109.5
H11A C11 H11B 109.5
C10 C11 H11C 109.5
H11A C11 H11C 109.5
H11B C11 H11C 109.5
C8 O5 H5A 109.5
C10 O6 H6A 109.5
H7E O7 H7D 111(3)
O2 S1 O1 113.63(15)
O2 S1 O3 111.30(15)
O1 S1 O3 111.00(14)
O2 S1 C1 106.57(15)
O1 S1 C1 107.12(16)
O3 S1 C1 106.79(14)
C9 N1 H1B 109.9(19)
C9 N1 H1C 106(2)
H1B N1 H1C 112(2)
C9 N1 H1A 110(2)
H1B N1 H1A 108(2)
H1C N1 H1A 110(3)
loop_
_geom_bond_atom_site_label_1
_geom_bond_atom_site_label_2
_geom_bond_distance
C1 C2 1.381(4)
C1 C6 1.381(5)
C1 S1 1.767(3)
C2 C3 1.382(5)
C2 H2 0.9300
C3 C4 1.384(5)
C3 H3 0.9300
C4 C5 1.378(5)
C4 C7 1.513(5)
C5 C6 1.383(5)
C5 H5 0.9300
C6 H6 0.9300
C7 H7A 0.9600
C7 H7B 0.9600
C7 H7C 0.9600
C8 O4 1.204(3)
C8 O5 1.304(3)
C8 C9 1.511(4)
C9 N1 1.484(4)
C9 C10 1.539(4)
C9 H9 0.9800
C10 O6 1.420(3)
C10 C11 1.517(4)
C10 H10 0.9800
C11 H11A 0.9600
C11 H11B 0.9600
C11 H11C 0.9600
O1 S1 1.445(2)
O2 S1 1.445(2)
O3 S1 1.459(2)
O5 H5A 0.8200
O6 H6A 0.8200
O7 H7E 0.88(2)
O7 H7D 0.88(2)
N1 H1B 0.913(19)
N1 H1C 0.88(2)
N1 H1A 0.90(2)
loop_
_geom_hbond_atom_site_label_D
_geom_hbond_atom_site_label_H
_geom_hbond_atom_site_label_A
_geom_hbond_site_symmetry_A
_geom_hbond_distance_DH
_geom_hbond_distance_HA
_geom_hbond_distance_DA
_geom_hbond_angle_DHA
_geom_hbond_publ_flag
C11 H11B O5 . 0.96 2.47 3.068(4) 120 yes
O5 H5A O3 . 0.82 1.76 2.576(3) 172 yes
O6 H6A O2 1_665 0.82 1.90 2.713(3) 172 yes
O7 H7E O1 2_655 0.88(2) 1.98(3) 2.770(3) 149(3) yes
O7 H7D O6 . 0.88(2) 1.88(3) 2.741(3) 166(4) yes
N1 H1B O7 2_745 0.913(19) 2.16(2) 2.973(3) 149(2) yes
N1 H1C O4 2_655 0.88(2) 2.01(2) 2.874(3) 166(3) yes
N1 H1A O7 1_545 0.90(2) 1.92(2) 2.769(3) 155(3) yes
loop_
_geom_torsion_atom_site_label_1
_geom_torsion_atom_site_label_2
_geom_torsion_atom_site_label_3
_geom_torsion_atom_site_label_4
_geom_torsion
C6 C1 C2 C3 -1.1(5)
S1 C1 C2 C3 177.1(3)
C1 C2 C3 C4 -1.0(6)
C2 C3 C4 C5 2.0(6)
C2 C3 C4 C7 -178.7(4)
C3 C4 C5 C6 -1.1(6)
C7 C4 C5 C6 179.7(4)
C2 C1 C6 C5 2.0(5)
S1 C1 C6 C5 -176.2(3)
C4 C5 C6 C1 -0.9(5)
O4 C8 C9 N1 -17.9(4)
O5 C8 C9 N1 163.1(2)
O4 C8 C9 C10 102.5(3)
O5 C8 C9 C10 -76.5(3)
N1 C9 C10 O6 -42.8(3)
C8 C9 C10 O6 -162.6(2)
N1 C9 C10 C11 -165.3(2)
C8 C9 C10 C11 74.9(3)
C2 C1 S1 O2 27.8(3)
C6 C1 S1 O2 -154.0(3)
C2 C1 S1 O1 149.7(3)
C6 C1 S1 O1 -32.1(3)
C2 C1 S1 O3 -91.3(3)
C6 C1 S1 O3 86.9(3)

_cod_database_fobs_code 1548678
