#------------------------------------------------------------------------------
#$Date: 2018-01-06 03:34:43 +0200 (Sat, 06 Jan 2018) $
#$Revision: 204778 $
#$URL: file:///home/coder/svn-repositories/cod/cif/1/54/86/1548611.cif $
#------------------------------------------------------------------------------
#
# This file is available in the Crystallography Open Database (COD),
# http://www.crystallography.net/
#
# All data on this site have been placed in the public domain by the
# contributors.
#
data_1548611
loop_
_publ_author_name
'Wang, Quannan'
'Yang, Xiaoge'
'Wu, Ping'
'Yu, Zhengkun'
_publ_section_title
;
 Photoredox-Catalyzed C-H Arylation of Internal Alkenes to
 Tetrasubstituted Alkenes: Synthesis of Tamoxifen.
;
_journal_issue                   22
_journal_name_full               'Organic letters'
_journal_page_first              6248
_journal_page_last               6251
_journal_paper_doi               10.1021/acs.orglett.7b03223
_journal_volume                  19
_journal_year                    2017
_chemical_formula_sum            'C17 H13 N3 O3 S2'
_chemical_formula_weight         371.42
_chemical_name_systematic
; 
 ? 
;
_space_group_crystal_system      monoclinic
_space_group_IT_number           14
_space_group_name_Hall           '-P 2yn'
_space_group_name_H-M_alt        'P 1 21/n 1'
_symmetry_space_group_name_Hall  '-P 2yn'
_symmetry_space_group_name_H-M   'P 1 21/n 1'
_atom_sites_solution_hydrogens   geom
_audit_creation_method           SHELXL-2013
_cell_angle_alpha                90
_cell_angle_beta                 94.419(13)
_cell_angle_gamma                90
_cell_formula_units_Z            4
_cell_length_a                   4.0165(7)
_cell_length_b                   23.916(3)
_cell_length_c                   17.104(2)
_cell_measurement_reflns_used    2308
_cell_measurement_temperature    293(2)
_cell_measurement_theta_max      28.747
_cell_measurement_theta_min      4.170
_cell_volume                     1638.1(4)
_computing_cell_refinement       'Bruker SMART'
_computing_data_collection       'Bruker SMART'
_computing_data_reduction        'Bruker SAINT'
_computing_molecular_graphics    'Bruker SHELXTL'
_computing_publication_material  'Bruker SHELXTL'
_computing_structure_refinement  'SHELXL-2013 (Sheldrick, 2013)'
_computing_structure_solution    'Bruker SHELXTL'
_diffrn_ambient_temperature      293(2)
_diffrn_measured_fraction_theta_full 0.996
_diffrn_measured_fraction_theta_max 0.996
_diffrn_measurement_device_type  'CCD area detector'
_diffrn_measurement_method       'phi and omega scans'
_diffrn_radiation_type           MoK\a
_diffrn_radiation_wavelength     0.71073
_diffrn_reflns_av_R_equivalents  0.0514
_diffrn_reflns_av_unetI/netI     0.0577
_diffrn_reflns_Laue_measured_fraction_full 0.996
_diffrn_reflns_Laue_measured_fraction_max 0.996
_diffrn_reflns_limit_h_max       4
_diffrn_reflns_limit_h_min       -4
_diffrn_reflns_limit_k_max       27
_diffrn_reflns_limit_k_min       -28
_diffrn_reflns_limit_l_max       20
_diffrn_reflns_limit_l_min       -15
_diffrn_reflns_number            7687
_diffrn_reflns_point_group_measured_fraction_full 0.996
_diffrn_reflns_point_group_measured_fraction_max 0.996
_diffrn_reflns_theta_full        25.242
_diffrn_reflns_theta_max         25.496
_diffrn_reflns_theta_min         2.820
_exptl_absorpt_coefficient_mu    0.348
_exptl_absorpt_correction_T_max  1.0000
_exptl_absorpt_correction_T_min  0.5956
_exptl_absorpt_correction_type   multi-scan
_exptl_absorpt_process_details   sadabs
_exptl_crystal_colour            colorless
_exptl_crystal_density_diffrn    1.506
_exptl_crystal_description       prismatic
_exptl_crystal_F_000             768
_exptl_crystal_size_max          0.220
_exptl_crystal_size_mid          0.170
_exptl_crystal_size_min          0.130
_refine_diff_density_max         0.521
_refine_diff_density_min         -0.347
_refine_diff_density_rms         0.075
_refine_ls_extinction_expression Fc^*^=kFc[1+0.001xFc^2^\l^3^/sin(2\q)]^-1/4^
_refine_ls_extinction_method     SHELXL
_refine_ls_goodness_of_fit_ref   1.124
_refine_ls_hydrogen_treatment    constr
_refine_ls_matrix_type           full
_refine_ls_number_parameters     227
_refine_ls_number_reflns         3027
_refine_ls_number_restraints     0
_refine_ls_restrained_S_all      1.124
_refine_ls_R_factor_all          0.0862
_refine_ls_R_factor_gt           0.0663
_refine_ls_shift/su_max          0.000
_refine_ls_shift/su_mean         0.000
_refine_ls_structure_factor_coef Fsqd
_refine_ls_weighting_details
'w=1/[\s^2^(Fo^2^)+(0.0718P)^2^+1.4637P] where P=(Fo^2^+2Fc^2^)/3'
_refine_ls_weighting_scheme      calc
_refine_ls_wR_factor_gt          0.1636
_refine_ls_wR_factor_ref         0.1751
_reflns_Friedel_coverage         0.000
_reflns_number_gt                2346
_reflns_number_total             3027
_reflns_threshold_expression     'I > 2\s(I)'
_cod_data_source_file            ol7b03223_si_002.cif
_cod_data_source_block           for_4e_(yxg1494)
_cod_database_code               1548611
_shelx_space_group_comment
; 
The symmetry employed for this shelxl refinement is uniquely defined 
by the following loop, which should always be used as a source of 
symmetry information in preference to the above space-group names. 
They are only intended as comments. 
;
_shelx_estimated_absorpt_t_min   0.927
_shelx_estimated_absorpt_t_max   0.956
_shelxl_version_number           2013-4
_shelx_res_file
; 
TITL CF solution in P21/n 
CELL 0.71073 4.01649 23.91623 17.10431 90 94.4189 90 
ZERR 4 0.00065 0.00334 0.00197 0 0.0131 0 
LATT 1 
SYMM 0.5-X,0.5+Y,0.5-Z 
SFAC C  H  N  O  S 
UNIT 68 52 12 12 8 
OMIT   2   3   5 
OMIT     2   2   8 
OMIT     2   1   6 
OMIT     2   0   8 
OMIT     2   1  12 
OMIT     2   1   9 
OMIT     3   4   1 
OMIT     2   2   3 
OMIT  -3.00  51.00 
L.S. 10 
ACTA 
BOND $H 
FMAP 2 
PLAN 25 
HTAB C17 O3_$2 
EQIV $2 -x-1/2, y+1/2, -z+1/2 
HTAB C11 S1_$1 
EQIV $1 x-3/2, -y+1/2, z-1/2 
conf 
htab 
mpla c1 > c6 
mpla c9 > c14 
size 0.22 0.17 0.13 
wpdb -1 
WGHT    0.071800    1.463700 
EXTI    0.000212 
FVAR       3.24318 
S1    5    0.557750    0.348252    0.503145    11.00000    0.05330    0.04075 = 
         0.03334   -0.00411   -0.00342   -0.00424 
S2    5    0.276057    0.317195    0.346139    11.00000    0.04875    0.04332 = 
         0.02976    0.00280   -0.00283    0.00027 
N1    3    0.258977    0.197384    0.417701    11.00000    0.04129    0.04295 = 
         0.02393   -0.00112    0.00141   -0.00448 
N2    3    0.108552    0.212366    0.352707    11.00000    0.04358    0.04247 = 
         0.02615   -0.00170   -0.00143   -0.00235 
N3    3   -0.419968    0.040841    0.156679    11.00000    0.05277    0.03890 = 
         0.03524   -0.00292   -0.00452   -0.00067 
O1    4    0.657618    0.257224    0.589305    11.00000    0.09672    0.05108 = 
         0.03363   -0.00323   -0.01459   -0.01183 
O2    4   -0.581645    0.053359    0.096452    11.00000    0.12916    0.05456 = 
         0.05437   -0.00503   -0.04487   -0.00379 
O3    4   -0.375663   -0.007523    0.176113    11.00000    0.11127    0.03633 = 
         0.06503   -0.00330   -0.02357   -0.00236 
C1    1    0.661129    0.120799    0.518724    11.00000    0.04441    0.05262 = 
         0.03645    0.00015    0.00498   -0.00351 
AFIX  43 
H1    2    0.738924    0.129854    0.470490    11.00000   -1.20000 
AFIX   0 
C2    1    0.671364    0.066054    0.544110    11.00000    0.05208    0.04977 = 
         0.05762   -0.00451   -0.00284    0.00430 
AFIX  43 
H2    2    0.762805    0.038556    0.513833    11.00000   -1.20000 
AFIX   0 
C3    1    0.546431    0.052082    0.614181    11.00000    0.05635    0.05458 = 
         0.05922    0.01929   -0.01072   -0.00536 
AFIX  43 
H3    2    0.545290    0.014974    0.630410    11.00000   -1.20000 
AFIX   0 
C4    1    0.422795    0.093394    0.660281    11.00000    0.06454    0.07194 = 
         0.03698    0.01662   -0.00302   -0.00903 
AFIX  43 
H4    2    0.339832    0.084023    0.707845    11.00000   -1.20000 
AFIX   0 
C5    1    0.421359    0.148109    0.636501    11.00000    0.05407    0.06329 = 
         0.02658    0.00141    0.00196   -0.00182 
AFIX  43 
H5    2    0.343460    0.175778    0.668661    11.00000   -1.20000 
AFIX   0 
C6    1    0.535715    0.162420    0.564590    11.00000    0.03855    0.04650 = 
         0.02562   -0.00025   -0.00261   -0.00225 
C7    1    0.539310    0.222699    0.542454    11.00000    0.04745    0.04634 = 
         0.02811   -0.00109   -0.00033   -0.00281 
C8    1    0.397689    0.240223    0.463610    11.00000    0.03969    0.04079 = 
         0.02767   -0.00066    0.00294   -0.00426 
C9    1   -0.018780    0.166942    0.306852    11.00000    0.03919    0.03755 = 
         0.02420   -0.00084    0.00828   -0.00301 
C10   1   -0.213843    0.181170    0.239312    11.00000    0.05028    0.03365 = 
         0.03193    0.00416   -0.00023   -0.00168 
AFIX  43 
H10   2   -0.256324    0.218603    0.227688    11.00000   -1.20000 
AFIX   0 
C11   1   -0.345437    0.140092    0.189193    11.00000    0.05198    0.04045 = 
         0.02277    0.00250   -0.00393   -0.00036 
AFIX  43 
H11   2   -0.475682    0.149401    0.143743    11.00000   -1.20000 
AFIX   0 
C12   1   -0.279412    0.085308    0.208070    11.00000    0.04061    0.03528 = 
         0.02593   -0.00310    0.00621   -0.00300 
C13   1   -0.088738    0.069856    0.275573    11.00000    0.04556    0.03055 = 
         0.03308    0.00211    0.00256    0.00238 
AFIX  43 
H13   2   -0.051597    0.032325    0.287506    11.00000   -1.20000 
AFIX   0 
C14   1    0.043803    0.110816    0.324315    11.00000    0.04143    0.04459 = 
         0.02426    0.00171    0.00036    0.00426 
AFIX  43 
H14   2    0.176237    0.101185    0.369298    11.00000   -1.20000 
AFIX   0 
C15   1    0.406823    0.296011    0.440139    11.00000    0.03152    0.04589 = 
         0.02489   -0.00102   -0.00184    0.00054 
C16   1    0.428177    0.406001    0.438926    11.00000    0.05623    0.04086 = 
         0.04926    0.00046   -0.00614   -0.00221 
AFIX  23 
H16A  2    0.201042    0.416906    0.447294    11.00000   -1.20000 
H16B  2    0.572953    0.437979    0.449784    11.00000   -1.20000 
AFIX   0 
C17   1    0.449365    0.386963    0.356170    11.00000    0.04803    0.04335 = 
         0.04346    0.00793   -0.00087    0.00069 
AFIX  23 
H17A  2    0.680411    0.386751    0.343324    11.00000   -1.20000 
H17B  2    0.325363    0.412307    0.320499    11.00000   -1.20000 
AFIX   0 
HKLF 4 
  
REM  CF solution in P21/n 
REM R1 =  0.0663 for    2346 Fo > 4sig(Fo)  and  0.0862 for all    3027 data 
REM    227 parameters refined using      0 restraints 
  
END 
  
WGHT      0.0749      1.3074 
  
REM Instructions for potential hydrogen bonds 
HTAB C11 S1_$1 
HTAB C17 O3_$2 
  
REM Highest difference peak  0.521,  deepest hole -0.347,  1-sigma level  0.075 
Q1    1   0.3736  0.3536  0.3544  11.00000  0.05    0.52 
Q2    1   0.0523  0.3324  0.3191  11.00000  0.05    0.45 
Q3    1   0.5079  0.2991  0.3752  11.00000  0.05    0.40 
Q4    1   0.5420  0.3898  0.4960  11.00000  0.05    0.38 
Q5    1   0.8409  0.3343  0.5315  11.00000  0.05    0.38 
Q6    1   0.5227  0.3098  0.4916  11.00000  0.05    0.35 
Q7    1   0.2516  0.2733  0.3427  11.00000  0.05    0.34 
Q8    1   0.3927  0.2800  0.3602  11.00000  0.05    0.34 
Q9    1   0.1158  0.2894  0.3178  11.00000  0.05    0.33 
Q10   1   0.0574  0.2477  0.3423  11.00000  0.05    0.30 
Q11   1  -0.6635  0.1313  0.1585  11.00000  0.05    0.29 
Q12   1   0.7014  0.3650  0.3823  11.00000  0.05    0.26 
Q13   1   0.0340  0.1396  0.3187  11.00000  0.05    0.26 
Q14   1  -0.3280  0.1101  0.1973  11.00000  0.05    0.25 
Q15   1   0.2420  0.3521  0.4732  11.00000  0.05    0.24 
Q16   1  -0.3312 -0.0445  0.1824  11.00000  0.05    0.24 
Q17   1   0.2861  0.1580  0.4196  11.00000  0.05    0.24 
Q18   1  -0.6873  0.1744  0.1585  11.00000  0.05    0.24 
Q19   1   0.3028  0.3597  0.4675  11.00000  0.05    0.24 
Q20   1   0.6898  0.3857  0.5181  11.00000  0.05    0.24 
Q21   1   0.1181  0.1255  0.6080  11.00000  0.05    0.23 
Q22   1   0.2740  0.2057  0.5238  11.00000  0.05    0.23 
Q23   1  -0.0755  0.0117  0.1965  11.00000  0.05    0.22 
Q24   1   0.5110  0.1901  0.5523  11.00000  0.05    0.22 
Q25   1   0.9374  0.3024  0.5369  11.00000  0.05    0.22 
;
_shelx_res_checksum              30880
_shelx_hkl_file
; 
   0   0   3 65.9359 41.1028   1 
   0   0   4 41567.1 758.160   1 
   0   0   5 9.19829 55.6186   1 
   0   0   6 130999. 1587.53   1 
   0   0   7 102.726 78.2338   2 
   0   0   7 90.4839 88.6642   1 
   0   0   8 6049.69 346.372   2 
   0   0  -9-3.44956 70.6532   1 
   0   0   9 18.7627 49.1924   2 
   0   0  10 10711.0 541.483   2 
   0   0  11 124.221 96.7338   2 
   0   0 -11 208.894 109.053   1 
   0   0  12 22305.5 867.301   2 
   0   0 -12 23721.3 1062.86   1 
   0   0 -13 556.121 200.136   1 
   0   0  13 251.832 123.842   2 
   0   0  14 10235.3 647.020   2 
   0   0  15-21.6578 48.7022   2 
   0   0  16 897.417 209.460   2 
   0   0  17 45.1804 62.2154   2 
   0   0  18 596.992 226.753   2 
   0   0  19 320.035 207.303   2 
   0   0  20 5663.49 628.026   2 
   0   0  21 245.972 194.453   2 
   0   1   3 12998.4 362.402   1 
   0   1   4 27730.1 656.767   1 
   0   1   5 5710.86 303.214   1 
   0   1   6 4476.56 302.334   1 
   0   1   6 4139.20 253.085   2 
   0   1   7 6073.49 375.363   1 
   0   1   7 5803.80 319.715   2 
   0   1   8 32548.9 810.179   2 
   0  -1   8 31777.6 765.141   2 
   0   1   8 29268.0 848.006   1 
   0  -1  -8 29555.6 941.510   1 
   0  -1  -9 865.524 202.947   1 
   0   1   9 791.553 174.801   2 
   0  -1   9 766.558 156.667   2 
   0   1   9 1041.25 202.785   1 
   0  -1  10 7386.48 444.490   2 
   0   1  10 7735.25 459.790   2 
   0  -1  11 9321.77 534.128   2 
   0  -1 -11 8673.48 600.139   1 
   0   1 -11 8309.50 610.862   1 
   0   1  11 9705.91 546.649   2 
   0   1 -12 14577.7 827.971   1 
   0  -1 -12 14059.0 790.761   1 
   0  -1  12 13196.5 674.542   2 
   0   1  12 12690.2 658.115   2 
   0   1 -13 6704.51 609.734   1 
   0   1  13 6125.65 491.178   2 
   0  -1 -13 8057.03 637.371   1 
   0  -1  13 6549.38 494.264   2 
   0  -1  14 598.493 174.679   2 
   0   1  14 301.216 144.614   2 
   0   1  15 972.578 214.366   2 
   0  -1  15 682.551 181.924   2 
   0  -1  16 173.852 100.487   2 
   0   1  16 172.264 97.2622   2 
   0   1  17 66.5153 73.6234   2 
   0  -1  17 82.7830 86.4066   2 
   0   1  18 2534.97 393.156   2 
   0  -1  18 3005.79 415.566   2 
   0   1  19 2636.05 420.865   2 
   0  -1  19 2648.65 415.040   2 
   0  -1  20 684.827 266.448   2 
   0   1  20 371.375 210.131   2 
   0   1  21 1242.10 316.586   2 
   0  -1  21 1103.74 304.982   2 
   0   2   2 60904.7 643.706   1 
   0   2   3 171907. 1141.10   2 
   0   2   3 161895. 1306.11   1 
   0   2   4 1726.12 151.417   1 
   0   2   4 2198.47 159.463   2 
   0   2   5 6856.04 330.868   1 
   0   2   5 7975.98 317.345   2 
   0   2   6 1496.77 175.356   1 
   0   2   6 1608.27 161.910   2 
   0   2   7 12436.7 519.612   1 
   0   2   7 13871.4 507.403   2 
   0  -2  -7 12270.6 615.307   1 
   0   2   8 79.5109 73.0299   2 
   0  -2   8 197.605 92.3063   2 
   0  -2  -8 352.309 131.245   1 
   0   2   8 145.405 92.1001   1 
   0  -2  -9 52209.9 1342.89   1 
   0   2   9 51375.2 1130.24   2 
   0   2   9 50600.5 1216.06   1 
   0   2  10 8746.08 524.027   1 
   0  -2  10 8936.69 482.638   2 
   0   2  10 8444.62 484.645   2 
   0   2 -11 18452.0 882.775   1 
   0   2  11 16959.8 728.360   2 
   0  -2  11 16610.8 727.447   2 
   0  -2 -12 2856.25 364.358   1 
   0   2  12 3129.06 334.489   2 
   0  -2  12 3147.91 331.262   2 
   0   2 -12 2900.44 368.013   1 
   0  -2  13 7392.75 523.894   2 
   0   2  13 7891.93 551.420   2 
   0  -2 -13 7850.26 621.475   1 
   0   2  14 3122.19 361.282   2 
   0  -2  14 3292.92 366.129   2 
   0  -2  15 286.635 123.161   2 
   0   2  15 259.572 119.599   2 
   0   2  16 183.517 125.388   2 
   0  -2  16 93.3267 52.2171   2 
   0   2  17 1713.33 314.985   2 
   0  -2  17 1310.66 275.222   2 
   0   2  18 1804.52 337.148   2 
   0  -2  18 1805.31 329.381   2 
   0   2  19 508.444 221.267   2 
   0  -2  19 246.327 152.132   2 
   0   2  20 1467.55 323.464   2 
   0  -2  20 1840.12 367.006   2 
   0   2  21 1469.75 347.889   2 
   0  -2  21 1735.08 371.004   2 
   0   3   1 350.464 38.0657   2 
   0   3   2 58553.5 650.696   1 
   0   3   2 51954.7 580.292   2 
   0   3   3 23316.1 443.628   2 
   0   3   3 25740.7 501.561   1 
   0   3   4 1127.79 152.622   1 
   0   3   4 509.698 81.1956   2 
   0   3   5 22088.7 602.780   1 
   0  -3  -5 22233.4 630.514   1 
   0   3   6 1682.23 180.630   1 
   0  -3  -6 2106.12 211.985   1 
   0   3   6 2090.28 199.960   2 
   0  -3  -7 24711.4 788.253   1 
   0   3   7 28735.1 803.033   1 
   0  -3  -8 15014.9 661.104   1 
   0   3   8 17180.5 624.957   2 
   0   3   8 17013.4 673.317   1 
   0  -3  -9 18872.6 784.054   1 
   0   3   9 17227.6 687.084   1 
   0   3   9 19074.4 700.489   2 
   0  -3   9 19124.4 653.557   2 
   0  -3  10 968.615 161.793   2 
   0   3  10 820.976 176.020   1 
   0   3  10 926.940 170.582   2 
   0   3  11 209.275 125.854   2 
   0  -3  11 390.971 136.111   2 
   0   3  11 319.922 145.335   1 
   0   3 -11 107.231 82.9545   1 
   0   3  12 85.9699 92.2126   2 
   0   3 -12 64.8790 79.1787   1 
   0  -3  12 234.074 112.107   2 
   0  -3 -12 317.613 146.124   1 
   0  -3 -13 12980.4 807.487   1 
   0   3  13 12735.5 700.082   2 
   0  -3  13 13644.1 702.584   2 
   0   3  14 641.260 190.360   2 
   0  -3  14 546.050 165.273   2 
   0  -3  15 823.661 194.479   2 
   0   3  15 871.551 212.780   2 
   0   3  16 2296.78 349.962   2 
   0  -3  16 1966.23 310.975   2 
   0  -3  17 1596.37 308.804   2 
   0   3  17 2074.97 348.743   2 
   0   3  18 1944.16 345.936   2 
   0  -3  18 2349.88 380.947   2 
   0  -3  19 4669.55 546.859   2 
   0   3  19 5413.24 589.926   2 
   0  -3  20 948.783 272.792   2 
   0   3  20 848.602 275.951   2 
   0  -3  21 1377.16 324.735   2 
   0   3  21 1333.12 329.594   2 
   0   4   0 81540.5 896.550   3 
   0   4   1 4748.62 226.531   3 
   0   4   1 3595.51 126.881   2 
   0   4   2 516.629 64.3704   1 
   0   4   2 508.613 59.0968   2 
   0   4   2 737.011 96.3505   3 
   0   4   3 42.8198 34.5846   2 
   0   4   3-33.9769 48.1871   1 
   0  -4  -4 25944.2 609.535   1 
   0   4   4 25559.0 584.371   1 
   0   4   5 17009.7 490.675   2 
   0  -4  -5 18992.7 604.291   1 
   0   4   5 18656.6 564.236   1 
   0   4   6 67998.5 1160.25   1 
   0  -4  -6 70268.8 1255.71   1 
   0   4   7 586.751 135.826   2 
   0   4   7 510.683 119.637   1 
   0  -4  -7 527.084 115.023   1 
   0   4   8 8893.41 451.405   2 
   0  -4  -8 7260.22 460.009   1 
   0   4   8 7855.19 448.257   1 
   0   4   9 745.527 151.653   2 
   0  -4   9 814.296 138.984   2 
   0   4   9 693.120 151.028   1 
   0  -4  -9 431.483 126.260   1 
   0  -4  10 3337.76 302.430   2 
   0   4  10 3412.37 319.857   2 
   0   4  10 3805.85 342.342   1 
   0   4  11 6156.63 448.794   2 
   0  -4  11 6591.08 436.803   2 
   0  -4  12 1164.99 204.382   2 
   0   4 -12 1215.60 238.600   1 
   0   4  12 1357.56 266.322   1 
   0   4  12 1236.67 220.337   2 
   0  -4 -12 1196.21 234.743   1 
   0   4  13 2635.24 335.441   2 
   0  -4  13 2845.13 328.747   2 
   0  -4 -13 2816.75 380.928   1 
   0  -4  14 8218.39 573.390   2 
   0   4  14 7667.49 579.820   2 
   0  -4 -14 8379.48 691.830   1 
   0   4  15 3239.61 393.634   2 
   0  -4  15 3385.41 386.591   2 
   0   4  16 8396.83 663.942   2 
   0  -4  16 7989.41 619.241   2 
   0   4  17 6377.22 591.764   2 
   0  -4  17 6211.79 578.823   2 
   0   4  18 1465.09 340.874   2 
   0  -4  18 1203.78 287.862   2 
   0  -4  19 192.747 153.648   2 
   0   4  19 126.033 155.719   2 
   0  -4  20 419.574 204.265   2 
   0   4  20 136.045 103.008   2 
   0   4  21 836.902 252.630   2 
   0  -4  21 1400.96 322.563   2 
   0  -4  22 6.88893 93.6066   2 
   0   5   0 5.95262 55.3937   3 
   0   5   1 818.522 104.278   3 
   0   5   1 595.957 56.1837   2 
   0   5   2 55446.8 748.563   1 
   0   5   2 55016.0 632.459   2 
   0  -5  -3 23314.9 534.367   1 
   0   5   3 20952.8 448.685   2 
   0   5   3 21668.4 495.172   1 
   0  -5  -4 9.37883 30.6692   1 
   0   5   4 33.9633 37.9391   1 
   0   5   4 20.4955 28.7538   2 
   0   5   5 23919.1 623.872   1 
   0   5   5 21757.0 564.854   2 
   0  -5  -5 22164.8 633.977   1 
   0   5   6 26846.9 741.237   1 
   0  -5  -6 25910.5 767.513   1 
   0   5   7 23325.3 724.270   1 
   0   5   7 25345.2 718.781   2 
   0  -5  -7 24148.4 808.182   1 
   0   5   8 1749.36 212.697   2 
   0  -5  -8 1894.92 237.528   1 
   0   5   8 1966.94 228.326   1 
   0  -5  -9 4378.73 384.232   1 
   0   5   9 4909.18 360.589   2 
   0   5   9 4655.82 372.274   1 
   0  -5   9 3602.30 271.342   2 
   0  -5  10 7106.08 427.429   2 
   0   5  10 7070.27 459.701   2 
   0   5  10 7495.18 477.505   1 
   0  -5  11 253.384 97.9715   2 
   0   5 -11 190.579 103.930   1 
   0   5  11 146.540 80.1842   2 
   0   5  11 209.004 107.383   1 
   0   5  12 689.903 196.140   1 
   0  -5 -12 418.830 148.471   1 
   0  -5  12 428.203 144.862   2 
   0   5  12 483.753 153.327   2 
   0  -5  13 5841.09 458.249   2 
   0  -5 -13 5928.67 554.343   1 
   0   5  13 5924.62 487.469   2 
   0  -5 -14 1677.69 315.707   1 
   0   5  14 1758.73 287.634   2 
   0  -5  14 1907.29 287.214   2 
   0  -5  15 7077.12 557.355   2 
   0   5  15 7070.61 585.667   2 
   0   5  16 591.957 215.396   2 
   0  -5  16 388.583 169.170   2 
   0  -5  17 1716.10 311.925   2 
   0   5  17 1525.84 308.187   2 
   0   5  18 7695.59 690.158   2 
   0  -5  18 9097.01 722.275   2 
   0  -5  19 689.632 220.325   2 
   0   5  19 708.562 251.147   2 
   0   5  20 166.128 179.545   2 
   0  -5  20 161.525 130.954   2 
   0  -5  21 244.585 158.565   2 
   0   5  21 470.087 194.888   2 
   0  -5  22 15.8100 105.564   2 
   0   6   0 4168.39 245.689   3 
   0   6   1 9756.96 230.965   2 
   0  -6  -1 9763.10 227.508   2 
   0   6   2 6887.75 337.011   3 
   0   6   2 5552.93 208.808   2 
   0   6   3 3867.77 204.339   2 
   0   6   3 3834.11 215.818   1 
   0   6   3 4305.04 281.488   3 
   0   6   4 347.959 62.5807   1 
   0  -6  -4 380.808 83.1175   1 
   0   6   4 492.410 105.851   3 
   0   6   5 234.140 91.5947   2 
   0   6   5 246.782 90.6526   1 
   0  -6  -5 109.569 52.8229   1 
   0  -6  -6 66345.6 1205.75   1 
   0   6   6 67020.7 1142.42   1 
   0   6   6 69845.8 1123.85   2 
   0   6   7 29372.1 778.708   2 
   0  -6  -7 27519.5 835.966   1 
   0   6   7 29880.6 825.055   1 
   0   6   8 7123.94 419.766   2 
   0  -6  -8 7401.76 469.284   1 
   0   6   8 7594.64 441.106   1 
   0   6   9 1111.20 186.675   1 
   0  -6   9 846.988 131.265   2 
   0   6   9 1015.87 168.674   2 
   0  -6  -9 998.799 169.532   1 
   0  -6  10 217.523 89.9919   2 
   0  -6 -10-38.3997 103.923   1 
   0   6  10 196.751 119.910   1 
   0   6  10 143.427 84.0731   2 
   0   6  11 863.561 182.016   1 
   0  -6  11 788.140 153.173   2 
   0   6 -11 901.899 202.066   1 
   0   6  11 861.707 179.533   2 
   0   6  12 18576.2 815.801   1 
   0  -6 -12 19130.2 968.970   1 
   0  -6  12 17540.2 770.462   2 
   0   6  12 18230.5 815.102   2 
   0  -6  13 209.355 113.178   2 
   0   6  13 259.529 146.461   1 
   0  -6 -13-21.3589 88.3609   1 
   0   6  13 229.610 115.290   2 
   0  -6 -14 6698.41 625.546   1 
   0   6  14 6238.76 528.290   2 
   0  -6  14 6277.83 505.906   2 
   0   6  15 7960.63 626.570   2 
   0  -6  15 8238.28 596.188   2 
   0   6  16 8175.52 654.621   2 
   0  -6  16 7619.39 613.276   2 
   0  -6  17 495.270 185.243   2 
   0   6  17 489.731 187.600   2 
   0   6  18 250.637 150.887   2 
   0  -6  18 517.551 204.403   2 
   0  -6  19 682.571 234.097   2 
   0   6  19 530.729 205.329   2 
   0  -6  20 2135.16 387.435   2 
   0   6  20 1555.22 339.308   2 
   0  -6  21 379.232 194.793   2 
   0  -6  22 183.161 138.856   2 
   0  -7   0-3.35780 10.1737   2 
   0   7   0-21.2606 13.6631   2 
   0   7   0-8.17765 27.4151   3 
   0   7   1 23582.6 646.951   3 
   0   7   1 21233.9 368.087   2 
   0  -7  -1 22611.9 362.523   2 
   0   7   2 170.828 39.6446   2 
   0   7   2 277.723 78.1479   3 
   0   7   3 1210.37 157.279   3 
   0   7   3 1173.99 112.462   2 
   0   7   3 1262.35 134.039   1 
   0   7   4 12266.9 425.645   1 
   0   7   4 13445.6 545.275   3 
   0   7   4 12152.6 401.957   2 
   0   7   5 42460.3 843.126   2 
   0  -7  -5 42416.2 903.275   1 
   0   7   5 44538.3 897.840   1 
   0   7   5 45819.8 1070.27   3 
   0   7   6 391.096 101.243   2 
   0  -7  -6 385.688 86.9259   1 
   0  -7  -7 24155.5 789.714   1 
   0   7   7 23320.5 698.782   2 
   0   7   8 159.947 82.6974   2 
   0   7   8 34.9023 48.2716   1 
   0   7   9 1889.16 236.178   2 
   0  -7   9 1981.08 200.986   2 
   0   7   9 2342.27 256.529   1 
   0  -7  -9 2378.45 280.613   1 
   0  -7  10 3860.08 311.085   2 
   0  -7 -10 3936.42 391.475   1 
   0   7  10 4192.08 368.424   1 
   0   7  10 3805.24 344.598   2 
   0   7  11 2371.65 286.605   2 
   0   7 -11 2524.66 341.783   1 
   0  -7  11 2423.22 269.974   2 
   0   7  11 2645.45 299.443   1 
   0   7  12 206.225 149.749   1 
   0  -7 -12-73.4072 120.352   1 
   0  -7  12 50.8408 86.7354   2 
   0   7  12 131.612 108.698   2 
   0   7  13 1059.46 220.263   2 
   0  -7 -13 803.684 198.712   1 
   0   7  13 1139.11 218.174   1 
   0  -7  13 1227.57 213.955   2 
   0   7  14 2132.06 316.196   2 
   0  -7  14 1740.32 265.637   2 
   0  -7 -14 1613.06 303.014   1 
   0   7  14 1899.15 288.306   1 
   0   7  15 268.186 152.451   2 
   0  -7  15 124.742 115.896   2 
   0   7  16 3168.49 407.053   2 
   0  -7  16 2738.28 371.949   2 
   0   7  17 1035.42 240.260   2 
   0  -7  17 960.078 227.637   2 
   0  -7  18 2733.15 399.581   2 
   0   7  18 3111.35 442.491   2 
   0   7  19 183.502 121.228   2 
   0  -7  19 281.201 155.722   2 
   0  -7  20 153.584 141.116   2 
   0   7  20 105.885 108.409   2 
   0  -7  21 1234.25 316.590   2 
   0  -7  22 40.4787 79.9047   2 
   0   8   0 30323.0 413.387   2 
   0   8   0 32408.2 808.223   3 
   0  -8   0 30232.6 353.373   2 
   0   8   1 244.145 67.5880   3 
   0  -8  -1 309.242 48.1117   2 
   0   8   1 138.355 23.0815   2 
   0   8   2 12627.6 516.596   3 
   0   8   2 11655.4 321.428   2 
   0   8   3-3.45156 30.6072   3 
   0   8   3 36.3632 49.8783   1 
   0   8   3 18.1146 30.5923   2 
   0   8   4 8342.49 341.123   2 
   0   8   4 8097.63 359.099   1 
   0   8   4 8599.84 458.908   3 
   0   8   5 6338.24 325.414   2 
   0   8   5 6060.51 403.264   3 
   0   8   5 6775.01 354.254   1 
   0   8   6 22758.2 817.833   3 
   0   8   6 22199.3 663.313   2 
   0  -8  -6 21549.0 704.158   1 
   0   8   6 23578.0 687.854   1 
   0  -8  -7 10801.8 532.292   1 
   0   8   7 10975.2 492.533   2 
   0   8   7 12036.0 532.860   1 
   0   8   8 124.917 67.7857   1 
   0  -8  -8 160.760 69.1955   1 
   0   8   8 143.255 61.4689   2 
   0   8   9 69.4115 55.7077   2 
   0  -8   9 172.130 74.1596   2 
   0  -8  -9 146.832 81.8456   1 
   0   8   9 150.238 71.7909   1 
   0   8  10 11129.5 590.154   2 
   0   8  10 12429.2 620.398   1 
   0  -8 -10 11541.2 651.430   1 
   0  -8  10 11309.1 518.829   2 
   0   8  11 120.882 97.1646   1 
   0  -8  11 174.427 85.8779   2 
   0   8  11 196.187 111.491   2 
   0  -8  12 225.761 98.8326   2 
   0   8  12 204.657 114.641   1 
   0   8  12 237.449 114.351   2 
   0   8  13 883.436 192.187   1 
   0  -8 -13 889.128 221.176   1 
   0   8  13 1073.20 226.019   2 
   0  -8  13 744.147 175.816   2 
   0  -8 -14 3751.68 454.126   1 
   0  -8  14 4033.95 393.392   2 
   0   8  14 4010.96 427.950   2 
   0   8  14 4044.13 417.710   1 
   0   8  15 1623.20 289.745   2 
   0  -8  15 1262.00 244.255   2 
   0  -8  16 3248.08 394.503   2 
   0   8  16 3270.96 417.564   2 
   0   8  17 28.0367 82.2559   2 
   0  -8  17 172.311 125.680   2 
   0  -8  18 303.152 148.395   2 
   0   8  18 310.560 147.525   2 
   0  -8  19 214.117 151.703   2 
   0   8  19 136.932 169.157   2 
   0   8  20 813.329 254.455   2 
   0  -8  20 1565.44 337.935   2 
   0  -8  21 885.348 271.714   2 
   0  -8  22 1827.21 394.574   2 
   0  -9   0 42.3345 18.6042   2 
   0   9   0 10.4902 30.4980   3 
   0   9   0-8.23165 23.1170   2 
   0  -9  -1 14053.3 295.237   2 
   0   9   1 13718.5 326.580   2 
   0   9   1 13749.4 552.896   3 
   0   9   2 96013.4 1496.43   3 
   0   9   2 91601.0 936.949   2 
   0   9   3 4003.08 222.670   2 
   0   9   3 4419.50 336.469   3 
   0   9   3 4682.90 291.045   1 
   0   9   4 4625.69 286.704   1 
   0   9   4 4640.68 264.544   2 
   0   9   4 4524.34 345.647   3 
   0   9   5 7845.79 366.013   2 
   0   9   5 7470.16 465.860   3 
   0   9   5 7749.86 389.691   1 
   0   9   6 8456.30 425.187   1 
   0   9   6 8448.59 509.943   3 
   0   9   6 8256.69 408.007   2 
   0  -9  -7 48058.2 1135.55   1 
   0   9   7 51339.9 1084.52   1 
   0   9   7 49698.9 1053.55   2 
   0   9   7 49531.2 1294.82   3 
   0   9   8 1065.97 185.669   2 
   0   9   8 1652.27 227.645   1 
   0  -9  -8 1111.87 182.608   1 
   0  -9   8 1003.68 133.852   2 
   0   9   9 285.075 86.3326   1 
   0   9   9 463.933 130.887   2 
   0  -9  -9 389.973 116.096   1 
   0  -9   9 438.069 101.237   2 
   0   9  10 4886.57 406.005   2 
   0   9 -10 5192.27 448.894   1 
   0   9  10 5366.22 411.017   1 
   0  -9 -10 4849.67 428.376   1 
   0  -9  10 5032.38 358.205   2 
   0   9  11 1596.79 240.871   2 
   0  -9  11 2093.34 251.872   2 
   0   9  11 1861.65 253.400   1 
   0   9  12 3408.13 347.681   1 
   0  -9  12 3363.88 332.708   2 
   0   9  12 3309.54 373.841   2 
   0  -9 -13 7995.55 628.490   1 
   0   9  13 7883.08 536.656   1 
   0  -9  13 8535.12 543.811   2 
   0   9  13 7884.83 582.105   2 
   0  -9 -14 3298.47 422.396   1 
   0   9  14 3203.89 368.579   1 
   0   9  14 3779.35 419.283   2 
   0  -9  14 3299.54 367.466   2 
   0  -9  15 2944.40 353.627   2 
   0   9  15 2916.27 387.905   2 
   0  -9  16 2833.07 376.367   2 
   0   9  16 2859.84 400.655   2 
   0  -9  17 322.337 137.071   2 
   0   9  17 577.866 213.546   2 
   0   9  18 11.2833 79.8407   2 
   0  -9  18-41.6986 85.6638   2 
   0   9  19 1671.20 355.791   2 
   0  -9  19 1733.68 329.791   2 
   0  -9  20 116.811 106.351   2 
   0   9  20 57.7756 95.9685   2 
   0  -9  21 469.398 202.903   2 
   0  -9  22 1341.60 336.119   2 
   0 -10   0 5318.76 161.914   2 
   0  10   0 5136.11 359.049   3 
   0  10   0 4530.75 178.667   2 
   0  10   1 1805.61 125.462   2 
   0  10   1 1794.21 210.336   3 
   0  10   2 46593.6 1100.60   3 
   0  10   2 43251.1 681.038   2 
   0  10   3 23708.0 808.637   3 
   0  10   3 21819.1 525.566   2 
   0  10   4 12414.4 437.986   2 
   0  10   4 12243.9 486.098   1 
   0  10   4 13042.9 621.171   3 
   0  10   5 24538.7 693.294   1 
   0  10   5 24885.7 864.006   3 
   0  10   5 25931.0 682.259   2 
   0  10   6 388.719 109.561   3 
   0  10   6 319.355 74.8601   1 
   0  10   6 432.747 100.191   2 
   0  10   7 6996.76 404.493   1 
   0  10   7 6192.64 373.970   2 
   0  10   7 5682.37 451.869   3 
   0  10  -8 19114.1 798.434   1 
   0  10   8 19537.1 867.554   3 
   0 -10   8 17488.4 544.007   2 
   0 -10  -8 19698.1 784.927   1 
   0  10   8 21126.1 747.360   1 
   0  10   8 19393.3 714.306   2 
   0 -10   9 1137.21 159.805   2 
   0  10   9 1194.54 224.624   3 
   0  10   9 1360.99 203.692   2 
   0  10  -9 1272.60 229.266   1 
   0 -10  -9 1086.32 191.242   1 
   0  10   9 1080.62 164.061   1 
   0  10  10 28822.3 965.763   2 
   0  10  10 31460.1 987.530   1 
   0 -10  10 30490.5 871.586   2 
   0 -10 -10 29366.9 1064.42   1 
   0 -10  11 15205.7 656.493   2 
   0  10  11 14354.1 726.233   2 
   0  10  11 15813.2 726.479   1 
   0 -10  12 23.1092 71.3319   2 
   0  10  12 110.156 105.062   2 
   0  10  12 75.4432 63.9207   1 
   0  10  13 101.755 113.509   1 
   0 -10  13 64.1750 65.8707   2 
   0 -10 -13-86.5925 92.9619   1 
   0  10  13 37.4464 80.7967   2 
   0 -10 -14-54.7041 78.3481   1 
   0  10  14 156.176 110.096   2 
   0 -10  14 153.455 106.880   2 
   0  10  14-44.0664 68.5864   1 
   0  10  15 1054.86 242.207   2 
   0 -10  15 890.789 209.005   2 
   0  10  15 1106.82 225.368   1 
   0 -10 -15 1005.08 248.352   1 
   0 -10  16 2408.73 344.451   2 
   0  10  16 2250.79 359.429   2 
   0  10  17 1410.63 303.347   2 
   0 -10  17 1476.89 277.739   2 
   0  10  18 231.930 139.358   2 
   0 -10  18-37.9430 74.9301   2 
   0  10  19 338.347 175.921   2 
   0 -10  19 512.498 191.338   2 
   0 -10  20 496.833 183.870   2 
   0  10  20 638.531 229.880   2 
   0 -10  21 567.993 207.890   2 
   0 -10  22 1773.07 388.038   2 
   0 -11   0 52.6457 18.7909   2 
   0  11   0 20.8659 33.4042   3 
   0  11   0-24.3372 22.4871   2 
   0  11   1 3239.40 175.585   2 
   0  11   1 3525.75 311.707   3 
   0  11   2 75931.1 929.824   2 
   0  11   2 79182.1 1507.19   3 
   0  11   3 4225.06 237.655   2 
   0  11   3 4272.89 353.666   3 
   0 -11   3 4005.16 157.036   2 
   0  11   4 5640.83 295.050   2 
   0  11   4 5768.46 348.409   1 
   0  11   4 5862.88 433.445   3 
   0  11   5 800.616 162.319   3 
   0  11   5 1112.97 145.826   2 
   0  11   5 842.090 120.782   1 
   0  11   6 4176.02 311.989   1 
   0  11   6 4262.90 301.986   2 
   0  11   6 3884.27 364.227   3 
   0  11   7 1942.00 224.642   1 
   0  11   7 2075.80 220.240   2 
   0 -11   7 1795.12 155.419   2 
   0  11   7 2037.95 278.058   3 
   0  11   8-21.9656 33.1929   3 
   0 -11   8 57.5967 49.2031   2 
   0  11   8 42.0703 61.0206   2 
   0 -11  -9 7008.56 492.260   1 
   0  11  -9 6150.74 478.073   1 
   0  11   9 6713.77 445.078   2 
   0  11   9 6607.26 540.990   3 
   0  11   9 7597.08 468.270   1 
   0 -11   9 6690.86 369.529   2 
   0  11  10 6563.85 452.043   1 
   0  11  10 6311.03 462.225   2 
   0 -11 -10 6064.31 475.766   1 
   0 -11  10 7223.05 428.492   2 
   0  11  11 24869.4 914.532   1 
   0  11  11 24480.2 937.008   2 
   0 -11  11 25155.3 836.682   2 
   0 -11  12 1214.61 198.246   2 
   0  11  12 1277.63 224.426   1 
   0  11  12 1367.82 242.421   2 
   0  11  13 96.7302 82.4833   2 
   0 -11  13 34.6368 76.9095   2 
   0 -11 -13 76.1846 73.5653   1 
   0  11  13-42.2760 60.1034   1 
   0  11  14 185.081 122.538   1 
   0 -11  14 206.441 108.219   2 
   0  11  14 63.3811 87.7693   2 
   0 -11 -14 50.1785 63.8159   1 
   0 -11 -15 793.647 218.638   1 
   0 -11  15 1118.61 219.632   2 
   0  11  15 1273.65 249.434   1 
   0  11  15 1356.53 278.355   2 
   0 -11  16 1560.62 284.821   2 
   0  11  16 1371.10 291.789   2 
   0  11  17 1103.29 273.556   2 
   0 -11  17 1208.65 250.834   2 
   0 -11  18 332.074 163.668   2 
   0  11  18 268.954 149.012   2 
   0 -11  19 196.493 140.930   2 
   0  11  19 239.104 131.763   2 
   0  11  20 47.3711 93.1587   2 
   0 -11  20 93.2670 102.554   2 
   0 -11  21 180.713 151.828   2 
   0 -11  22 406.510 203.808   2 
   0  12   0 9902.01 284.580   2 
   0  12   1 18021.2 746.579   3 
   0  12   1 17100.0 416.139   2 
   0  12   2 2437.38 279.723   3 
   0  12   2 2322.34 165.917   2 
   0  12   3 1008.36 175.940   3 
   0  12   3 796.337 102.513   2 
   0  12   4 11254.1 426.431   2 
   0  12   4 11005.7 493.065   1 
   0  12   4 11256.2 619.818   3 
   0  12   5 13256.6 504.162   2 
   0  12   5 12874.8 548.760   1 
   0  12   5 14048.6 725.684   3 
   0  12   6 123.531 66.3339   1 
   0  12   6 254.770 97.5317   3 
   0  12   7 5033.16 350.763   2 
   0  12   7 4595.68 428.030   3 
   0 -12   7 4379.81 244.206   2 
   0  12   7 4928.10 350.921   1 
   0  12   8 1649.98 265.984   3 
   0  12   8 1793.27 226.593   2 
   0 -12   8 1687.01 166.251   2 
   0  12   8 1979.93 243.008   1 
   0 -12   9 316.269 94.5084   2 
   0  12   9 328.141 130.906   2 
   0 -12  10 1480.76 192.282   2 
   0  12  10 1156.13 181.271   1 
   0  12  10 1454.71 227.117   2 
   0 -12 -10 1323.74 223.617   1 
   0  12  11 1715.47 269.488   2 
   0  12  11 1774.14 256.069   1 
   0 -12  11 1850.11 243.570   2 
   0  12  12 73.9694 94.3283   1 
   0  12  12 138.750 114.450   2 
   0 -12  12 87.3270 63.4909   2 
   0 -12 -13 719.049 192.759   1 
   0  12  13 978.335 197.988   1 
   0 -12  13 879.689 181.466   2 
   0  12  13 908.834 208.468   2 
   0 -12  14 675.690 161.879   2 
   0 -12 -14 450.349 148.905   1 
   0  12  14 854.451 200.973   2 
   0  12  14 598.643 155.516   1 
   0  12  15 5928.60 560.956   2 
   0  12  15 5958.98 497.417   1 
   0 -12  15 6434.90 527.464   2 
   0 -12  16 295.749 130.717   2 
   0  12  16 175.669 123.890   2 
   0 -12  17 678.441 195.956   2 
   0  12  17 548.500 186.229   2 
   0  12  18 263.031 146.364   2 
   0 -12  18 214.529 134.159   2 
   0  12  19-35.7223 58.7901   2 
   0 -12  19-25.5698 94.4082   2 
   0 -12  20 164.353 126.774   2 
   0 -12  21 1352.54 302.222   2 
   0  13   0 31.9420 30.6643   2 
   0  13   1 432.900 117.029   3 
   0  13   1 474.924 73.4159   2 
   0  13   2 12258.8 635.965   3 
   0  13   2 11740.0 393.329   2 
   0  13   3 20394.6 559.802   2 
   0  13   3 21083.0 855.133   3 
   0  13   4 1849.52 215.359   1 
   0  13   4 1745.70 174.555   2 
   0  13   4 1808.34 257.603   3 
   0 -13   4 1525.16 108.173   2 
   0 -13   5 9412.54 262.336   2 
   0  13   5 10292.6 632.660   3 
   0  13   5 9885.98 489.480   1 
   0  13   5 9332.47 430.220   2 
   0 -13   6 50.6372 29.3621   2 
   0  13   6 122.567 63.0998   2 
   0  13   6-17.2564 93.5674   1 
   0  13   6 33.0790 32.5274   3 
   0 -13   7 149.855 51.0677   2 
   0  13   7 142.618 75.8969   2 
   0  13   7 115.942 36.8829   1 
   0  13   7 137.664 82.1493   3 
   0 -13   8 9175.60 404.866   2 
   0  13   8 9148.26 509.694   2 
   0  13   8 9700.04 516.778   1 
   0  13   9 19527.6 765.043   1 
   0 -13   9 19103.5 617.297   2 
   0  13   9 18254.6 761.752   2 
   0  13  10 90.0366 78.2202   2 
   0  13  10-92.1223 113.428   1 
   0 -13  10 58.2989 66.5605   2 
   0 -13  11 38538.6 1019.82   2 
   0  13  11 41046.1 1169.20   1 
   0  13  11 38902.2 1213.73   2 
   0  13  12 2731.78 336.233   2 
   0  13  12 2849.98 318.329   1 
   0 -13  12 2732.16 288.474   2 
   0  13  13 7.85682 55.6158   2 
   0 -13  13 8.30587 37.3241   2 
   0  13  13 125.122 133.320   1 
   0 -13 -13 14.1887 59.3260   1 
   0 -13  14 912.606 190.102   2 
   0  13  14 794.175 174.078   1 
   0  13  14 795.508 209.076   2 
   0 -13 -14 732.466 189.909   1 
   0  13  15 2895.10 394.181   2 
   0  13  15 2757.55 345.440   1 
   0 -13  15 2861.32 356.013   2 
   0 -13  16 245.759 144.513   2 
   0  13  16 306.118 161.964   2 
   0 -13  17 2894.39 390.272   2 
   0  13  17 2542.43 400.668   2 
   0  13  18 354.728 158.779   2 
   0 -13  18 712.353 225.278   2 
   0  13  19 11.9876 58.6339   2 
   0 -13  19 34.4036 88.5062   2 
   0 -13  20 384.121 187.286   2 
   0 -13  21-25.2067 71.1661   2 
   0  14   0 150.802 42.5709   2 
   0  14   1 189.248 76.7745   3 
   0  14   1 233.705 52.9681   2 
   0  14   2 5844.86 287.399   2 
   0  14   2 6212.96 474.350   3 
   0  14   3 2130.61 281.464   3 
   0  14   3 1777.32 166.774   2 
   0  14   4 18246.6 573.106   2 
   0 -14   4 16619.0 302.065   2 
   0 -14   4 16971.2 257.297   2 
   0  14   4 18315.6 696.217   1 
   0  14   4 17486.8 823.775   3 
   0  14   5 39.5118 46.7808   2 
   0 -14   5 65.9392 23.7243   2 
   0  14   5-7.45744 48.6181   3 
   0  14   5 114.981 75.0409   1 
   0  14   6 14.7269 75.6518   1 
   0  14   6 103.805 55.6828   2 
   0 -14   6 102.257 38.3753   2 
   0  14   6 84.4031 49.1684   3 
   0  14   7 809.117 193.488   3 
   0 -14   7 903.194 106.970   2 
   0  14   7 859.401 151.599   2 
   0  14   7 842.164 144.847   1 
   0 -14   8 281.741 77.7219   2 
   0  14   8 369.593 106.449   2 
   0  14   8 323.288 114.928   1 
   0 -14   9 2229.85 213.377   2 
   0  14   9 2994.14 307.966   1 
   0  14   9 2256.93 271.277   2 
   0  14  10 7410.12 512.781   2 
   0  14  10 8184.36 523.485   1 
   0 -14  10 7352.14 412.020   2 
   0  14  11 5532.63 471.582   2 
   0  14  11 6643.28 479.435   1 
   0 -14  11 6147.44 400.264   2 
   0 -14  12 2727.07 283.359   2 
   0  14  12 2748.69 314.050   1 
   0  14  12 2625.90 338.448   2 
   0 -14  13 2.90775 54.2960   2 
   0  14  13 149.352 113.378   1 
   0  14  13 134.788 110.351   2 
   0  14  14 1096.23 241.537   2 
   0 -14 -14 1280.32 259.985   1 
   0  14  14 1131.58 227.442   1 
   0 -14  14 1272.46 223.234   2 
   0 -14  15 554.671 167.303   2 
   0  14  15 453.476 179.010   2 
   0  14  15 473.971 149.732   1 
   0  14  16 5037.51 541.688   2 
   0 -14  16 5598.33 512.341   2 
   0  14  16 5006.76 460.477   1 
   0  14  17 1.88275 54.4523   2 
   0 -14  17 14.9319 99.6210   2 
   0 -14  18 496.866 175.359   2 
   0  14  18 486.435 192.677   2 
   0  14  19-11.4376 84.8447   2 
   0 -14  19 4.55383 48.2094   2 
   0 -14  20-94.8187 97.4696   2 
   0 -15   0-37.0592 80.1020   3 
   0 -15   1 329.570 116.418   3 
   0  15   1 296.787 111.268   3 
   0  15   1 308.130 60.1313   2 
   0  15   2 1764.15 268.651   3 
   0 -15   2 1553.53 240.801   3 
   0  15   2 1483.90 145.973   2 
   0 -15   3 1038.04 205.158   3 
   0  15   3 1080.15 134.901   2 
   0  15   3 1063.51 209.569   3 
   0 -15   4 8237.13 592.770   3 
   0  15   4 8995.13 611.829   3 
   0  15   4 9210.86 511.043   1 
   0  15   4 8658.15 404.476   2 
   0  15   5 3922.88 323.893   1 
   0  15   5 4013.79 417.871   3 
   0  15   5 3758.66 283.846   2 
   0 -15   5 3994.41 152.904   2 
   0 -15   5 3556.94 171.861   2 
   0 -15   5 3723.00 413.088   3 
   0  15   6 207.841 56.4951   1 
   0 -15   6 352.506 57.2604   2 
   0  15   6 335.169 88.6599   2 
   0 -15   7 735.195 93.7315   2 
   0  15   7 532.173 82.9948   1 
   0  15   7 642.020 137.980   2 
   0  15   8 14695.8 650.766   1 
   0  15   8 13358.5 629.995   2 
   0 -15   8 14939.5 480.593   2 
   0  15   9 4532.05 384.417   2 
   0 -15   9 5069.07 308.446   2 
   0  15   9 5077.10 402.917   1 
   0 -15  10 105.762 58.5910   2 
   0  15  10 49.3927 74.2038   2 
   0  15  11 1043.07 208.812   2 
   0  15  11 977.576 178.591   1 
   0 -15  11 1166.77 177.161   2 
   0  15  12 1454.78 250.022   2 
   0  15  12 1361.15 221.342   1 
   0 -15  12 1582.83 221.207   2 
   0  15  13 4980.07 431.387   1 
   0  15  13 4546.72 458.622   2 
   0 -15  13 5437.61 430.986   2 
   0  15  14 106.278 110.335   1 
   0  15  14-22.2909 55.8970   2 
   0 -15  14 40.1219 78.6101   2 
   0  15  15 33.0356 65.0391   2 
   0 -15  15 66.0248 82.5974   2 
   0  15  15 131.636 119.995   1 
   0 -15  16 1013.50 228.659   2 
   0  15  16 1198.46 274.423   2 
   0  15  16 1191.45 242.278   1 
   0  15  17 825.191 225.136   2 
   0 -15  17 884.488 218.669   2 
   0  15  18 992.868 270.200   2 
   0 -15  18 1121.69 250.295   2 
   0  15  19-210.151 133.891   2 
   0 -15  19 30.7674 71.9063   2 
   0 -16   0 735.390 184.123   3 
   0 -16  -1 7.53114 41.0524   3 
   0 -16   1-19.9804 63.3905   3 
   0  16   1-13.4465 19.4607   2 
   0  16   1-38.5634 46.8928   3 
   0 -16   2 5251.44 472.858   3 
   0 -16  -2 5883.53 496.939   3 
   0  16   2 5966.58 508.876   3 
   0  16   2 5342.24 287.080   2 
   0  16   3 130.912 41.9092   2 
   0 -16   3 142.798 74.5728   3 
   0  16   3 142.581 100.265   3 
   0 -16  -3 361.716 167.603   3 
   0  16   4 6985.14 374.661   2 
   0  16   4 7763.42 486.211   1 
   0 -16   4 7197.99 568.884   3 
   0  16   4 7324.61 569.013   3 
   0 -16   5 493.076 145.183   3 
   0  16   5 626.796 124.332   2 
   0  16   5 675.548 149.633   1 
   0  16   6 3333.44 299.728   1 
   0  16   6 3258.18 287.824   2 
   0 -16   6 3717.97 169.725   2 
   0 -16   6 3221.45 189.273   2 
   0  16   7 57.2708 108.920   1 
   0  16   7 346.247 99.5897   2 
   0 -16   7 378.323 66.5964   2 
   0  16   8 175.616 85.6984   2 
   0  16   8 201.642 69.6830   1 
   0 -16   8 240.166 57.2720   2 
   0 -16   9 646.556 107.347   2 
   0  16   9 720.152 165.713   2 
   0  16   9 812.072 175.549   1 
   0  16  10 2997.16 327.576   1 
   0 -16  10 2688.43 243.921   2 
   0  16  10 2253.62 288.272   2 
   0  16  11 52.6720 73.3767   2 
   0  16  11-75.5133 74.1550   1 
   0 -16  11 58.6933 61.5476   2 
   0 -16  12 301.617 107.295   2 
   0  16  12 181.032 67.7640   1 
   0  16  12 214.317 109.471   2 
   0  16  13 988.373 227.019   2 
   0 -16  13 1138.71 204.368   2 
   0  16  13 1214.46 238.054   1 
   0  16  14 3374.68 360.493   1 
   0 -16  14 3784.40 376.651   2 
   0  16  14 3036.24 392.978   2 
   0  16  15 2074.59 338.080   2 
   0 -16  15 2399.51 316.509   2 
   0  16  15 2181.26 293.914   1 
   0  16  16 4897.49 543.995   2 
   0 -16  16 5727.83 512.114   2 
   0  16  17 35.9744 63.5445   2 
   0 -16  17 122.985 116.539   2 
   0  16  18 874.066 258.468   2 
   0  16  19-50.6387 71.9267   2 
   0 -17   0 62.1123 82.4683   3 
   0 -17  -1 2600.20 340.507   3 
   0  17   1 2639.54 185.177   2 
   0 -17   1 2357.58 326.047   3 
   0  17   2 4831.40 279.728   2 
   0 -17   2 4338.72 441.419   3 
   0  17   2 5174.07 495.425   3 
   0 -17  -2 5413.52 496.274   3 
   0  17   3 32347.9 785.389   2 
   0 -17   3 32822.2 1228.48   3 
   0 -17  -3 31518.4 1221.04   3 
   0  17   4 313.633 91.0882   2 
   0 -17   4 268.010 115.356   3 
   0  17   4 531.295 147.595   1 
   0 -17   5 19295.6 973.318   3 
   0  17   5 20251.9 784.098   1 
   0  17   5 18613.0 664.067   2 
   0  17   6 13.7607 42.1910   2 
   0 -17   6 27.2383 17.6035   2 
   0 -17   6-121.180 140.071   3 
   0  17   6-55.3914 94.1697   1 
   0 -17   6 15.9618 19.4309   2 
   0 -17   7 1758.90 132.589   2 
   0  17   7 1503.21 205.577   2 
   0  17   7 1470.89 203.395   1 
   0  17   8 2114.56 250.869   1 
   0  17   8 1774.05 236.774   2 
   0 -17   8 2188.48 171.525   2 
   0  17   9 3084.36 327.620   2 
   0  17   9 3523.75 329.794   1 
   0 -17   9 3794.78 253.772   2 
   0  17  10-7.61998 62.1471   2 
   0 -17  10 58.0043 61.1029   2 
   0 -17  11 1873.64 216.047   2 
   0  17  11 1785.61 270.805   2 
   0  17  11 1663.70 233.739   1 
   0  17  12 1170.71 202.879   1 
   0 -17  12 1259.65 190.740   2 
   0  17  12 1099.83 218.282   2 
   0  17  13 3800.60 429.262   2 
   0 -17  13 4116.92 363.873   2 
   0  17  13 3947.75 380.307   1 
   0 -17  14 2879.42 326.977   2 
   0  17  14 2514.27 364.848   2 
   0  17  14 2682.77 324.015   1 
   0 -17  15 3580.75 383.402   2 
   0  17  15 3022.36 343.227   1 
   0  17  15 2382.94 376.802   2 
   0 -17  16 206.024 110.629   2 
   0  17  16 148.582 125.094   2 
   0  17  17 4644.70 550.613   2 
   0  17  18 498.007 180.617   2 
   0 -18   0 649.651 172.815   3 
   0 -18   1 1999.20 314.202   3 
   0 -18  -1 1840.77 295.864   3 
   0  18   1 2258.07 172.660   2 
   0 -18   2-65.0788 57.6629   3 
   0 -18  -2 54.8861 94.4065   3 
   0  18   2 27.6055 36.3209   2 
   0  18   3 313.024 90.4223   2 
   0 -18   3 198.203 148.128   3 
   0 -18   4 629.066 185.018   3 
   0  18   4 704.011 179.082   1 
   0  18   4 599.305 121.778   2 
   0  18   5 20842.1 826.022   1 
   0 -18   5 19278.4 996.783   3 
   0  18   5 19551.9 700.286   2 
   0  18   6 474.012 104.741   1 
   0 -18   6 250.907 99.8054   3 
   0  18   6 499.156 105.425   2 
   0  18   7 5989.22 419.161   2 
   0 -18   7 5817.41 242.868   2 
   0 -18   7 6087.78 584.729   3 
   0  18   7 6351.68 445.659   1 
   0 -18   7 6772.06 224.540   2 
   0  18   8-43.5678 57.0503   2 
   0 -18   8 9.70034 17.7700   2 
   0  18   8-106.435 94.8015   1 
   0  18   9 2778.71 316.778   2 
   0  18   9 2722.78 288.699   1 
   0 -18   9 3155.51 222.736   2 
   0  18  10 214.136 103.991   2 
   0 -18  10 349.085 106.875   2 
   0  18  10 481.401 159.678   1 
   0  18  11 297.603 105.035   2 
   0 -18  11 397.103 102.516   2 
   0  18  11 174.378 51.8992   1 
   0  18  12 123.883 60.9063   1 
   0  18  12 261.615 117.021   2 
   0  18  13 761.724 176.479   1 
   0  18  13 941.493 214.259   2 
   0 -18  13 871.958 166.625   2 
   0 -18  14 1249.64 212.538   2 
   0  18  14 1063.08 230.779   2 
   0  18  15 3480.98 446.427   2 
   0  18  16 175.543 101.035   2 
   0  18  17-90.4578 125.828   2 
   0  18  18-160.997 139.156   2 
   0 -19   0 43.2966 44.7912   3 
   0  19   1 244.145 61.6800   2 
   0 -19   1 41.8661 66.3898   3 
   0 -19  -1 164.747 64.9775   3 
   0 -19  -2 4161.08 459.122   3 
   0 -19   2 4085.63 452.945   3 
   0  19   2 3968.53 264.326   2 
   0  19   3 22587.8 682.975   2 
   0 -19  -3 21916.5 1074.20   3 
   0 -19   3 21889.7 1059.88   3 
   0  19   4 27795.8 806.301   2 
   0  19   4 27965.9 1002.57   1 
   0 -19   4 26565.9 1199.64   3 
   0 -19   5 1301.10 271.249   3 
   0  19   5 1258.66 195.211   2 
   0  19   5 1285.67 221.874   1 
   0  19   6 1902.92 236.874   2 
   0 -19   6 1770.04 319.399   3 
   0  19   6 1780.28 239.296   1 
   0  19   7-88.1985 89.1023   1 
   0 -19   7-68.3324 106.623   3 
   0  19   7-77.2422 97.7025   2 
   0  19   8-43.6143 94.4683   1 
   0 -19   8 215.482 114.200   3 
   0  19   8 125.541 59.3895   2 
   0 -19   8 173.391 46.9283   2 
   0 -19   8 157.377 38.7944   2 
   0  19   9 4334.74 370.073   1 
   0  19   9 3959.40 384.249   2 
   0 -19   9 4326.97 239.309   2 
   0 -19  10 88.0441 38.8702   2 
   0  19  10 25.0574 54.6687   2 
   0 -19  11 1238.86 162.617   2 
   0  19  11 891.179 171.077   1 
   0  19  11 946.898 207.224   2 
   0  19  12 96.5748 49.1782   1 
   0  19  12 18.5950 68.4386   2 
   0 -19  12 211.518 75.1112   2 
   0  19  13 161.575 69.0962   2 
   0  19  14 459.134 174.484   2 
   0  19  15 303.021 140.381   2 
   0  19  16 72.2047 85.8970   2 
   0  19  17 860.646 230.701   2 
   0  19  18 22.4127 75.0235   2 
   0 -20   0 8331.21 679.381   3 
   0 -20   1 58.4626 101.978   3 
   0 -20  -1-90.0362 94.5247   3 
   0  20   2 9039.23 396.937   2 
   0 -20  -2 9219.60 713.227   3 
   0 -20   2 8693.21 687.663   3 
   0  20   3 444.759 110.667   2 
   0 -20   3 268.485 126.630   3 
   0 -20  -3 670.117 212.717   3 
   0  20   4 808.568 204.921   1 
   0  20   4 617.746 124.009   2 
   0 -20   4 659.687 228.841   3 
   0  20   5 5966.00 402.013   2 
   0  20   5 6738.47 485.137   1 
   0 -20   5 6510.83 610.543   3 
   0 -20   6 138.253 104.993   3 
   0  20   6 75.4109 71.6767   2 
   0  20   6 128.069 41.3745   1 
   0  20   7-52.3220 85.3221   1 
   0  20   7 64.6587 74.9500   2 
   0 -20   7 46.3738 59.8030   3 
   0  20   8 348.723 98.1334   1 
   0  20   8 380.212 112.575   2 
   0 -20   8 525.547 175.645   3 
   0  20   9 571.297 131.661   1 
   0  20   9 508.853 130.291   2 
   0 -20   9 586.313 78.4198   2 
   0 -20   9 692.418 229.421   3 
   0  20  10 5899.23 440.596   1 
   0  20  10 4911.82 459.795   2 
   0 -20  10 6007.90 302.450   2 
   0  20  11 644.823 161.064   2 
   0  20  11 709.440 152.155   1 
   0  20  12 2638.74 353.075   2 
   0  20  13-60.1383 76.4247   2 
   0  20  14 411.852 156.785   2 
   0  20  15 588.265 189.584   2 
   0  20  16 1907.42 353.613   2 
   0  20  17-34.5334 72.6492   2 
   0  20  18 141.813 95.2668   2 
   0 -21   0 62.8370 92.0061   3 
   0 -21  -1 9003.84 713.463   3 
   0 -21   1 8884.90 722.339   3 
   0  21   2 37.0608 47.3626   2 
   0 -21   2 18.6169 69.8769   3 
   0 -21  -2 43.4532 58.8478   3 
   0 -21  -3 2177.93 365.874   3 
   0  21   3 2002.64 206.811   2 
   0 -21   3 2137.49 353.120   3 
   0  21   4 1051.50 208.314   1 
   0  21   4 808.563 146.338   2 
   0 -21   4 709.329 206.711   3 
   0  21   5 4171.93 394.013   1 
   0  21   5 3687.58 325.953   2 
   0 -21   5 3901.36 488.521   3 
   0  21   6 2931.44 317.645   1 
   0  21   6 2822.95 300.177   2 
   0 -21   6 2593.51 396.685   3 
   0 -21   7 33.8652 61.4082   3 
   0  21   7 5.35124 30.4946   2 
   0  21   7-24.7272 60.9324   1 
   0  21   8 239.976 70.8188   1 
   0  21   8 383.136 128.066   2 
   0 -21   8 390.509 165.297   3 
   0  21   9 137.800 64.5484   1 
   0  21   9 31.7312 57.0141   2 
   0 -21  10 245.042 168.717   3 
   0  21  10 157.281 111.191   1 
   0  21  10 18.7020 70.0328   2 
   0  21  11 589.464 166.312   2 
   0  21  12-46.9921 106.714   2 
   0  21  13 971.404 229.684   2 
   0  21  14 114.591 73.2114   2 
   0  21  15 17.1338 69.6657   2 
   0  21  16 373.396 159.579   2 
   0  21  17 49.2548 68.0033   2 
   0 -22   0 120.609 98.1229   3 
   0 -22   1 2031.19 355.315   3 
   0 -22  -1 1843.42 325.887   3 
   0  22   2 5786.09 307.450   2 
   0 -22  -2 5551.03 586.480   3 
   0 -22   2 5675.03 597.980   3 
   0  22   3 1975.75 205.862   2 
   0 -22  -3 2322.47 386.649   3 
   0 -22   3 1746.14 335.654   3 
   0  22   4 3087.65 284.462   2 
   0 -22   4 3463.45 471.160   3 
   0  22   4 3065.17 368.428   1 
   0  22   5 4343.42 354.720   2 
   0 -22   5 4457.21 537.214   3 
   0  22   5 4393.13 413.399   1 
   0  22   6 729.993 156.033   2 
   0 -22   6 973.283 257.818   3 
   0  22   6 946.454 186.386   1 
   0  22   7 134.642 86.7757   2 
   0 -22   7 178.663 120.458   3 
   0  22   7 215.563 103.601   1 
   0  22   8-38.7586 91.5921   1 
   0  22   8 88.7054 59.0295   2 
   0 -22   8 120.722 98.3788   3 
   0 -22   9 236.134 146.140   3 
   0  22   9 185.665 88.7568   2 
   0  22   9 120.720 51.1779   1 
   0 -22  10 2202.70 423.058   3 
   0  22  10 2103.94 302.074   2 
   0  22  11 249.572 95.4633   2 
   0 -22  11 175.460 110.151   3 
   0  22  12-73.1140 90.3249   2 
   0  22  13 1183.78 253.991   2 
   0  22  14 297.053 116.386   2 
   0  22  15 171.942 84.0307   2 
   0  22  16 1093.60 273.398   2 
   0  22  17-124.936 136.188   2 
   0 -23   0 30.8477 86.2526   3 
   0 -23  -1 422.780 157.084   3 
   0 -23   1 467.648 184.191   3 
   0 -23   2 46.1098 77.5598   3 
   0 -23  -2 1.40569 79.1596   3 
   0 -23  -3 4902.35 569.229   3 
   0 -23   3 5369.88 593.685   3 
   0  23   3 5128.26 326.697   2 
   0 -23   4 105.815 94.2557   3 
   0  23   4 42.3784 50.7225   2 
   0  23   4 81.9768 91.2218   1 
   0  23   5 182.966 89.6350   2 
   0  23   5 189.472 110.601   1 
   0 -23   5 109.092 131.037   3 
   0  23   6 93.8052 83.7865   1 
   0 -23   6 11.0865 94.3267   3 
   0  23   6 91.9416 68.2733   2 
   0 -23   7 3126.12 463.444   3 
   0  23   7 3063.10 332.634   1 
   0  23   7 2830.63 320.766   2 
   0  23   8 2293.83 285.377   1 
   0  23   8 2421.43 308.338   2 
   0 -23   8 1924.13 380.653   3 
   0  23   9 2483.76 330.398   2 
   0 -23   9 2313.40 427.040   3 
   0  23  10 530.532 152.718   2 
   0 -23  10 368.320 169.748   3 
   0 -23  11 1628.00 366.255   3 
   0  23  11 1993.22 306.994   2 
   0  23  12 376.081 148.652   2 
   0 -23  12 321.694 171.294   3 
   0  23  13 127.105 84.1260   2 
   0 -23  13 107.179 114.921   3 
   0  23  14 671.867 199.241   2 
   0  23  15 1178.78 275.119   2 
   0  23  16-4.59377 87.8619   2 
   0 -24   0 884.046 225.760   3 
   0 -24  -1 1403.00 314.192   3 
   0 -24   1 1442.46 311.617   3 
   0 -24  -2 188.921 118.242   3 
   0 -24   2 263.237 147.587   3 
   0  24   3 850.553 135.604   2 
   0 -24  -3 774.054 245.743   3 
   0 -24   3 763.198 244.284   3 
   0  24   4 363.055 97.8640   2 
   0  24   4 194.158 102.057   1 
   0 -24   4 361.288 160.476   3 
   0  24   5 107.764 88.2698   1 
   0 -24   5-67.4636 83.5338   3 
   0  24   5 233.443 100.874   2 
   0  24   6 1399.82 219.415   2 
   0 -24   6 1237.16 309.753   3 
   0  24   6 1247.58 226.378   1 
   0  24   7 1039.86 195.992   2 
   0 -24   7 829.662 255.109   3 
   0  24   8 1745.16 270.261   2 
   0 -24   8 1826.69 374.187   3 
   0  24   9 114.851 69.8805   2 
   0 -24   9 2.07132 70.7997   3 
   0  24  10 151.505 93.4798   2 
   0 -24  10 271.858 200.279   3 
   0 -24  11 30.6030 116.974   3 
   0  24  11 160.588 101.318   2 
   0  24  12 591.104 186.015   2 
   0 -24  12 480.886 185.688   3 
   0  24  13 514.329 191.146   2 
   0 -24  13 657.466 252.288   3 
   0  24  14 106.499 120.296   2 
   0 -24  14 106.928 130.176   3 
   0 -24  15 216.765 168.258   3 
   0  24  15 337.965 154.886   2 
   0 -25   0 134.133 109.298   3 
   0 -25  -1 308.486 144.557   3 
   0 -25   1 179.824 97.4148   3 
   0 -25  -2 573.201 207.249   3 
   0 -25   2 326.981 172.899   3 
   0 -25  -3 299.130 161.607   3 
   0 -25   3 412.440 190.682   3 
   0  25   4 413.386 156.485   1 
   0 -25   4 186.037 123.086   3 
   0  25   5-15.4972 61.8202   1 
   0 -25   5 9.75945 86.7472   3 
   0 -25   6 964.087 278.083   3 
   0 -25   7-52.9059 112.216   3 
   0 -25   8 569.341 218.961   3 
   0 -25   9 335.325 191.899   3 
   0 -25  10 23.5493 72.0713   3 
   0 -25  11 43.7561 85.2606   3 
   0 -25  12-95.4840 132.702   3 
   0 -25  13-121.428 163.313   3 
   0 -25  14 817.827 291.656   3 
   0 -25  15 119.248 150.752   3 
   0 -26   0 1152.40 307.149   3 
   0 -26  -1 318.437 154.489   3 
   0 -26   1 154.720 122.503   3 
   0 -26  -2 650.263 223.986   3 
   0 -26   2 874.671 282.435   3 
   0 -26   3 1545.92 351.763   3 
   0 -26   4 1198.08 310.310   3 
   0 -26   5 1037.91 297.501   3 
   0 -26   6 2371.49 441.796   3 
   0 -26   7 128.802 93.3617   3 
   0 -26   8 1267.73 331.271   3 
   0 -26   9 421.211 157.982   3 
   0 -26  10 70.1319 66.2202   3 
   0 -26  11 205.142 168.118   3 
   0 -26  12 1022.14 301.410   3 
   0 -26  13 48.2142 140.013   3 
   0 -26  14 505.610 238.666   3 
   0 -27   0 25.7915 88.3633   3 
   0 -27   1 1593.98 351.749   3 
   0 -27  -1 1598.97 368.623   3 
   0 -27   2 282.146 158.851   3 
   0 -27  -2 519.865 207.197   3 
   0 -27   3 458.940 212.666   3 
   0 -27   4 118.672 133.910   3 
   0 -27   5 2079.78 427.556   3 
   0 -27   6 174.316 172.810   3 
   0 -27   7 5894.30 710.296   3 
   0 -27   8 339.238 172.059   3 
   0 -27   9 59.8872 126.599   3 
   0 -27  10 1037.71 319.199   3 
   0 -27  11 111.714 77.4604   3 
   0 -27  12 205.162 135.654   3 
   0 -27  13 1476.65 394.696   3 
   0 -28   0 974.766 298.595   3 
   0 -28  -1 969.278 289.925   3 
   0 -28   1 945.989 282.569   3 
   0 -28  -2 2505.34 459.146   3 
   0 -28   2 2644.26 468.240   3 
   0 -28   3-9.84851 70.7711   3 
   0 -28   4 318.692 215.132   3 
   0 -28   5 1249.10 340.982   3 
   0 -28   6 2318.95 455.656   3 
   0 -28   7 287.289 174.510   3 
   0 -28   8 406.994 204.902   3 
   0 -28   9-228.356 179.901   3 
   0 -28  10 1323.96 356.049   3 
   0 -28  11 77.5185 84.0817   3 
   0 -29   0 99.2411 90.3412   3 
   0 -29  -1 458.319 222.127   3 
   0 -29   1 386.073 190.853   3 
   0 -29   2 709.172 246.989   3 
   0 -29  -2 903.910 298.739   3 
   0 -29   3 61.9030 93.5146   3 
   0 -29   4 850.658 284.366   3 
   0 -29   5 1848.92 431.029   3 
   0 -29   6 645.997 263.473   3 
   0 -29   7 455.974 221.867   3 
   0 -29   8 2063.98 455.524   3 
   0 -29   9 501.295 221.519   3 
   0 -29  10 97.9701 137.480   3 
   0 -30   0 2585.75 487.591   3 
   0 -30   1 582.804 216.270   3 
   0 -30  -1 559.665 234.485   3 
   0 -30   2-36.0623 106.615   3 
   0 -30   3 18.3155 93.4609   3 
   0 -30   4-41.4192 119.248   3 
   0 -30   5 182.767 174.505   3 
   0 -30   6 2926.44 538.879   3 
   0 -30   7 398.870 226.977   3 
   0 -30   8 3671.51 613.117   3 
   0 -31   1 619.008 240.061   3 
   0 -31   2 107.784 151.547   3 
   0 -31   3-36.0657 116.500   3 
   0 -31   4 247.021 175.638   3 
  -1   0  21 1413.85 335.955   2 
  -1   0  20 83.5236 100.850   2 
  -1   0  19 266.707 132.402   2 
  -1   0  18-79.4721 77.3581   2 
  -1   0  17 92.2674 97.9484   1 
  -1   0  16 126.583 173.643   1 
  -1   0  15 28413.2 1275.20   1 
  -1   0  14 561.233 231.018   1 
  -1   0  13 10565.8 779.005   1 
  -1   0  12 60.3042 122.780   1 
   1   0 -12-88.3091 126.353   1 
   1   0 -11 29015.8 1269.77   1 
  -1   0  11 29084.3 1175.44   1 
  -1   0  10 564.900 221.349   1 
  -1   0   9 9540.32 629.332   1 
  -1   0   8-64.3330 125.828   1 
  -1   0   7 33630.3 1059.44   1 
  -1   0   6 92.0922 116.814   1 
  -1   0   5 1453.71 213.231   1 
  -1   0   4-86.6969 95.7326   1 
  -1   0   3 871611. 5032.29   1 
  -1   0   2 277.145 85.3399   1 
  -1   0   1 190003. 1808.01   1 
   1   0   0-27.0210 38.7823   2 
  -1   0  -1 162095. 960.194   3 
   1   0   1 163245. 1700.36   2 
   1   0   2 11.1562 22.7197   3 
   1   0   2 4.19738 47.4361   2 
   1   0   3 5317.84 345.634   2 
   1   0   3 3258.63 145.394   3 
   1   0   4 549.775 149.620   2 
   1   0   5 8681.34 425.639   2 
   1   0   6 588.077 157.831   2 
   1   0   7 6386.48 396.342   2 
  -1   0  -8 13.4820 51.2723   2 
   1   0   8 25.3442 58.7159   2 
  -1   0  -9 1371.99 239.230   1 
  -1   0  -9 2538.85 272.890   2 
  -1   0 -10 1.89052 40.1248   2 
   1   0  10 67.4522 83.4086   2 
   1   0  11 2430.85 314.709   2 
  -1   0 -11 2335.77 320.269   1 
  -1   0 -12 1001.59 236.317   1 
   1   0  12 1213.25 230.864   2 
  -1   0 -13 1708.26 301.186   1 
   1   0  13 1812.70 283.368   2 
   1   0  14 315.818 146.798   2 
   1   0  15 264.776 126.333   2 
   1   0  16 462.744 169.958   2 
   1   0  17 6137.78 611.617   2 
   1   0  18 515.015 185.295   2 
   1   0  19 4768.54 573.076   2 
   1   0  20-73.7030 93.5038   2 
   1   0  21-61.7815 138.520   2 
  -1   1  21 170.088 137.727   2 
  -1  -1  21-33.6555 96.1438   2 
  -1   1  20 335.139 130.348   2 
  -1  -1  20 422.823 184.225   2 
  -1  -1  19 261.511 128.139   2 
  -1   1  19 269.321 153.361   2 
  -1   1  18-31.6596 51.5456   2 
  -1  -1  18-0.89588 84.4260   2 
  -1   1  17 306.208 135.568   1 
  -1   1  16 1698.23 345.266   1 
  -1  -1  16 1711.58 340.640   1 
  -1   1  15 389.362 227.915   1 
  -1  -1  15 463.600 235.239   1 
  -1  -1  14 7746.57 679.364   1 
  -1   1  14 7439.40 638.877   1 
  -1   1  13 10965.5 795.194   1 
  -1  -1  13 14044.5 877.681   1 
  -1   1  12 1326.52 276.265   1 
  -1  -1  12 1882.95 329.311   1 
   1  -1 -12 1049.70 240.857   1 
  -1  -1  11 7408.57 600.108   1 
  -1   1  11 6049.32 550.491   1 
   1  -1 -11 5972.30 581.502   1 
  -1   1  10 1929.52 312.278   1 
  -1  -1  10 1982.54 310.720   1 
  -1  -1   9 23372.0 975.064   1 
  -1   1   9 24566.0 998.503   1 
  -1  -1   8 2173.93 286.049   1 
  -1   1   8 3601.05 411.124   1 
  -1  -1   7 4873.88 444.667   1 
  -1   1   7 5678.87 456.665   1 
  -1   1   6 9475.13 535.426   1 
  -1  -1   6 7944.75 538.227   1 
  -1  -1   5 147.171 104.900   1 
  -1   1   5-66.3552 110.930   1 
  -1   1   4 78355.2 1437.63   1 
  -1  -1   4 61834.4 1232.29   1 
  -1   1   3 129487. 1696.64   1 
  -1  -1   3 113543. 1629.34   1 
  -1  -1   2 796.853 139.219   1 
  -1   1   2 645.221 111.898   1 
  -1  -1   1 59189.8 972.276   1 
  -1   1   1 57802.1 1061.92   1 
   1   1   0 7691.53 378.560   2 
  -1  -1   0 5799.14 292.040   1 
  -1  -1  -1 1338.50 104.535   3 
   1   1   1 1138.33 149.190   2 
   1  -1   1 1222.52 157.773   2 
  -1  -1  -2 2439.13 133.501   3 
   1  -1   2 2480.49 211.659   2 
   1   1   2 3759.18 308.057   2 
   1   1   2 3622.65 185.756   3 
   1   1   3 106197. 1417.46   2 
   1  -1   3 104303. 1356.86   2 
   1   1   4 28996.5 767.267   2 
   1   1   4 26310.2 532.748   3 
   1  -1   4 28917.4 738.741   2 
  -1   1  -5 1899.07 187.870   2 
   1   1   5 2243.12 238.547   2 
   1  -1   5 2290.44 223.775   2 
   1   1   6 16775.4 622.765   2 
  -1   1  -6 16750.2 565.660   2 
   1  -1   6 17036.7 608.206   2 
   1  -1   7 1235.46 188.879   2 
  -1   1  -7 1078.30 156.563   2 
  -1   1  -8 1394.77 175.888   2 
   1   1   8 1149.09 180.843   2 
   1  -1   8 1390.65 193.812   2 
   1   1   9 19688.2 763.294   2 
  -1  -1  -9 18494.9 684.410   1 
  -1  -1  -9 20036.9 735.934   2 
  -1   1  -9 19985.1 701.770   2 
   1  -1   9 19080.3 749.339   2 
  -1   1 -10 293.087 92.6521   2 
   1  -1  10 465.333 132.355   2 
   1  -1  11 10818.6 615.492   2 
  -1   1 -11 10878.5 605.099   1 
   1   1  12 5980.40 502.838   2 
  -1   1 -12 4497.48 417.637   1 
   1  -1  12 3823.97 391.560   2 
  -1  -1 -12 5359.53 493.822   1 
   1  -1  13 2066.14 295.819   2 
  -1   1 -13 2017.19 325.346   1 
   1   1  13 2224.82 313.414   2 
  -1  -1 -13 1983.88 295.495   1 
   1   1  14 1138.06 237.463   2 
   1  -1  14 1044.50 224.482   2 
   1   1  15 3827.33 493.425   2 
   1  -1  15 699.034 188.266   2 
   1  -1  16 1129.51 240.769   2 
   1   1  16 1591.73 298.377   2 
   1   1  17 4273.49 507.267   2 
   1  -1  17 5348.47 566.314   2 
   1  -1  18 1461.86 301.036   2 
   1   1  18 1525.62 314.043   2 
   1  -1  19 1998.90 375.533   2 
   1   1  19 253.299 135.974   2 
   1  -1  20-22.8186 101.337   2 
   1   1  20 107.029 80.7049   2 
   1  -1  21 134.322 127.095   2 
  -1  -2  21 496.854 219.775   2 
  -1   2  21 473.466 205.563   2 
  -1  -2  20 561.294 211.996   2 
  -1   2  20 1077.31 302.113   2 
  -1  -2  19 194.948 119.169   2 
  -1   2  19-60.7533 90.6866   2 
  -1   2  18-100.210 90.1838   2 
  -1   2  18 22.2267 117.587   1 
  -1  -2  18 49.6282 47.4791   2 
  -1   2  17 310.441 178.990   1 
  -1   2  17 384.518 149.069   2 
  -1   2  16 1186.86 291.264   1 
  -1  -2  15 4614.01 561.758   1 
  -1   2  15 4224.47 494.976   1 
  -1   2  14 1034.29 273.666   1 
  -1  -2  14 1724.72 432.568   1 
  -1  -2  13 2195.07 366.564   1 
  -1   2  13 2085.67 359.544   1 
  -1  -2  12 555.509 182.230   1 
   1  -2 -12 336.702 82.7156   1 
  -1   2  12 593.292 193.405   1 
  -1   2  11 5945.02 530.718   1 
  -1  -2  11 6027.13 531.283   1 
   1  -2 -11 5671.29 556.183   1 
  -1   2  10 3471.94 380.203   1 
  -1  -2  10 3732.33 412.442   1 
  -1   2   9 1920.86 304.000   1 
  -1  -2   9 1773.38 303.262   1 
  -1   2   8 26924.4 1004.61   1 
  -1  -2   8 28197.8 1014.21   1 
  -1  -2   7 1620.36 221.188   1 
  -1   2   7 1797.14 261.482   1 
  -1   2   6 55.2410 68.3767   1 
  -1  -2   6 16.4687 84.7097   1 
  -1  -2   5 3307.52 310.080   1 
  -1   2   5 3620.97 325.948   1 
  -1   2   4 39246.7 1006.70   1 
  -1  -2   4 32871.8 886.134   1 
  -1  -2   3 43987.1 990.255   1 
  -1   2   3 47276.0 1095.38   1 
  -1  -2   2 378663. 2725.00   1 
  -1   2   2 390052. 2866.27   1 
  -1  -2   1 186725. 1655.88   1 
   1   2  -1 184489. 1753.72   1 
  -1  -2   0 57257.9 863.648   1 
   1   2   0 62793.2 1084.33   2 
  -1  -2  -1 271.400 60.9327   3 
   1   2   1 247.424 78.0903   2 
   1  -2   1 154.330 53.3173   2 
  -1  -2  -2 124229. 1160.50   3 
   1   2   2 128829. 1572.66   2 
  -1   2  -2 128103. 1384.61   2 
   1   2   2 128125. 1145.21   3 
   1   2   3 4876.48 311.608   2 
  -1   2  -3 5298.32 286.402   2 
   1  -2   3 5606.91 334.439   2 
   1   2   3 4039.22 211.923   3 
   1  -2   4 200.756 112.399   2 
  -1   2  -4 354.398 93.4051   2 
   1   2   4 124.708 39.8481   3 
   1   2   5 17744.0 513.213   3 
   1  -2   5 19493.1 617.729   2 
  -1   2  -5 19539.5 569.962   2 
   1   2   5 19815.3 656.340   2 
   1  -2   6 6405.76 381.273   2 
   1   2   6 6245.64 408.032   2 
  -1   2  -6 6138.39 338.954   2 
   1   2   7 19456.1 718.852   2 
   1  -2   7 19622.8 686.676   2 
  -1   2  -7 19856.8 633.615   2 
  -1  -2  -8 326.143 112.868   1 
   1  -2   8 402.158 116.119   2 
   1   2   8 433.141 184.418   2 
  -1   2  -8 427.176 102.077   2 
   1   2   9 216.027 118.156   2 
  -1  -2  -9 100.291 68.0806   1 
  -1  -2 -10 15685.9 658.251   2 
   1  -2  10 15709.8 711.277   2 
   1   2  11 11938.9 670.706   2 
   1  -2  11 13802.7 690.159   2 
  -1   2 -11 12908.7 692.766   1 
  -1  -2 -12 14287.1 748.983   1 
   1   2  12 15134.2 787.577   2 
  -1   2 -12 9565.58 611.857   1 
   1  -2  12 8793.77 589.308   2 
   1   2  13 965.068 218.317   2 
   1  -2  13 1124.04 229.956   2 
  -1  -2 -13 805.428 191.554   1 
   1   2  14 255.411 110.802   2 
  -1  -2 -14 370.726 140.949   1 
   1  -2  15 10837.5 738.039   2 
   1   2  15 11942.3 783.788   2 
   1   2  16 1331.86 284.321   2 
   1  -2  16 1711.92 299.952   2 
   1   2  17 1297.34 268.249   2 
   1  -2  17 2616.56 407.037   2 
   1  -2  18 593.348 192.173   2 
   1   2  18 2782.69 438.606   2 
   1  -2  19 1219.86 289.125   2 
   1   2  19 2061.56 385.222   2 
   1   2  20 119.913 65.4805   2 
   1  -2  20 123.000 65.1496   2 
   1  -2  21-38.0207 82.4890   2 
  -1   3  21 489.484 225.307   2 
  -1  -3  21 268.708 175.505   2 
  -1  -3  20 7059.98 700.309   2 
  -1   3  20 7189.03 705.313   2 
  -1  -3  19 2459.21 387.764   2 
  -1   3  19 2211.69 386.839   2 
  -1   3  18 165.850 147.613   1 
  -1   3  18 181.729 135.220   2 
  -1  -3  18 158.942 98.3120   2 
  -1   3  17-23.5409 77.7320   1 
  -1   3  17 56.9974 65.1903   2 
  -1   3  16 1308.58 296.533   1 
  -1   3  15 65.3082 103.156   1 
  -1  -3  14 5459.14 555.253   1 
  -1   3  14 4859.98 542.341   1 
  -1   3  13 324.050 195.531   1 
  -1  -3  13 476.428 214.861   1 
  -1  -3  12 3057.73 406.224   1 
   1  -3 -12 2960.26 422.429   1 
  -1   3  12 2616.62 380.953   1 
  -1   3  11 7651.90 606.381   1 
  -1  -3  11 7931.07 617.079   1 
   1  -3 -11 7674.46 648.839   1 
   1  -3 -10 2927.27 389.485   1 
  -1  -3  10 2936.07 387.278   1 
  -1   3  10 2484.79 347.971   1 
  -1   3   9 2392.51 335.556   1 
  -1  -3   9 1612.39 295.521   1 
  -1   3   8 76877.7 1688.06   1 
  -1  -3   8 81209.4 1726.14   1 
  -1  -3   7 91.6927 138.072   1 
  -1   3   7 60.7071 84.3991   1 
  -1  -3   6 9516.51 623.288   1 
  -1   3   6 11826.9 641.123   1 
  -1  -3   5 717.779 150.427   1 
  -1   3   5 978.299 157.327   1 
  -1  -3   4 17243.8 682.918   1 
  -1   3   4 19987.5 721.964   1 
   1   3  -3 55651.9 1133.50   1 
  -1  -3   3 55093.1 1055.73   1 
  -1  -3   2 22993.3 641.431   1 
  -1   3   2 23777.2 746.915   1 
  -1  -3   1 12938.8 449.680   1 
   1   3  -1 11381.9 422.250   1 
  -1   3   0 90609.6 1184.22   2 
  -1  -3   0 97355.5 1074.09   1 
  -1  -3  -1 12127.4 360.373   1 
   1  -3   1 12191.1 448.451   2 
  -1   3  -1 12347.4 439.033   2 
   1   3   1 14326.9 526.678   2 
  -1  -3  -1 14836.2 435.386   3 
   1   3   2 12571.7 500.788   2 
  -1  -3  -2 12643.2 410.868   3 
   1   3   2 11094.4 379.148   3 
   1  -3   2 10763.6 419.407   2 
  -1   3  -2 11613.2 412.168   2 
   1   3   3 245.262 57.3116   3 
  -1   3  -3 266.426 67.8873   2 
   1   3   3 418.422 103.837   2 
  -1  -3  -3 282.894 59.2569   3 
   1  -3   3 342.904 94.0844   2 
   1   3   4 12176.1 508.333   2 
   1  -3   4 12012.1 470.461   2 
   1   3   4 10676.3 397.839   3 
  -1   3  -4 11198.5 408.074   2 
   1   3   5 903.673 128.328   3 
  -1   3  -5 1079.79 142.932   2 
   1   3   5 1041.24 171.625   2 
   1  -3   5 917.351 162.959   2 
  -1   3  -6 62428.0 1052.58   2 
   1   3   6 58840.1 1074.63   3 
   1   3   6 62642.1 1228.98   2 
   1  -3   6 62981.1 1152.83   2 
  -1  -3  -7 11051.9 451.199   1 
  -1   3  -7 12110.8 488.192   2 
   1   3   7 12944.3 597.074   2 
   1  -3   7 13322.6 559.427   2 
   1   3   8 11193.1 572.971   2 
  -1  -3  -8 10781.0 478.787   1 
  -1   3  -8 10711.0 479.288   2 
   1  -3   8 10442.5 520.783   2 
   1  -3   9 1493.86 203.370   2 
  -1   3  -9 1357.99 175.603   2 
  -1  -3  -9 1563.76 203.468   1 
   1   3   9 1600.74 223.977   2 
  -1  -3 -10 10906.5 566.583   2 
   1   3  10 10525.6 632.291   2 
  -1  -3 -10 13004.8 633.795   1 
   1  -3  10 12616.8 630.608   2 
  -1   3 -11 1696.78 331.460   1 
   1  -3  11 2127.86 286.583   2 
   1   3  12 23208.4 978.635   2 
  -1   3 -12 26333.7 1020.22   1 
   1  -3  12 24398.5 969.985   2 
  -1  -3 -12 26202.4 1006.30   1 
  -1  -3 -13 2457.42 364.285   1 
   1  -3  13 1093.89 220.604   2 
  -1  -3 -14 1137.59 319.107   1 
   1  -3  14 182.735 124.526   2 
   1  -3  15 5377.75 538.959   2 
   1   3  15 3491.20 441.495   2 
   1  -3  16 733.396 195.639   2 
   1   3  16 268.531 105.497   2 
   1   3  17 66.1080 53.5994   2 
   1  -3  17 406.612 170.594   2 
   1  -3  18 6453.42 634.022   2 
   1   3  18 6441.39 646.841   2 
   1  -3  19 2828.33 438.025   2 
   1   3  19 1925.03 371.465   2 
   1  -3  20 46.8676 61.1445   2 
   1   3  20-44.0051 121.793   2 
   1  -3  21-30.1633 92.2693   2 
  -1   4  21 824.139 264.708   2 
  -1  -4  21 576.832 227.053   2 
  -1   4  20 1637.22 362.257   2 
  -1  -4  20 2498.37 431.535   2 
  -1  -4  19 5156.60 553.466   2 
  -1   4  19 4585.78 550.559   2 
  -1   4  19 5578.73 659.539   1 
  -1  -4  18 236.465 124.455   2 
  -1   4  18 359.009 213.434   1 
  -1   4  18 168.739 118.187   2 
  -1   4  17 581.272 197.514   1 
  -1   4  17 623.571 205.605   2 
  -1   4  16 1911.94 374.614   1 
  -1   4  15 5996.98 603.033   1 
  -1   4  14 1941.11 386.175   1 
  -1   4  13 24110.8 1208.48   1 
  -1  -4  13 27589.0 1219.31   1 
  -1  -4  12 6640.61 583.294   1 
  -1   4  12 5549.27 565.592   1 
   1  -4 -12 5577.13 564.393   1 
   1  -4 -11 217.639 154.315   1 
   1   4 -11 103.200 126.827   1 
  -1  -4  11 297.290 148.726   1 
   1  -4 -10 3918.14 441.797   1 
  -1   4  10 4027.71 469.318   1 
  -1  -4  10 4233.47 432.005   1 
  -1   4   9 8949.42 639.574   1 
  -1  -4   9 10014.4 631.566   1 
  -1   4   8 2918.40 341.671   1 
  -1  -4   8 3272.86 367.766   1 
  -1   4   7 82293.1 1703.48   1 
  -1  -4   7 71853.4 1558.56   1 
  -1  -4   6 785.225 192.170   1 
  -1   4   6 669.491 116.769   1 
  -1   4   5 220.835 107.101   1 
  -1  -4   5 213.674 110.467   1 
  -1   4   4 5191.51 386.685   1 
  -1  -4   4 4920.80 352.916   1 
   1   4  -4 4694.55 342.721   1 
  -1   4   3 3395.01 295.520   1 
  -1  -4   3 3442.40 291.341   1 
   1   4  -3 2913.15 245.436   1 
  -1   4   2 5208.53 359.898   1 
  -1  -4   2 5223.03 306.283   1 
   1   4  -2 4844.55 300.070   1 
   1   4  -1 4784.26 261.832   1 
  -1  -4   1 5278.88 274.782   1 
   1   4   0 555.473 84.3746   1 
  -1   4   0 639.951 129.380   2 
   1   4   0 554.265 140.937   2 
  -1   4   0 512.236 63.3053   3 
  -1  -4   0 519.704 70.7422   1 
   1  -4   1 43651.3 818.081   2 
  -1   4  -1 46462.7 478.657   3 
  -1  -4  -1 45574.3 632.130   1 
   1   4   1 46652.1 961.102   2 
   1   4   2 43407.3 813.616   3 
   1  -4   2 46297.1 856.732   2 
   1   4   2 47034.6 970.713   2 
  -1   4  -2 43288.7 767.037   2 
  -1  -4  -3 2267.81 188.907   3 
   1  -4   3 2203.22 193.012   2 
   1   4   3 2143.23 179.852   3 
   1   4   3 2282.44 241.990   2 
  -1   4  -3 1965.95 161.275   2 
   1  -4   4 9030.16 399.539   2 
   1   4   4 8880.89 445.136   2 
   1   4   4 8519.40 388.305   3 
  -1   4  -4 8675.23 345.961   2 
  -1   4  -5 10265.5 401.594   2 
   1   4   5 9328.74 419.476   3 
   1  -4   5 10147.6 447.637   2 
   1   4   5 10971.4 507.736   2 
   1   4   6 7398.09 395.144   3 
   1   4   6 7791.83 452.035   2 
   1  -4   6 8050.71 413.103   2 
  -1   4  -6 8944.96 393.415   2 
  -1  -4  -6 7536.28 320.607   1 
  -1  -4  -7 17888.9 550.836   1 
   1   4   7 16820.6 632.531   3 
  -1   4  -7 17708.7 570.254   2 
   1  -4   7 17676.2 645.558   2 
   1   4   7 17641.6 704.574   2 
   1  -4   8 5001.61 357.448   2 
   1   4   8 4379.88 362.122   2 
  -1  -4  -8 4957.08 327.600   1 
  -1   4  -8 4740.00 313.772   2 
  -1   4  -9 372.272 86.8449   2 
   1  -4   9 516.000 132.958   2 
   1   4   9 332.030 113.075   2 
  -1  -4  -9 452.882 114.292   1 
   1   4  10 16942.6 773.596   2 
  -1  -4 -10 18593.9 737.413   1 
   1  -4  10 18534.5 761.325   2 
   1  -4  11 1312.19 219.707   2 
   1   4  11 1189.97 218.209   2 
   1   4  12 236.289 110.908   2 
   1  -4  12 4170.90 413.510   2 
   1  -4  13 10098.3 649.054   2 
  -1  -4 -13 11538.6 721.695   1 
   1   4  13 10429.3 682.616   2 
   1  -4  14 7386.63 578.209   2 
  -1  -4 -14 9247.45 663.085   1 
   1   4  14 8500.81 646.229   2 
   1  -4  15 4304.70 460.647   2 
   1   4  15 4811.20 507.511   2 
   1  -4  16 34.6552 78.8421   2 
   1   4  16 99.4936 98.5383   2 
   1  -4  17 293.604 122.648   2 
   1   4  17 1091.54 255.279   2 
   1   4  18 305.370 172.324   2 
   1  -4  18 1552.53 379.544   2 
   1   4  19 192.606 119.328   2 
   1  -4  19 679.013 217.982   2 
   1   4  20 22.3280 97.6510   2 
   1  -4  20-25.4394 96.7485   2 
   1  -4  21 118.841 130.249   2 
  -1  -5  21 1201.04 310.456   2 
  -1   5  21 1251.07 310.132   2 
  -1  -5  20 4227.94 540.508   2 
  -1   5  20 2869.52 446.341   2 
  -1   5  19 232.316 155.817   2 
  -1  -5  19 139.980 117.771   2 
  -1   5  19 452.970 221.662   1 
  -1   5  18 2722.30 473.407   1 
  -1   5  18 2028.66 358.263   2 
  -1  -5  18 2401.21 357.305   2 
  -1   5  17 774.591 258.285   1 
  -1   5  17 395.577 155.476   2 
  -1   5  16 181.149 111.429   2 
  -1   5  16 438.662 197.988   1 
  -1   5  15 1215.93 325.395   1 
  -1   5  14 1060.18 287.764   1 
  -1   5  13 465.991 201.763   1 
  -1  -5  12 364.160 186.264   1 
  -1   5  12 92.1191 77.4822   1 
   1  -5 -12 238.618 138.648   1 
   1  -5 -11 112.258 89.6207   1 
   1   5 -11 386.171 166.910   1 
  -1   5  11 25.4924 104.693   1 
  -1  -5  11 264.504 149.469   1 
   1  -5 -10 1536.49 287.421   1 
  -1   5  10 1448.25 309.362   1 
  -1  -5  10 1319.77 273.985   1 
  -1  -5   9 1042.63 229.226   1 
  -1   5   9 738.537 220.556   1 
  -1  -5   8 18859.4 835.638   1 
  -1   5   8 17795.1 869.806   1 
  -1  -5   7 439.881 185.922   1 
  -1   5   7 252.392 83.3237   1 
  -1  -5   6 165.357 104.547   1 
  -1   5   6-169.571 154.171   1 
  -1   5   5 7192.50 469.702   1 
   1   5  -5 6420.63 430.412   1 
  -1  -5   5 7028.59 448.726   1 
   1   5  -4 3863.30 308.758   1 
  -1   5   4 4152.06 344.748   1 
  -1  -5   4 3893.58 317.964   1 
  -1   5   3 15835.2 648.245   1 
  -1  -5   3 14591.7 548.938   1 
   1   5  -3 13454.1 528.443   1 
   1   5  -2-31.2363 54.2461   1 
  -1  -5   2-107.142 90.2569   1 
   1   5  -1 6243.99 304.918   1 
  -1  -5   1 7141.86 322.275   1 
  -1   5   0 1459.37 142.213   2 
  -1  -5   0 1884.34 147.673   1 
   1   5   0 1560.38 137.305   1 
  -1  -5   0 1606.60 183.239   3 
   1   5   0 1667.09 183.952   2 
  -1   5   0 1650.38 121.904   3 
  -1   5  -1 2595.82 194.526   2 
   1   5   1 2861.45 249.501   2 
  -1  -5  -1 3010.70 147.241   1 
  -1   5  -1 2706.85 141.919   3 
  -1  -5  -1 2857.80 221.804   3 
   1  -5   1 2510.07 190.180   2 
   1   5   2-28.0057 30.7472   3 
   1  -5   2-10.7918 31.1360   2 
   1   5   2 128.451 75.9177   2 
  -1  -5  -2-17.8992 20.0872   1 
  -1  -5  -2 34.8930 72.6681   3 
   1  -5   2 163.261 74.5415   3 
  -1   5  -2 67.4784 76.4851   2 
  -1   5  -3 47444.4 766.353   2 
   1   5   3 50601.2 1041.85   2 
   1  -5   3 50434.5 902.223   2 
  -1  -5  -3 48882.1 955.082   3 
   1   5   3 48063.0 930.601   3 
  -1   5  -4 2868.45 193.122   2 
   1   5   4 2946.41 263.719   2 
   1  -5   4 2814.45 218.879   2 
   1   5   4 2707.06 226.921   3 
   1   5   5 16953.4 597.364   3 
   1   5   5 17779.4 666.677   2 
  -1  -5  -5 18068.6 411.490   1 
   1  -5   5 18072.1 582.316   2 
  -1   5  -5 18207.2 515.884   2 
   1   5   6 15.6451 49.2062   2 
  -1   5  -6 54.4528 40.7131   2 
   1  -5   6 98.8855 62.9108   2 
  -1  -5  -6 47.2627 38.8887   1 
   1   5   6 17.6128 25.6743   3 
  -1   5  -7 10315.3 435.358   2 
   1   5   7 9703.67 497.454   3 
   1   5   7 10466.8 542.410   2 
   1  -5   7 11095.5 500.146   2 
  -1  -5  -7 10962.9 441.037   1 
   1  -5   8 468.303 112.001   2 
  -1   5  -8 549.546 107.347   2 
   1   5   8 379.161 100.707   2 
  -1  -5  -8 503.603 96.1916   1 
   1   5   8 496.864 121.539   3 
   1  -5   9 469.536 119.925   2 
  -1  -5  -9 533.418 133.172   1 
   1   5   9 672.807 208.718   2 
  -1  -5 -10-73.6170 43.7390   1 
   1   5  10 73.3242 156.498   2 
   1  -5  10 89.6653 147.105   2 
  -1  -5 -11 135.706 96.5202   1 
   1  -5  11 33.6398 48.2267   2 
   1  -5  12 39.1023 42.2613   2 
   1   5  12 203.571 106.508   2 
   1  -5  13 1653.32 280.227   2 
   1   5  13 1835.81 331.590   2 
   1   5  14 1119.69 253.706   2 
  -1  -5 -14 1137.10 240.406   1 
   1   5  15 2810.10 390.785   2 
   1  -5  15 3560.13 423.242   2 
  -1  -5 -15 2955.28 386.188   1 
   1  -5  16 689.286 197.052   2 
   1   5  16 773.781 229.809   2 
   1  -5  17 3338.67 441.586   2 
   1   5  17 4047.98 527.006   2 
   1   5  18 525.955 170.844   2 
   1  -5  18 425.086 151.730   2 
   1  -5  19 823.540 228.778   2 
   1   5  19 746.461 207.149   2 
   1  -5  20 226.549 125.871   2 
   1   5  20 51.4689 99.7065   2 
   1  -5  21-53.6550 154.341   2 
  -1  -6  21 1700.96 372.208   2 
  -1   6  20-59.6469 62.2893   2 
  -1  -6  20 273.396 172.910   2 
  -1  -6  19 1630.69 314.449   2 
  -1   6  19 1338.07 301.497   2 
  -1   6  19 1173.41 308.890   1 
  -1  -6  18 6264.26 569.649   2 
  -1   6  18 5948.16 614.968   2 
  -1   6  18 5916.67 703.122   1 
  -1   6  17 353.801 194.138   1 
  -1   6  17 371.763 159.438   2 
  -1   6  16 249.431 174.354   1 
  -1   6  16 65.6786 74.8336   2 
  -1   6  15 19741.7 1159.78   1 
  -1   6  14-29.8924 107.660   1 
  -1   6  13 5832.22 579.785   1 
  -1   6  12 1490.82 303.938   1 
   1  -6 -12 1785.38 358.822   1 
  -1   6  11 695.162 258.122   1 
   1  -6 -11 207.333 113.391   1 
   1   6 -10 16373.9 888.193   1 
  -1   6  10 17390.5 920.072   1 
   1  -6 -10 17084.5 980.284   1 
  -1  -6  10 19742.1 934.632   1 
  -1  -6   9 18862.2 861.048   1 
  -1   6   9 18051.6 868.039   1 
  -1  -6   8 3729.67 411.964   1 
  -1   6   8 3276.76 364.580   1 
   1  -6  -7 7778.37 576.602   1 
  -1   6   7 9511.60 613.722   1 
  -1  -6   7 8037.21 519.986   1 
   1   6  -7 8001.75 575.818   1 
  -1   6   6 7575.69 514.298   1 
   1   6  -6 6947.08 477.001   1 
  -1  -6   6 6619.04 474.247   1 
  -1  -6   5 6828.58 418.172   1 
  -1   6   5 7017.75 476.965   1 
   1   6  -5 6283.45 424.576   1 
  -1  -6   4 5163.92 366.410   1 
  -1   6   4 5050.78 406.190   1 
   1   6  -4 5290.17 380.646   1 
   1   6  -3 1577.59 195.755   1 
  -1  -6   3 1582.72 184.381   1 
  -1   6   3 1438.62 205.995   1 
  -1  -6   2 18296.3 626.024   2 
   1   6  -2 19786.8 592.667   1 
  -1  -6   2 21291.0 595.338   1 
  -1   6   1 26.0609 26.8503   3 
  -1  -6   1 104.084 52.6497   1 
   1   6  -1 1.02781 48.7381   1 
   1   6   0 972.595 142.344   2 
  -1   6   0 928.832 108.826   3 
  -1  -6   0 1126.02 155.070   3 
  -1  -6   0 1118.03 104.055   1 
  -1   6   0 946.565 116.286   2 
   1   6   0 1091.05 109.867   1 
   1   6   1 161.025 71.4269   2 
  -1   6  -1 78.6819 30.3161   3 
  -1  -6  -1 78.2148 32.3687   1 
   1  -6   1 103.960 33.0115   3 
  -1  -6  -1 37.2471 42.4343   3 
  -1   6  -1 109.771 49.1148   2 
  -1   6  -2 128.598 45.0645   2 
   1   6   2 185.376 113.985   2 
   1   6   2 91.5516 67.8281   3 
   1  -6   2 40.7539 35.2581   2 
   1  -6   2 85.3284 38.4512   3 
  -1  -6  -3 31001.2 801.161   3 
   1   6   3 28783.4 768.280   3 
  -1   6  -3 29255.7 586.077   2 
   1   6   3 28853.5 807.685   2 
   1  -6   3 31137.9 702.989   2 
   1  -6   3 30583.0 551.815   3 
  -1   6  -4 11660.5 378.091   2 
  -1  -6  -4 12585.5 259.332   1 
  -1  -6  -4 11753.9 514.064   3 
   1  -6   4 11546.9 436.786   2 
   1   6   4 11482.5 521.762   2 
   1   6   4 11309.1 492.670   3 
   1   6   5 14906.7 593.549   3 
  -1   6  -5 15438.0 462.095   2 
  -1  -6  -5 16665.4 385.865   1 
   1   6   5 15476.6 625.326   2 
   1  -6   5 14957.4 529.177   2 
   1  -6   6 2414.84 221.417   2 
   1   6   6 2526.59 248.005   3 
  -1   6  -6 2548.70 199.387   2 
   1   6   6 2532.85 261.139   2 
  -1  -6  -6 2737.80 187.899   1 
  -1   6  -7 4469.63 284.026   2 
  -1  -6  -7 4568.29 279.015   1 
   1   6   7 4269.99 341.260   3 
   1   6   7 4109.93 345.378   2 
   1  -6   7 4332.82 309.340   2 
  -1   6  -8 723.029 119.377   2 
   1  -6   8 565.232 119.359   2 
   1   6   8 772.606 152.715   3 
  -1  -6  -8 910.242 148.044   1 
   1   6   8 755.451 157.408   2 
   1  -6   9 7569.10 459.540   2 
   1   6   9 7782.87 521.109   2 
   1   6   9 7231.33 489.418   3 
  -1  -6  -9 8958.41 471.037   1 
   1  -6  10 3931.62 342.844   2 
  -1  -6 -10 3909.97 346.165   2 
   1   6  10 3790.04 370.465   2 
  -1  -6 -10 4294.20 350.593   1 
   1   6  11 3766.08 401.832   2 
   1  -6  11 3639.03 348.077   2 
  -1  -6 -11 4485.84 391.798   1 
   1   6  12 592.498 181.039   2 
   1  -6  12 465.089 139.875   2 
   1  -6  13 19221.2 892.978   2 
  -1  -6 -13 22208.2 951.926   1 
   1  -6  14 978.070 212.736   2 
   1   6  14 1043.94 226.010   2 
  -1  -6 -14 1162.16 235.555   1 
  -1  -6 -15 676.805 190.568   1 
   1  -6  15 711.883 215.546   2 
   1   6  15 606.845 173.107   2 
   1   6  16 415.884 153.803   2 
   1  -6  16 434.600 144.232   2 
   1   6  17 4415.96 529.305   2 
   1  -6  17 4286.22 499.725   2 
   1   6  18 353.821 206.128   2 
   1  -6  18 232.287 162.051   2 
   1  -6  19 206.382 119.236   2 
   1   6  19 201.223 128.925   2 
   1  -6  20 1816.18 363.436   2 
   1   6  20 1720.87 369.970   2 
   1  -6  21 1357.96 331.921   2 
  -1  -7  21 332.759 184.097   2 
  -1  -7  20 618.746 230.391   2 
  -1   7  20 339.490 181.752   2 
  -1   7  20 339.908 197.434   1 
  -1  -7  19 22.5368 49.9327   2 
  -1   7  19 72.6454 127.369   2 
  -1   7  19 205.166 167.165   1 
  -1   7  18 116.810 133.437   2 
  -1  -7  18-10.5413 49.6128   2 
  -1   7  18 103.332 134.283   1 
  -1   7  17-19.8534 64.0901   2 
  -1   7  17 88.3213 110.450   1 
  -1   7  16 1129.41 244.129   2 
  -1   7  16 1175.45 311.799   1 
  -1   7  15 4083.01 427.913   2 
  -1   7  15 4610.73 540.163   1 
  -1   7  14 174.795 156.887   1 
  -1   7  13 1917.02 342.026   1 
  -1   7  12 181.405 139.218   1 
   1  -7 -12 248.441 148.699   1 
   1  -7 -11 1132.21 255.648   1 
  -1   7  11 1664.17 329.700   1 
   1  -7 -10 23885.5 1145.33   1 
  -1   7  10 27382.2 1140.43   1 
   1   7 -10 27276.7 1144.42   1 
  -1   7   9 1613.62 283.586   1 
   1   7  -9 2237.20 317.869   1 
   1   7  -8 10056.3 651.669   1 
  -1   7   8 8836.20 613.738   1 
  -1  -7   8 9096.39 624.015   1 
  -1  -7   7 3864.11 376.092   1 
  -1   7   7 3588.56 379.630   1 
   1   7  -7 4390.02 412.650   1 
  -1   7   6 3940.63 366.337   1 
   1  -7  -6 4839.13 450.310   1 
   1   7  -6 4505.32 392.164   1 
  -1  -7   6 4617.70 383.064   1 
  -1   7   5 98.4840 54.5747   1 
  -1  -7   5 42.8018 82.3576   1 
  -1   7   4 34470.3 1047.03   1 
  -1  -7   4 31525.5 850.757   1 
   1   7  -4 30826.2 886.749   1 
  -1  -7   3 12672.4 489.860   1 
   1   7  -3 12369.3 514.313   1 
  -1   7   3 12434.9 623.331   1 
  -1  -7   2 22004.4 582.121   1 
  -1  -7   2 20263.6 668.765   2 
   1   7  -2 21939.2 624.341   1 
  -1   7   2 21028.5 614.658   3 
  -1   7   1 4393.78 259.938   3 
   1   7  -1 5209.01 275.193   1 
  -1  -7   1 5297.46 250.447   1 
  -1  -7   1 5016.17 323.493   2 
  -1   7   0 308.848 64.5829   3 
   1   7   0 336.972 89.0454   2 
  -1   7   0 329.974 66.6891   2 
   1   7   0 348.334 56.7714   1 
  -1  -7   0 430.603 62.7243   1 
  -1  -7   0 321.302 73.8548   2 
   1  -7   1 3747.75 208.503   3 
   1   7   1 3901.38 164.836   1 
  -1  -7  -1 4356.98 313.784   3 
  -1   7  -1 3900.34 222.121   3 
   1   7   1 4363.01 312.612   2 
  -1  -7  -1 3741.57 276.367   2 
  -1   7  -1 3672.93 209.910   2 
   1  -7   2 28599.3 569.940   3 
  -1   7  -2 27811.5 550.456   2 
   1   7   2 30242.4 828.145   2 
  -1  -7  -2 30791.9 833.309   3 
   1  -7   2 28103.4 624.509   2 
   1   7   2 28248.0 806.142   3 
  -1   7  -3 4707.82 222.734   2 
  -1  -7  -3 4824.57 338.485   3 
   1   7   3 4319.59 317.507   3 
   1   7   3 4658.47 329.718   2 
   1  -7   3 4702.07 265.767   2 
   1  -7   3 4511.07 233.435   3 
   1   7   4 2343.65 238.340   3 
   1   7   4 2461.84 259.142   2 
  -1   7  -4 2562.96 173.372   2 
   1  -7   4 2365.54 196.460   2 
  -1  -7  -4 2594.18 255.558   3 
   1  -7   5 18117.4 575.811   2 
   1   7   5 18560.6 699.741   2 
  -1  -7  -5 19678.5 379.456   1 
  -1   7  -5 18830.2 502.123   2 
   1   7   5 17644.6 681.328   3 
  -1  -7  -6 8866.59 315.681   1 
   1   7   6 8122.97 475.963   2 
   1  -7   6 7824.08 399.097   2 
  -1   7  -6 8069.08 345.118   2 
   1   7   6 8076.39 475.180   3 
   1  -7   7 2709.53 248.482   2 
  -1  -7  -7 3059.91 218.260   1 
   1   7   7 2540.54 270.134   3 
  -1   7  -7 2780.19 217.756   2 
   1   7   7 2876.59 285.477   2 
   1   7   8 7179.21 477.992   3 
   1   7   8 7491.79 493.961   2 
  -1  -7  -8 8570.77 407.456   1 
   1  -7   8 7976.70 444.514   2 
   1   7   9 4672.11 406.475   2 
   1  -7   9 4274.74 343.881   2 
   1   7   9 4277.34 386.003   3 
  -1  -7  -9 5444.38 356.411   1 
  -1  -7 -10 1815.82 243.714   2 
   1   7  10 1661.07 248.441   3 
   1   7  10 2006.68 281.397   2 
   1  -7  10 1637.35 216.909   2 
  -1  -7 -10 1968.31 240.497   1 
   1   7  11 3501.08 375.988   3 
   1  -7  11 3477.95 342.145   2 
   1   7  11 3494.80 377.406   2 
  -1  -7 -11 4140.62 369.288   1 
   1  -7  12 3362.63 355.354   2 
   1   7  12 3474.64 411.677   2 
   1  -7  13 26809.1 1041.80   2 
   1   7  13 25341.6 1096.60   2 
   1   7  14-53.0248 90.4455   2 
   1  -7  14 17.8034 51.5230   2 
  -1  -7 -15 84.8641 59.3169   1 
   1  -7  15 94.5480 73.5103   2 
   1   7  15-63.7536 112.246   2 
   1  -7  16 424.669 144.946   2 
   1   7  16 413.479 158.645   2 
   1  -7  17 7453.44 654.295   2 
   1   7  17 8377.80 734.593   2 
   1  -7  18 1648.34 323.512   2 
   1   7  18 1849.65 364.114   2 
   1   7  19 36.1646 80.5825   2 
   1  -7  19 80.5410 108.126   2 
   1   7  20 2063.76 398.771   2 
   1  -7  20 2114.69 390.698   2 
   1  -7  21-51.7859 87.4209   2 
  -1  -8  21 48.4867 99.8863   2 
  -1   8  20 323.416 151.614   2 
  -1  -8  20 383.151 178.761   2 
  -1   8  20 244.480 176.414   1 
  -1  -8  19 246.102 132.673   2 
  -1   8  19 286.458 148.435   2 
  -1   8  19 285.326 172.705   1 
  -1   8  18 374.552 149.631   2 
  -1  -8  18 408.005 146.076   2 
  -1   8  18 582.766 233.763   1 
  -1   8  17 584.794 232.732   1 
  -1   8  17 597.628 205.549   2 
  -1   8  16 2248.51 346.510   2 
  -1   8  16 2366.66 408.635   1 
  -1   8  15 395.977 190.327   1 
  -1   8  15 508.132 153.921   2 
  -1   8  14 17.0944 79.2811   1 
  -1   8  13 1827.47 349.093   1 
   1  -8 -12 99.7220 67.3618   1 
  -1   8  12 638.191 238.111   1 
  -1   8  11 5579.08 531.492   1 
   1  -8 -11 5810.25 598.607   1 
   1   8 -10 1712.85 311.513   1 
   1  -8 -10 1456.61 292.696   1 
  -1   8  10 1753.11 305.866   1 
  -1   8   9 7652.33 586.641   1 
   1   8  -9 8549.80 652.804   1 
   1  -8  -9 9128.34 688.446   1 
  -1   8   8 3641.61 398.281   1 
   1   8  -8 4721.98 452.762   1 
  -1   8   7 1606.66 246.314   1 
   1   8  -7 2099.11 301.256   1 
  -1   8   6 3676.83 361.459   1 
   1   8  -6 4593.49 394.949   1 
  -1   8   5 18813.6 794.063   1 
   1   8  -5 20932.2 795.186   1 
   1   8  -4 12219.4 584.384   1 
  -1   8   4 11532.5 619.852   1 
   1   8  -3 5988.04 374.906   1 
  -1   8   3 5474.69 353.172   3 
  -1  -8   3 5245.17 346.913   2 
   1   8  -2 4088.64 279.826   1 
  -1  -8   2 3451.27 272.785   2 
  -1   8   2 3632.17 266.547   3 
   1   8  -1 442.717 105.079   1 
  -1   8   1 265.700 75.5260   3 
  -1  -8   1 240.097 65.5201   2 
  -1   8   0 417.120 86.7047   3 
  -1   8   0 371.066 64.7151   2 
  -1  -8   0 389.658 93.9076   2 
   1   8   0 464.395 73.5778   1 
   1   8   0 355.956 100.846   2 
   1   8   1 23352.6 392.713   1 
  -1  -8  -1 24442.9 775.869   3 
   1  -8   1 21758.7 555.447   3 
  -1  -8  -1 23094.0 687.945   2 
   1   8   1 23230.7 740.605   2 
  -1   8  -1 22351.0 510.724   2 
  -1   8  -1 23831.0 602.151   3 
   1   8   2 3472.48 289.946   2 
  -1  -8  -2 3576.36 306.250   3 
  -1  -8  -2 3739.09 273.356   2 
  -1   8  -2 3519.87 184.080   2 
   1   8   2 3537.99 305.695   3 
   1  -8   2 3740.11 233.308   3 
  -1   8  -3 24780.6 488.828   2 
   1  -8   3 24292.4 588.814   3 
  -1  -8  -3 26513.6 738.449   2 
   1   8   3 24978.3 784.958   2 
  -1  -8  -3 27600.3 831.946   3 
   1  -8   3 25105.6 606.891   2 
   1   8   3 23886.6 774.382   3 
   1   8   4 14194.0 618.065   2 
   1  -8   4 14307.8 474.529   2 
  -1   8  -4 15072.1 403.537   2 
   1   8   4 13400.4 595.902   3 
  -1  -8  -4 14827.5 644.641   3 
  -1  -8  -4 15659.1 588.742   2 
  -1   8  -5 23440.2 531.694   2 
   1  -8   5 23647.0 645.438   2 
   1   8   5 22174.6 789.003   3 
   1   8   5 23624.6 798.914   2 
  -1   8  -6 2020.26 172.568   2 
   1   8   6 2009.47 254.398   2 
  -1  -8  -6 1977.09 139.478   1 
   1  -8   6 2017.09 203.393   2 
   1   8   6 1956.72 245.385   3 
  -1   8  -7 9238.29 369.234   2 
   1   8   7 9834.17 546.062   2 
   1  -8   7 10207.3 468.303   2 
  -1  -8  -7 11199.8 409.415   1 
   1   8   7 9545.30 555.677   3 
   1   8   8 7795.40 516.237   3 
   1  -8   8 8486.10 454.186   2 
  -1  -8  -8 9032.93 410.323   1 
   1   8   8 8045.87 516.662   2 
  -1  -8  -8 8455.08 498.549   2 
   1   8   9 6845.98 497.787   2 
   1   8   9 6543.51 494.164   3 
  -1  -8  -9 7305.08 410.326   1 
   1  -8   9 7042.23 437.382   2 
  -1  -8  -9 7275.08 477.229   2 
   1   8  10 4374.72 419.873   3 
   1   8  10 4585.48 416.464   2 
  -1  -8 -10 4926.12 357.968   1 
   1  -8  10 4434.84 366.199   2 
   1  -8  11 6970.49 487.532   2 
  -1  -8 -11 6826.54 457.573   1 
   1   8  11 6895.55 533.048   2 
   1   8  11 6190.00 517.382   3 
   1   8  12 3315.43 387.681   2 
   1  -8  12 3431.97 352.594   2 
   1   8  13 432.704 159.771   2 
   1  -8  13 530.689 190.643   2 
  -1  -8 -14 1375.64 241.332   1 
   1   8  14 1133.32 237.486   2 
   1  -8  14 1225.85 231.591   2 
  -1  -8 -15 181.392 100.289   1 
   1  -8  15 250.234 93.2614   2 
   1   8  15 113.745 81.4135   2 
   1  -8  16 531.325 176.688   2 
   1   8  16 416.523 143.172   2 
   1  -8  17 4419.96 520.113   2 
   1   8  17 3547.09 487.026   2 
   1  -8  18 1144.79 272.256   2 
   1   8  18 1079.17 288.225   2 
   1  -8  19 107.524 61.9254   2 
   1   8  19 157.192 76.3162   2 
   1  -8  20 606.905 210.846   2 
   1  -8  21 1813.70 375.879   2 
  -1  -9  21 354.320 164.299   2 
  -1   9  20 266.469 164.583   1 
  -1  -9  20 244.141 138.666   2 
  -1   9  20 211.447 130.777   2 
  -1  -9  19 182.529 132.606   2 
  -1   9  19 237.943 168.275   1 
  -1   9  19 232.910 118.751   2 
  -1   9  18 255.340 129.286   2 
  -1   9  18 88.4003 100.142   1 
  -1  -9  18 215.570 118.045   2 
  -1   9  17 2847.46 420.749   2 
  -1   9  17 2845.47 452.585   1 
  -1   9  16 1355.93 276.628   2 
  -1   9  16 966.098 261.117   1 
  -1   9  15-4.22177 87.7242   1 
  -1   9  15 19.5459 47.3665   2 
  -1   9  14 807.630 205.342   2 
  -1   9  14 646.103 204.529   1 
  -1   9  13 14203.6 902.945   1 
   1  -9 -12 19.5540 62.2892   1 
  -1   9  12 477.415 239.681   1 
  -1   9  11 977.851 273.867   1 
   1  -9 -11 600.146 208.032   1 
   1  -9 -10 7908.19 671.434   1 
  -1   9  10 6944.42 568.910   1 
   1   9 -10 8690.80 666.590   1 
  -1   9   9 546.874 130.875   1 
   1  -9  -9 588.054 184.257   1 
   1   9  -9 800.012 197.887   1 
  -1   9   8 9382.63 644.462   1 
   1   9  -8 9820.61 631.197   1 
  -1   9   7 977.972 191.850   1 
   1   9  -7 1076.33 198.102   1 
   1   9  -6 5744.71 435.957   1 
  -1   9   6 5140.80 440.325   1 
   1   9  -5 3824.11 337.871   1 
  -1   9   5 3388.28 337.880   1 
  -1   9   4 23163.3 790.625   3 
  -1   9   4 22668.5 890.804   1 
   1   9  -4 23119.9 777.582   1 
   1   9  -3 25999.7 766.987   1 
  -1   9   3 25142.7 778.878   3 
  -1   9   2 12503.7 521.748   3 
  -1  -9   2 11636.4 505.582   2 
   1   9  -2 13830.5 510.884   1 
  -1   9   1 42397.5 933.293   3 
   1   9  -1 44273.7 822.206   1 
  -1  -9   1 40157.7 931.575   2 
   1   9   0 2893.46 271.118   2 
   1  -9   0 2637.32 217.820   3 
  -1   9   0 2713.71 225.526   3 
   1   9   0 3276.12 195.884   1 
  -1   9   0 2551.75 179.665   2 
  -1  -9   0 2661.32 235.313   2 
   1  -9   1 23993.3 627.369   3 
  -1  -9  -1 24907.0 713.112   2 
  -1   9  -1 24244.1 499.554   2 
   1   9   1 25081.7 782.232   2 
  -1   9  -1 25313.8 670.048   3 
   1  -9   2 7376.31 350.306   3 
  -1  -9  -2 7765.16 467.060   3 
   1   9   2 7973.84 444.486   2 
   1   9   2 7771.92 470.547   3 
  -1  -9  -2 7967.47 402.117   2 
  -1   9  -2 7389.27 249.458   2 
   1  -9   3 247.019 72.6190   3 
   1   9   3 220.967 81.5291   3 
   1  -9   3 241.759 60.5141   2 
  -1   9  -3 261.447 55.3087   2 
   1   9   3 289.239 93.1425   2 
  -1  -9  -3 187.354 65.4768   2 
  -1  -9  -3 425.324 133.923   3 
  -1  -9  -4 121325. 1627.74   2 
   1   9   4 111831. 1802.66   3 
   1   9   4 115644. 1767.60   2 
  -1  -9  -4 115392. 1840.06   3 
   1  -9   4 115956. 1329.41   2 
  -1   9  -4 117327. 1062.05   2 
   1  -9   4 114200. 1466.62   3 
  -1   9  -5 1479.14 135.138   2 
   1   9   5 1308.76 197.600   3 
   1   9   5 1534.91 209.436   2 
   1  -9   5 1403.94 151.942   2 
  -1   9  -6 17743.3 470.449   2 
   1   9   6 18895.2 787.008   3 
   1  -9   6 19055.2 604.502   2 
  -1  -9  -6 17383.4 353.956   1 
   1   9   6 18894.0 752.577   2 
  -1  -9  -7 190.325 87.2972   2 
   1   9   7 123.811 74.1715   3 
   1   9   7 248.802 114.259   2 
   1  -9   7 181.755 75.4634   2 
  -1  -9  -7 178.809 49.1213   1 
   1  -9   8 1586.77 192.183   2 
  -1  -9  -8 1643.62 163.542   1 
   1   9   8 1484.02 220.172   2 
  -1  -9  -8 1573.75 217.911   2 
   1   9   8 1612.56 242.357   3 
   1   9   9 1427.52 239.778   3 
  -1  -9  -9 1790.15 246.492   2 
   1   9   9 1760.73 257.403   2 
   1  -9   9 1620.95 210.944   2 
  -1  -9  -9 1758.10 189.629   1 
   1  -9  10 4121.29 349.613   2 
  -1  -9 -10 4014.65 326.646   1 
   1   9  10 3718.01 383.451   2 
   1   9  10 3970.56 412.490   3 
   1  -9  11 1235.01 199.926   2 
   1   9  11 1232.60 218.140   2 
  -1  -9 -11 1120.81 187.840   1 
   1  -9  12 23.8275 49.2081   2 
   1   9  12-57.5586 83.7419   2 
  -1  -9 -12-52.4372 92.6230   1 
   1   9  13 8735.14 650.460   2 
   1  -9  13 9201.38 611.332   2 
   1  -9  14 2397.93 321.977   2 
   1   9  14 2232.68 346.275   2 
  -1  -9 -15 55.3247 80.5022   1 
   1  -9  15-32.3109 88.4081   2 
   1   9  15 25.1112 159.587   2 
   1  -9  16 75.9099 101.928   2 
   1   9  16 66.3317 126.931   2 
   1  -9  17 60.8800 108.196   2 
   1   9  17-17.1349 54.2576   2 
   1  -9  18 1170.94 284.924   2 
   1   9  18 1133.22 292.740   2 
   1   9  19 2827.07 455.093   2 
   1  -9  19 2795.08 433.265   2 
   1  -9  20-200.813 157.141   2 
   1  -9  21 158.718 92.1957   2 
  -1  10  21-71.8781 107.037   1 
  -1 -10  21 96.0940 99.1607   2 
  -1 -10  20 542.154 190.621   2 
  -1  10  20 307.807 155.165   2 
  -1  10  20 575.566 194.123   1 
  -1  10  19 178.441 109.941   1 
  -1 -10  19-22.2729 55.1148   2 
  -1  10  19 89.6660 75.0449   2 
  -1 -10  18 83.2742 89.5165   2 
  -1  10  18 171.810 105.481   2 
  -1  10  18 228.947 147.722   1 
  -1  10  17 371.068 174.196   2 
  -1  10  17 427.379 182.175   1 
  -1  10  16 1829.99 348.017   1 
  -1  10  16 1625.37 295.854   2 
  -1  10  15 4.09751 43.5115   2 
  -1  10  15 91.1993 125.662   1 
  -1  10  14 1456.84 250.013   2 
  -1  10  14 1529.17 308.781   1 
  -1  10  13 1903.90 289.766   2 
  -1  10  13 2857.74 416.188   1 
   1 -10 -12 554.055 199.215   1 
  -1  10  12 924.636 267.186   1 
  -1  10  11 12737.7 795.762   1 
   1 -10 -11 14232.5 930.756   1 
   1 -10 -10 4008.05 488.579   1 
  -1  10  10 3481.59 420.162   1 
  -1  10   9 3962.26 428.338   1 
   1  10  -9 4206.99 439.979   1 
  -1  10   8 4579.82 436.316   1 
   1  10  -8 4321.14 421.542   1 
  -1  10   7 4435.98 416.679   1 
   1  10  -7 4258.83 397.001   1 
  -1  10   6 1045.98 203.764   1 
   1  10  -6 1014.38 191.137   1 
  -1  10   5 19867.5 865.519   1 
   1  10  -5 20361.2 783.647   1 
  -1  10   5 20303.0 809.780   3 
  -1  10   4 3285.41 345.591   1 
   1  10  -4 3574.72 305.825   1 
  -1  10   4 3425.68 316.963   3 
  -1  10   3 5400.24 374.014   3 
  -1 -10   3 5198.72 351.892   2 
   1  10  -3 5495.09 355.373   1 
  -1  10   2 13046.4 571.377   3 
   1  10  -2 13257.1 503.218   1 
  -1 -10   2 11696.6 513.223   2 
  -1  10   1 2920.25 255.875   3 
  -1 -10   1 2826.32 244.526   2 
   1  10  -1 3034.15 220.507   1 
  -1  10   0 26148.9 553.965   2 
   1  10   0 26035.1 800.902   2 
   1  10   0 29302.1 599.870   1 
  -1 -10   0 24957.5 718.798   2 
   1 -10   0 25111.9 709.271   3 
  -1  10   0 26308.7 733.502   3 
  -1 -10  -1 16142.0 581.584   2 
   1  10   1 17105.9 366.760   1 
  -1  10  -1 16619.4 582.310   3 
   1  10   1 16833.1 651.921   2 
  -1  10  -1 15737.2 377.807   2 
   1 -10   1 15961.4 547.242   3 
   1  10   2 7730.45 489.563   3 
  -1  10  -2 7657.75 236.432   2 
  -1 -10  -2 8158.62 410.160   2 
   1  10   2 8024.58 453.858   2 
   1 -10   2 7759.94 389.279   3 
  -1 -10  -2 8247.86 504.614   3 
  -1  10  -3 17830.2 369.001   2 
   1  10   3 17348.1 738.564   3 
   1  10   3 17187.5 678.554   2 
   1 -10   3 16972.8 571.877   3 
  -1 -10  -3 18500.0 627.858   2 
   1 -10   3 17296.1 458.989   2 
  -1 -10  -3 17249.2 718.146   3 
   1 -10   4 991.635 145.223   3 
   1  10   4 1006.26 183.661   3 
  -1 -10  -4 870.335 211.251   3 
  -1 -10  -4 992.349 161.641   2 
  -1  10  -4 1199.76 114.759   2 
   1  10   4 872.304 166.715   2 
   1 -10   4 874.067 111.681   2 
   1  10   5-15.9442 39.0506   3 
   1 -10   5-9.30963 27.5410   2 
   1  10   5-19.6933 43.7811   2 
  -1  10  -5 4.32617 16.2241   2 
   1  10   6 3850.09 344.760   2 
   1 -10   6 3970.81 271.420   2 
   1  10   6 3992.30 372.215   3 
  -1 -10  -7 16389.0 409.079   1 
   1  10   7 17006.0 740.204   2 
   1  10   7 16961.9 797.615   3 
   1 -10   7 17048.2 605.559   2 
  -1 -10  -7 18093.1 714.813   2 
  -1 -10  -8 5997.62 425.783   2 
   1  10   8 5140.28 429.684   2 
   1 -10   8 5500.99 359.840   2 
   1  10   8 5277.17 461.647   3 
  -1 -10  -8 5402.94 283.365   1 
   1  10   9 11213.9 649.343   2 
  -1 -10  -9 12648.7 653.404   2 
   1  10   9 11172.8 675.747   3 
   1 -10   9 12067.0 560.083   2 
  -1 -10  -9 11154.6 468.384   1 
   1  10  10 9130.24 608.417   2 
   1 -10  10 9827.71 536.140   2 
  -1 -10 -10 9390.35 466.338   1 
   1  10  10 9280.37 637.057   3 
   1 -10  11 28.6724 44.4935   2 
  -1 -10 -11 84.4974 58.6876   1 
   1  10  11 32.9199 68.0848   2 
   1  10  12 73.4772 43.0029   2 
  -1 -10 -12 130.909 88.7074   1 
   1 -10  12 96.4906 58.7021   2 
   1 -10  13 301.053 112.514   2 
   1  10  13 183.650 71.8789   2 
   1 -10  14 261.777 119.405   2 
   1  10  14 223.299 137.262   2 
   1 -10  15 3937.69 436.605   2 
   1  10  15 3976.64 481.934   2 
   1 -10  16 1712.07 305.865   2 
   1  10  16 1539.39 315.954   2 
   1 -10  17 2139.94 350.482   2 
   1  10  17 2508.04 416.158   2 
   1 -10  18 121.532 120.357   2 
   1  10  18-118.972 128.878   2 
   1  10  19 83.1366 99.3977   2 
   1 -10  19 65.0070 90.4785   2 
   1 -10  20 673.655 205.156   2 
   1 -10  21 161.975 102.928   2 
  -1  11  21 125.459 89.6822   1 
  -1 -11  21 131.375 121.112   2 
  -1  11  20 197.570 131.165   2 
  -1 -11  20 181.403 144.388   2 
  -1  11  20 159.592 104.958   1 
  -1 -11  19 106.950 133.277   2 
  -1  11  19-37.8566 77.1588   2 
  -1  11  19 330.728 179.187   1 
  -1  11  18 2969.58 432.342   2 
  -1  11  18 3284.57 490.263   1 
  -1 -11  18 3332.44 416.679   2 
  -1  11  17 347.513 131.388   2 
  -1  11  17 449.036 205.194   1 
  -1  11  16 203.193 134.958   2 
  -1  11  16 154.903 114.809   1 
  -1  11  15 47.0191 68.4450   2 
  -1  11  15 16.5690 82.8716   1 
  -1  11  14 430.510 153.686   2 
  -1  11  14 272.606 115.864   1 
  -1  11  13 9957.67 628.320   2 
  -1  11  13 12209.6 826.509   1 
  -1  11  12 7947.52 526.091   2 
  -1  11  12 9341.89 699.789   1 
   1 -11 -12 9668.89 816.339   1 
  -1  11  11 1169.69 256.575   1 
   1 -11 -11 1267.27 290.194   1 
  -1  11  10 3998.82 442.841   1 
  -1  11   9-155.609 140.915   1 
   1  11  -9-46.8541 100.151   1 
   1  11  -8 14422.1 796.807   1 
  -1  11   8 13754.5 777.848   1 
   1  11  -7 65.1027 77.1863   1 
  -1  11   7 6.47382 57.7375   1 
  -1  11   6 5066.82 448.783   1 
   1  11  -6 5358.79 424.368   1 
  -1  11   6 5369.12 445.797   3 
  -1  11   5 12779.1 656.952   3 
  -1  11   5 12157.6 686.744   1 
   1  11  -5 12621.1 625.911   1 
  -1  11   4 14149.3 662.270   3 
   1  11  -4 13116.4 588.603   1 
  -1  11   4 13149.6 709.273   1 
  -1 -11   4 12335.1 560.026   2 
  -1  11   3 2251.73 253.171   3 
  -1 -11   3 2022.01 219.147   2 
   1  11  -3 2421.93 235.904   1 
  -1  11   2 7378.35 447.486   3 
   1  11  -2 7300.28 383.412   1 
  -1 -11   2 7060.17 399.070   2 
  -1 -11   1 4158.57 300.124   2 
   1  11  -1 4459.88 274.407   1 
  -1  11   1 4404.10 328.145   3 
   1  11   0 10639.5 518.468   2 
  -1  11   0 10184.3 334.383   2 
  -1 -11   0 10122.6 464.321   2 
   1  11   0 11234.9 379.221   1 
  -1  11   0 10340.2 489.613   3 
   1 -11   0 10346.7 482.844   3 
  -1 -11  -1 26825.3 747.511   2 
  -1  11  -1 25723.5 440.616   2 
   1  11   1 28885.2 501.897   1 
   1  11   1 27354.4 845.105   2 
   1 -11   2 6443.00 374.879   3 
  -1  11  -2 6211.46 188.458   2 
  -1 -11  -2 6524.12 369.518   2 
   1  11   2 6320.39 410.441   2 
   1  11   2 6742.94 475.071   3 
  -1 -11  -3 1678.13 191.544   2 
  -1 -11  -3 1596.67 229.034   3 
   1 -11   3 1460.41 176.981   3 
   1  11   3 1565.78 210.707   2 
   1  11   3 1510.33 227.433   3 
  -1  11  -3 1655.86 103.977   2 
   1 -11   4 10.5392 15.9681   2 
   1  11   4 62.1336 49.9716   3 
   1 -11   4-26.1053 43.7227   3 
   1  11   4 20.2273 33.5674   2 
  -1 -11  -4 35.9694 38.7327   2 
  -1 -11  -4-8.14075 47.7889   3 
  -1  11  -4 37.7866 21.1339   2 
   1 -11   5 255.832 75.5182   3 
   1 -11   5 156.229 48.5563   2 
   1  11   5 253.546 99.8235   2 
   1  11   5 182.203 78.2567   3 
  -1 -11  -5 99.9217 39.9242   3 
   1 -11   6 418.494 87.4541   2 
   1  11   6 602.046 143.590   2 
   1  11   6 467.339 132.866   3 
  -1 -11  -7 3016.63 295.400   2 
   1  11   7 2947.91 323.264   2 
   1 -11   7 2989.19 250.021   2 
   1  11   7 2765.67 333.087   3 
   1  11   8 32245.5 1172.58   3 
   1  11   8 31619.6 1059.85   2 
   1 -11   8 31678.1 867.022   2 
  -1 -11  -8 32768.2 1022.48   2 
   1  11   9-93.5184 90.1037   2 
  -1 -11  -9-7.30762 19.2190   1 
  -1 -11  -9-21.2882 46.7449   2 
   1 -11   9 45.5214 41.1040   2 
   1  11   9-42.9630 36.7330   3 
  -1 -11 -10 684.068 119.445   1 
   1 -11  10 575.128 123.397   2 
   1  11  10 448.244 125.518   2 
   1  11  11 294.213 80.5972   2 
   1 -11  11 288.710 85.7759   2 
  -1 -11 -11 293.069 91.1209   1 
  -1 -11 -12 121.771 70.3248   1 
   1 -11  12 75.6207 37.1096   2 
   1  11  12 10.9382 59.0402   2 
  -1 -11 -13 46.1400 61.8396   1 
   1 -11  13 35.7619 50.3488   2 
   1  11  13 37.8457 54.6714   2 
   1  11  14 3590.53 448.352   2 
   1 -11  14 4391.13 437.976   2 
   1 -11  15 459.339 134.479   2 
   1  11  15 412.343 162.111   2 
   1 -11  16 357.162 132.606   2 
   1  11  16 399.919 164.311   2 
   1 -11  17 950.760 236.141   2 
   1  11  17 846.115 246.967   2 
   1 -11  18 331.650 144.163   2 
   1  11  18 171.610 92.2568   2 
   1 -11  19 817.466 237.540   2 
   1  11  19 869.588 270.377   2 
   1 -11  20 365.121 186.968   2 
   1 -11  21 1251.59 307.057   2 
  -1 -12  21 102.593 126.864   2 
  -1  12  21-85.6600 111.625   1 
  -1  12  20 92.0526 88.5599   1 
  -1 -12  20 335.068 158.367   2 
  -1 -12  19 187.443 119.580   2 
  -1  12  19 53.2669 79.3498   2 
  -1  12  19-172.248 103.061   1 
  -1 -12  18 223.718 156.147   2 
  -1  12  18 22.0818 114.775   2 
  -1  12  18 197.365 209.356   1 
  -1  12  17 87.0201 82.5206   2 
  -1  12  17 287.835 213.827   1 
  -1  12  16 1304.09 287.668   1 
  -1  12  16 1115.46 256.606   2 
  -1  12  15 104.545 115.768   1 
  -1  12  15 82.1130 64.7328   2 
  -1  12  14 164.104 156.041   1 
  -1  12  14 456.099 178.202   2 
  -1  12  13 6011.53 587.814   1 
  -1  12  13 4739.55 448.686   2 
  -1  12  12 1325.46 226.031   2 
  -1  12  12 1771.53 341.693   1 
  -1  12  11 67.1432 55.4663   2 
  -1  12  11 210.940 149.196   1 
  -1  12  10 262.766 113.815   1 
   1  12  -9-28.8605 85.6415   1 
  -1  12   9-624.210 184.397   1 
   1  12  -8 1206.63 237.271   1 
  -1  12   8 1441.12 245.988   1 
  -1  12   7 4600.19 436.639   1 
   1  12  -7 4709.51 436.017   1 
  -1  12   7 4883.80 451.256   3 
  -1  12   6 3371.43 366.754   1 
  -1  12   6 3187.86 348.854   3 
   1  12  -6 3032.52 326.153   1 
  -1  12   5 1556.04 247.545   1 
  -1  12   5 1587.18 241.903   3 
   1  12  -5 1765.29 250.199   1 
  -1 -12   4 239.219 78.5532   2 
  -1  12   4 205.707 116.999   1 
   1  12  -4 382.463 180.010   1 
  -1  12   4 397.511 115.594   3 
  -1 -12   3 1936.63 216.051   2 
   1  12  -3 1885.40 208.670   1 
  -1  12   3 2434.25 276.725   3 
  -1  12   2 718.335 146.447   3 
   1  12  -2 788.808 128.121   1 
  -1 -12   2 715.215 125.473   2 
  -1 -12   1 941.730 142.898   2 
   1  12  -1 1003.82 132.338   1 
  -1  12   1 1005.23 165.205   3 
   1 -12   0 9109.12 484.064   3 
  -1  12   0 10262.0 523.671   3 
  -1 -12   0 9721.71 455.725   2 
  -1  12   0 9019.19 298.869   2 
   1  12   0 9541.31 360.739   1 
   1  12   0 9365.03 492.862   2 
   1 -12   1 17972.8 652.708   3 
   1  12   1 21061.7 459.251   1 
  -1  12  -1 19131.9 338.517   2 
  -1 -12  -1 20532.5 656.514   2 
   1  12   1 20302.3 738.824   2 
   1  12   2-56.0074 66.3571   2 
   1  12   2 49.4861 70.3212   3 
  -1  12  -2 26.5381 15.0644   2 
  -1 -12  -2 10.1376 28.9935   2 
   1 -12   2-19.6421 47.0776   3 
  -1  12  -3 531.961 53.3285   2 
  -1 -12  -3 648.457 146.204   3 
  -1 -12  -3 647.691 120.872   2 
   1 -12   3 646.142 128.072   3 
   1  12   3 617.686 141.732   2 
   1  12   3 703.375 167.077   3 
  -1 -12  -4 1713.09 245.880   3 
   1  12   4 1777.51 254.540   3 
   1 -12   4 1800.38 213.085   3 
   1  12   4 1729.02 227.245   2 
   1 -12   4 1706.80 140.835   2 
  -1 -12  -5 53.5962 71.2023   3 
   1  12   5 68.2860 35.2740   2 
   1 -12   5 175.182 74.8408   3 
   1  12   5 97.6053 69.3415   3 
   1 -12   5 165.953 46.4618   2 
   1  12   6 3601.79 347.711   2 
   1  12   6 3620.20 376.668   3 
   1 -12   6 3502.10 248.336   2 
  -1 -12  -6 3885.84 334.812   2 
   1 -12   7 1776.91 195.967   2 
  -1 -12  -7 1970.81 243.830   2 
   1  12   7 1877.24 287.660   3 
   1  12   7 1797.44 260.015   2 
   1  12   8 17540.5 883.349   3 
   1  12   8 17176.0 803.516   2 
   1 -12   8 17493.3 639.785   2 
  -1 -12  -8 18887.1 776.418   2 
   1 -12   9 1174.08 178.499   2 
   1  12   9 1134.31 207.491   2 
  -1 -12 -10 5713.25 342.478   1 
   1  12  10 5706.50 483.137   2 
   1 -12  10 6109.53 416.887   2 
  -1 -12 -11 1531.84 192.119   1 
   1 -12  11 1545.09 220.770   2 
   1  12  11 1427.49 245.597   2 
  -1 -12 -12 2377.96 262.469   1 
   1 -12  12 2494.85 294.863   2 
   1  12  12 2661.50 365.653   2 
  -1 -12 -13 2983.23 317.891   1 
   1 -12  13 3363.38 366.060   2 
   1  12  13 3053.37 399.580   2 
   1 -12  14 5910.15 514.174   2 
   1  12  14 5284.21 548.909   2 
   1 -12  15-54.8789 96.4089   2 
   1  12  15-166.142 141.817   2 
   1 -12  16 310.607 82.1300   2 
   1  12  16 152.587 99.7819   2 
   1 -12  17-23.9256 79.2097   2 
   1  12  17-81.0038 111.803   2 
   1 -12  18 8.47117 57.4079   2 
   1  12  18 42.9473 46.7964   2 
   1 -12  19 787.558 235.613   2 
   1  12  19 679.915 233.462   2 
   1 -12  20 4654.02 580.737   2 
  -1  13  21-361.698 189.232   1 
  -1 -13  21-79.6970 92.2537   2 
  -1  13  20 22.1961 85.5998   1 
  -1 -13  20-152.081 105.318   2 
  -1 -13  19 1585.08 322.166   2 
  -1  13  19 1182.28 296.773   2 
  -1  13  19 1571.63 339.630   1 
  -1  13  18 4799.17 580.186   1 
  -1  13  18 4378.08 534.311   2 
  -1 -13  18 4720.14 510.734   2 
  -1 -13  17 256.007 129.914   2 
  -1  13  17 177.525 138.772   1 
  -1  13  17 141.496 125.368   2 
  -1  13  16 436.088 170.798   1 
  -1  13  16 524.067 178.091   2 
  -1  13  15 1928.08 319.506   2 
  -1  13  15 1680.09 319.700   1 
  -1  13  14 4208.12 444.431   2 
  -1  13  14 4408.97 540.217   1 
  -1  13  13 3810.48 405.698   2 
  -1  13  13 3751.14 472.399   1 
  -1  13  12 7503.09 640.774   1 
  -1  13  12 6904.71 536.397   2 
  -1  13  11 4405.93 393.174   2 
  -1  13  11 4480.32 486.987   1 
  -1  13  10 13845.5 638.292   2 
  -1  13  10 14917.1 879.928   1 
  -1  13   9 9748.96 688.474   1 
   1  13  -8 840.265 200.180   1 
  -1  13   8 758.380 185.987   1 
  -1  13   7 2290.50 314.851   3 
  -1  13   7 1944.04 288.389   1 
   1  13  -7 2389.60 324.698   1 
  -1  13   6 176.012 88.2514   3 
   1  13  -6 137.287 99.2306   1 
  -1  13   6 88.5755 94.0713   1 
  -1 -13   5 665.366 135.362   2 
  -1  13   5 698.238 172.787   1 
   1  13  -5 818.505 196.299   1 
  -1  13   5 723.927 163.993   3 
  -1  13   4 23970.3 942.671   3 
  -1  13   4 23213.5 973.592   1 
   1  13  -4 21969.1 788.479   1 
  -1 -13   4 21966.9 750.830   2 
  -1  13   3 655.960 155.773   3 
  -1 -13   3 442.404 100.460   2 
   1  13  -3 511.843 118.093   1 
  -1 -13   2 514.445 102.677   2 
   1  13  -2 698.495 123.565   1 
  -1  13   2 695.355 150.242   3 
  -1 -13   1 6641.03 381.112   2 
   1  13  -1 6583.13 341.415   1 
  -1  13   1 6620.49 448.242   3 
  -1  13   0 62.4104 46.8263   3 
   1 -13   0 42.9505 47.0219   3 
   1  13   0 17.3107 51.5419   2 
   1  13   0 8.80083 32.4618   1 
  -1 -13   0 27.9045 29.1432   2 
  -1  13   0 18.5721 16.9058   2 
   1  13   1 57.6083 25.0892   1 
   1  13   1 69.0335 58.4380   2 
   1 -13   1 125.237 79.2013   3 
  -1 -13  -1 62.0258 22.7261   2 
   1 -13   2 10279.0 535.429   3 
  -1 -13  -2 10368.9 475.223   2 
   1  13   2 9956.68 269.709   1 
   1  13   2 9400.37 522.461   2 
   1 -13   3 135.911 69.1134   3 
  -1 -13  -3 97.8142 83.8187   3 
  -1 -13  -3 78.7668 44.9010   2 
   1  13   3 75.5783 52.1063   2 
   1  13   3 161.604 92.2934   3 
   1  13   4 672.576 157.574   3 
   1  13   4 488.891 129.404   2 
   1 -13   4 544.736 120.980   3 
  -1 -13  -4 395.049 123.658   3 
   1  13   5 2220.46 304.545   3 
  -1 -13  -5 2397.56 312.512   3 
   1  13   5 2587.47 289.482   2 
   1 -13   5 2513.98 179.284   2 
   1 -13   5 2507.36 270.894   3 
   1  13   6 1028.87 193.337   2 
   1  13   6 895.176 199.382   3 
   1 -13   6 895.637 172.594   3 
   1 -13   6 940.922 123.084   2 
  -1 -13  -6 1120.96 185.903   2 
  -1 -13  -7 1032.24 180.625   2 
   1  13   7 1168.72 214.675   2 
   1 -13   7 993.317 135.603   2 
   1  13   7 1141.77 224.780   3 
   1 -13   8 26553.6 782.273   2 
  -1 -13  -8 28856.1 982.638   2 
   1  13   8 25611.2 1003.68   2 
   1  13   9 7115.27 546.990   2 
   1 -13   9 8185.12 460.798   2 
   1  13  10 9864.05 656.001   2 
   1 -13  10 10706.6 553.026   2 
   1  13  11 1338.67 249.688   2 
   1 -13  11 1707.65 230.047   2 
  -1 -13 -12 1595.54 207.894   1 
   1 -13  12 1640.19 236.318   2 
   1  13  12 1541.68 274.778   2 
   1 -13  13 262.744 84.0441   2 
   1  13  13 196.986 49.6594   2 
   1 -13  14 293.659 101.866   2 
   1  13  14 267.726 123.978   2 
   1 -13  15 246.308 85.6437   2 
   1  13  15 235.140 110.083   2 
   1 -13  16-115.056 129.657   2 
   1  13  16-124.383 136.584   2 
   1 -13  17 639.805 189.262   2 
   1  13  17 535.274 197.381   2 
   1 -13  18 42.8150 92.7439   2 
   1  13  18-116.107 112.866   2 
   1 -13  19 697.540 214.731   2 
   1 -13  20 1630.67 348.764   2 
  -1  14  20 67.4172 99.3980   1 
  -1 -14  20 18.9360 72.6927   2 
  -1  14  19 862.060 285.242   1 
  -1 -14  19 1039.13 267.309   2 
  -1  14  19 1345.96 322.138   2 
  -1 -14  18 184.499 113.259   2 
  -1  14  18 288.445 196.274   2 
  -1  14  18 338.524 222.522   1 
  -1  14  17 1813.05 335.270   2 
  -1 -14  17 2142.00 338.923   2 
  -1  14  17 2074.06 370.690   1 
  -1  14  16-46.0689 113.499   1 
  -1  14  16 67.7416 105.676   2 
  -1  14  15 75.4001 107.162   2 
  -1  14  15-5.99175 108.527   1 
  -1  14  14 2301.33 336.389   2 
  -1  14  14 2946.99 418.247   1 
  -1  14  13 31.8603 101.569   2 
  -1  14  13 693.073 231.007   1 
  -1  14  12 28.8585 77.4991   2 
  -1  14  12 136.811 155.942   1 
  -1  14  11 2169.66 287.813   2 
  -1  14  11 1792.14 310.212   1 
  -1  14  10 3487.36 338.610   2 
  -1  14  10 3291.48 405.982   1 
  -1  14   9 498.959 121.153   2 
  -1  14   9 246.804 104.942   1 
  -1  14   8 664.522 123.956   2 
   1  14  -8 844.675 202.438   1 
  -1  14   8 747.238 183.434   1 
  -1  14   7 30.2830 60.6424   3 
  -1  14   7 133.526 66.3007   2 
   1  14  -7 32.5164 90.7010   1 
  -1  14   7 13.0462 82.1970   1 
  -1 -14   6 12744.6 612.144   2 
  -1  14   6 14034.8 783.396   1 
   1  14  -6 12561.4 675.579   1 
  -1  14   6 14396.1 779.727   3 
  -1  14   5 15535.9 819.027   1 
  -1  14   5 16452.8 829.941   3 
  -1 -14   5 14558.9 635.879   2 
   1  14  -5 14528.3 685.937   1 
   1  14  -4 61.8475 77.7011   1 
  -1 -14   4-39.6805 39.6960   2 
  -1  14   4-37.7413 53.9193   3 
  -1  14   3 4607.27 409.005   3 
  -1 -14   3 4145.19 316.883   2 
   1  14  -3 3995.30 318.379   1 
  -1 -14   2 408.926 94.7050   2 
  -1  14   2 438.036 121.275   3 
   1  14  -2 520.143 115.875   1 
  -1  14   1 2336.13 277.069   3 
   1  14  -1 2320.18 213.575   1 
  -1 -14   1 2456.40 230.670   2 
  -1  14   0 3896.38 126.095   2 
  -1 -14   0 4774.28 320.601   2 
  -1  14   0 5111.69 404.264   3 
  -1  14   0 4555.33 177.906   2 
   1  14   0 4662.47 275.629   1 
   1  14   0 5028.93 375.158   2 
  -1 -14  -1 15089.6 572.660   2 
   1  14   1 14422.2 414.600   1 
   1  14   1 14427.2 645.416   2 
  -1 -14  -2 5549.72 352.438   2 
   1  14   2 5171.44 205.218   1 
   1  14   2 5155.67 394.653   2 
  -1 -14  -2 5293.22 480.730   3 
   1 -14   3 9470.78 533.379   3 
  -1 -14  -3 9852.36 640.342   3 
   1  14   3 10654.8 580.105   2 
   1  14   3 11325.8 692.593   3 
  -1 -14  -4 962.039 210.838   3 
   1  14   4 1092.64 219.398   3 
   1  14   4 1203.13 194.058   2 
   1 -14   5 1040.93 103.855   2 
   1  14   5 1132.72 193.660   2 
   1  14   5 1043.26 210.279   3 
  -1 -14  -5 820.258 195.203   3 
  -1 -14  -6 3580.49 323.210   2 
   1 -14   6 3418.32 223.497   2 
   1  14   6 3226.00 342.394   2 
  -1 -14  -7 6877.73 462.968   2 
   1 -14   7 6428.26 342.645   2 
   1  14   7 6187.63 488.485   2 
  -1 -14  -8 2392.82 291.283   2 
   1  14   8 2188.00 297.250   2 
   1 -14   8 2098.93 210.405   2 
   1 -14   9 150.975 68.2454   2 
   1  14   9 323.762 140.786   2 
   1  14  10 133.075 102.843   2 
   1 -14  10 118.803 78.7818   2 
   1  14  11 535.237 165.111   2 
   1 -14  11 634.168 149.745   2 
   1  14  12 4241.55 470.088   2 
   1 -14  12 4781.13 409.720   2 
   1 -14  13 57.0937 61.6193   2 
   1  14  13-1.18036 49.2658   2 
   1 -14  14 1718.95 268.988   2 
   1  14  14 1226.76 255.632   2 
   1  14  15 4594.09 540.677   2 
   1 -14  15 5618.91 514.263   2 
   1 -14  16-117.217 118.723   2 
   1  14  16-209.048 162.711   2 
   1 -14  17 505.926 149.820   2 
   1  14  17 86.1902 65.5906   2 
   1 -14  18 135.219 90.9052   2 
   1  14  18 24.1600 97.4088   2 
  -1 -15  20 192.037 129.710   2 
  -1 -15  19 1617.49 313.657   2 
  -1  15  19 1415.15 316.328   1 
  -1  15  19 1539.09 339.771   2 
  -1  15  18 599.449 213.432   2 
  -1 -15  18 757.662 224.284   2 
  -1  15  18 687.746 231.460   1 
  -1 -15  17 439.047 166.131   2 
  -1  15  17 321.647 204.177   1 
  -1  15  17 293.764 148.623   2 
  -1  15  16 2177.90 357.368   2 
  -1  15  16 2462.18 414.204   1 
  -1  15  15 4218.58 476.128   2 
  -1  15  15 4077.06 500.825   1 
  -1  15  14 40.9394 73.1007   2 
  -1  15  14 327.201 190.213   1 
  -1  15  13 5219.09 477.397   2 
  -1  15  13 5768.06 581.105   1 
  -1  15  12 755.130 202.338   1 
  -1  15  12 868.868 188.952   2 
  -1  15  11 278.325 168.905   1 
  -1  15  11 198.721 106.202   2 
  -1  15  10 962.359 188.634   2 
  -1  15  10 773.105 191.166   1 
  -1  15   9 12445.6 785.864   1 
  -1  15   9 12961.2 637.138   2 
  -1  15   8 47.5225 62.6594   2 
  -1  15   8 46.3457 78.4310   1 
  -1  15   7 2754.46 250.288   2 
  -1  15   7 2481.02 334.878   1 
   1  15  -7 2174.01 302.907   1 
  -1  15   6 555.338 155.844   3 
  -1  15   6 610.785 168.194   1 
  -1 -15   6 472.886 116.290   2 
   1  15  -6 488.988 140.006   1 
  -1  15   6 666.217 120.862   2 
  -1  15   5 7221.84 352.585   2 
  -1  15   5 7182.54 565.031   1 
   1  15  -5 6827.24 482.585   1 
  -1 -15   5 7165.03 437.328   2 
  -1  15   5 8429.88 612.251   3 
  -1  15   4 177.719 112.023   3 
  -1 -15   4 81.3017 92.5513   3 
  -1  15   4 57.2744 40.6987   2 
  -1 -15   4-6.49708 56.4038   2 
   1  15  -4 55.4884 91.6644   1 
  -1  15   3 4906.01 244.535   2 
  -1 -15   3 4916.77 341.660   2 
   1  15  -3 4868.76 359.809   1 
  -1  15   3 5735.72 469.002   3 
  -1  15   2 1157.38 102.635   2 
   1  15  -2 1058.84 154.438   1 
  -1 -15   2 1019.58 151.163   2 
  -1  15   2 1107.31 202.528   3 
  -1  15   1 1102.28 86.1637   2 
  -1  15   1 1184.56 209.505   3 
  -1 -15   1 1051.08 151.525   2 
   1  15  -1 1293.08 162.951   1 
   1  15   0 421.688 117.311   2 
  -1  15   0 621.308 155.950   3 
  -1 -15   0 343.612 82.9776   2 
   1  15   0 644.603 113.792   1 
  -1 -15  -1 5904.19 517.244   3 
   1  15   1 6058.64 424.737   2 
   1  15   1 5929.27 278.259   1 
  -1 -15  -1 6069.93 361.437   2 
  -1 -15  -2 5220.01 342.874   2 
  -1 -15  -2 4831.74 468.838   3 
   1  15   2 4749.67 211.158   1 
   1  15   2 5125.99 400.754   2 
   1  15   3 159.342 86.0008   2 
   1  15   3 174.929 106.958   3 
  -1 -15  -3 157.252 124.878   3 
  -1 -15  -3 47.0370 33.5836   2 
   1  15   4 280.183 104.055   2 
  -1 -15  -4 195.988 68.3345   3 
   1  15   4 381.019 128.133   3 
  -1 -15  -5-85.4409 102.793   3 
   1  15   5 25.4517 52.5253   2 
  -1 -15  -5 6.30836 27.3946   2 
   1 -15   6 663.176 88.7232   2 
   1  15   6 581.951 149.534   2 
  -1 -15  -6 688.771 149.206   2 
  -1 -15  -7 13697.0 658.785   2 
   1  15   7 11921.6 689.038   2 
   1 -15   7 12843.0 459.589   2 
  -1 -15  -8 209.011 93.3576   2 
   1  15   8 239.433 128.570   2 
   1 -15   8 60.9090 36.8882   2 
   1  15   9 327.194 134.734   2 
   1 -15   9 243.935 79.5362   2 
   1 -15  10 10141.2 526.597   2 
   1  15  10 8697.20 632.849   2 
   1  15  11 1030.34 241.429   2 
   1 -15  11 1221.93 199.674   2 
   1  15  12 82.7455 103.793   2 
   1 -15  12 154.511 87.1832   2 
   1 -15  13 3460.48 369.533   2 
   1  15  13 2940.75 405.748   2 
   1  15  14 542.106 179.765   2 
   1 -15  14 616.664 161.832   2 
   1  15  15 344.240 154.233   2 
   1 -15  15 533.422 158.851   2 
   1  15  16 18.7262 88.3864   2 
   1 -15  16 50.4988 66.7752   2 
   1  15  17-120.718 134.539   2 
   1 -15  17 14.4621 51.3349   2 
   1  15  18 528.858 182.078   2 
  -1 -16  19 1308.83 282.869   2 
  -1  16  19 1448.31 324.919   2 
  -1 -16  18 277.793 177.382   2 
  -1  16  18 526.845 217.319   2 
  -1  16  18 374.384 193.409   1 
  -1  16  17 4593.81 533.181   2 
  -1  16  17 4197.21 531.526   1 
  -1 -16  17 4569.86 486.847   2 
  -1 -16  16 74.9078 66.3658   2 
  -1  16  16-21.6267 87.4993   1 
  -1  16  16 100.350 91.4283   2 
  -1  16  15 417.897 161.053   2 
  -1  16  15 108.677 107.189   1 
  -1  16  14 327.301 128.012   2 
  -1  16  14 537.053 243.169   1 
  -1  16  13 726.962 188.392   2 
  -1  16  13 778.903 245.355   1 
  -1  16  12 228.867 125.693   1 
  -1  16  12 334.877 129.153   2 
  -1  16  11 2285.60 341.823   1 
  -1  16  11 2403.13 299.305   2 
  -1  16  10 16.2741 66.3646   2 
  -1  16  10-49.0732 132.058   1 
  -1  16   9 454.048 126.084   2 
  -1  16   9 44.6533 114.478   1 
  -1  16   8 714.301 137.973   2 
  -1  16   8 868.520 216.389   1 
  -1 -16   7 456.387 115.463   2 
  -1  16   7 686.126 196.047   1 
  -1  16   7 551.330 110.088   2 
   1  16  -7 654.305 185.519   1 
  -1  16   6 3555.84 278.141   2 
  -1  16   6 3529.11 412.873   1 
  -1 -16   6 3167.76 301.165   2 
   1  16  -6 3407.58 369.968   1 
  -1  16   5 8712.47 637.285   1 
  -1 -16   5 8632.00 484.178   2 
   1  16  -5 8454.29 546.130   1 
  -1  16   5 9887.33 676.666   3 
  -1  16   5 9381.57 415.681   2 
  -1 -16   4 81.7133 90.7741   3 
  -1  16   4 17.2544 58.3462   3 
  -1  16   4 37.3239 39.7785   2 
  -1 -16   4 39.1897 37.4260   2 
   1  16  -4 58.5170 99.1830   1 
  -1 -16   3 126.907 77.4259   3 
  -1  16   3 176.945 95.5480   3 
  -1 -16   3 83.9839 28.9715   2 
  -1  16   3 199.020 61.5638   2 
   1  16  -3 197.072 96.0742   1 
   1  16  -2 2609.82 255.349   1 
  -1  16   2 2981.71 338.355   3 
  -1  16   2 2919.39 164.932   2 
  -1 -16   2 2786.48 249.156   2 
  -1 -16   2 2820.85 371.403   3 
  -1 -16   1-51.3999 79.3979   3 
  -1  16   1 151.617 79.5409   3 
  -1  16   1 80.5281 20.1058   2 
   1  16  -1 138.977 65.6882   1 
  -1  16   1 127.335 30.9963   2 
  -1 -16   1 111.198 40.2955   2 
   1 -16  -1 96.8019 49.1786   3 
  -1 -16   0 1093.29 150.820   2 
   1  16   0 1278.54 156.580   1 
  -1 -16   0 1113.51 232.017   3 
  -1  16   0 1349.80 230.158   3 
  -1 -16  -1 14483.1 568.648   2 
   1  16   1 12618.7 425.861   1 
   1  16   1 14954.2 678.970   2 
  -1 -16  -1 13478.8 810.258   3 
  -1 -16  -2 2409.76 349.590   3 
   1  16   2 1887.19 142.806   1 
  -1 -16  -2 1887.00 206.744   2 
   1  16   2 1982.27 255.242   2 
   1  16   3 16240.6 360.310   1 
   1  16   3 16527.4 324.573   1 
   1  16   3 17767.9 769.608   2 
  -1 -16  -3 17098.2 893.757   3 
   1  16   4 5234.94 428.798   2 
  -1 -16  -4 5401.93 506.835   3 
  -1 -16  -5 72.8667 45.7851   2 
  -1 -16  -5-109.281 125.447   3 
   1  16   5-21.5708 56.2189   2 
   1 -16   6 510.840 147.909   3 
  -1 -16  -6 635.445 147.478   2 
   1  16   6 587.001 150.356   2 
   1 -16   7 665.543 180.597   3 
   1 -16   7 666.619 94.9528   2 
   1  16   7 737.351 183.305   2 
  -1 -16  -7 843.527 181.513   2 
   1  16   8 3500.28 384.267   2 
   1 -16   8 3993.27 271.480   2 
   1 -16   8 3639.16 399.275   3 
   1  16   9 1225.50 245.938   2 
   1 -16   9 1363.16 174.621   2 
   1  16  10 4698.34 482.673   2 
   1 -16  10 4967.06 366.810   2 
   1  16  11 578.928 175.131   2 
   1 -16  11 602.344 138.848   2 
   1  16  12 4452.38 490.842   2 
   1 -16  12 5331.47 431.095   2 
   1  16  13 1793.21 329.354   2 
   1 -16  13 2057.80 283.140   2 
   1  16  14 1665.72 329.732   2 
   1 -16  14 1794.80 278.957   2 
   1 -16  15 6936.24 565.502   2 
   1  16  15 5958.94 625.278   2 
   1  16  16 291.026 141.454   2 
   1  16  17 419.074 167.181   2 
   1  16  18 23.7936 81.6665   2 
  -1  17  18 4481.17 553.066   2 
  -1  17  18 4058.66 534.963   1 
  -1 -17  17 403.853 153.190   2 
  -1  17  17 253.379 144.317   1 
  -1  17  17 623.742 213.326   2 
  -1  17  16 13.7703 108.698   2 
  -1  17  16 135.168 138.059   1 
  -1 -17  16-44.4882 54.1900   2 
  -1  17  15 537.928 181.341   2 
  -1  17  15 562.410 194.130   1 
  -1  17  14 175.100 127.945   2 
  -1  17  14 407.672 186.589   1 
  -1  17  13 391.141 170.548   1 
  -1  17  13 226.806 111.029   2 
  -1  17  12 1224.95 273.681   1 
  -1  17  12 986.211 206.046   2 
  -1  17  11 80.7447 77.7661   2 
  -1  17  11 15.9013 67.3492   1 
  -1  17  10 3613.93 350.045   2 
  -1  17  10 3583.46 446.733   1 
  -1  17   9 86.3861 75.9837   2 
  -1  17   9-176.582 147.680   1 
  -1  17   8 2279.93 251.791   2 
  -1  17   8 1812.14 297.613   1 
  -1  17   7 1546.30 192.483   2 
  -1  17   7 1460.24 277.494   1 
  -1 -17   7 1273.06 193.447   2 
  -1  17   6 2957.11 253.718   2 
  -1  17   6 2906.48 374.441   1 
  -1 -17   6 2607.94 270.023   2 
   1  17  -6 2761.97 330.741   1 
  -1  17   5-24.8553 87.6515   1 
  -1 -17   5 33.1377 36.3894   2 
  -1 -17   5 120.855 117.709   3 
   1  17  -5-109.456 70.1166   1 
  -1  17   5 13.9493 40.5640   2 
  -1  17   4 16613.8 516.507   2 
  -1 -17   4 14952.8 607.895   2 
  -1 -17   4 16229.1 943.188   3 
   1  17  -4 14225.3 680.952   1 
  -1  17   4 17307.9 890.519   3 
  -1 -17   3 296.683 145.663   3 
  -1  17   3 356.222 119.206   3 
  -1 -17   3 293.712 75.2949   2 
   1  17  -3 393.037 126.242   1 
  -1  17   3 482.858 83.7192   2 
  -1  17   2 5718.06 495.139   3 
  -1 -17   2 5334.47 341.635   2 
  -1  17   2 5517.99 229.359   2 
   1  17  -2 4803.21 348.023   1 
  -1 -17   2 5189.24 514.285   3 
  -1  17   1 273.762 107.867   3 
   1 -17  -1 280.782 85.5352   3 
  -1  17   1 284.745 39.0583   2 
  -1  17   1 319.906 49.8755   2 
  -1 -17   1 251.482 67.7987   2 
   1  17  -1 325.450 98.9598   1 
  -1 -17   1 174.865 83.3955   3 
   1 -17   0 3568.06 370.290   3 
  -1 -17   0 3699.14 276.669   2 
  -1 -17   0 3829.54 438.622   3 
   1  17   0 3101.27 244.624   1 
   1  17   1 600.691 128.738   2 
  -1 -17  -1 795.743 134.097   2 
  -1 -17  -1 1141.48 262.554   3 
   1  17   1 734.549 110.192   1 
   1 -17   1 848.210 182.593   3 
   1  17   2 35370.3 1084.01   2 
   1 -17   2 35801.8 1192.37   3 
  -1 -17  -2 36786.9 1379.03   3 
   1  17   2 32478.5 613.222   1 
   1  17   3 158.829 41.3946   1 
  -1 -17  -3 350.864 158.634   3 
   1  17   3 199.867 84.6020   2 
   1  17   3 161.630 47.0230   1 
   1 -17   3 301.334 140.556   3 
   1  17   4 326.274 111.915   2 
  -1 -17  -4 215.019 91.4385   3 
   1 -17   4 309.178 112.406   3 
  -1 -17  -5 286.817 89.7293   3 
   1 -17   5 267.502 99.3838   3 
  -1 -17  -5 334.802 111.296   2 
   1  17   5 330.868 113.965   2 
  -1 -17  -6 1750.09 240.173   2 
   1  17   6 1328.90 227.321   2 
   1 -17   6 1544.25 249.162   3 
   1 -17   7 3548.26 394.724   3 
   1  17   7 3127.89 357.073   2 
  -1 -17  -7 3943.16 363.357   2 
   1 -17   7 3368.70 166.984   2 
   1 -17   8 360.398 128.374   3 
   1 -17   8 334.690 70.7527   2 
   1  17   8 365.637 138.531   2 
   1 -17   9 6.44559 42.3736   3 
   1 -17   9 10.0494 19.5602   2 
   1  17   9-23.9377 38.8346   2 
   1 -17  10 141.948 62.1870   2 
   1  17  10 212.100 117.313   2 
   1  17  11 285.517 125.229   2 
   1 -17  11 418.868 114.121   2 
   1  17  12 53.9674 86.1324   2 
   1 -17  12 80.1598 43.6929   2 
   1 -17  13 506.944 142.010   2 
   1  17  13 281.584 159.682   2 
   1 -17  14 1960.37 294.157   2 
   1  17  14 1861.10 343.800   2 
   1  17  15 147.131 127.152   2 
   1  17  16 4407.89 568.238   2 
   1  17  17 180.680 156.778   2 
  -1  18  18 305.000 163.777   2 
  -1  18  17 33.7426 83.1284   1 
  -1  18  17 256.838 145.993   2 
  -1 -18  16 864.266 191.693   2 
  -1  18  16 1000.69 254.435   2 
  -1  18  16 515.822 192.960   1 
  -1  18  15 65.5781 82.9156   2 
  -1  18  15-188.225 178.564   1 
  -1  18  14 347.180 157.328   2 
  -1  18  14 396.631 198.793   1 
  -1  18  13 748.511 245.316   1 
  -1  18  13 635.557 186.635   2 
  -1  18  12 8.30242 58.9115   1 
  -1  18  12 208.666 112.694   2 
  -1  18  11 14.4449 85.0936   1 
  -1  18  11 59.1009 70.8427   2 
  -1  18  10 5764.34 453.304   2 
  -1  18  10 5898.96 576.322   1 
  -1  18   9 257.052 87.3327   2 
  -1  18   9 247.970 92.1075   1 
  -1  18   8 6063.28 558.345   1 
  -1  18   8 7047.99 446.428   2 
  -1  18   7 51.8787 58.0063   1 
  -1  18   7 164.317 76.7854   2 
  -1 -18   7 46.8772 54.1887   2 
  -1  18   6 2263.92 224.488   2 
  -1  18   6 1936.49 318.361   1 
  -1 -18   6 1816.89 363.296   3 
  -1 -18   6 2009.73 241.506   2 
   1  18  -6 1652.44 274.918   1 
  -1 -18   5 477.379 188.266   3 
  -1  18   5 419.016 96.3732   2 
   1  18  -5 361.688 134.081   1 
  -1 -18   5 317.466 83.4862   2 
  -1  18   5 292.028 113.383   1 
  -1  18   4 231.345 69.9912   2 
  -1 -18   4 241.671 155.396   3 
   1  18  -4 143.995 97.8294   1 
  -1 -18   4 137.195 57.6985   2 
  -1  18   3 58.9294 44.9657   2 
  -1 -18   3-35.5534 83.5129   3 
  -1 -18   3-15.8102 44.1462   2 
   1  18  -3 129.531 94.5665   1 
   1  18  -2 3198.91 291.725   1 
  -1  18   2 3557.81 174.966   2 
  -1 -18   2 3349.61 263.550   2 
  -1  18   2 3954.67 426.186   3 
  -1 -18   2 3937.16 458.450   3 
   1  18  -1 46.7126 65.1863   1 
  -1  18   1-9.36075 49.1502   3 
   1 -18  -1-79.8920 118.673   3 
  -1 -18   1-16.3495 49.5561   2 
  -1 -18   1-35.2670 79.9616   3 
   1 -18   0 7980.48 578.596   3 
  -1 -18   0 9137.92 441.368   2 
   1  18   0 7234.48 376.361   1 
  -1 -18   0 8172.44 664.739   3 
   1  18   1 559.139 103.102   1 
  -1 -18  -1 656.735 125.711   2 
  -1 -18  -1 528.620 170.665   3 
   1  18   1 596.711 136.051   2 
   1 -18   1 600.755 159.770   3 
   1  18   2 8438.71 536.256   2 
   1 -18   2 7848.61 580.117   3 
   1  18   2 6851.83 295.752   1 
  -1 -18  -2 8233.01 676.890   3 
   1  18   3 3451.58 198.030   1 
   1  18   3 3602.84 356.511   2 
   1  18   3 3395.40 173.473   1 
  -1 -18  -3 3529.09 440.489   3 
   1 -18   3 3503.14 388.900   3 
   1 -18   4 41.4937 58.2706   3 
   1  18   4-19.1873 64.0455   2 
  -1 -18  -4-108.153 118.040   3 
   1 -18   5 103.296 69.7113   3 
  -1 -18  -5 122.485 68.0597   2 
   1  18   5 125.958 64.2220   2 
  -1 -18  -5 114.701 57.4574   3 
  -1 -18  -6 6090.66 453.100   2 
   1 -18   6 5790.86 506.139   3 
   1  18   6 5654.54 481.541   2 
  -1 -18  -7 78.3617 44.3128   2 
   1  18   7 134.144 70.2755   2 
   1 -18   7 68.7911 45.9253   3 
   1  18   8 2886.37 361.685   2 
   1 -18   8 3172.19 177.837   2 
   1 -18   8 3008.47 385.217   3 
   1 -18   9 59.4691 39.1169   2 
   1 -18   9-3.38402 73.4777   3 
   1  18   9 133.506 84.1586   2 
   1 -18  10 29.8221 29.8192   2 
   1 -18  10-73.8027 98.2694   3 
   1  18  11 5443.86 552.206   2 
   1 -18  11 5962.69 397.265   2 
   1  18  12 2866.74 414.359   2 
   1  18  13 109.600 125.479   2 
   1  18  14 2654.89 422.844   2 
   1  18  15 296.834 135.337   2 
   1  18  16 130.851 99.5308   2 
   1  18  17 57.2720 53.9413   2 
  -1  19  18 583.760 203.309   2 
  -1  19  17 45.7773 78.3723   2 
  -1  19  16 266.498 136.011   2 
  -1  19  16-94.7247 156.717   1 
  -1  19  15 557.263 185.958   2 
  -1  19  15 321.097 142.773   1 
  -1  19  14 386.803 159.935   2 
  -1  19  14 425.338 199.661   1 
  -1  19  13 75.5508 117.866   1 
  -1  19  13-5.87754 40.5197   2 
  -1  19  12 2001.06 296.003   2 
  -1  19  12 1775.51 323.336   1 
  -1  19  11 55.2375 58.1333   1 
  -1  19  11-10.3577 39.1447   2 
  -1  19  10 1822.08 322.019   1 
  -1  19  10 1846.00 269.438   2 
  -1  19   9 152.072 96.1814   2 
  -1  19   9 437.473 187.362   1 
  -1 -19   8 727.186 149.954   2 
  -1  19   8 1332.38 200.715   2 
  -1  19   8 1147.64 252.647   1 
  -1  19   7 10714.6 529.576   2 
  -1  19   7 9047.70 687.664   1 
  -1 -19   7 9480.37 529.318   2 
  -1  19   6 17266.0 621.230   2 
  -1  19   6 16191.6 927.840   1 
  -1 -19   6 16255.1 1033.20   3 
  -1 -19   6 15746.1 650.406   2 
  -1 -19   5 425.621 194.565   3 
  -1 -19   5 423.041 99.0183   2 
  -1  19   5 469.380 103.687   2 
  -1  19   5 295.339 126.628   1 
   1  19  -5 475.645 160.229   1 
  -1 -19   4 9315.83 752.220   3 
  -1  19   4 10027.9 403.343   2 
  -1 -19   4 9094.10 452.499   2 
   1  19  -4 7831.05 519.141   1 
   1  19  -3 505.203 147.149   1 
  -1 -19   3 198.975 77.0478   3 
  -1  19   3 372.361 70.2976   2 
  -1 -19   3 334.312 84.7788   2 
   1  19  -2 416.307 135.005   1 
  -1  19   2 204.293 39.0888   2 
  -1 -19   2 264.425 65.6294   2 
  -1 -19   2 296.860 129.209   3 
  -1 -19   1 114.388 97.4533   3 
  -1  19   1 93.3898 84.9930   3 
   1  19  -1 175.824 98.4870   1 
   1 -19  -1 36.2209 49.4734   3 
  -1 -19   1 17.2876 51.1805   2 
  -1 -19   0 803.906 229.916   3 
   1 -19   0 827.201 191.180   3 
   1  19   0 684.839 133.682   1 
  -1 -19   0 749.564 130.973   2 
   1  19   1 11532.0 615.085   2 
  -1 -19  -1 11551.2 519.056   2 
   1  19   1 9125.51 392.668   1 
   1 -19   1 10675.8 689.421   3 
  -1 -19  -1 11208.8 812.381   3 
   1  19   2 9163.16 355.406   1 
  -1 -19  -2 10048.9 755.805   3 
   1 -19   2 9160.62 641.455   3 
   1  19   2 9979.61 590.964   2 
   1  19   3 158.826 44.8489   1 
   1 -19   3 89.2976 51.5715   3 
   1  19   3 177.850 46.1893   1 
  -1 -19  -3 228.357 126.335   3 
   1  19   3 223.910 87.2810   2 
   1 -19   4 282.215 102.779   3 
   1  19   4 251.541 98.4802   2 
  -1 -19  -4 292.270 135.005   3 
  -1 -19  -4 344.101 110.575   2 
  -1 -19  -5 3720.73 338.871   2 
  -1 -19  -5 3211.95 436.437   3 
   1 -19   5 3345.00 387.788   3 
   1  19   5 3394.14 373.928   2 
  -1 -19  -6 523.308 129.745   2 
   1  19   6 545.721 158.979   2 
   1 -19   6 618.835 179.523   3 
   1 -19   7 421.876 152.983   3 
   1  19   7 430.697 159.138   2 
   1  19   8 5081.10 488.404   2 
   1 -19   8 5365.22 518.477   3 
   1 -19   9 2374.74 361.274   3 
   1  19   9 1839.13 314.952   2 
   1 -19  10 192.863 85.2709   3 
   1  19  10 448.339 169.555   2 
   1 -19  11 290.574 150.228   3 
   1  19  11 173.569 111.740   2 
   1  19  12 959.084 239.947   2 
   1  19  13 886.759 248.522   2 
   1  19  14 2611.59 432.089   2 
   1  19  15 707.842 240.665   2 
   1  19  16 1334.48 337.672   2 
   1  19  17 173.780 130.586   2 
  -1  20  18 216.556 149.567   2 
  -1  20  17 1489.31 313.270   2 
  -1  20  16 171.470 120.857   2 
  -1  20  15 571.484 199.191   1 
  -1  20  15 1268.97 266.992   2 
  -1  20  14 53.7615 127.363   1 
  -1  20  14 32.5754 44.6681   2 
  -1  20  13 1096.41 291.960   1 
  -1  20  13 1158.87 238.157   2 
  -1  20  12 226.394 113.521   2 
  -1  20  12 551.593 188.864   1 
  -1  20  11 1285.06 237.803   2 
  -1  20  11 1206.57 273.749   1 
  -1  20  10 182.769 95.5728   2 
  -1  20  10-37.6008 116.759   1 
  -1  20   9 155.408 85.8179   2 
  -1  20   9 252.751 158.307   1 
  -1  20   8 155.445 102.424   1 
  -1  20   8 73.8336 60.9558   2 
  -1 -20   8 11.1974 41.6327   2 
  -1 -20   7 826.875 154.670   2 
  -1  20   7 907.115 155.123   2 
  -1  20   7 606.972 192.160   1 
  -1 -20   7 942.422 264.074   3 
  -1  20   6 6940.63 406.407   2 
  -1  20   6 6216.23 590.499   1 
  -1 -20   6 6870.63 689.909   3 
  -1 -20   6 6374.93 399.714   2 
  -1 -20   5 9530.80 807.203   3 
  -1  20   5 9126.47 709.098   1 
   1  20  -5 8091.58 574.979   1 
  -1 -20   5 9401.78 458.038   2 
  -1  20   5 9800.88 434.662   2 
  -1 -20   4 66.7547 89.2021   3 
   1  20  -4 94.0510 109.490   1 
  -1  20   4 71.3622 46.1894   2 
  -1 -20   4-37.0501 46.1211   2 
   1  20  -3 2537.19 284.252   1 
  -1 -20   3 2348.46 379.847   3 
  -1 -20   3 2610.31 224.317   2 
  -1  20   3 2613.44 174.506   2 
  -1 -20   2 1274.50 157.457   2 
  -1 -20   2 1297.10 291.634   3 
  -1  20   2 1014.28 99.1166   2 
  -1  20   2 1056.47 87.0880   2 
   1  20  -2 1044.31 181.389   1 
   1  20  -1 2501.76 254.286   1 
   1 -20  -1 2894.12 373.018   3 
  -1 -20   1 3136.29 248.359   2 
  -1 -20   1 2952.42 413.514   3 
  -1 -20   0 5075.95 333.458   2 
  -1 -20   0 4616.20 533.009   3 
   1 -20   0 4380.69 466.531   3 
   1  20   0 4023.03 294.494   1 
   1  20   1 2149.50 200.243   1 
  -1 -20  -1 2136.65 220.026   2 
   1 -20   1 2591.74 355.067   3 
  -1 -20  -1 2459.76 392.790   3 
  -1 -20  -2 10097.9 776.804   3 
   1  20   2 8720.51 359.927   1 
   1 -20   2 9088.27 648.478   3 
   1  20   2 10342.2 609.836   2 
   1  20   3 1196.81 128.744   1 
   1 -20   3 1165.33 230.816   3 
  -1 -20  -3 1129.23 250.818   3 
   1  20   3 1093.79 110.655   1 
   1  20   3 1283.85 220.100   2 
  -1 -20  -4 4017.53 346.013   2 
  -1 -20  -4 3935.91 490.901   3 
   1  20   4 3947.87 397.638   2 
   1 -20   4 3895.03 437.900   3 
  -1 -20  -5 1201.33 193.826   2 
  -1 -20  -5 1141.67 268.489   3 
   1  20   5 1115.78 225.482   2 
   1 -20   5 911.511 204.844   3 
  -1 -20  -6 2621.91 291.322   2 
   1  20   6 2664.66 344.668   2 
   1 -20   6 2596.02 364.649   3 
   1  20   7 4933.98 479.327   2 
   1 -20   7 5203.76 515.945   3 
   1 -20   8 82.0393 84.2152   3 
   1  20   8 104.207 75.3935   2 
   1 -20   9 7697.64 663.882   3 
   1  20   9 7245.78 613.388   2 
   1 -20  10 1141.49 263.375   3 
   1  20  10 998.279 246.297   2 
   1 -20  11 74.3996 68.4954   3 
   1  20  11 133.217 113.322   2 
   1  20  12 1477.75 312.186   2 
   1 -20  12 1732.18 337.820   3 
   1  20  13 718.297 236.698   2 
   1 -20  13 774.480 242.594   3 
   1  20  14 601.417 211.755   2 
   1  20  15 2119.98 401.198   2 
   1  20  16 135.091 110.129   2 
  -1  21  17 318.422 145.383   2 
  -1  21  16 697.484 207.372   2 
  -1  21  15 330.491 149.178   2 
  -1  21  14 1408.82 307.884   1 
  -1  21  14 1033.44 243.076   2 
  -1  21  13 300.330 136.471   2 
  -1  21  13 418.574 184.259   1 
  -1  21  12-184.343 141.207   1 
  -1  21  12 45.1443 57.4957   2 
  -1  21  11 70.2586 85.8265   2 
  -1  21  11-138.086 161.363   1 
  -1  21  10 78.2536 70.7449   2 
  -1  21  10-132.082 179.469   1 
  -1  21   9 85.1726 63.2023   2 
  -1  21   9 174.569 137.585   1 
  -1  21   8 1942.84 244.165   2 
  -1 -21   8 2101.77 417.900   3 
  -1  21   8 1710.85 313.954   1 
  -1 -21   7-5.43247 73.8586   3 
  -1  21   7 60.4478 78.8099   1 
  -1  21   7 163.110 79.2990   2 
  -1 -21   6 2502.29 428.245   3 
  -1  21   6 2327.16 230.681   2 
  -1  21   6 2437.92 364.950   1 
  -1 -21   6 2378.68 230.345   2 
  -1  21   5 6148.91 347.523   2 
  -1  21   5 5853.11 573.499   1 
  -1 -21   5 6041.06 642.023   3 
   1  21  -5 5605.97 482.498   1 
  -1 -21   5 6621.01 375.635   2 
  -1  21   4 3350.74 226.356   2 
  -1 -21   4 3239.28 250.645   2 
   1  21  -4 3012.44 334.520   1 
  -1 -21   4 3591.58 487.305   3 
  -1 -21   3 1612.17 324.627   3 
  -1 -21   3 1714.70 177.330   2 
  -1  21   3 1736.39 143.047   2 
   1  21  -3 1568.27 242.635   1 
  -1 -21   2 10106.8 803.962   3 
  -1 -21   2 11197.7 458.708   2 
   1  21  -2 9054.62 518.684   1 
  -1 -21   1 144.689 115.023   3 
   1  21  -1 260.190 93.9694   1 
  -1 -21   1 189.366 59.4748   2 
   1  21   0 2160.22 224.682   1 
   1 -21   0 2230.15 336.438   3 
  -1 -21   0 2407.68 228.920   2 
  -1 -21   0 2115.44 367.808   3 
  -1 -21  -1 4052.25 306.969   2 
   1 -21   1 5439.27 533.759   3 
   1  21   1 4895.76 314.283   1 
  -1 -21  -1 5890.83 620.061   3 
   1  21   2 1709.87 166.430   1 
  -1 -21  -2 2075.41 376.797   3 
   1 -21   2 2030.81 329.677   3 
   1  21   2 2423.23 295.295   2 
   1 -21   3 3398.16 418.580   3 
   1  21   3 2873.67 209.330   1 
   1  21   3 2793.48 184.468   1 
   1  21   3 3089.19 349.048   2 
  -1 -21  -3 3082.44 440.180   3 
  -1 -21  -4 1349.27 205.462   2 
   1  21   4 1150.87 213.268   2 
  -1 -21  -4 1276.83 292.347   3 
   1  21   4 865.591 76.1327   1 
   1  21   4 1070.40 88.5242   1 
   1 -21   4 1455.68 286.472   3 
   1 -21   5 5.97969 64.8043   3 
   1  21   5 4.50439 53.7233   2 
  -1 -21  -5 58.4467 100.064   3 
  -1 -21  -5 81.0273 68.0567   2 
   1 -21   6-42.5440 69.9860   3 
   1  21   6-32.2440 57.4982   2 
   1 -21   7 2875.04 396.813   3 
   1  21   7 2763.63 371.393   2 
   1 -21   8 816.674 223.144   3 
   1  21   8 819.183 211.067   2 
   1 -21   9 74.8376 55.0133   3 
   1  21   9 30.6065 64.1226   2 
   1 -21  10 175.693 120.447   3 
   1  21  10 78.9077 90.9334   2 
   1 -21  11-95.4031 88.7879   3 
   1  21  11-17.7979 56.7078   2 
   1 -21  12 1443.06 313.661   3 
   1  21  12 970.456 248.994   2 
   1 -21  13 2818.06 459.892   3 
   1  21  13 2589.26 423.434   2 
   1 -21  14 257.836 178.904   3 
   1  21  14-47.1526 53.2805   2 
   1  21  15 179.700 130.383   2 
   1  21  16 112.010 80.1586   2 
  -1  22  17 570.065 203.845   2 
  -1  22  16 289.036 148.723   2 
  -1  22  15 363.983 151.373   2 
  -1  22  14 46.6355 64.9027   2 
  -1  22  13 721.709 238.040   1 
  -1  22  13 429.627 148.412   2 
  -1  22  12 64.7817 66.6797   2 
  -1  22  12 9.78429 68.4951   1 
  -1  22  11 960.623 262.085   1 
  -1  22  11 1330.03 240.202   2 
  -1  22  10 718.214 169.236   2 
  -1  22  10 323.635 107.595   1 
  -1 -22   9 187.323 104.993   3 
  -1  22   9 307.947 171.220   1 
  -1  22   9 105.213 56.6459   2 
  -1 -22   8 420.772 207.342   3 
  -1  22   8 435.870 177.093   1 
  -1  22   8 389.520 110.601   2 
  -1 -22   7 266.900 167.672   3 
  -1  22   7 372.317 142.405   1 
  -1  22   7 373.564 93.1797   2 
  -1 -22   6 1166.60 310.100   3 
  -1  22   6 1101.08 159.626   2 
  -1  22   6 1248.58 262.817   1 
  -1 -22   5 2846.07 450.451   3 
  -1  22   5 2229.19 355.145   1 
  -1  22   5 2412.94 214.601   2 
  -1 -22   4 517.765 172.448   3 
   1  22  -4 706.573 169.238   1 
  -1  22   4 726.459 105.756   2 
  -1 -22   3 910.275 128.757   2 
   1  22  -3 922.783 194.773   1 
  -1  22   3 941.020 100.438   2 
  -1 -22   3 1101.81 284.168   3 
  -1 -22   2 107.966 70.9157   3 
  -1 -22   2 155.533 62.6902   2 
   1  22  -2 157.839 102.982   1 
   1  22  -1 1737.26 221.725   1 
  -1 -22   1 2084.59 204.073   2 
  -1 -22   1 1892.31 354.649   3 
  -1 -22   0 3877.08 511.524   3 
   1 -22   0 3618.11 444.187   3 
  -1 -22   0 4047.47 295.341   2 
   1  22   0 3291.70 288.975   1 
  -1 -22  -1 523.896 205.427   3 
  -1 -22  -1 263.059 77.3499   2 
   1 -22   1 407.843 136.855   3 
   1  22   1 377.274 93.4395   1 
   1 -22   2 1282.19 256.867   3 
   1  22   2 1125.12 205.331   2 
  -1 -22  -2 1102.35 266.158   3 
   1  22   2 1107.36 140.490   1 
   1  22   3 1000.17 203.696   2 
   1 -22   3 1236.48 263.163   3 
  -1 -22  -3 1127.42 276.869   3 
   1  22   3 935.692 120.448   1 
   1  22   3 983.047 113.381   1 
   1 -22   4 107.765 81.1385   3 
  -1 -22  -4-37.3728 137.467   3 
  -1 -22  -4 107.897 58.3245   2 
   1  22   4 151.267 94.5302   2 
  -1 -22  -5 1802.98 357.142   3 
   1 -22   5 1757.44 312.468   3 
   1  22   5 1806.83 283.743   2 
   1  22   6 1066.40 225.840   2 
   1 -22   6 968.797 233.871   3 
   1 -22   7 451.712 169.789   3 
   1  22   7 354.488 140.555   2 
   1 -22   8 356.083 145.289   3 
   1  22   8 403.024 142.307   2 
   1 -22   9 1145.94 271.549   3 
   1  22   9 1094.90 244.210   2 
   1 -22  10 1013.71 248.250   3 
   1  22  10 1215.80 263.209   2 
   1 -22  11-52.8761 122.042   3 
   1  22  11 43.7119 70.3790   2 
   1 -22  12 379.098 197.980   3 
   1  22  12 290.164 138.964   2 
   1 -22  13 52.7281 108.163   3 
   1  22  13-17.3021 60.8814   2 
   1 -22  14 328.540 143.886   3 
   1  22  14 51.1150 98.0291   2 
   1  22  15 1910.48 383.641   2 
   1  22  16-59.2770 105.675   2 
  -1  23  16 49.7876 73.4721   2 
  -1  23  15 426.496 159.572   2 
  -1  23  14 239.606 126.765   2 
  -1  23  13 443.138 146.614   2 
  -1  23  12 1563.87 264.729   2 
  -1  23  11 178.450 88.9069   2 
  -1  23  11 111.536 69.8088   1 
  -1 -23  10 2609.65 483.066   3 
  -1  23  10 2291.72 297.700   2 
  -1  23  10 1937.47 343.695   1 
  -1  23   9 103.069 63.7790   2 
  -1  23   9 194.658 138.864   1 
  -1 -23   9 147.503 154.264   3 
  -1 -23   8 69.7829 121.937   3 
  -1  23   8 192.993 132.174   1 
  -1  23   8 158.923 75.3178   2 
  -1  23   7 341.628 128.546   1 
  -1  23   7 436.098 108.317   2 
  -1 -23   7 513.514 224.348   3 
  -1 -23   6 1811.90 375.963   3 
  -1  23   6 2112.85 358.573   1 
  -1  23   6 1924.31 208.299   2 
  -1  23   5-54.0681 106.382   1 
  -1 -23   5 48.5790 72.3225   3 
  -1  23   5 1.60817 37.9876   2 
  -1 -23   4 68.5913 64.5823   3 
  -1  23   4 13.7323 23.8244   2 
  -1 -23   3 496.841 195.510   3 
   1  23  -3 783.723 174.004   1 
   1  23  -2 593.019 147.683   1 
  -1 -23   2 503.904 195.156   3 
  -1 -23   1 157.607 115.711   3 
   1  23  -1 135.561 76.6359   1 
  -1 -23   0 5247.25 622.181   3 
   1  23   0 4436.39 338.600   1 
   1 -23   0 4697.31 526.094   3 
  -1 -23  -1 1084.39 278.079   3 
   1 -23   1 1350.87 272.345   3 
  -1 -23  -2 401.707 182.776   3 
   1 -23   2 387.716 144.596   3 
   1 -23   3 411.906 161.827   3 
  -1 -23  -3 647.440 213.626   3 
   1  23   3 725.765 176.120   2 
  -1 -23  -4 2625.78 436.985   3 
   1 -23   4 2630.78 395.395   3 
   1  23   4 2596.69 331.921   2 
   1  23   5 1123.47 231.591   2 
  -1 -23  -5 881.739 269.614   3 
   1 -23   5 1004.07 250.596   3 
   1  23   6 1864.75 294.740   2 
   1 -23   6 1664.93 323.225   3 
   1  23   7 756.581 193.967   2 
   1 -23   7 578.037 180.586   3 
   1  23   8 2363.10 360.290   2 
   1 -23   8 2404.41 387.621   3 
   1 -23   9 1183.22 279.042   3 
   1  23   9 1060.60 237.027   2 
   1  23  10 273.873 134.516   2 
   1 -23  10 233.293 122.563   3 
   1 -23  11-40.8687 70.2514   3 
   1  23  11 29.7718 47.8424   2 
   1 -23  12 2195.46 399.292   3 
   1  23  12 2024.21 367.077   2 
   1 -23  13 998.732 282.268   3 
   1  23  13 869.756 251.086   2 
   1 -23  14 353.566 175.070   3 
   1  23  14 246.205 146.698   2 
   1  23  15 19.6844 78.5164   2 
  -1 -24  12-14.4255 110.798   3 
  -1 -24  11 88.0172 145.279   3 
  -1 -24  10 69.3311 83.7638   3 
  -1  24  10-73.6488 168.646   1 
  -1 -24   9 259.810 173.502   3 
  -1  24   9 319.412 149.690   1 
  -1 -24   8 163.835 159.078   3 
  -1  24   8-40.8800 45.5970   1 
  -1  24   7 5233.97 570.696   1 
  -1 -24   7 5770.32 692.783   3 
  -1  24   6-19.6618 78.8021   1 
  -1 -24   6 68.2627 123.459   3 
  -1  24   5-44.5111 92.3255   1 
  -1 -24   5 56.3605 123.503   3 
  -1 -24   4 1174.12 296.434   3 
  -1  24   4 950.121 232.715   1 
  -1 -24   3 19.7136 94.5864   3 
  -1 -24   2 81.0663 103.734   3 
  -1 -24   1 2951.08 474.492   3 
   1 -24   0 2393.41 385.619   3 
  -1 -24   0 2857.86 465.154   3 
  -1 -24  -1 302.449 174.119   3 
   1 -24   1 136.878 91.9020   3 
  -1 -24  -2 407.901 174.449   3 
   1 -24   2 472.913 165.036   3 
   1 -24   3-0.52796 77.7766   3 
   1  24   3 135.502 82.3916   2 
  -1 -24  -3 23.5364 75.6095   3 
  -1 -24  -4 924.242 273.299   3 
   1  24   4 1012.13 210.386   2 
   1 -24   4 1094.76 261.769   3 
   1 -24   5 4860.70 568.421   3 
   1  24   5 4786.73 479.889   2 
   1 -24   6 109.918 117.908   3 
   1  24   6-33.1396 59.6892   2 
   1 -24   7 550.380 191.308   3 
   1  24   7 484.049 151.828   2 
   1 -24   8 279.053 150.394   3 
   1  24   8 141.544 121.119   2 
   1 -24   9-61.3292 60.9479   3 
   1  24   9-118.915 81.4729   2 
   1 -24  10 60.2363 62.3830   3 
   1  24  10 95.5110 105.163   2 
   1 -24  11 204.310 75.2692   3 
   1  24  11 367.208 156.285   2 
   1 -24  12 1623.51 348.844   3 
   1  24  12 1615.28 334.215   2 
   1  24  13 256.878 137.020   2 
   1 -24  13 283.516 150.347   3 
   1  24  14 129.438 125.987   2 
   1  24  15-63.7848 98.0022   2 
  -1 -25  12 237.443 159.729   3 
  -1 -25  11-92.0796 166.991   3 
  -1 -25  10 877.596 300.766   3 
  -1 -25   9 155.311 137.445   3 
  -1  25   9 354.719 182.074   1 
  -1  25   8 867.752 244.773   1 
  -1 -25   8 1067.23 324.607   3 
  -1  25   7 368.864 167.719   1 
  -1 -25   7 216.927 173.313   3 
  -1 -25   6 296.816 206.374   3 
  -1  25   6 158.300 95.1854   1 
  -1  25   5 265.101 130.472   1 
  -1 -25   5 329.081 183.655   3 
  -1  25   4 231.991 109.821   1 
  -1 -25   4 287.092 151.160   3 
  -1 -25   3 785.953 243.921   3 
  -1 -25   2 654.735 237.299   3 
  -1 -25   1 175.626 146.917   3 
  -1 -25   0 73.6891 106.949   3 
   1 -25   0 46.8102 91.7555   3 
   1 -25   1 24.9164 62.1555   3 
  -1 -25  -1-128.226 140.524   3 
  -1 -25  -2 2032.81 400.078   3 
   1 -25   2 2071.74 365.192   3 
   1 -25   3 1780.56 341.323   3 
  -1 -25  -3 1723.85 380.772   3 
  -1 -25  -4 180.773 106.766   3 
   1 -25   4 77.7782 135.908   3 
   1  25   4 173.280 92.9609   2 
   1  25   5 3222.63 390.313   2 
   1 -25   5 3759.12 507.837   3 
   1 -25   6 285.482 136.704   3 
   1  25   6 287.454 123.225   2 
   1 -25   7 112.621 103.519   3 
   1  25   7-40.8745 53.1629   2 
   1 -25   8 781.991 231.359   3 
   1  25   8 791.300 216.079   2 
   1  25   9 528.862 176.942   2 
   1 -25   9 364.422 172.262   3 
   1  25  10 182.922 102.653   2 
   1 -25  10 436.699 168.119   3 
   1 -25  11 46.4028 72.1290   3 
   1  25  11-0.29555 49.5362   2 
   1 -25  12 270.495 146.534   3 
   1  25  12 406.386 185.257   2 
   1  25  13-187.730 109.594   2 
   1  25  14 175.731 132.895   2 
  -1 -26  11 439.653 205.332   3 
  -1 -26  10 1557.40 402.076   3 
  -1 -26   9 729.962 271.548   3 
  -1  26   8 498.417 185.625   1 
  -1 -26   8 140.282 87.4104   3 
  -1 -26   7 1494.30 367.378   3 
  -1  26   7 1419.81 320.917   1 
  -1 -26   6 137.471 146.887   3 
  -1  26   6-120.266 108.292   1 
  -1 -26   5 1037.53 299.627   3 
  -1  26   5 643.078 195.497   1 
  -1  26   4-171.546 170.971   1 
  -1 -26   4-193.149 151.778   3 
  -1 -26   3 336.309 192.737   3 
  -1 -26   2 876.310 279.262   3 
  -1 -26   1 481.252 216.355   3 
   1 -26   0 3751.74 514.576   3 
  -1 -26   0 3707.07 552.490   3 
  -1 -26  -1 1658.00 380.934   3 
   1 -26   1 1397.06 305.861   3 
  -1 -26  -2 87.3912 96.3381   3 
   1 -26   2-49.5734 110.606   3 
   1 -26   3 1128.31 276.359   3 
  -1 -26  -3 1663.45 388.024   3 
  -1 -26  -4 2142.95 430.868   3 
   1 -26   4 1824.10 346.202   3 
   1 -26   5 498.963 181.535   3 
   1 -26   6 216.469 137.475   3 
   1 -26   7 1357.77 328.093   3 
   1 -26   8 358.566 153.792   3 
   1 -26   9 1670.50 347.535   3 
   1 -26  10 362.508 145.194   3 
   1 -26  11 136.276 96.5370   3 
  -1 -27  10 432.828 219.902   3 
  -1 -27   9 119.366 129.017   3 
  -1 -27   8 4188.59 634.598   3 
  -1 -27   7 517.048 222.605   3 
  -1 -27   6 41.2469 81.1794   3 
  -1  27   6-19.4600 67.9988   1 
  -1 -27   5 375.086 225.174   3 
  -1  27   5 46.9630 98.3742   1 
  -1 -27   4-10.0849 89.9867   3 
  -1  27   4-111.628 185.744   1 
  -1 -27   3 297.756 168.921   3 
  -1 -27   2 1040.83 309.495   3 
  -1 -27   1 145.585 119.012   3 
  -1 -27   0 921.284 313.603   3 
  -1 -27  -1 151.247 144.512   3 
   1 -27   1 74.5309 102.197   3 
   1 -27   2-46.5248 94.3241   3 
  -1 -27  -2 16.2942 80.3516   3 
  -1 -27  -3 103.336 125.958   3 
   1 -27   3-14.9977 93.9506   3 
  -1 -27  -4 1405.39 362.773   3 
   1 -27   4 1644.01 344.423   3 
   1 -27   5 550.401 203.794   3 
   1 -27   6 1418.65 329.015   3 
   1 -27   7 2493.53 438.816   3 
   1 -27   8 151.031 118.548   3 
   1 -27   9 100.669 79.0110   3 
   1 -27  10-35.7846 56.8779   3 
   1 -27  11 357.074 169.532   3 
  -1 -28   8 21.1377 75.9657   3 
  -1 -28   7 262.951 203.916   3 
  -1 -28   6 370.551 197.486   3 
  -1 -28   5 1947.69 437.243   3 
  -1  28   5 1659.34 342.922   1 
  -1 -28   4 866.892 302.846   3 
  -1  28   4 336.874 81.9117   1 
  -1 -28   3 233.482 131.296   3 
  -1 -28   2 554.417 240.109   3 
  -1 -28   1-6.49118 95.0362   3 
  -1 -28   0 302.300 173.650   3 
  -1 -28  -1 675.705 269.266   3 
   1 -28   1 300.149 120.957   3 
   1 -28   2 74.7015 99.1004   3 
  -1 -28  -2 136.395 133.286   3 
  -1 -28  -3 204.174 159.332   3 
   1 -28   3 24.2397 69.9291   3 
   1 -28   4 469.358 202.173   3 
  -1 -28  -4 542.076 223.202   3 
   1 -28   5 670.208 231.968   3 
   1 -28   6 661.610 242.868   3 
   1 -28   7 163.637 130.692   3 
   1 -28   8 366.318 134.532   3 
   1 -28   9-63.6345 92.7263   3 
   1 -28  10-41.7685 80.1318   3 
  -1 -29   5 651.768 288.212   3 
  -1 -29   4 620.236 270.566   3 
  -1 -29   3 1552.58 402.883   3 
  -1 -29   2 913.960 290.845   3 
  -1 -29   1-58.5033 67.0229   3 
  -1 -29   0 50.4313 94.8276   3 
  -1 -29  -1 160.529 146.288   3 
   1 -29   1 71.2720 100.492   3 
   1 -29   2 74.3874 81.5317   3 
  -1 -29  -2-2.90864 92.7509   3 
  -1 -29  -3 2153.53 463.041   3 
   1 -29   3 1426.78 338.586   3 
   1 -29   4 979.428 286.416   3 
   1 -29   5 12.5285 119.466   3 
   1 -29   6 1895.12 377.139   3 
   1 -29   7 622.879 233.064   3 
   1 -29   8 263.623 169.528   3 
   1 -29   9 72.5348 70.1749   3 
   1 -30   2-52.9734 75.1635   3 
   1 -30   3 19.3958 71.8056   3 
   1 -30   4 771.254 250.330   3 
   1 -30   5 5835.67 715.790   3 
   1 -30   6 42.6354 89.1178   3 
   1 -30   7 99.3204 56.3573   3 
   1 -31   2 43.5802 65.2864   3 
   1 -31   3 2632.88 485.395   3 
   1 -31   4 354.797 197.720   3 
   1 -31   5 428.347 211.657   3 
   1 -31   6 1095.72 327.331   3 
   1 -32   3-200.445 183.318   3 
  -2   0  20 456.802 183.402   1 
  -2   0  19-53.1434 107.606   1 
  -2   0  18 1659.39 358.269   1 
  -2   0  17 212.975 190.136   1 
  -2   0  16 9055.63 860.426   1 
  -2   0  15-122.753 105.672   1 
  -2   0  14 150.116 133.645   1 
  -2   0  13-57.8859 128.243   1 
  -2   0  12-108.273 125.313   1 
  -2   0  11 692.627 257.281   1 
  -2   0  10 2201.54 405.123   1 
   2   0  -9 40.3402 94.8336   1 
  -2   0   9 407.647 180.347   1 
  -2   0   8 1614.11 285.150   1 
  -2   0   7 37.1621 108.676   1 
   2   0  -6 54006.2 1677.65   1 
  -2   0   6 55562.6 1598.38   1 
   2   0  -5 179.340 156.593   1 
  -2   0   5-105.933 101.457   1 
   2   0  -4 10615.9 705.950   1 
  -2   0   4 9621.56 598.056   1 
  -2   0   3 7.08685 78.5950   1 
  -2   0   2 62071.9 1428.99   1 
  -2   0   1-154.775 107.684   1 
  -2   0   0 10142.0 562.382   1 
  -2   0  -1 312.350 86.2689   3 
   2   0   1 734.564 174.363   2 
   2   0   2 7134.64 514.037   2 
  -2   0  -2 4092.62 204.702   3 
   2   0   3 9998.70 624.332   2 
  -2   0  -4 2527.46 308.066   2 
   2   0   4 3157.59 348.130   2 
  -2   0  -5 4559.11 390.838   2 
   2   0   5 5561.26 466.404   2 
  -2   0  -6 11405.9 594.072   2 
   2   0   6 10702.3 661.709   2 
   2   0   6 9841.31 347.929   3 
   2   0   7 1676.26 162.145   3 
  -2   0  -7 1447.02 222.991   2 
   2   0   7 1435.27 247.257   2 
   2   0   8 5509.63 317.470   3 
  -2   0  -8 5345.06 426.570   2 
   2   0   8 5664.13 497.083   2 
   2   0   9 334.552 132.679   2 
   2   0   9 228.725 61.9085   3 
   2   0  10 5202.36 349.130   3 
   2   0  10 5674.13 527.522   2 
   2   0  11 4277.64 471.585   2 
   2   0  11 3887.16 318.433   3 
   2   0  12 405.111 97.6254   3 
   2   0  12 420.802 168.406   2 
   2   0  13 285.479 151.167   2 
   2   0  14 1451.00 310.791   2 
   2   0  15 106.082 109.646   2 
   2   0  16 6137.76 671.795   2 
   2   0  17 147.662 155.287   2 
   2   0  18 2147.42 417.001   2 
   2   0  19-26.9127 111.617   2 
  -2   1  20 253.773 219.690   1 
  -2  -1  20 11.0665 107.470   1 
  -2  -1  19 395.222 240.454   1 
  -2   1  19 162.314 137.577   1 
  -2  -1  18 1073.38 314.714   1 
  -2   1  18 1486.37 362.081   1 
  -2  -1  17 293.958 251.314   1 
  -2   1  17 433.156 205.946   1 
  -2  -1  16 269.694 202.805   1 
  -2   1  16 341.999 212.102   1 
  -2   1  15 883.605 267.944   1 
  -2  -1  15 1139.68 309.139   1 
  -2   1  14 1494.35 339.430   1 
  -2  -1  14 1860.99 364.131   1 
  -2   1  13 267.722 101.965   1 
  -2  -1  13 369.220 185.434   1 
  -2   1  12 10876.8 849.211   1 
  -2  -1  12 9513.14 790.188   1 
  -2   1  11 1482.56 354.665   1 
  -2  -1  11 519.725 167.257   1 
  -2   1  10 14636.2 912.163   1 
  -2  -1  10 14458.3 914.719   1 
  -2   1   9 464.545 199.251   1 
   2  -1  -9 485.964 204.438   1 
   2   1  -9 470.835 205.069   1 
  -2  -1   9 1023.65 307.855   1 
   2   1  -8 1996.03 344.590   1 
  -2   1   8 2122.40 336.470   1 
  -2  -1   8 2766.58 379.944   1 
   2   1  -7 14796.2 919.983   1 
  -2   1   7 15966.3 894.976   1 
  -2  -1   7 14191.1 838.150   1 
   2   1  -6 19965.6 1033.15   1 
  -2   1   6 22079.0 1018.24   1 
  -2  -1   6 19291.4 938.528   1 
   2   1  -5 28376.7 1153.65   1 
  -2   1   5 28517.0 1104.44   1 
  -2  -1   5 29883.3 1157.26   1 
  -2   1   4 186.165 89.9558   1 
  -2  -1   4 402.087 244.593   1 
  -2   1   3 22038.0 895.551   1 
  -2  -1   3 20846.6 839.951   1 
  -2   1   2 346.333 145.027   1 
  -2  -1   2 193.859 118.581   1 
  -2   1   1 13573.9 673.449   1 
  -2  -1   1 14439.9 670.246   1 
  -2  -1   0 1323.63 196.497   1 
  -2  -1  -1 2813.07 195.694   3 
  -2   1  -1 2524.96 281.924   2 
   2   1   1 2659.32 318.169   2 
   2  -1   1 2664.47 301.382   2 
  -2   1  -2 18218.8 332.633   3 
   2   1   2 20794.9 885.947   2 
   2  -1   2 19320.5 839.689   2 
  -2  -1  -2 19859.6 477.563   3 
  -2   1  -2 18732.2 772.244   2 
  -2   1  -3 28080.5 939.808   2 
   2   1   3 27896.6 1038.79   2 
   2  -1   3 28673.9 1024.15   2 
  -2  -1  -3 30303.1 577.581   3 
  -2   1  -4 7816.93 487.790   2 
   2   1   4 6418.59 499.035   2 
   2  -1   4 6915.63 512.772   2 
   2   1   5 12207.5 407.722   3 
  -2  -1  -5 12803.8 631.393   2 
  -2   1  -5 12899.0 619.823   2 
   2   1   5 12185.7 700.040   2 
   2  -1   5 12305.1 702.848   2 
   2  -1   6 4617.41 218.560   3 
  -2   1  -6 4672.17 384.421   2 
   2  -1   6 4806.52 443.490   2 
  -2  -1  -7 7853.05 509.586   2 
   2   1   7 7629.40 365.415   3 
  -2   1  -7 3758.01 338.402   2 
   2   1   7 7936.02 584.375   2 
   2  -1   7 3372.26 373.373   2 
   2   1   8 10583.4 463.392   3 
  -2   1  -8 12354.7 638.206   2 
  -2  -1  -8 11595.0 631.515   2 
   2   1   8 10438.3 674.926   2 
   2  -1   8 11228.8 696.112   2 
   2  -1   8 10532.0 401.010   3 
   2   1   9 5102.76 333.687   3 
   2   1   9 5191.09 496.341   2 
   2   1  10 4634.66 484.981   2 
   2  -1  10 5547.48 519.918   2 
   2   1  10 4633.48 339.456   3 
   2  -1  10 5145.75 334.027   3 
   2  -1  11 8706.65 677.939   2 
   2   1  11 9418.42 518.412   3 
   2   1  11 9797.70 720.757   2 
   2   1  12 3826.11 471.740   2 
   2   1  12 4025.68 353.792   3 
   2   1  13 2579.42 394.605   2 
   2   1  13 2803.21 311.484   3 
   2   1  14 3747.51 487.552   2 
   2  -1  14 3245.07 451.915   2 
   2   1  14 3630.07 379.704   3 
   2   1  15 2003.66 380.557   2 
   2  -1  15 93.1436 94.6678   2 
   2   1  16 2777.53 454.301   2 
   2  -1  16 4488.05 580.696   2 
   2   1  17 2.36450 73.6608   2 
   2  -1  17 7.00539 62.8012   2 
   2   1  18 1044.75 300.845   2 
   2  -1  18 1294.38 339.552   2 
   2   1  19 66.8829 97.8264   2 
   2  -1  19 87.5965 106.297   2 
  -2   2  20 42.3126 126.629   1 
  -2  -2  20 321.395 182.819   1 
  -2  -2  19-33.0188 116.759   1 
  -2   2  19 429.719 211.701   1 
  -2   2  18 130.442 202.320   1 
  -2  -2  18 247.012 200.046   1 
  -2   2  17 820.311 271.943   1 
  -2  -2  17 1179.33 319.110   1 
  -2  -2  16 2158.58 420.999   1 
  -2   2  16 2279.23 444.777   1 
  -2  -2  15 141.445 164.241   1 
  -2   2  15 79.8750 90.1978   1 
  -2   2  14 448.426 173.928   1 
  -2  -2  14 191.440 163.422   1 
  -2  -2  13 1877.88 347.381   1 
  -2   2  13 1580.34 336.336   1 
  -2  -2  12 1924.26 382.002   1 
  -2   2  12 2632.15 460.768   1 
  -2   2  11 3755.11 505.391   1 
  -2  -2  11 3346.60 449.491   1 
  -2   2  10 670.848 222.780   1 
  -2  -2  10 214.651 157.583   1 
   2  -2  -9 2680.03 433.147   1 
   2   2  -9 2543.66 413.063   1 
  -2   2   9 2832.01 395.445   1 
   2   2  -8 2050.17 345.224   1 
  -2   2   8 2001.00 324.038   1 
  -2  -2   8 2340.27 341.198   1 
   2   2  -7 2390.34 361.929   1 
  -2   2   7 2754.84 381.737   1 
  -2  -2   7 2569.04 365.469   1 
   2   2  -6 4164.11 460.095   1 
  -2   2   6 3737.77 428.506   1 
  -2  -2   6 3643.78 403.586   1 
  -2  -2   5 39646.1 1273.79   1 
   2   2  -5 40398.5 1397.38   1 
   2   2  -4 63312.4 1655.33   1 
  -2  -2   4 65402.6 1594.85   1 
  -2   2   3 832.847 188.091   1 
  -2  -2   3 1515.57 252.109   1 
  -2   2   2 6477.76 471.585   1 
  -2  -2   2 7024.71 465.341   1 
  -2   2   2 6844.46 490.584   2 
  -2  -2   1 1421.21 209.708   1 
  -2   2   1 1352.98 197.694   1 
  -2  -2   0 5022.50 370.863   1 
  -2   2   0 5662.01 429.604   2 
  -2  -2  -1 966.423 162.687   3 
   2  -2   1 948.941 193.945   2 
  -2  -2  -1 646.800 139.228   1 
  -2   2  -1 800.881 180.788   2 
   2   2   1 1123.78 244.769   2 
   2   2   2 6417.53 496.127   2 
  -2  -2  -2 6856.93 316.160   3 
  -2  -2  -3 6945.02 317.061   3 
  -2   2  -3 8562.01 529.094   2 
   2   2   3 7975.12 564.266   2 
  -2   2  -4 2008.32 261.784   2 
   2  -2   4 2958.16 330.254   2 
   2   2   5 762.411 189.674   2 
  -2   2  -5 3959.39 351.012   2 
   2  -2   5 4343.65 439.408   2 
   2   2   6 21.4516 21.2094   3 
   2  -2   6 190.459 46.0619   3 
  -2   2  -6 194.009 81.9892   2 
  -2  -2  -6-50.7437 54.6151   2 
   2   2   6 131.801 72.4806   2 
   2  -2   6 209.159 112.498   2 
   2   2   7 10287.3 442.162   3 
  -2   2  -7 12236.9 611.087   2 
  -2  -2  -7 11366.0 621.139   2 
   2   2   7 10160.8 663.262   2 
   2  -2   7 11891.2 702.815   2 
   2  -2   7 11388.8 354.651   3 
  -2   2  -8 4965.44 400.668   2 
   2  -2   8 4496.81 247.998   3 
   2  -2   8 4929.45 457.236   2 
   2   2   9 14266.8 600.958   3 
  -2   2  -9 10805.9 604.755   2 
   2   2   9 14161.4 824.997   2 
   2  -2   9 10773.5 699.687   2 
   2  -2   9 10346.2 419.796   3 
   2   2  10 1845.17 224.267   3 
   2   2  10 2185.48 338.727   2 
   2   2  11 3596.79 330.370   3 
   2   2  11 4148.75 469.146   2 
  -2  -2 -12 8672.29 550.564   1 
   2   2  12 8485.80 686.525   2 
   2  -2  12 8870.99 702.952   2 
   2   2  12 8456.76 528.524   3 
   2   2  13 4939.81 540.389   2 
   2  -2  13 4803.57 536.020   2 
   2   2  13 4357.00 399.223   3 
  -2  -2 -13 5036.68 440.392   1 
   2   2  14 401.766 178.337   2 
   2   2  14 230.791 91.5708   3 
   2   2  15 4338.32 546.118   2 
   2  -2  15 4126.41 522.605   2 
   2   2  16 2275.59 424.439   2 
   2  -2  16 2909.47 459.215   2 
   2  -2  17 153.269 114.100   2 
   2   2  17 219.415 147.477   2 
   2   2  18 545.815 217.013   2 
   2  -2  18 786.495 255.270   2 
   2   2  19 31.1163 54.4065   2 
   2  -2  19-41.5003 90.0236   2 
  -2   3  20 298.821 221.315   1 
  -2   3  19-135.333 140.730   1 
  -2  -3  19 11.3297 85.8589   1 
  -2   3  18 115.343 194.792   1 
  -2  -3  18 214.056 208.460   1 
  -2  -3  17 1801.93 391.965   1 
  -2   3  17 1742.99 398.760   1 
  -2   3  16 891.564 286.614   1 
  -2  -3  16 1257.40 318.897   1 
  -2   3  15 3346.37 518.344   1 
  -2  -3  15 4450.60 579.716   1 
  -2  -3  14 1582.45 340.950   1 
  -2   3  14 620.291 223.483   1 
  -2  -3  13 717.117 250.046   1 
  -2   3  13 484.788 203.049   1 
  -2  -3  12 1011.56 297.523   1 
  -2   3  12 1934.80 371.222   1 
  -2   3  11 4287.81 527.577   1 
  -2  -3  11 3123.77 433.246   1 
  -2   3  10 265.263 167.839   1 
  -2  -3  10-65.6552 124.623   1 
   2  -3  -9 22570.9 1232.97   1 
  -2   3   9 23415.5 1134.44   1 
  -2  -3   9 25341.1 1222.48   1 
   2   3  -8 216.528 119.581   1 
  -2  -3   8 271.541 210.795   1 
  -2   3   8 4.08294 101.335   1 
  -2  -3   7 261.311 144.645   1 
   2   3  -7-104.390 111.159   1 
  -2   3   7-94.0787 122.213   1 
   2   3  -6 21348.6 1022.79   1 
  -2   3   6 22138.6 999.141   1 
  -2  -3   6 21242.6 932.546   1 
   2   3  -5 6152.25 531.431   1 
  -2   3   5 5763.39 500.850   1 
  -2  -3   5 5973.71 487.349   1 
   2   3  -4 4899.52 461.344   1 
  -2   3   4 3963.88 419.774   1 
  -2  -3   4 4496.10 414.643   1 
   2   3  -3 65092.5 1610.85   1 
  -2  -3   3 65841.8 1516.78   1 
  -2   3   2 9533.74 572.927   2 
  -2   3   2 9420.96 598.745   1 
  -2  -3   2 9539.15 531.744   1 
  -2  -3   1 3596.32 313.710   1 
  -2   3   1 3630.80 351.525   2 
  -2  -3   0 72.4058 105.707   1 
  -2   3   0 250.263 132.703   2 
  -2  -3  -1 5253.50 313.920   3 
  -2  -3  -1 4508.05 352.586   1 
  -2   3  -1 4316.65 371.603   2 
   2   3   1 5483.31 468.174   2 
  -2   3  -2 1519.19 232.825   2 
   2   3   2 2988.78 353.836   2 
  -2  -3  -2 2535.92 211.426   3 
   2  -3   2 1960.75 285.197   2 
  -2   3  -3 18225.3 737.566   2 
   2   3   3 17952.2 848.449   2 
   2  -3   3 17634.6 805.322   2 
  -2   3  -4 13429.3 628.351   2 
   2   3   4 13015.7 719.726   2 
   2  -3   4 12938.3 695.863   2 
   2   3   5 12315.1 739.508   2 
   2   3   5 12305.5 504.018   3 
   2   3   6 51.6551 57.2620   3 
   2  -3   6 51.0550 18.8154   3 
   2  -3   6 60.8023 63.7991   2 
   2  -3   7 3553.19 182.286   3 
  -2   3  -7 4199.85 360.527   2 
  -2  -3  -7 1391.34 222.851   2 
   2   3   7 1739.88 272.257   2 
   2  -3   7 4090.41 434.727   2 
   2   3   7 1164.64 165.494   3 
   2   3   8 1747.83 206.598   3 
  -2   3  -8 1530.89 219.927   2 
   2  -3   8 1395.99 130.338   3 
   2   3   8 1755.69 289.922   2 
   2  -3   8 1279.62 239.637   2 
   2   3   9 14872.6 636.004   3 
  -2   3  -9 14275.4 682.538   2 
   2   3   9 14893.8 853.537   2 
   2  -3   9 14308.9 796.015   2 
   2   3  10-16.9244 38.1649   3 
   2   3  10-36.5525 48.3965   2 
  -2  -3 -11 7437.31 479.411   1 
   2   3  11 7732.92 644.949   2 
   2   3  11 6902.07 466.538   3 
  -2  -3 -12 1641.47 248.327   1 
   2   3  12 1606.75 315.627   2 
   2   3  12 1370.18 224.086   3 
   2   3  13 1551.98 251.750   3 
  -2  -3 -13 1820.56 304.502   1 
   2   3  13 1813.72 334.472   2 
   2  -3  13 2526.05 384.032   2 
   2   3  14 1170.96 289.053   2 
   2  -3  14 247.939 136.627   2 
   2   3  15 1576.62 375.982   2 
   2  -3  15 1900.78 398.988   2 
   2   3  16 626.566 240.591   2 
   2  -3  16 1319.86 326.034   2 
   2   3  17 1195.31 312.095   2 
   2  -3  17 952.875 262.622   2 
   2   3  18 288.045 172.897   2 
   2  -3  18 455.111 191.080   2 
   2   3  19 328.490 198.780   2 
   2  -3  19 67.1006 75.2330   2 
  -2   4  20 201.194 122.182   1 
  -2   4  19-36.4201 106.618   1 
  -2   4  18 870.622 297.853   1 
  -2  -4  18 1650.76 389.556   1 
  -2   4  17 1083.87 297.414   1 
  -2  -4  17 1457.67 347.959   1 
  -2  -4  16 7991.53 777.251   1 
  -2   4  16 6985.49 741.740   1 
  -2  -4  15 330.071 217.913   1 
  -2   4  15-81.1870 90.8593   1 
  -2  -4  14 1152.59 302.573   1 
  -2   4  14 1138.88 280.940   1 
  -2   4  13 2109.98 439.336   1 
  -2  -4  13 1967.61 395.933   1 
  -2   4  12 5909.89 620.349   1 
  -2  -4  12 5056.97 606.857   1 
  -2   4  11 5266.39 564.906   1 
  -2  -4  11 4723.74 537.308   1 
  -2   4  10 3997.97 478.417   1 
  -2  -4  10 4260.33 516.964   1 
   2   4  -9 669.802 228.785   1 
  -2  -4   9 570.821 172.134   1 
  -2   4   9 410.248 183.126   1 
   2   4  -8 171.062 120.477   1 
  -2  -4   8 0.65297 75.1210   1 
  -2   4   8-82.7955 139.088   1 
   2   4  -7 1883.74 303.630   1 
  -2   4   7 1664.63 268.004   1 
  -2  -4   7 2155.73 353.488   1 
  -2   4   6 2376.12 353.304   1 
  -2  -4   6 2082.31 323.439   1 
   2   4  -6 2335.57 349.372   1 
   2   4  -5 25029.6 1067.39   1 
  -2   4   5 24478.8 1035.33   1 
  -2  -4   5 25683.9 977.897   1 
  -2  -4   4 279.003 107.562   1 
   2   4  -4 346.790 139.648   1 
  -2   4   4 37.7435 67.4017   1 
   2   4  -3 17947.7 831.942   1 
  -2   4   3 15694.2 789.140   1 
  -2  -4   3 18393.9 794.197   1 
  -2   4   2 638.771 176.369   2 
   2   4  -2 376.749 130.416   1 
  -2  -4   2 254.739 72.5342   1 
  -2   4   2 1.02208 136.825   1 
  -2   4   1 22.0919 67.0392   2 
  -2  -4   1 61.3678 63.4889   1 
   2   4   0 4810.40 433.948   2 
  -2  -4   0 4576.03 341.378   1 
  -2   4   0 4721.36 389.075   2 
  -2  -4  -1 5963.05 378.526   1 
  -2   4  -1 6103.28 436.990   2 
   2   4   1 7009.29 529.010   2 
  -2  -4  -1 5861.71 353.612   3 
   2   4   2 9215.77 613.758   2 
  -2  -4  -2 9269.40 424.023   3 
  -2  -4  -2 7506.67 423.648   1 
  -2   4  -2 7647.93 475.376   2 
   2  -4   2 8078.08 525.541   2 
  -2  -4  -3 3934.26 277.829   3 
   2   4   3 3945.37 402.669   2 
  -2   4  -4 2464.73 292.374   2 
   2   4   4 7686.06 596.769   2 
   2  -4   4 1657.22 390.052   2 
  -2  -4  -4 7890.38 401.182   3 
  -2   4  -5 32653.8 956.779   2 
   2   4   5 31752.0 1155.85   2 
   2  -4   5 32332.5 1104.18   2 
   2   4   5 30790.8 818.841   3 
   2  -4   6 548.967 158.317   2 
  -2   4  -6 576.644 128.981   2 
   2   4   6 701.851 135.044   3 
  -2   4  -7 3206.06 303.174   2 
  -2  -4  -7 5035.26 418.256   2 
   2   4   7 4182.42 348.211   3 
   2   4   7 5473.35 498.660   2 
   2  -4   7 3198.87 367.310   2 
   2  -4   7 2678.46 143.658   3 
   2   4   8 1616.93 209.674   3 
  -2   4  -8 1744.61 241.433   2 
   2   4   8 1076.66 253.090   2 
   2  -4   8 1604.29 276.853   2 
   2   4   9 12970.1 615.249   3 
  -2   4  -9 17027.5 742.376   2 
   2   4   9 12518.6 791.001   2 
   2  -4   9 16296.8 857.959   2 
   2   4  10 1200.35 391.310   2 
   2  -4  10 29.5872 85.9049   2 
   2   4  11 9356.25 717.778   2 
   2  -4  11 9310.63 687.146   2 
   2   4  11 8424.51 536.945   3 
   2   4  12 4152.36 495.362   2 
   2  -4  12 4218.23 482.276   2 
   2   4  12 3664.59 364.044   3 
  -2  -4 -12 4167.25 370.962   1 
   2   4  13 4370.49 517.672   2 
   2  -4  13 3885.17 470.975   2 
   2   4  13 3623.25 380.058   3 
  -2  -4 -13 4103.06 407.327   1 
   2   4  14 2516.51 408.701   2 
   2  -4  14 2776.63 431.262   2 
   2   4  15 3656.72 504.092   2 
   2  -4  15 3230.77 462.997   2 
   2   4  16 695.201 325.250   2 
   2  -4  16 70.7991 132.301   2 
   2   4  17 182.494 159.058   2 
   2  -4  17 248.842 191.527   2 
   2   4  18-41.7305 145.006   2 
   2  -4  18 82.9491 141.058   2 
   2  -4  19 929.903 293.210   2 
   2  -4  20 323.223 206.946   2 
  -2   5  20 706.653 280.327   1 
  -2   5  19 112.000 133.976   1 
  -2  -5  18 1739.07 395.624   1 
  -2   5  18 1626.42 393.486   1 
  -2   5  17 544.236 252.015   1 
  -2  -5  17 390.863 226.389   1 
  -2   5  16 342.154 240.959   1 
  -2  -5  16 430.657 282.962   1 
  -2  -5  15 2236.29 451.629   1 
  -2   5  15 2132.94 417.685   1 
  -2  -5  14 662.651 242.382   1 
  -2   5  14 498.400 235.201   1 
  -2  -5  13 440.061 215.294   1 
  -2   5  13 1361.64 327.758   1 
  -2  -5  12 5530.95 656.690   1 
  -2   5  12 6127.10 634.313   1 
  -2   5  11 2949.33 425.737   1 
  -2  -5  11 3203.43 477.022   1 
  -2   5  10 5842.79 591.487   1 
  -2  -5  10 5402.62 563.761   1 
   2   5  -9 5946.52 627.252   1 
  -2   5   9 5698.56 574.123   1 
  -2  -5   9 5760.16 558.096   1 
  -2  -5   8 360.092 115.068   1 
   2   5  -8 488.149 174.860   1 
  -2   5   8 216.353 74.7509   1 
   2  -5  -8 474.999 191.986   1 
   2   5  -7 4202.44 461.432   1 
  -2   5   7 4244.02 465.169   1 
  -2  -5   7 4821.75 483.621   1 
   2   5  -6 694.372 177.087   1 
  -2   5   6 738.433 206.871   1 
  -2  -5   6 1105.99 235.086   1 
  -2   5   5 960.209 243.752   1 
   2   5  -5 992.022 230.318   1 
  -2  -5   5 1348.09 276.714   1 
  -2   5   4 10809.1 688.760   1 
   2   5  -4 12209.7 699.794   1 
  -2  -5   4 12901.8 661.220   1 
  -2   5   3 2015.61 274.331   1 
   2   5  -3 2196.11 290.453   1 
  -2  -5   3 2287.54 278.328   1 
  -2   5   2 1730.89 234.651   1 
   2   5  -2 2359.36 297.963   1 
  -2  -5   2 2433.59 272.587   1 
  -2   5   2 2197.26 279.409   2 
  -2   5   1 930.918 176.983   2 
  -2  -5   1 949.450 175.269   1 
   2   5   0 1138.86 222.884   2 
  -2  -5   0 1032.98 151.907   1 
  -2   5   0 1022.21 191.313   2 
   2   5   1 6888.81 519.838   2 
  -2  -5  -1 6599.36 384.722   1 
  -2   5  -1 6519.09 448.635   2 
  -2  -5  -1 6147.83 376.829   3 
   2  -5   2 8402.21 539.276   2 
  -2  -5  -2 6586.63 374.005   1 
  -2   5  -2 6739.90 449.689   2 
   2   5   2 7083.34 533.806   2 
  -2  -5  -2 7233.57 399.982   3 
  -2  -5  -3 75.3036 51.1176   3 
   2   5   3 91.5846 89.2811   2 
   2  -5   3 505.940 156.445   2 
  -2  -5  -3 42.6705 39.5814   1 
  -2   5  -3 354.903 121.744   2 
  -2   5  -4 30492.5 923.103   2 
   2   5   4 36477.2 1240.50   2 
   2  -5   4 30185.1 1039.15   2 
  -2  -5  -4 38320.3 927.766   3 
  -2   5  -5 5352.14 399.086   2 
   2   5   5 2642.59 382.389   2 
   2  -5   5 7062.67 531.998   2 
   2   5   5 2760.64 265.706   3 
  -2   5  -6 1989.46 229.726   2 
   2   5   6 2506.17 337.216   2 
   2  -5   6 2136.29 285.808   2 
   2   5   6 1962.11 221.865   3 
  -2  -5  -7 8491.47 549.180   2 
   2   5   7 8288.95 615.447   2 
   2  -5   7 9026.80 611.713   2 
   2   5   7 7810.00 453.098   3 
  -2   5  -7 8846.22 499.727   2 
  -2   5  -8 1946.78 247.006   2 
   2   5   8 2007.98 312.799   2 
   2  -5   8 1995.54 296.416   2 
   2   5   8 1581.51 216.672   3 
  -2   5  -9 4547.84 382.960   2 
   2  -5   9 3532.49 448.659   2 
   2   5  10 15788.5 755.535   3 
  -2  -5 -10 14797.8 620.322   1 
   2   5  11 6547.92 621.085   2 
   2   5  11 6946.91 508.741   3 
   2   5  12 942.184 187.390   3 
   2   5  12 1372.83 288.697   2 
   2   5  13 1508.19 312.403   2 
  -2  -5 -13 1507.38 243.132   1 
   2   5  13 1301.58 233.964   3 
   2  -5  14 1507.67 311.881   2 
   2   5  14 514.112 191.400   2 
   2   5  15 498.261 203.119   2 
   2  -5  15 696.183 277.933   2 
   2   5  16 5990.52 673.160   2 
   2  -5  16 5000.03 594.574   2 
   2   5  17 837.620 282.236   2 
   2  -5  17 636.549 207.304   2 
   2   5  18 433.066 191.002   2 
   2  -5  18 547.172 200.653   2 
   2  -5  19 642.544 251.518   2 
   2  -5  20 336.657 193.654   2 
  -2   6  20 1147.35 343.251   1 
  -2   6  19 53.1515 136.358   1 
  -2   6  18 307.528 202.991   1 
  -2   6  17 38.6552 152.715   1 
  -2  -6  17 325.072 205.922   1 
  -2   6  16 5413.72 695.719   1 
  -2  -6  16 7209.89 746.788   1 
  -2   6  15 4232.32 579.933   1 
  -2  -6  15 4324.96 605.431   1 
  -2  -6  14 1642.66 372.474   1 
  -2   6  14 2494.82 457.151   1 
  -2   6  13 1041.11 311.731   1 
  -2  -6  13 768.818 276.764   1 
  -2  -6  12 96.6701 137.865   1 
  -2   6  12 303.911 184.358   1 
  -2  -6  11 2019.40 382.352   1 
  -2   6  11 1380.82 341.593   1 
  -2   6  10 3920.66 486.753   1 
  -2  -6  10 4046.26 476.271   1 
  -2  -6   9 1784.38 312.833   1 
  -2   6   9 1563.32 313.199   1 
   2   6  -9 1430.07 281.589   1 
  -2  -6   8 1222.33 251.024   1 
   2   6  -8 1674.06 309.116   1 
  -2   6   8 1086.25 225.170   1 
  -2   6   7 2689.23 372.078   1 
   2   6  -7 2979.35 395.065   1 
  -2  -6   7 2865.50 376.579   1 
  -2   6   6 1230.37 243.375   1 
   2   6  -6 1091.86 234.079   1 
  -2  -6   6 1105.45 224.181   1 
  -2   6   5 11812.3 733.951   1 
   2   6  -5 11947.1 711.431   1 
  -2  -6   5 13851.8 762.227   1 
  -2   6   4 44.9637 77.1879   1 
   2   6  -4 101.079 72.8032   1 
  -2  -6   4 198.948 134.845   1 
  -2   6   3 1215.92 206.797   1 
   2   6  -3 1356.91 224.248   1 
  -2  -6   3 1706.68 233.202   1 
  -2   6   2 7097.24 487.874   2 
   2   6  -2 7661.63 513.971   1 
  -2  -6   2 8086.32 479.049   1 
  -2  -6   1 13061.4 580.796   1 
  -2   6   1 10946.8 601.387   2 
  -2   6   0 349.564 104.028   2 
  -2  -6   0 418.049 108.827   3 
   2   6   0 325.539 132.424   2 
  -2  -6   0 316.465 42.5974   1 
  -2   6   0 406.148 68.0541   3 
  -2  -6  -1 918.483 148.173   3 
   2   6   1 1126.66 216.233   2 
  -2  -6  -1 1002.23 147.547   1 
  -2   6  -1 1244.60 206.329   2 
  -2   6  -1 1009.16 79.7076   3 
   2  -6   2 4207.06 384.109   2 
  -2  -6  -2 5931.80 386.463   1 
  -2   6  -2 3349.37 313.374   2 
  -2  -6  -2 6658.96 437.985   3 
  -2  -6  -3 230.350 66.3998   1 
   2   6   3 805.613 190.738   2 
  -2  -6  -3 769.370 146.362   3 
   2  -6   3 193.287 81.9721   2 
  -2   6  -3 166.859 75.1607   2 
  -2   6  -4 39476.7 1037.66   2 
   2   6   4 36616.6 1242.63   2 
   2  -6   4 39936.4 1202.06   2 
  -2  -6  -4 37327.2 970.419   3 
   2   6   5 8434.75 479.971   3 
  -2   6  -5 8128.27 461.573   2 
   2   6   5 9756.21 655.263   2 
   2  -6   5 8652.25 562.572   2 
   2  -6   6 961.003 202.969   2 
  -2   6  -6 1129.88 172.613   2 
   2   6   6 827.894 208.520   2 
   2   6   6 917.948 156.807   3 
   2   6   7 349.222 107.973   3 
   2  -6   7 633.328 235.357   2 
   2   6   7 306.163 225.692   2 
   2   6   8 2787.90 294.741   3 
  -2   6  -8 2282.44 265.293   2 
   2   6   8 3428.43 408.188   2 
   2  -6   8 2442.62 326.127   2 
   2   6   9 1449.02 232.833   3 
  -2   6  -9 1522.34 218.973   2 
   2   6   9 2642.50 368.915   2 
   2  -6   9 1169.65 229.388   2 
  -2  -6  -9 2623.72 247.056   1 
   2   6  10 31912.0 1072.72   3 
   2   6  10 33972.8 1350.55   2 
   2  -6  10 35302.0 1277.51   2 
  -2  -6 -10 33650.5 905.677   1 
   2   6  11 2214.66 298.200   3 
   2   6  11 2694.34 402.033   2 
   2   6  12 1582.03 360.457   2 
   2  -6  12 1337.03 276.508   2 
   2   6  12 1630.95 261.199   3 
  -2  -6 -13 526.056 145.886   1 
   2   6  13 480.221 181.858   2 
   2  -6  13 824.316 238.106   2 
   2   6  14 1415.38 333.411   2 
   2  -6  14 237.077 161.902   2 
   2   6  15 248.900 156.516   2 
   2  -6  15 424.790 188.912   2 
   2   6  16 4381.75 593.390   2 
   2  -6  16 4048.39 562.527   2 
   2   6  17 1265.63 328.463   2 
   2  -6  17 1288.10 315.088   2 
   2   6  18-43.2054 94.2790   2 
   2  -6  18 94.3053 135.219   2 
   2  -6  19 1443.35 350.596   2 
   2  -6  20 554.804 219.689   2 
  -2   7  20 746.139 293.767   1 
  -2   7  19 1271.42 351.928   1 
  -2   7  18 1728.39 399.978   1 
  -2   7  17 114.016 192.338   1 
  -2   7  16 481.329 248.924   1 
  -2  -7  16 1035.73 305.767   1 
  -2  -7  15 1052.81 315.965   1 
  -2   7  15 605.016 243.333   1 
  -2   7  14 1930.81 431.137   1 
  -2  -7  14 1928.17 414.509   1 
  -2  -7  13 2765.12 434.299   1 
  -2   7  13 2726.98 449.203   1 
  -2   7  12 1376.02 319.387   1 
  -2  -7  12 1130.58 290.448   1 
  -2   7  11 2049.21 366.170   1 
  -2  -7  11 2658.88 410.160   1 
  -2   7  10-13.6500 107.208   1 
  -2  -7  10 358.491 211.423   1 
  -2   7   9 5190.17 551.494   1 
  -2  -7   9 5660.81 560.013   1 
  -2   7   8 2480.96 367.251   1 
   2   7  -8 2440.13 355.601   1 
  -2  -7   8 2642.06 376.765   1 
  -2   7   7 8915.06 663.652   1 
   2   7  -7 9283.64 689.122   1 
  -2  -7   7 10532.5 688.500   1 
  -2   7   6 6654.77 573.389   1 
   2   7  -6 7107.44 565.902   1 
  -2  -7   6 7774.28 567.359   1 
  -2   7   5 12859.7 774.586   1 
   2   7  -5 13376.4 748.495   1 
  -2  -7   5 14784.7 758.491   1 
  -2   7   4 182.646 66.3949   1 
  -2  -7   4 257.996 114.399   2 
   2   7  -4 357.342 126.786   1 
   2   7  -3 231.872 101.008   1 
  -2   7   3 29.0713 90.9593   1 
   2   7  -2 15316.6 703.272   1 
  -2  -7   2 16160.4 664.984   1 
  -2   7   2 14234.6 689.742   2 
   2   7  -1 5650.60 414.645   1 
  -2  -7   1 5806.80 376.966   1 
  -2   7   1 5326.12 421.878   2 
  -2   7   1 5681.80 299.415   3 
  -2   7   0 645.734 137.551   2 
  -2  -7   0 589.698 150.259   3 
  -2  -7   0 753.078 142.062   1 
  -2   7   0 593.793 85.4486   3 
  -2   7  -1 4.95772 36.9202   2 
  -2  -7  -1 1352.81 252.852   3 
  -2  -7  -1 564.832 142.601   1 
   2   7   1 1860.14 313.314   2 
  -2  -7  -2 45442.2 1108.57   3 
  -2  -7  -2 47578.9 892.249   1 
  -2   7  -2 45584.5 1130.04   2 
   2   7   2 47094.5 1398.73   2 
  -2  -7  -3 3444.28 232.577   1 
  -2   7  -3 3179.20 288.260   2 
   2   7   3 3523.00 394.352   2 
  -2  -7  -3 3321.67 308.770   3 
   2  -7   3 3552.64 342.856   2 
   2   7   4 722.453 192.671   2 
  -2  -7  -4 374.991 76.1380   1 
  -2  -7  -4 477.831 138.303   3 
  -2   7  -4 1780.79 253.682   2 
   2  -7   4 2380.21 368.390   2 
  -2   7  -5 7810.68 446.254   2 
  -2  -7  -5 7385.84 460.123   3 
   2   7   5 7975.04 596.366   2 
   2  -7   5 8959.47 574.487   2 
   2   7   5 7017.75 460.677   3 
   2  -7   6 341.581 126.080   2 
  -2   7  -6 217.643 76.8403   2 
  -2  -7  -6 534.338 155.244   2 
   2   7   6 371.823 130.711   3 
   2   7   6 630.560 211.907   2 
   2   7   7 6131.24 438.161   3 
  -2   7  -7 6539.42 420.799   2 
   2   7   7 7712.83 610.681   2 
   2  -7   7 6748.20 520.680   2 
   2  -7   7 5853.16 224.294   3 
  -2   7  -8 6706.82 436.862   2 
   2   7   8 5312.90 520.250   2 
   2   7   8 5714.23 433.724   3 
   2  -7   8 6304.96 525.704   2 
  -2  -7  -8 5796.36 318.139   1 
  -2   7  -9 5572.08 409.261   2 
  -2  -7  -9 5109.94 320.281   1 
   2   7   9 4801.75 495.682   2 
   2  -7   9 5137.92 480.711   2 
   2   7   9 4683.46 409.193   3 
  -2   7 -10 11432.5 592.863   2 
   2   7  10 5159.56 556.386   2 
   2  -7  10 13000.4 796.766   2 
  -2  -7 -10 5556.22 379.590   1 
   2   7  10 4540.84 419.261   3 
   2   7  11 2094.21 359.070   2 
   2  -7  11 2980.84 380.247   2 
  -2  -7 -11 2390.03 251.684   1 
   2   7  11 2364.31 313.045   3 
   2   7  12 3509.23 457.957   2 
   2  -7  12 3373.02 439.485   2 
   2   7  12 3361.53 391.421   3 
   2   7  13 149.599 122.791   2 
   2  -7  13 116.153 127.089   2 
   2   7  14 4718.25 576.898   2 
   2  -7  14 4915.07 542.773   2 
   2   7  15 1397.27 378.563   2 
   2  -7  15 757.488 250.570   2 
   2   7  16 1992.56 397.256   2 
   2  -7  16 3228.90 485.123   2 
   2   7  17 61.8999 52.5512   2 
   2  -7  17 304.634 184.660   2 
   2   7  18 131.648 133.100   2 
   2  -7  18 250.816 171.880   2 
   2  -7  19 1507.35 364.863   2 
   2  -7  20 1019.59 307.291   2 
  -2   8  20 39.3343 142.009   1 
  -2   8  19 779.766 298.423   1 
  -2   8  18 47.6395 104.072   1 
  -2   8  17 481.011 214.120   1 
  -2   8  16 264.319 129.209   1 
  -2  -8  15 445.520 213.941   1 
  -2   8  15 991.166 333.322   1 
  -2   8  14 1586.13 405.840   1 
  -2  -8  14 1802.29 392.971   1 
  -2   8  13 1500.15 346.234   1 
  -2  -8  13 1581.39 341.357   1 
  -2  -8  12 11911.4 861.835   1 
  -2   8  12 9809.10 813.581   1 
  -2   8  11 69.6223 134.037   1 
  -2  -8  11 249.428 186.190   1 
  -2   8  10 3117.78 452.422   1 
  -2  -8  10 4391.75 499.781   1 
  -2  -8   9 196.948 168.308   1 
  -2   8   9-237.249 193.243   1 
  -2   8   8 210.408 172.296   1 
   2   8  -8 68.2775 72.7292   1 
  -2  -8   8 351.682 162.938   1 
  -2   8   7 1604.73 286.507   1 
   2   8  -7 1250.35 245.411   1 
  -2  -8   7 1931.06 320.208   1 
  -2   8   6 4136.62 470.104   1 
   2   8  -6 4601.66 463.906   1 
  -2  -8   6 5420.42 475.256   1 
  -2  -8   5 2732.83 343.546   2 
  -2   8   5 2954.69 390.232   1 
   2   8  -5 2790.35 342.732   1 
  -2  -8   5 3724.24 377.953   1 
  -2   8   4-9.22008 126.640   1 
  -2  -8   4 32.7005 48.2701   2 
   2   8  -4 58.3642 69.0006   1 
  -2  -8   4-42.8870 101.273   1 
   2   8  -3 18.7221 82.2114   1 
  -2  -8   3-22.3897 71.0228   1 
  -2   8   3-37.0614 108.937   1 
   2   8  -2 236.757 90.6364   1 
  -2   8   2 359.953 123.011   2 
   2   8  -1 1464.99 204.142   1 
  -2  -8   1 2072.80 242.535   1 
  -2   8   1 1494.78 161.486   3 
  -2   8   1 1389.35 209.696   2 
   2   8   0 12005.8 720.784   2 
  -2  -8   0 12881.1 508.267   1 
  -2   8   0 10154.2 556.640   2 
  -2   8   0 11237.2 396.182   3 
  -2  -8   0 10777.3 586.043   3 
  -2  -8  -1 21742.9 808.863   3 
  -2  -8  -1 24794.5 654.461   1 
  -2  -8  -1 22805.3 918.904   2 
  -2   8  -1 21836.3 792.490   2 
   2   8   1 22499.6 972.289   2 
  -2   8  -1 22376.3 494.117   3 
  -2  -8  -2 1983.32 173.273   1 
  -2  -8  -2 1757.15 257.926   2 
   2   8   2 2020.10 305.517   2 
  -2  -8  -2 1867.13 246.184   3 
  -2  -8  -3 2302.66 176.955   1 
  -2  -8  -3 1991.59 286.224   2 
  -2   8  -3 1600.00 205.174   2 
   2   8   3 2159.15 339.788   2 
  -2  -8  -3 2725.22 302.549   3 
   2  -8   3 2049.07 265.850   2 
  -2  -8  -4 2027.46 254.132   3 
  -2  -8  -4 1931.76 153.525   1 
  -2  -8  -4 2266.42 287.881   2 
  -2   8  -4 1891.38 215.970   2 
   2   8   4 2040.09 298.179   2 
   2  -8   4 1794.83 248.891   2 
  -2  -8  -5 2982.85 189.360   1 
  -2   8  -5 3420.57 294.439   2 
  -2  -8  -5 3331.52 352.628   2 
   2   8   5 3095.95 383.827   2 
   2  -8   5 3939.20 383.268   2 
  -2  -8  -5 3042.37 316.196   3 
   2   8   5 3051.76 315.079   3 
  -2   8  -6 4682.21 344.615   2 
  -2  -8  -6 5420.17 450.904   2 
   2  -8   6 4219.04 161.459   3 
   2   8   6 4782.67 474.329   2 
   2  -8   6 4888.33 431.069   2 
   2   8   6 4582.89 397.931   3 
  -2  -8  -7 13031.6 397.832   1 
  -2   8  -7 14970.7 629.192   2 
   2   8   7 13485.7 810.812   2 
   2  -8   7 14260.6 756.091   2 
   2   8   7 12187.8 641.740   3 
   2  -8   7 12621.6 348.645   3 
  -2   8  -8 1696.54 218.537   2 
   2  -8   8 1315.76 242.847   2 
  -2  -8  -8 1170.89 148.308   1 
   2   8   8 1178.49 252.308   2 
   2   8   8 1065.44 195.177   3 
   2   8   9 106.946 69.6518   3 
  -2  -8  -9 56.7779 62.1458   1 
   2   8   9 138.299 115.545   2 
   2  -8   9 53.5786 67.8464   2 
  -2   8 -10 5270.38 402.967   2 
   2   8  10 5681.64 567.842   2 
   2  -8  10 5551.64 521.709   2 
  -2  -8 -10 5308.36 362.739   1 
   2   8  10 4635.89 433.507   3 
  -2  -8 -11-18.6402 61.8956   1 
   2   8  11 62.8918 106.512   2 
   2   8  11-5.65683 31.2010   3 
   2  -8  12 334.676 177.585   2 
  -2  -8 -12 857.727 206.961   1 
   2   8  12 429.559 185.870   2 
   2   8  13 670.977 217.791   2 
   2  -8  13 863.464 214.194   2 
   2   8  14 226.403 162.588   2 
   2  -8  14 856.285 272.595   2 
   2   8  15 7508.14 745.747   2 
   2  -8  15 7184.49 694.989   2 
   2  -8  16 1684.63 358.314   2 
   2   8  16 1497.20 340.520   2 
   2   8  17 118.996 94.7598   2 
   2  -8  17 103.312 80.3062   2 
   2   8  18 88.6590 158.058   2 
   2  -8  18 79.5301 59.6281   2 
   2  -8  19 169.894 127.902   2 
   2  -8  20 2304.21 466.666   2 
  -2   9  20 75.8443 143.799   1 
  -2   9  19 60.4261 104.281   1 
  -2   9  18 153.408 127.252   1 
  -2   9  17 492.918 224.794   1 
  -2   9  16 672.243 217.086   1 
  -2   9  15 413.921 233.731   1 
  -2   9  14 5426.97 631.849   1 
  -2  -9  13 396.240 208.638   1 
  -2   9  13 243.010 158.898   1 
  -2   9  12 4072.15 540.457   1 
  -2  -9  12 4538.78 581.358   1 
  -2  -9  11 6197.47 589.189   1 
  -2   9  11 5369.58 587.366   1 
  -2  -9  10 727.133 233.693   1 
  -2   9  10 387.966 109.012   1 
  -2   9   9 3169.23 413.384   1 
  -2  -9   9 4398.89 466.701   1 
  -2  -9   8 1513.02 289.976   1 
  -2   9   8 1380.81 282.890   1 
   2   9  -8 1488.86 294.099   1 
  -2   9   7 1883.25 321.048   1 
   2   9  -7 1888.56 303.653   1 
  -2   9   6 1295.33 253.399   1 
   2   9  -6 1235.63 236.661   1 
  -2   9   5 1314.66 256.708   1 
   2   9  -5 1837.72 286.668   1 
  -2  -9   5 1990.49 278.192   1 
  -2  -9   5 1264.55 238.002   2 
  -2   9   4 65.3231 82.3818   1 
  -2  -9   4 63.6172 45.4944   2 
  -2  -9   4 176.869 119.171   1 
   2   9  -4 195.679 113.251   1 
  -2   9   3 3692.92 413.208   1 
   2   9  -3 4390.74 385.358   1 
  -2  -9   3 4489.19 360.880   1 
  -2  -9   3 3702.72 385.297   2 
  -2   9   2 3448.84 338.429   2 
   2   9  -2 3554.78 324.917   1 
  -2  -9   2 4203.19 335.389   1 
  -2   9   2 3816.54 293.456   3 
   2   9  -1 8858.27 497.169   1 
  -2  -9   1 9859.88 477.104   1 
  -2   9   1 8806.47 413.203   3 
  -2   9   1 8446.67 516.515   2 
  -2  -9   1 7942.86 536.928   3 
   2   9   0 16829.5 869.578   2 
  -2  -9   0 15321.0 766.298   2 
  -2  -9   0 17779.2 593.083   1 
  -2   9   0 14781.0 667.785   2 
  -2   9   0 14759.5 488.536   3 
  -2  -9   0 14650.4 722.832   3 
  -2  -9  -1 8522.17 562.095   2 
  -2  -9  -1 9746.59 390.314   1 
  -2   9  -1 8070.33 480.988   2 
  -2  -9  -1 8106.27 520.588   3 
   2   9   1 8453.24 601.345   2 
  -2   9  -1 7984.31 328.427   3 
   2   9   2 436.083 135.778   2 
  -2  -9  -2 641.377 96.5660   1 
  -2  -9  -2 479.706 119.684   3 
  -2  -9  -2 378.306 112.288   2 
  -2   9  -2 388.854 96.2648   2 
  -2  -9  -3 15199.9 749.404   2 
  -2   9  -3 14266.8 595.646   2 
  -2  -9  -3 15991.1 395.873   1 
   2   9   3 14786.5 811.932   2 
  -2  -9  -3 14278.9 692.123   3 
   2   9   4 995.401 216.569   2 
  -2  -9  -4 1256.39 216.142   2 
  -2   9  -4 1166.97 164.194   2 
  -2  -9  -4 1262.27 102.992   1 
  -2  -9  -4 1166.62 196.225   3 
   2  -9   4 1098.58 192.139   2 
  -2   9  -5 1678.33 199.261   2 
  -2  -9  -5 1806.41 260.850   2 
  -2  -9  -5 1741.14 113.131   1 
   2   9   5 1824.62 291.852   2 
  -2  -9  -5 1706.62 247.328   3 
   2  -9   5 2071.94 278.766   2 
   2   9   5 1593.79 235.944   3 
  -2  -9  -6 3983.72 173.894   1 
   2  -9   6 3795.68 182.365   3 
  -2  -9  -6 3851.09 184.313   1 
   2   9   6 3612.08 421.876   2 
   2  -9   6 4375.71 406.554   2 
  -2   9  -6 4039.05 314.299   2 
   2   9   6 3773.88 371.011   3 
   2  -9   7 204.024 213.065   2 
   2  -9   7 18.7025 27.5582   3 
   2   9   7 11.6266 52.8090   3 
  -2  -9  -7 49.5324 29.6864   1 
   2   9   7 113.080 141.163   2 
   2  -9   8 1624.03 155.979   3 
  -2   9  -8 1993.11 235.519   2 
   2   9   8 1805.29 315.423   2 
   2  -9   8 1760.37 271.734   2 
  -2  -9  -8 1621.56 145.272   1 
   2   9   8 1522.20 241.774   3 
   2   9   9 580.160 148.141   3 
   2  -9   9 692.567 173.303   2 
  -2   9  -9 627.628 134.659   2 
  -2  -9  -9 866.058 137.900   1 
   2   9   9 476.231 160.804   2 
  -2   9 -10 6196.05 431.307   2 
   2   9  10 5183.35 547.219   2 
   2  -9  10 5433.53 503.147   2 
  -2  -9 -10 6020.73 352.013   1 
   2   9  10 4823.39 453.938   3 
  -2  -9 -11 743.862 144.274   1 
   2   9  11 377.934 153.521   2 
   2  -9  11 763.987 198.357   2 
   2   9  12 5328.41 575.781   2 
   2  -9  12 6142.25 571.077   2 
  -2  -9 -12 6027.40 400.173   1 
   2   9  13 484.001 186.566   2 
   2  -9  13 519.108 184.118   2 
   2   9  14 164.421 126.030   2 
   2  -9  14 253.590 170.518   2 
   2  -9  15 1505.25 368.278   2 
   2   9  15 1070.56 293.812   2 
   2   9  16 130.408 124.253   2 
   2  -9  16 15.0112 76.5252   2 
   2   9  17 143.336 156.076   2 
   2  -9  17 60.9855 92.8953   2 
   2  -9  18 3338.35 511.652   2 
   2  -9  19-44.4827 107.171   2 
   2  -9  20 839.533 312.852   2 
  -2  10  20 78.7559 161.739   1 
  -2  10  19 938.228 259.807   2 
  -2  10  19 702.658 256.215   1 
  -2  10  18-99.0602 123.799   1 
  -2  10  17 325.183 171.081   1 
  -2  10  16-57.0194 87.2645   1 
  -2  10  15 507.569 258.073   1 
  -2  10  14 6591.44 690.988   1 
  -2  10  13 401.481 191.075   1 
  -2  10  12 4042.12 535.524   1 
  -2 -10  12 4795.85 552.525   1 
  -2 -10  11 286.506 197.651   1 
  -2  10  11 167.348 126.535   1 
  -2  10  10 1965.44 338.136   1 
  -2 -10  10 2327.50 369.170   1 
  -2 -10   9 220.195 152.019   1 
  -2  10   9-226.154 129.981   1 
  -2  10   8 5626.73 561.284   1 
   2  10  -8 6023.04 593.794   1 
  -2 -10   8 6229.27 550.905   1 
  -2  10   7 572.796 176.891   1 
  -2 -10   7 917.963 238.874   1 
   2  10  -7 701.234 167.786   1 
  -2 -10   6 1869.96 288.116   2 
  -2  10   6 1888.24 308.595   1 
   2  10  -6 2060.76 306.136   1 
  -2 -10   6 2635.01 324.493   1 
  -2  10   5 10129.2 721.983   1 
   2  10  -5 10896.2 682.823   1 
  -2 -10   5 11572.9 630.576   1 
  -2 -10   4-26.4763 64.6811   2 
  -2  10   4-110.153 132.766   1 
  -2 -10   4 61.6276 80.3515   1 
   2  10  -4 47.5183 88.0734   1 
  -2 -10   3 1123.15 215.190   2 
  -2 -10   3 1482.12 219.399   1 
   2  10  -3 1130.13 199.169   1 
  -2  10   3 1187.00 180.415   3 
  -2  10   2 3097.72 274.646   3 
  -2  10   2 2713.21 293.820   2 
   2  10  -2 2930.34 299.161   1 
  -2 -10   2 2912.09 345.807   2 
  -2 -10   2 3341.58 292.536   1 
  -2  10   1 1280.61 169.281   3 
  -2 -10   1 989.843 208.581   3 
   2  10  -1 1178.82 175.469   1 
  -2 -10   1 1110.22 209.420   2 
  -2 -10   1 1316.10 170.244   1 
  -2  10   1 1017.52 182.735   2 
   2  10   0 20770.2 954.743   2 
  -2 -10   0 19281.4 870.845   2 
  -2  10   0 18820.1 740.662   2 
  -2  10   0 19885.9 598.328   3 
  -2 -10   0 18429.7 814.974   3 
  -2 -10  -1 1511.57 237.411   2 
  -2  10  -1 1492.04 201.453   2 
  -2 -10  -1 1898.30 162.024   1 
  -2 -10  -1 1396.42 224.983   3 
   2  10   1 1546.73 264.942   2 
  -2  10  -1 1449.25 151.802   3 
  -2 -10  -2 422.893 125.372   3 
   2  10   2 573.257 182.643   2 
  -2 -10  -2 304.801 112.547   2 
  -2 -10  -2 412.054 75.7047   1 
  -2  10  -2 315.652 90.5136   2 
   2  10   3 693.284 187.434   2 
  -2 -10  -3 733.188 184.917   3 
  -2 -10  -3 687.258 162.888   2 
  -2  10  -3 616.322 129.963   2 
  -2 -10  -3 565.953 58.0779   1 
   2  10   4 1252.60 234.552   2 
  -2  10  -4 1345.76 169.542   2 
  -2 -10  -4 1313.63 215.210   2 
  -2 -10  -4 1488.67 233.745   3 
   2 -10   4 1673.73 235.764   2 
   2  10   5 272.072 112.481   3 
   2 -10   5 211.507 93.9604   2 
   2 -10   5 172.276 39.2802   3 
  -2 -10  -5 383.312 145.680   3 
  -2  10  -5 244.111 80.1048   2 
  -2 -10  -5 115.603 75.5915   2 
   2  10   5 252.248 145.325   2 
   2 -10   6 694.326 181.026   2 
   2  10   6 712.931 166.347   3 
  -2  10  -6 671.033 124.898   2 
   2 -10   6 549.863 80.9080   3 
   2  10   6 556.918 157.778   2 
  -2  10  -7 3175.60 282.018   2 
   2  10   7 2960.93 400.856   2 
   2 -10   7 3068.31 348.477   2 
   2 -10   7 3022.58 199.871   3 
   2  10   7 2945.58 348.336   3 
   2  10   8 1849.22 276.462   3 
  -2  10  -8 2147.06 237.141   2 
  -2 -10  -8 1908.17 125.323   1 
   2 -10   8 1894.14 178.857   3 
   2  10   8 2093.57 331.097   2 
   2 -10   8 1953.68 287.362   2 
  -2  10  -9 3553.36 307.048   2 
  -2 -10  -9 3676.36 215.460   1 
   2  10   9 3693.04 441.539   2 
   2 -10   9 3668.88 400.845   2 
   2  10   9 3134.85 369.516   3 
  -2  10 -10 1228.41 197.757   2 
  -2 -10 -10 811.186 116.543   1 
   2  10  10 780.299 212.641   2 
   2 -10  10 927.567 219.048   2 
   2  10  11 298.846 111.091   2 
   2 -10  11 232.368 117.819   2 
  -2 -10 -11 386.356 87.3531   1 
   2  10  12 458.797 156.619   2 
   2 -10  12 698.325 202.507   2 
   2  10  13 131.650 170.179   2 
   2 -10  13-29.1581 56.1663   2 
   2  10  14 765.843 236.503   2 
   2 -10  14 593.891 208.694   2 
   2  10  15 930.069 276.459   2 
   2 -10  15 946.903 278.263   2 
   2  10  16 23.7620 77.0487   2 
   2 -10  16 86.9052 104.361   2 
   2  10  17 475.029 222.383   2 
   2 -10  17 264.214 134.119   2 
   2 -10  18 111.569 126.794   2 
   2 -10  19 685.109 241.937   2 
  -2  11  20 77.7064 177.144   1 
  -2  11  19 838.814 233.439   2 
  -2  11  19 766.455 282.197   1 
  -2  11  18-126.002 134.817   1 
  -2  11  17 121.959 126.877   1 
  -2  11  16 1575.43 354.477   1 
  -2  11  15 398.971 232.387   1 
  -2  11  14 612.800 243.029   1 
  -2  11  13 5142.44 604.453   1 
  -2  11  12 1997.36 392.939   1 
  -2  11  11-106.863 147.882   1 
  -2 -11  10 389.529 164.208   1 
  -2  11  10 401.278 134.378   1 
  -2  11   9 131.470 97.0889   1 
  -2 -11   9 358.586 158.132   1 
  -2  11   8 3676.77 462.113   1 
   2  11  -8 3680.27 449.695   1 
  -2 -11   8 3927.06 434.535   1 
  -2 -11   7 1511.13 264.066   1 
  -2  11   7 1101.56 244.902   1 
   2  11  -7 1237.16 247.424   1 
  -2  11   6 459.176 164.345   1 
  -2 -11   6 478.952 153.268   2 
  -2 -11   6 589.100 165.354   1 
   2  11  -6 268.492 88.1220   1 
  -2  11   5 3764.28 449.483   1 
   2  11  -5 3981.06 413.228   1 
  -2 -11   5 4280.27 387.581   1 
  -2 -11   5 3481.56 387.416   2 
  -2  11   4 73.9052 101.443   1 
  -2 -11   4 86.8591 61.5914   2 
   2  11  -4 165.402 90.4600   1 
  -2 -11   4 243.792 126.851   1 
  -2  11   4 239.783 87.3130   3 
   2  11  -3 12777.3 649.088   1 
  -2 -11   3 11684.0 695.223   2 
  -2  11   3 12899.4 618.755   3 
  -2 -11   3 13599.4 592.936   1 
  -2  11   2 4026.30 358.705   2 
  -2  11   2 4148.46 332.339   3 
   2  11  -2 4202.27 353.399   1 
  -2 -11   2 3809.56 398.213   2 
  -2 -11   2 4518.44 323.647   1 
  -2  11   1 954.634 168.104   2 
   2  11  -1 1080.06 177.420   1 
  -2 -11   1 1065.10 207.640   2 
  -2 -11   1 1236.98 164.406   1 
  -2  11   1 1002.70 155.013   3 
  -2 -11   1 1113.63 229.148   3 
  -2  11   0 891.592 141.980   3 
  -2 -11   0 943.529 197.773   3 
   2  11   0 1152.46 237.107   2 
  -2 -11   0 1222.95 217.015   2 
  -2  11   0 1050.61 179.226   2 
  -2 -11   0 1154.64 132.396   1 
  -2 -11  -1 4179.70 405.136   2 
  -2  11  -1 3954.18 319.518   2 
  -2 -11  -1 3746.03 380.748   3 
  -2 -11  -1 4143.54 213.843   1 
   2  11   1 4106.91 432.069   2 
  -2 -11  -2 6161.88 487.572   2 
  -2  11  -2 5989.39 375.834   2 
   2  11   2 6523.21 548.218   2 
  -2 -11  -2 6205.61 481.220   3 
   2  11   3 1189.12 239.122   2 
  -2 -11  -3 1301.97 221.199   2 
  -2  11  -3 1245.39 167.446   2 
  -2 -11  -3 1308.24 226.319   3 
  -2  11  -4 979.463 143.956   2 
  -2 -11  -4 1068.54 211.013   3 
  -2 -11  -4 1071.16 200.974   2 
   2  11   4 1342.72 255.739   2 
  -2  11  -5 7083.71 388.044   2 
  -2 -11  -5 8367.28 565.353   2 
   2 -11   5 7410.75 500.086   2 
   2 -11   5 7242.70 307.611   3 
   2  11   5 8076.60 635.685   2 
  -2 -11  -5 8902.35 603.177   3 
   2  11   5 7752.18 568.377   3 
  -2  11  -6 1272.38 171.243   2 
   2 -11   6 1195.22 207.708   2 
   2 -11   6 1188.76 129.076   3 
   2  11   6 1103.14 217.856   3 
   2  11   6 1149.21 236.075   2 
  -2  11  -7 11151.6 508.582   2 
   2  11   7 10501.7 742.543   2 
   2 -11   7 10915.4 650.869   2 
   2 -11   7 10528.9 404.627   3 
   2  11   7 10470.9 667.545   3 
   2 -11   8 737.025 187.624   2 
   2  11   8 717.949 174.600   3 
  -2  11  -8 694.238 133.583   2 
   2  11   8 780.693 206.804   2 
   2 -11   8 514.134 91.6451   3 
   2 -11   9-36.3015 54.2898   3 
   2 -11   9 97.7238 95.5618   2 
  -2  11  -9 84.7414 65.8105   2 
   2  11   9-31.0457 54.1417   2 
  -2  11 -10 1685.15 211.740   2 
  -2 -11 -10 1607.85 128.195   1 
   2  11  10 1722.60 318.322   2 
   2 -11  10 1874.75 296.052   2 
   2  11  11 247.950 137.425   2 
   2 -11  11 79.1297 78.1466   2 
  -2 -11 -11 194.005 52.4151   1 
   2  11  12 623.791 209.849   2 
   2 -11  12 383.591 120.120   2 
   2  11  13 7464.60 723.439   2 
   2 -11  13 7554.98 649.252   2 
   2  11  14 595.761 210.470   2 
   2 -11  14 507.080 173.875   2 
   2  11  15 422.305 214.777   2 
   2 -11  15 156.582 113.989   2 
   2  11  16 2293.27 442.237   2 
   2 -11  16 2572.14 417.927   2 
   2  11  17 2091.93 438.081   2 
   2 -11  17 1943.25 387.288   2 
   2 -11  18 2332.89 425.014   2 
   2 -11  19 2066.31 418.781   2 
  -2  12  20 571.873 276.128   1 
  -2  12  19 52.2366 112.698   1 
  -2  12  19 142.284 118.973   2 
  -2  12  18 261.820 147.939   2 
  -2  12  18 307.711 202.145   1 
  -2  12  17 175.232 222.020   1 
  -2  12  16 2085.05 431.574   1 
  -2  12  15 857.614 280.029   1 
  -2  12  14 206.299 162.798   1 
  -2  12  13 1141.71 296.444   1 
  -2  12  12 226.878 133.684   1 
  -2  12  11-154.940 171.684   1 
  -2  12  10 1432.57 296.616   1 
  -2  12   9 1823.38 343.625   1 
  -2  12   8 787.178 230.039   1 
  -2 -12   7 5939.59 528.886   2 
  -2  12   7 6255.47 599.234   1 
   2  12  -7 6479.86 572.043   1 
  -2 -12   6 163.846 113.600   1 
  -2  12   6-121.361 108.037   1 
  -2 -12   6 54.0054 68.7962   2 
  -2  12   6 116.820 88.0203   3 
   2  12  -6-32.0960 77.1429   1 
  -2 -12   5 401.922 136.985   2 
  -2 -12   5 416.703 153.273   1 
  -2  12   5 192.450 101.586   1 
   2  12  -5 333.979 97.3651   1 
  -2  12   5 485.376 140.943   3 
  -2  12   4 2246.88 333.782   1 
   2  12  -4 2750.82 323.892   1 
  -2 -12   4 2499.58 330.307   2 
  -2  12   4 2549.81 297.041   3 
  -2 -12   4 2540.89 277.995   1 
  -2 -12   3-60.0478 44.6079   2 
  -2  12   3-49.4382 54.2597   3 
  -2 -12   3 90.8458 73.2838   1 
   2  12  -3 84.0364 91.1891   1 
  -2 -12   2 7031.91 562.826   3 
   2  12  -2 7429.02 463.703   1 
  -2 -12   2 7521.05 558.935   2 
  -2  12   2 8093.11 482.428   3 
  -2  12   2 7297.45 484.026   2 
  -2 -12   1 11413.8 705.869   3 
   2  12  -1 11104.9 535.100   1 
  -2 -12   1 11734.1 682.492   2 
  -2  12   1 11119.9 578.133   2 
  -2  12   1 11562.6 539.024   3 
  -2  12   0 255.113 84.1412   2 
  -2 -12   0 212.064 107.089   3 
  -2  12   0 245.134 78.4951   3 
   2  12   0 192.210 68.5715   1 
  -2 -12   0 192.258 95.0789   2 
  -2 -12  -1 1981.97 273.614   2 
  -2  12  -1 1661.93 200.119   2 
  -2 -12  -1 1661.02 266.360   3 
   2  12   1 2052.86 310.862   2 
  -2 -12  -2 118.443 61.3322   3 
   2  12   2 178.040 100.169   2 
  -2 -12  -2 182.933 88.6152   2 
  -2  12  -2 172.526 67.5752   2 
  -2 -12  -3 458.333 138.893   3 
   2  12   3 258.549 109.902   2 
  -2 -12  -3 426.481 116.167   2 
  -2  12  -3 338.317 89.8207   2 
  -2 -12  -4 3069.58 356.170   3 
  -2  12  -4 3138.08 247.861   2 
  -2 -12  -4 3421.97 356.216   2 
   2  12   4 2951.64 386.128   2 
  -2  12  -5 25350.8 722.052   2 
   2 -12   5 27733.1 949.842   2 
   2  12   5 27010.6 1155.65   2 
  -2 -12  -5 25333.4 1044.63   3 
   2 -12   5 25533.3 636.275   3 
   2 -12   6 310.384 73.2417   3 
   2  12   6 478.431 159.180   3 
   2 -12   6 283.970 102.781   2 
  -2  12  -6 318.834 86.1163   2 
   2  12   6 390.238 170.539   2 
   2 -12   7 97.6422 74.9557   2 
  -2  12  -7 255.029 85.9189   2 
   2 -12   7 84.3529 56.9147   3 
   2  12   7 306.084 171.242   2 
   2 -12   8 24.5711 56.4152   2 
   2 -12   8 12.3110 30.0421   3 
  -2  12  -8 66.7482 48.4305   2 
   2  12   8 45.3344 88.5080   2 
   2 -12   9 48.7739 73.0945   2 
   2 -12   9-17.0568 55.8249   3 
  -2  12  -9 103.239 60.8759   2 
   2  12   9 68.5145 65.5156   2 
  -2  12 -10 1876.89 218.007   2 
   2 -12  10 2125.49 238.481   3 
   2  12  10 2211.70 365.599   2 
   2 -12  10 2445.41 335.291   2 
   2  12  11 1891.83 345.948   2 
   2 -12  11 2221.19 333.329   2 
   2  12  12 82.6757 98.4005   2 
   2 -12  12-49.9938 108.133   2 
   2  12  13 2035.68 373.718   2 
   2 -12  13 2094.21 353.132   2 
   2  12  14-1.62346 76.9389   2 
   2 -12  14-35.2348 53.7347   2 
   2  12  15 436.035 179.247   2 
   2 -12  15 523.706 184.341   2 
   2 -12  16 1249.11 295.371   2 
   2  12  16 1175.05 324.212   2 
   2 -12  17 2259.05 410.889   2 
   2  12  17 1742.70 392.648   2 
   2 -12  18 115.150 161.944   2 
  -2  13  20 1129.00 333.297   1 
  -2  13  19 640.221 277.812   1 
  -2  13  18 388.905 166.354   2 
  -2  13  18 415.465 186.047   1 
  -2  13  17 3988.45 588.820   1 
  -2  13  16 634.805 300.776   1 
  -2  13  15 478.581 234.955   1 
  -2  13  14 369.556 237.456   1 
  -2  13  13 3210.57 490.075   1 
  -2  13  12 1024.21 268.707   1 
  -2  13  11 5057.38 593.921   1 
  -2  13  10 2404.90 378.533   1 
  -2  13   9 81.1847 116.399   1 
  -2  13   8 2912.24 429.842   1 
  -2  13   7 3031.69 430.436   1 
   2  13  -7 3317.24 411.179   1 
  -2  13   7 3262.06 391.147   3 
  -2 -13   7 3109.31 388.015   2 
  -2  13   6 2471.07 391.186   1 
   2  13  -6 2841.39 360.900   1 
  -2  13   6 3144.51 364.908   3 
  -2 -13   6 2668.59 352.315   2 
  -2  13   5 1806.77 271.607   3 
   2  13  -5 1893.60 282.350   1 
  -2 -13   5 1694.76 268.569   2 
  -2  13   5 1364.26 273.363   1 
  -2 -13   4 303.899 108.529   2 
  -2  13   4 389.730 134.657   1 
   2  13  -4 430.243 111.164   1 
  -2  13   4 590.340 144.810   3 
  -2  13   3-11.5671 39.3271   3 
  -2 -13   3 70.6462 75.5145   2 
   2  13  -3 71.7055 46.2484   1 
  -2  13   2 119.858 58.9200   3 
  -2 -13   2 112.895 87.2402   3 
  -2  13   2 141.881 64.9527   2 
   2  13  -2 144.238 73.7956   1 
  -2 -13   2 120.039 75.7059   2 
  -2  13   1 174.142 74.7637   3 
  -2 -13   1 76.8701 110.210   3 
  -2  13   1 115.568 74.7158   2 
   2  13  -1 84.0388 57.3042   1 
  -2 -13   1 71.7130 46.0287   2 
   2  13   0 6502.50 364.539   1 
  -2 -13   0 6550.66 503.601   2 
  -2  13   0 6438.39 408.622   2 
  -2 -13   0 6120.02 522.779   3 
  -2  13   0 6625.28 414.954   3 
  -2 -13  -1 42.3519 76.4620   3 
   2  13   1 208.591 124.725   2 
  -2 -13  -1 54.4233 60.1981   2 
  -2  13  -1 126.242 70.7284   2 
  -2 -13  -2-4.79106 64.6507   3 
   2  13   2 201.120 125.240   2 
  -2 -13  -2 88.7929 86.6823   2 
  -2  13  -2 9.90627 23.3087   2 
  -2 -13  -3 600.230 158.783   3 
   2  13   3 565.429 159.957   2 
  -2 -13  -3 338.305 104.687   2 
  -2  13  -3 355.034 78.9653   2 
   2  13   4 699.867 185.011   2 
  -2  13  -4 654.793 103.241   2 
  -2 -13  -4 642.201 149.760   2 
  -2 -13  -4 667.296 174.508   3 
  -2 -13  -5 2779.50 365.064   3 
  -2  13  -5 3133.17 247.109   2 
   2 -13   5 2866.48 236.628   3 
   2  13   5 2893.00 389.100   2 
  -2  13  -6 11790.3 483.719   2 
   2  13   6 10528.1 759.470   2 
   2 -13   6 11783.0 480.788   3 
   2 -13   6 11828.8 628.704   2 
  -2  13  -7 14197.4 540.709   2 
   2  13   7 12586.3 837.819   2 
   2 -13   7 14275.0 720.937   2 
   2 -13   7 13737.9 536.922   3 
  -2  13  -8 5255.26 340.406   2 
   2  13   8 5216.61 545.965   2 
   2 -13   8 5783.63 479.611   2 
   2 -13   8 5223.40 342.821   3 
  -2  13  -9 1509.33 184.489   2 
   2 -13   9 1649.84 199.178   3 
   2  13   9 1531.16 302.203   2 
   2 -13   9 1857.93 280.493   2 
   2 -13  10 1275.45 244.887   2 
   2  13  10 1139.12 260.236   2 
   2 -13  10 1030.54 170.566   3 
   2  13  11-82.0198 84.4522   2 
   2 -13  11 18.6428 51.6281   2 
   2  13  12 1171.31 286.919   2 
   2 -13  12 1806.87 301.411   2 
   2  13  13 25.3682 100.856   2 
   2 -13  13 57.3603 42.1389   2 
   2  13  14 940.547 270.101   2 
   2 -13  14 1033.41 250.831   2 
   2  13  15 61.3189 78.8301   2 
   2 -13  15 87.0516 105.031   2 
   2 -13  16 33.9515 67.4875   2 
   2  13  16 135.528 139.125   2 
   2 -13  17-45.6144 108.514   2 
  -2  14  19-27.8698 129.189   1 
  -2  14  18 1481.97 325.082   2 
  -2  14  18 1266.27 349.581   1 
  -2  14  17 565.599 241.794   1 
  -2  14  17 769.190 214.343   2 
  -2  14  16 2027.66 426.529   1 
  -2  14  15 525.223 253.854   1 
  -2  14  14 855.244 281.241   1 
  -2  14  13 223.291 118.579   1 
  -2  14  12 3739.51 519.700   1 
  -2  14  11 36.3259 133.956   1 
  -2  14  10 1057.48 257.161   1 
  -2  14   9 2320.34 384.652   1 
  -2 -14   8 773.417 194.651   2 
  -2  14   8 1035.80 265.552   1 
  -2  14   7 4212.09 507.087   1 
   2  14  -7 4138.96 458.038   1 
  -2 -14   7 4253.62 449.868   2 
  -2  14   6 10019.3 776.260   1 
   2  14  -6 10809.8 704.625   1 
  -2  14   6 11522.7 722.544   3 
  -2 -14   6 9732.97 669.741   2 
  -2  14   5-18.3462 113.139   1 
  -2 -14   5 105.104 68.8952   2 
   2  14  -5 144.809 57.3269   1 
  -2  14   5 213.841 112.512   3 
  -2  14   4-49.9111 64.4608   3 
  -2 -14   4-110.372 97.6122   2 
  -2  14   4-69.4625 135.017   1 
   2  14  -4-62.7955 107.890   1 
  -2 -14   3 968.131 197.454   2 
  -2  14   3 939.497 182.273   3 
  -2 -14   3 919.810 218.788   3 
   2  14  -3 860.196 168.306   1 
  -2  14   2 38.3424 35.0079   3 
  -2 -14   2 30.8623 68.8672   3 
  -2  14   2 74.7470 44.1649   2 
   2  14  -2 147.620 96.0562   1 
  -2 -14   2 63.3994 57.3397   2 
  -2  14   1 10536.5 570.600   3 
   2  14  -1 10582.5 507.440   1 
  -2 -14   1 10096.6 635.290   2 
  -2  14   1 10378.6 539.055   2 
  -2 -14   1 9861.66 689.231   3 
  -2  14   0 5248.74 389.748   3 
   2  14   0 4960.82 310.455   1 
  -2 -14   0 5508.18 466.192   2 
  -2  14   0 4696.38 338.758   2 
  -2 -14   0 4744.86 482.544   3 
  -2 -14  -1 3941.16 394.648   2 
   2  14   1 3990.59 445.071   2 
  -2  14  -1 3586.20 278.931   2 
  -2 -14  -1 3385.75 400.972   3 
  -2 -14  -2 3774.56 380.123   2 
  -2  14  -2 3357.70 256.533   2 
   2  14   2 3767.39 432.112   2 
  -2 -14  -2 3542.99 406.384   3 
  -2 -14  -3 383.409 132.863   3 
   2  14   3 284.281 117.159   2 
  -2  14  -3 259.796 58.8772   2 
  -2 -14  -3 277.849 92.0076   2 
   2  14   4 927.388 223.988   2 
   2 -14   4 645.318 118.390   3 
  -2 -14  -4 898.981 204.170   3 
  -2  14  -4 841.788 116.584   2 
   2  14   5 407.864 170.661   2 
  -2  14  -5 603.665 110.575   2 
   2 -14   5 444.676 94.8399   3 
  -2 -14  -5 498.052 154.622   3 
  -2  14  -6 1343.43 158.981   2 
   2  14   6 1265.64 276.841   2 
  -2 -14  -6 1421.34 278.514   3 
   2 -14   6 1254.59 172.819   3 
   2 -14   6 1368.51 211.906   2 
   2 -14   7 181.682 76.7186   3 
   2 -14   7 183.955 91.4561   2 
  -2  14  -7 243.603 77.4498   2 
   2  14   7 246.577 117.381   2 
  -2  14  -8 9317.38 432.707   2 
   2  14   8 9620.80 752.700   2 
   2 -14   8 10684.6 632.358   2 
   2 -14   8 9356.31 480.995   3 
   2 -14   9 926.206 203.110   2 
   2  14   9 852.072 226.013   2 
   2 -14   9 799.165 142.555   3 
   2 -14  10 356.865 125.980   2 
   2 -14  10 242.124 79.7895   3 
   2  14  10 249.534 122.233   2 
   2  14  11 2241.06 383.722   2 
   2 -14  11 2447.89 343.453   2 
   2  14  12-30.9913 95.0062   2 
   2 -14  12 271.325 119.513   2 
   2 -14  13 1390.69 275.071   2 
   2  14  13 1147.87 289.010   2 
   2  14  14 3765.00 547.818   2 
   2 -14  14 4121.75 497.867   2 
   2  14  15 6.76478 75.8413   2 
   2 -14  15 90.3562 62.6983   2 
   2  14  16 442.028 186.065   2 
   2 -14  16 550.681 191.732   2 
  -2  15  19 206.606 168.945   1 
  -2  15  18 1016.56 263.295   2 
  -2  15  18 712.689 249.986   1 
  -2  15  17 0.26056 89.2140   2 
  -2  15  17 137.002 186.372   1 
  -2  15  16 344.912 136.414   2 
  -2  15  16 719.118 287.739   1 
  -2  15  15 833.881 283.457   1 
  -2  15  14 871.367 263.675   1 
  -2  15  13 432.663 178.767   1 
  -2  15  12 306.572 153.023   1 
  -2  15  11 127.617 82.1097   1 
  -2  15  10-204.468 131.942   1 
  -2  15   9 1129.78 263.070   1 
  -2 -15   8 959.990 228.397   2 
  -2  15   8 1159.63 261.631   1 
  -2 -15   7 458.770 161.918   2 
  -2  15   7 367.560 151.864   1 
   2  15  -7 632.525 175.332   1 
  -2 -15   6 25.1594 85.7643   2 
  -2  15   6 62.2924 134.810   1 
  -2  15   6 154.634 120.010   3 
   2  15  -6 114.893 109.019   1 
  -2  15   5 11.2746 48.3435   3 
  -2 -15   5 3.17111 62.4078   2 
   2  15  -5 36.6746 67.9863   1 
  -2  15   4 141.168 80.4663   3 
  -2 -15   4 19.3063 81.4757   2 
   2  15  -4 16.2898 96.4578   1 
  -2  15   3-7.53622 45.5822   3 
  -2 -15   3-60.1189 111.677   3 
   2  15  -3-90.3922 118.617   1 
  -2 -15   3-143.372 122.805   2 
   2  15  -2 3986.59 349.900   1 
  -2 -15   2 4126.12 411.382   2 
  -2  15   2 4043.00 376.002   3 
  -2  15   2 4074.53 346.216   2 
  -2 -15   2 3833.89 454.196   3 
  -2 -15   1 949.201 215.736   3 
   2  15  -1 1000.46 158.239   1 
  -2  15   1 1164.38 181.815   2 
  -2 -15   1 953.409 191.398   2 
  -2  15   1 1102.53 187.336   3 
   2  15   0 1681.96 181.421   1 
  -2 -15   0 1842.33 273.634   2 
  -2  15   0 1762.24 205.283   2 
  -2 -15   0 1696.77 311.636   3 
  -2  15   0 1946.40 253.024   3 
  -2 -15  -1 3059.18 356.335   2 
  -2  15  -1 2715.15 232.266   2 
  -2 -15  -1 2924.32 385.743   3 
   2  15   1 2890.00 398.482   2 
  -2 -15  -2 317.423 153.485   3 
   2  15   2 364.549 160.952   2 
  -2 -15  -2 469.733 139.074   2 
  -2  15  -2 397.956 82.0436   2 
  -2 -15  -3 46.5970 61.8899   3 
   2  15   3 22.9164 70.4735   2 
  -2  15  -3 105.703 23.4319   2 
  -2 -15  -3 209.107 79.3979   2 
  -2  15  -4 5728.31 294.289   2 
   2  15   4 5459.84 538.957   2 
   2 -15   4 5728.16 374.678   3 
  -2 -15  -4 5575.10 527.994   3 
  -2  15  -5 57.1301 38.7770   2 
   2 -15   5-29.5231 61.6904   3 
   2  15   5 33.6953 71.4596   2 
  -2 -15  -5 2.45501 62.1677   3 
  -2  15  -6 4456.76 269.664   2 
   2  15   6 4306.51 491.096   2 
  -2 -15  -6 4346.00 481.000   3 
   2 -15   6 4102.12 326.219   3 
  -2  15  -7 4614.93 286.340   2 
   2  15   7 4208.17 496.467   2 
   2 -15   7 4289.91 341.763   3 
   2 -15   7 5083.13 409.229   2 
   2  15   8 1481.79 307.286   2 
   2 -15   8 1301.59 221.307   2 
   2 -15   8 1364.39 196.735   3 
   2 -15   9 147.143 73.3199   3 
   2 -15   9 237.014 98.5975   2 
   2  15   9 218.843 129.093   2 
   2 -15  10 792.349 186.425   2 
   2  15  10 732.565 227.924   2 
   2 -15  11 149.658 94.9434   2 
   2  15  11 29.1116 75.3648   2 
   2  15  12 1671.20 350.965   2 
   2 -15  12 1789.64 301.615   2 
   2 -15  13-41.5581 88.3938   2 
   2  15  13-44.0482 47.2047   2 
   2  15  14 223.331 146.989   2 
   2 -15  14 229.624 101.031   2 
   2  15  15 945.969 283.884   2 
   2  15  16 103.577 76.9881   2 
  -2  16  19 91.4369 96.4135   1 
  -2  16  18 623.299 223.199   2 
  -2  16  18-3.18899 100.898   1 
  -2  16  17 143.354 79.7672   2 
  -2  16  17 362.737 177.889   1 
  -2  16  16-5.39594 54.4109   2 
  -2  16  16 178.164 200.842   1 
  -2  16  15 528.983 173.813   2 
  -2  16  15 902.573 283.069   1 
  -2  16  14 49.8211 76.6533   1 
  -2  16  13 309.588 181.171   1 
  -2  16  12 3509.47 512.560   1 
  -2  16  11-168.756 177.285   1 
  -2  16  10 2272.24 398.892   1 
  -2  16   9 314.076 162.379   1 
  -2 -16   8 279.338 114.877   2 
  -2  16   8 313.956 168.038   1 
  -2 -16   7 2479.13 343.305   2 
  -2  16   7 2539.57 403.435   1 
  -2  16   6 4839.17 550.529   1 
  -2 -16   6 5105.76 489.697   2 
   2  16  -6 4833.89 473.847   1 
  -2  16   5 18.7110 71.0692   1 
  -2  16   5 265.723 117.471   3 
  -2 -16   5 176.410 79.3076   2 
   2  16  -5 147.609 64.8659   1 
  -2  16   4 882.912 201.254   3 
  -2 -16   4 761.009 216.110   3 
  -2 -16   4 849.596 196.317   2 
  -2  16   4 1001.86 239.708   1 
   2  16  -4 894.785 183.495   1 
  -2 -16   3-87.0091 106.350   3 
  -2  16   3 87.6700 72.3881   3 
   2  16  -3-14.0636 98.3459   1 
  -2 -16   3-49.3349 107.237   2 
  -2  16   2-16.4465 62.4286   3 
  -2 -16   2-44.5264 81.0233   3 
  -2  16   2 43.5684 37.3660   2 
   2  16  -2 3.22465 44.0465   1 
  -2 -16   2 1.98032 89.3306   2 
  -2 -16   1 2548.18 377.389   3 
   2  16  -1 2660.75 259.937   1 
  -2 -16   1 2810.34 338.539   2 
  -2  16   1 2839.55 322.988   3 
  -2  16   1 2978.60 282.145   2 
   2  16   0 19522.8 604.577   1 
  -2 -16   0 19954.4 895.080   2 
  -2  16   0 18693.4 634.101   2 
  -2 -16   0 18776.5 997.826   3 
  -2  16   0 20100.5 833.932   3 
   2  16   1 1921.93 320.829   2 
  -2 -16  -1 1740.39 265.129   2 
  -2  16  -1 1634.58 171.090   2 
  -2 -16  -1 1743.76 311.085   3 
  -2  16  -2 7820.71 343.254   2 
  -2 -16  -2 8218.63 564.803   2 
  -2 -16  -2 7793.81 652.758   3 
   2  16   2 7837.26 632.885   2 
  -2 -16  -3 145.729 89.3486   3 
   2  16   3 241.036 97.0107   2 
  -2  16  -3 202.710 52.0790   2 
  -2 -16  -3 136.392 61.8157   2 
   2  16   4 706.850 195.439   2 
  -2  16  -4 751.967 101.808   2 
   2 -16   4 658.075 139.091   3 
  -2 -16  -4 559.579 178.482   3 
  -2  16  -5 3105.12 206.545   2 
   2  16   5 2871.42 403.856   2 
   2 -16   5 3046.27 294.959   3 
  -2 -16  -5 2823.87 399.013   3 
   2  16   6 1406.28 289.327   2 
  -2  16  -6 1665.17 162.437   2 
  -2 -16  -6 1501.94 295.883   3 
   2 -16   6 1133.44 177.086   3 
   2 -16   7 508.884 120.797   3 
   2  16   7 355.324 148.059   2 
   2  16   8 2157.12 363.942   2 
   2 -16   8 2408.39 286.828   2 
   2  16   9 4274.59 519.454   2 
   2 -16   9 5189.99 441.214   2 
   2 -16  10 848.593 182.960   2 
   2  16  10 555.427 184.694   2 
   2 -16  11 714.421 176.480   2 
   2  16  11 521.805 176.242   2 
   2  16  12 1976.31 370.642   2 
   2 -16  12 2157.73 326.986   2 
   2  16  13-53.4565 77.0524   2 
   2  16  14 2269.44 430.124   2 
   2  16  15 49.7758 79.1813   2 
   2  16  16-21.0905 98.5258   2 
  -2  17  18-44.5058 63.7500   2 
  -2  17  18 36.0521 147.991   1 
  -2  17  17 853.425 243.094   2 
  -2  17  17 1277.02 355.083   1 
  -2  17  16-27.7003 71.7172   2 
  -2  17  16 249.410 195.845   1 
  -2  17  15 123.753 96.0300   2 
  -2  17  15 137.909 175.874   1 
  -2  17  14 536.171 217.855   1 
  -2  17  14 505.345 156.679   2 
  -2  17  13 578.345 186.961   1 
  -2  17  12-25.6110 142.658   1 
  -2  17  11 887.943 229.516   1 
  -2  17  10 2315.91 406.179   1 
  -2  17   9 271.725 123.773   1 
  -2  17   8 1222.48 280.657   1 
  -2 -17   8 1331.23 261.819   2 
  -2  17   7 3219.25 460.761   1 
  -2 -17   7 2708.30 366.716   2 
   2  17  -6 127.632 116.268   1 
  -2 -17   6-83.9137 81.4637   2 
  -2  17   6 35.0188 103.769   1 
  -2  17   5 3240.32 455.554   1 
   2  17  -5 3421.38 377.753   1 
  -2 -17   5 3755.41 495.070   3 
  -2 -17   5 3495.71 401.137   2 
  -2  17   4 1037.92 218.454   3 
  -2 -17   4 884.213 233.912   3 
  -2  17   4 778.610 210.123   1 
   2  17  -4 910.323 180.589   1 
  -2 -17   4 980.982 202.713   2 
  -2  17   3 953.762 177.612   2 
  -2 -17   3 853.037 234.991   3 
   2  17  -3 1075.66 195.458   1 
  -2 -17   3 945.848 196.671   2 
  -2  17   3 1190.28 221.313   3 
  -2  17   2-22.0067 74.8582   3 
  -2  17   2 197.528 66.5401   2 
   2  17  -2 41.6640 49.3219   1 
  -2 -17   2 45.3061 40.8451   2 
  -2 -17   2 32.1892 61.1462   3 
   2  17  -1 10826.3 505.510   1 
  -2 -17   1 11324.1 682.321   2 
  -2 -17   1 10970.2 794.240   3 
  -2  17   1 11759.3 529.326   2 
  -2  17   1 11938.0 687.624   3 
   2  17   0 3273.08 245.662   1 
  -2 -17   0 3429.28 370.229   2 
  -2  17   0 3090.20 250.884   2 
  -2 -17   0 3337.94 437.655   3 
  -2 -17  -1 1177.80 262.933   3 
   2  17   1 1104.30 252.871   2 
  -2  17  -1 836.819 112.223   2 
  -2 -17  -1 894.045 193.938   2 
  -2 -17  -2 489.346 169.901   3 
   2  17   2 456.560 161.891   2 
  -2  17  -2 267.446 55.5479   2 
  -2 -17  -2 329.548 107.360   2 
  -2 -17  -3 116.608 57.0130   3 
   2  17   3 261.008 105.878   2 
  -2  17  -3 362.072 67.1097   2 
  -2  17  -4 3169.77 186.770   2 
   2  17   4 3154.55 418.970   2 
  -2 -17  -4 3030.08 416.331   3 
   2  17   5 313.157 149.144   2 
  -2  17  -5 315.465 62.5605   2 
  -2 -17  -5 355.506 153.126   3 
  -2 -17  -6 4146.22 495.321   3 
   2  17   6 4216.22 503.415   2 
   2  17   7 393.935 144.198   2 
   2  17   8-31.8888 72.7509   2 
   2 -17   9 829.277 174.096   2 
   2  17   9 914.746 249.858   2 
   2 -17  10 36.6278 50.6230   2 
   2  17  10-29.6436 97.2991   2 
   2  17  11-17.6923 56.9870   2 
   2  17  12 762.807 235.555   2 
   2  17  13 3603.94 527.127   2 
   2  17  14 32.1707 76.1623   2 
   2  17  15 25.7813 69.4152   2 
  -2  18  18-6.84317 104.198   1 
  -2  18  17 163.396 102.876   2 
  -2  18  17 730.061 263.408   1 
  -2  18  16-24.8016 58.6211   2 
  -2  18  16 101.397 127.714   1 
  -2  18  15 519.788 245.231   1 
  -2  18  15 326.104 129.934   2 
  -2  18  14 22.0558 88.4014   1 
  -2  18  14 44.0633 55.2372   2 
  -2  18  13 123.979 94.1156   2 
  -2  18  13 82.1277 74.2291   1 
  -2  18  12-254.090 217.346   1 
  -2  18  11-151.836 195.007   1 
  -2  18  10 686.928 237.990   1 
  -2  18   9 152.620 124.670   1 
  -2  18   8 415.675 170.285   1 
  -2  18   7 9224.12 801.688   1 
  -2 -18   7 9000.65 667.812   2 
   2  18  -6 127.318 89.7606   1 
  -2 -18   6 31.1176 59.4628   2 
  -2  18   6 264.410 152.092   1 
  -2 -18   5 1257.11 286.889   3 
  -2  18   5 943.761 257.374   1 
  -2 -18   5 1146.16 227.542   2 
   2  18  -5 937.811 203.250   1 
  -2 -18   4 512.026 185.691   3 
   2  18  -4 484.543 138.491   1 
  -2  18   4 543.197 163.967   1 
  -2 -18   4 460.484 120.664   2 
  -2  18   3 1049.12 224.490   3 
  -2 -18   3 1006.39 253.512   3 
   2  18  -3 1187.85 205.793   1 
  -2 -18   3 830.435 183.671   2 
  -2  18   3 1185.01 188.438   2 
  -2 -18   2 1410.38 284.212   3 
   2  18  -2 1252.10 188.811   1 
  -2 -18   2 1411.90 244.725   2 
  -2  18   2 1187.76 179.114   2 
  -2  18   2 1461.92 251.141   3 
   2  18  -1 3787.72 301.731   1 
  -2 -18   1 3989.11 404.240   2 
  -2  18   1 3963.81 293.737   2 
  -2 -18   1 4015.36 505.430   3 
  -2  18   1 3960.44 414.876   3 
   2  18   0 7816.45 368.181   1 
  -2 -18   0 8295.77 573.944   2 
  -2  18   0 7531.50 354.679   2 
  -2 -18   0 7248.00 658.331   3 
  -2 -18  -1 129.909 94.6612   3 
  -2 -18  -1 142.647 60.1257   2 
  -2  18  -1 92.7685 30.6864   2 
  -2 -18  -2-121.925 127.963   3 
   2  18   2 33.0775 66.5249   2 
  -2  18  -2 35.7192 25.1494   2 
  -2 -18  -2 17.0984 52.7044   2 
  -2 -18  -3 1251.75 263.310   3 
  -2  18  -3 1312.89 103.597   2 
   2  18   3 1564.57 298.616   2 
   2  18   4 1329.78 265.564   2 
  -2  18  -4 924.470 85.3974   2 
  -2 -18  -4 1148.88 265.933   3 
   2  18   5 6977.06 637.778   2 
  -2 -18  -5 7197.28 660.625   3 
   2  18   6-5.46370 69.7863   2 
  -2 -18  -6 14.9447 88.7916   3 
   2  18   7 2524.76 389.283   2 
   2  18   8 2755.25 428.266   2 
   2  18   9-3.23448 50.9237   2 
   2 -18  10 177.577 79.3841   3 
   2  18  10 127.454 65.3739   2 
   2  18  11 3786.31 523.752   2 
   2  18  12 130.068 85.7116   2 
   2  18  13 2117.25 408.265   2 
   2  18  14-9.84395 91.1395   2 
   2  18  15 8.37629 78.9740   2 
  -2  19  17 14.4891 88.0222   2 
  -2  19  17 589.653 251.397   1 
  -2  19  16 86.1911 67.1918   2 
  -2  19  16 694.039 267.258   1 
  -2  19  15-76.8442 78.6998   1 
  -2  19  15-1.96133 51.1768   2 
  -2  19  14 313.427 144.159   2 
  -2  19  14 57.2533 122.465   1 
  -2  19  13 1943.15 310.454   2 
  -2  19  13 1581.22 356.864   1 
  -2  19  12 150.351 82.2178   2 
  -2  19  12-18.6905 138.312   1 
  -2  19  11 186.080 93.8139   2 
  -2  19  11-6.82379 134.129   1 
  -2  19  10 1412.09 333.855   1 
  -2  19   9 1575.64 350.335   1 
  -2  19   8 279.508 161.733   1 
  -2  19   7 3905.69 522.603   1 
  -2 -19   6 954.213 209.442   2 
   2  19  -6 798.777 213.997   1 
  -2  19   6 873.044 250.059   1 
  -2 -19   6 1148.80 299.523   3 
  -2  19   5 1442.91 294.213   1 
  -2 -19   5 1554.82 327.823   3 
   2  19  -5 1688.92 268.455   1 
  -2 -19   5 1549.82 256.040   2 
  -2 -19   4 848.885 255.482   3 
  -2  19   4 640.775 184.588   1 
  -2 -19   4 633.884 160.875   2 
   2  19  -4 831.583 177.402   1 
  -2 -19   3 400.144 148.617   3 
  -2  19   3 527.246 125.513   2 
  -2 -19   3 414.777 140.334   2 
   2  19  -3 418.189 107.626   1 
   2  19  -2 3869.28 347.128   1 
  -2 -19   2 3803.99 397.092   2 
  -2  19   2 3634.23 299.841   2 
  -2 -19   2 3400.36 476.794   3 
  -2  19   2 3728.44 424.776   3 
  -2  19   1 3417.05 400.093   3 
   2  19  -1 3284.87 279.707   1 
  -2 -19   1 3612.46 385.605   2 
  -2  19   1 3112.05 244.620   2 
  -2 -19   1 3657.64 483.797   3 
  -2 -19   0 304.665 149.662   3 
   2  19   0 227.031 66.2952   1 
  -2 -19   0 274.647 106.994   2 
  -2  19   0 239.552 56.6402   2 
  -2  19  -1 1280.60 101.724   2 
  -2 -19  -1 1609.77 251.159   2 
  -2 -19  -1 1726.25 341.183   3 
  -2 -19  -2 368.679 160.030   3 
  -2  19  -2 409.129 44.2384   2 
   2  19   2 585.934 188.872   2 
  -2 -19  -3 11.8379 70.8706   3 
   2  19   3 25.3263 90.8161   2 
   2  19   4 473.474 188.683   2 
   2 -19   4 228.875 89.8870   3 
  -2 -19  -4 196.271 85.3787   3 
   2  19   5 574.852 183.462   2 
   2 -19   5 551.348 147.528   3 
  -2 -19  -5 436.440 175.643   3 
   2  19   6 200.554 130.473   2 
  -2 -19  -6 271.179 149.558   3 
   2 -19   6 147.477 74.2439   3 
   2  19   7 77.3923 60.6265   2 
   2 -19   7 284.986 113.741   3 
   2  19   8 543.088 203.859   2 
   2 -19   8 713.701 165.056   3 
   2 -19   9 792.716 178.489   3 
   2  19   9 623.840 213.650   2 
   2  19  10 1725.24 356.983   2 
   2  19  11-127.137 117.373   2 
   2  19  12 988.793 278.718   2 
   2  19  13 2951.79 514.230   2 
   2  19  14 1122.40 327.521   2 
   2  19  15 14.5192 109.949   2 
  -2  20  17 53.9814 63.5693   2 
  -2  20  17 388.946 237.576   1 
  -2  20  16-32.1054 68.6702   2 
  -2  20  16 393.909 188.184   1 
  -2  20  15 350.883 198.196   1 
  -2  20  15 216.394 103.805   2 
  -2  20  14 59.0825 96.7715   1 
  -2  20  14 213.014 132.878   2 
  -2  20  13-9.78947 59.1780   2 
  -2  20  13-51.4432 111.330   1 
  -2  20  12 714.470 181.704   2 
  -2  20  12 553.573 224.940   1 
  -2  20  11 933.557 194.650   2 
  -2  20  11 866.078 243.712   1 
  -2  20  10 435.709 131.470   2 
  -2  20  10 506.851 207.652   1 
  -2  20   9 4430.75 372.621   2 
  -2  20   9 4206.07 551.430   1 
  -2  20   8 1135.05 298.248   1 
  -2 -20   7 6.45642 86.3733   3 
  -2  20   7 45.7875 97.1143   1 
  -2  20   6 2948.88 460.701   1 
  -2 -20   6 2996.17 481.516   3 
  -2  20   5 1463.97 311.740   1 
  -2 -20   5 1595.23 356.704   3 
   2  20  -5 1632.71 265.737   1 
  -2 -20   5 1437.39 252.807   2 
  -2 -20   4 880.362 252.796   3 
  -2  20   4 683.369 190.432   1 
  -2 -20   4 868.493 189.616   2 
   2  20  -4 889.366 184.573   1 
  -2  20   3 3887.22 333.076   2 
   2  20  -3 3466.59 355.291   1 
  -2 -20   3 3714.13 395.184   2 
  -2 -20   3 3672.57 500.581   3 
  -2  20   2 481.279 102.790   2 
  -2 -20   2 168.266 136.826   3 
   2  20  -2 270.509 90.3210   1 
  -2 -20   2 396.990 117.762   2 
  -2 -20   1 2672.19 326.597   2 
   2  20  -1 2747.16 258.972   1 
  -2  20   1 2617.45 201.045   2 
  -2 -20   1 2616.12 428.366   3 
  -2  20   1 2880.10 382.746   3 
   2  20   0 4210.97 261.591   1 
  -2 -20   0 4460.10 418.922   2 
  -2  20   0 3909.04 177.295   2 
  -2 -20   0 4174.24 532.221   3 
  -2 -20  -1 1959.65 277.643   2 
  -2 -20  -1 1962.69 372.110   3 
  -2 -20  -2 423.709 187.318   3 
   2  20   2 424.713 169.609   2 
  -2 -20  -3 50.3490 67.9884   3 
   2  20   3 11.4589 45.6548   2 
   2  20   4-11.6256 57.1347   2 
   2 -20   4 29.9016 35.7561   3 
  -2 -20  -4 11.7020 72.3219   3 
   2  20   5 1822.77 343.003   2 
   2 -20   5 1735.42 265.587   3 
  -2 -20  -5 1534.61 325.605   3 
   2  20   6 1930.18 366.344   2 
  -2 -20  -6 1434.77 319.621   3 
   2 -20   6 1907.23 277.702   3 
   2  20   7 66.9298 95.5567   2 
   2 -20   7 50.7604 49.9177   3 
   2  20   8 2375.26 402.895   2 
   2 -20   8 2398.37 319.060   3 
   2  20   9-13.3602 83.8016   2 
   2  20  10 167.117 124.080   2 
   2  20  11 1296.28 321.162   2 
   2  20  12 287.750 140.091   2 
   2  20  13 765.996 256.440   2 
   2  20  14 1068.51 307.423   2 
  -2  21  16 23.3681 55.9302   2 
  -2  21  16 489.948 216.306   1 
  -2  21  15 569.558 245.859   1 
  -2  21  15 534.856 174.868   2 
  -2  21  14 188.936 156.589   1 
  -2  21  14 259.567 107.851   2 
  -2  21  13 61.1522 53.2068   2 
  -2  21  13-81.6520 116.466   1 
  -2  21  12 21.7538 90.1904   2 
  -2  21  12-197.880 184.257   1 
  -2  21  11 374.818 119.147   2 
  -2  21  11-93.7963 190.838   1 
  -2  21  10 54.5314 70.7732   2 
  -2  21  10 38.9586 86.9407   1 
  -2  21   9 198.722 100.352   2 
  -2  21   9 44.6129 99.6922   1 
  -2  21   8 7396.30 469.949   2 
  -2  21   8 6391.60 689.233   1 
  -2 -21   8 7332.60 785.436   3 
  -2 -21   7 183.533 142.577   3 
  -2  21   7-23.1122 90.5581   1 
  -2  21   7 113.567 71.6638   2 
  -2  21   6 30.4418 124.495   1 
  -2 -21   6 31.0760 59.7950   3 
  -2  21   6 19.1703 35.3698   2 
  -2  21   5 152.662 68.8859   1 
  -2 -21   5 204.986 146.145   3 
  -2  21   5 369.273 90.8820   2 
  -2 -21   4 107.219 114.218   3 
  -2  21   4 5.18320 29.1159   2 
  -2  21   4-6.31364 64.6423   1 
  -2 -21   3 414.681 188.312   3 
  -2  21   3 422.089 79.5751   2 
  -2  21   2 2450.11 167.550   2 
  -2 -21   2 2384.81 418.206   3 
  -2 -21   1 1585.55 344.882   3 
  -2 -21   0 141.163 138.698   3 
  -2 -21  -1 750.497 245.796   3 
  -2 -21  -2-28.2389 64.3019   3 
  -2 -21  -3 1145.70 270.557   3 
   2  21   3 658.792 193.608   2 
   2 -21   4 2020.52 289.247   3 
  -2 -21  -4 2121.68 387.536   3 
   2  21   4 2224.52 371.539   2 
   2  21   5-52.3449 86.7808   2 
   2 -21   5 49.9128 56.6643   3 
  -2 -21  -5-37.1111 117.454   3 
  -2 -21  -6 1941.99 384.982   3 
   2  21   6 1715.19 330.279   2 
   2 -21   6 1693.28 270.968   3 
   2  21   7 2558.61 416.997   2 
   2 -21   7 2588.31 338.286   3 
   2 -21   8 434.920 134.680   3 
   2  21   8 456.566 161.323   2 
   2  21   9 533.006 201.465   2 
   2  21  10 790.488 244.778   2 
   2  21  11 847.834 277.498   2 
   2  21  12 2320.51 437.350   2 
   2  21  13-109.363 135.812   2 
   2  21  14 178.613 155.572   2 
  -2  22  15 69.0547 116.654   1 
  -2  22  15-143.341 121.693   2 
  -2  22  14 469.769 192.729   1 
  -2  22  14 438.274 131.761   2 
  -2  22  13 268.132 125.098   2 
  -2  22  13-23.9614 152.605   1 
  -2  22  12 186.940 102.925   2 
  -2  22  12 72.3257 156.970   1 
  -2  22  11 103.336 80.4419   2 
  -2  22  11-13.7829 134.199   1 
  -2  22  10-14.7288 41.7509   2 
  -2  22  10-93.4791 90.3254   1 
  -2 -22   9 216.801 140.041   3 
  -2  22   9 38.7877 31.7648   2 
  -2  22   9 97.5595 139.617   1 
  -2 -22   8 203.440 180.574   3 
  -2  22   8 75.4540 100.108   1 
  -2  22   8 115.431 87.8004   2 
  -2 -22   7 127.149 130.596   3 
  -2  22   7 42.9651 81.8074   1 
  -2  22   7 388.182 118.401   2 
  -2  22   6 3757.83 302.053   2 
  -2  22   6 3163.35 491.058   1 
  -2 -22   6 3596.97 555.801   3 
  -2  22   5-39.9637 139.843   1 
  -2 -22   5-25.6863 130.725   3 
  -2  22   4 958.755 265.680   1 
  -2 -22   4 841.156 260.700   3 
  -2 -22   3 1625.80 353.654   3 
  -2 -22   2 2451.19 424.091   3 
  -2 -22   1 1661.59 358.591   3 
  -2 -22   0 3546.48 511.505   3 
  -2 -22  -1 584.641 219.614   3 
  -2 -22  -2 375.788 169.149   3 
   2  22   3 780.948 230.326   2 
  -2 -22  -3 737.352 221.324   3 
   2  22   4 1021.45 257.335   2 
  -2 -22  -4 1159.08 287.676   3 
   2  22   5 672.741 219.694   2 
   2 -22   5 666.682 175.406   3 
  -2 -22  -5 792.051 249.853   3 
   2  22   6 697.445 223.568   2 
   2 -22   6 851.496 193.089   3 
   2  22   7 1534.31 330.535   2 
   2 -22   7 1568.39 276.869   3 
   2  22   8 1041.33 271.176   2 
   2  22   9 432.740 169.094   2 
   2  22  10 1628.93 347.887   2 
   2  22  11 55.5898 114.255   2 
   2  22  12 770.823 249.655   2 
   2  22  13 101.758 136.046   2 
   2  22  14 349.542 163.701   2 
  -2  23  14 154.722 140.064   1 
  -2  23  13 608.062 215.715   1 
  -2  23  12 222.919 107.220   1 
  -2  23  11 98.1306 90.3912   1 
  -2 -23  10 67.9849 153.348   3 
  -2  23  10 193.760 135.887   1 
  -2 -23   9 51.4124 140.813   3 
  -2  23   9 175.880 132.749   1 
  -2 -23   8 1664.68 401.418   3 
  -2  23   8 1321.33 322.801   1 
  -2 -23   7 9.28175 64.3418   3 
  -2  23   7-10.0389 73.0252   1 
  -2 -23   6 116.124 116.951   3 
  -2  23   6 40.1406 128.964   1 
  -2  23   5 240.145 151.411   1 
  -2 -23   5 413.651 175.366   3 
  -2  23   4 2407.43 428.282   1 
  -2 -23   4 2110.63 414.570   3 
  -2 -23   3 333.318 207.538   3 
  -2 -23   2 2042.01 398.055   3 
  -2 -23   1 656.798 228.095   3 
  -2 -23   0 1168.88 309.761   3 
  -2 -23  -1 3560.55 532.429   3 
  -2 -23  -2 2049.73 394.787   3 
   2  23   3 243.051 137.138   2 
  -2 -23  -3 51.1981 99.0181   3 
   2  23   4 83.1348 70.2526   2 
  -2 -23  -4 121.663 114.917   3 
   2  23   5 585.138 197.187   2 
   2 -23   5 632.500 180.783   3 
  -2 -23  -5 417.363 189.093   3 
   2  23   6 985.242 259.634   2 
   2 -23   6 953.516 219.063   3 
   2  23   7 1264.87 299.792   2 
   2  23   8 349.127 168.401   2 
   2  23   9 1365.67 317.618   2 
   2  23  10 77.6005 63.1015   2 
   2  23  11-205.279 174.240   2 
   2  23  12 946.468 293.881   2 
   2  23  13 141.352 163.776   2 
  -2  24  13-22.8107 145.564   1 
  -2  24  12-233.771 235.077   1 
  -2  24  11 373.860 173.036   1 
  -2 -24  10 1755.73 416.490   3 
  -2  24  10 1819.21 384.069   1 
  -2 -24   9 648.009 276.043   3 
  -2  24   9 270.893 167.763   1 
  -2 -24   8 719.174 256.860   3 
  -2  24   8 355.839 170.612   1 
  -2 -24   7 110.521 113.100   3 
  -2  24   7-100.313 138.310   1 
  -2 -24   6 151.966 141.002   3 
  -2  24   6-74.8583 110.353   1 
  -2  24   5 477.449 192.473   1 
  -2 -24   5 656.759 255.579   3 
  -2 -24   4 711.925 263.614   3 
  -2  24   4 735.673 218.772   1 
  -2 -24   3 971.528 276.928   3 
  -2 -24   2 634.574 244.018   3 
  -2 -24   1 1742.30 383.299   3 
  -2 -24   0 5.48990 89.2092   3 
  -2 -24  -1 1491.16 364.391   3 
  -2 -24  -2 1281.22 325.444   3 
  -2 -24  -3 131.355 108.521   3 
  -2 -24  -4 1978.61 412.533   3 
   2  24   4 1797.64 350.447   2 
   2  24   5 1559.23 326.638   2 
   2 -24   5 1576.53 287.032   3 
  -2 -24  -5 1558.35 365.410   3 
   2  24   6-23.1171 68.8542   2 
   2  24   7 500.485 205.445   2 
   2  24   8 9.61113 108.698   2 
   2  24   9 601.558 226.241   2 
   2  24  10 713.881 239.200   2 
   2  24  11 828.887 253.822   2 
   2  24  12-29.5239 82.6144   2 
   2  24  13 459.145 202.996   2 
  -2  25  12-70.1885 110.470   1 
  -2  25  11 10.8017 94.1814   1 
  -2  25  10 615.235 242.964   1 
  -2  25   9 295.730 155.426   1 
  -2 -25   8 473.144 225.208   3 
  -2  25   8 369.650 202.265   1 
  -2 -25   7 537.089 225.069   3 
  -2  25   7 259.844 168.345   1 
  -2 -25   6 12.7990 78.2548   3 
  -2  25   6-6.32313 138.749   1 
  -2  25   5 150.950 132.444   1 
  -2 -25   5 197.701 150.346   3 
  -2  25   4 471.367 175.994   1 
  -2 -25   4 617.486 224.359   3 
  -2 -25   3 372.082 166.708   3 
  -2 -25   2 586.860 212.368   3 
  -2 -25   1 810.316 275.163   3 
  -2 -25   0 237.284 168.104   3 
  -2 -25  -1 361.091 194.885   3 
  -2 -25  -2 1857.87 396.296   3 
  -2 -25  -3 941.902 287.740   3 
   2  25   4 527.346 209.459   2 
  -2 -25  -4 775.684 271.112   3 
   2  25   5 88.0487 92.1671   2 
  -2 -25  -5 95.2757 120.836   3 
   2  25   6 1128.72 299.000   2 
   2  25   7 2980.69 463.026   2 
   2  25   8 103.287 88.2828   2 
   2  25   9 93.1026 88.7051   2 
   2  25  10 317.941 178.110   2 
   2  25  11-145.215 152.060   2 
  -2  26  11 634.022 214.708   1 
  -2  26  10 141.389 146.899   1 
  -2  26   9 465.447 236.609   1 
  -2  26   8 1001.57 292.708   1 
  -2 -26   7 385.957 198.421   3 
  -2  26   7 373.323 175.421   1 
  -2 -26   6 290.503 151.840   3 
  -2  26   6-1.15281 85.1805   1 
  -2  26   5 373.915 129.851   1 
  -2 -26   5 656.248 259.410   3 
  -2 -26   4 14.3994 92.4776   3 
  -2  26   4 53.4841 90.8913   1 
  -2 -26   3 234.671 170.831   3 
  -2 -26   2 543.801 250.733   3 
  -2 -26   1 504.001 219.945   3 
  -2 -26   0 344.917 127.530   3 
  -2 -26  -1 494.282 221.949   3 
  -2 -26  -2 50.4195 82.6052   3 
  -2 -26  -3 564.159 226.322   3 
  -2 -26  -4 551.920 233.204   3 
  -2 -26  -5 383.592 201.764   3 
  -2  27   9 1194.52 328.174   1 
  -2  27   8 446.302 206.207   1 
  -2  27   7 270.752 193.743   1 
  -2  27   6 164.064 124.800   1 
  -2  27   5 14.8816 99.8651   1 
  -2 -27   4-24.4390 92.6925   3 
  -2  27   4-166.987 167.262   1 
  -2 -27   3 842.311 280.574   3 
  -2  27   3 781.469 267.283   1 
  -2 -27   2 77.4170 141.489   3 
  -2 -27   1-95.5051 109.396   3 
  -2 -27   0-35.9559 70.4165   3 
  -2 -27  -1-126.243 135.539   3 
  -2 -27  -2 652.986 259.868   3 
  -2 -27  -3 566.747 255.931   3 
  -2  28   8 2.75150 77.4361   1 
  -2  28   7 17.0742 103.625   1 
  -2  28   6-122.640 140.786   1 
  -2  28   5 177.139 198.789   1 
  -2  28   4-49.1283 110.183   1 
  -2  28   3 102.235 124.122   1 
  -2  29   6-127.280 164.762   1 
  -2  29   5 252.125 134.713   1 
  -2  29   4 379.930 195.007   1 
  -2  29   3-116.068 162.135   1 
  -2  30   4-49.8656 96.8392   1 
  -2  30   3-301.926 241.315   1 
  -3   0  18 49.8747 122.094   1 
  -3   0  17 1624.79 400.316   1 
  -3   0  16-152.088 178.603   1 
  -3   0  15 36.0804 102.259   1 
  -3   0  14-102.412 180.068   1 
  -3   0  13 1214.41 358.204   1 
  -3   0  12 369.749 241.682   1 
  -3   0  11 2428.41 430.455   1 
  -3   0  10 787.184 275.194   1 
  -3   0   9 2271.57 409.831   1 
  -3   0   8 606.468 257.065   1 
  -3   0   7 343.874 185.523   1 
  -3   0   6 1063.60 255.558   1 
  -3   0   5 12269.0 815.159   1 
  -3   0   4 1588.19 300.750   1 
  -3   0   3 3219.69 388.840   1 
  -3   0   2-52.6012 93.5235   1 
  -3   0   1 402.802 137.611   1 
  -3   0   0 734.810 184.570   1 
  -3   0  -1 3299.87 395.219   1 
  -3   0  -1 4065.70 243.960   3 
  -3   0  -2 162.695 47.1645   3 
   3   0   3 547.829 187.533   2 
   3   0   4-2.39009 53.7072   2 
   3   0   5 11047.4 836.158   2 
   3   0   6 24.0529 99.0047   2 
   3   0   7 2010.92 374.924   2 
   3   0   8 538.566 220.514   2 
   3   0   9 1638.39 340.735   2 
   3   0  10 30.6484 65.9680   2 
   3   0  11 2287.67 426.736   2 
   3   0  12-14.5343 83.0441   2 
   3   0  13 37.5118 83.0170   2 
   3   0  14 0.76257 138.338   2 
   3   0  15 8388.06 879.623   2 
   3   0  16 76.1657 76.8347   2 
  -3   1  18 81.4548 124.235   1 
  -3  -1  18 431.454 280.575   1 
  -3   1  17-118.513 90.9093   1 
  -3  -1  17 156.512 128.249   1 
  -3   1  16 666.456 238.996   1 
  -3  -1  16 652.407 272.270   1 
  -3  -1  15 181.570 142.777   1 
  -3   1  15 207.754 172.326   1 
  -3   1  14 36.9406 178.931   1 
  -3  -1  14-79.8775 154.241   1 
  -3   1  13 4133.10 593.081   1 
  -3  -1  13 3338.49 530.826   1 
  -3   1  12 522.931 232.286   1 
  -3  -1  12 656.416 295.079   1 
  -3   1  11 2239.90 413.792   1 
  -3  -1  11 2438.98 426.043   1 
  -3   1  10 3548.94 496.279   1 
  -3  -1  10 4174.44 529.207   1 
  -3   1   9 4959.21 574.483   1 
  -3  -1   9 5296.52 580.764   1 
  -3   1   8 3744.95 492.819   1 
  -3  -1   8 4351.31 517.560   1 
  -3  -1   7 1658.13 327.811   1 
  -3   1   7 1769.17 330.772   1 
  -3   1   6 4934.78 532.642   1 
  -3  -1   6 7257.45 691.833   1 
  -3   1   5 5258.83 582.633   1 
  -3  -1   5 3393.10 430.023   1 
  -3   1   4 4058.84 456.110   1 
  -3  -1   4 3918.50 457.579   1 
  -3   1   3 1382.07 290.738   1 
  -3  -1   3 677.668 210.414   1 
  -3   1   2 204.698 101.364   1 
  -3  -1   2 25.2741 70.1834   1 
  -3   1   1 30.6117 55.5184   1 
  -3  -1   1 104.993 62.2995   1 
  -3   1   0 2621.68 348.334   1 
  -3  -1   0 3975.73 417.694   1 
  -3   1  -1 6265.20 549.382   1 
  -3  -1  -1 6238.10 510.344   1 
  -3   1  -1 7053.03 292.001   3 
  -3  -1  -1 6515.99 336.988   3 
  -3  -1  -2 339.016 69.8763   3 
   3   1   2 537.773 190.004   2 
  -3  -1  -2 216.974 89.8737   1 
  -3   1  -2 300.171 49.2193   3 
  -3  -1  -3 2164.57 180.318   3 
   3   1   3 2376.06 381.907   2 
   3   1   4 115.281 92.6778   2 
   3  -1   4 220.781 120.357   2 
   3   1   5 844.692 235.264   2 
   3  -1   5 5032.05 559.902   2 
   3  -1   6 248.137 140.462   2 
   3   1   6 5443.44 599.911   2 
   3   1   7 5292.10 594.051   2 
   3  -1   7 5061.43 573.945   2 
   3  -1   8 1312.28 302.461   2 
   3   1   8 4235.51 559.459   2 
   3   1   9 1765.12 353.379   2 
   3  -1   9 1587.74 347.078   2 
   3   1  10 328.305 176.011   2 
   3  -1  10 9.41005 92.1887   2 
   3   1  11 1074.98 281.544   2 
   3  -1  11 1847.79 380.685   2 
   3   1  12 355.142 215.084   2 
   3  -1  12-12.4261 65.4630   2 
   3   1  13 2551.27 468.637   2 
   3  -1  13 2533.71 454.201   2 
   3   1  14 82.1121 124.526   2 
   3  -1  14-40.9408 85.0191   2 
   3   1  15 145.742 132.093   2 
   3  -1  15 164.250 175.217   2 
   3  -1  16 13.5470 60.2381   2 
   3   1  16-103.896 116.903   2 
   3  -1  17 166.730 173.163   2 
  -3  -2  18 254.307 184.557   1 
  -3   2  18 547.193 260.915   1 
  -3   2  17-4.18836 104.787   1 
  -3  -2  17 171.258 189.473   1 
  -3  -2  16 549.674 214.776   1 
  -3   2  16 382.414 201.724   1 
  -3  -2  15-45.7070 149.224   1 
  -3   2  15 122.651 154.554   1 
  -3   2  14 670.390 284.758   1 
  -3  -2  14 50.9674 111.993   1 
  -3   2  13 809.108 300.479   1 
  -3  -2  13-197.973 196.455   1 
  -3   2  12 1532.17 362.727   1 
  -3  -2  12 1565.87 373.618   1 
  -3   2  11 257.741 197.222   1 
  -3  -2  11 387.545 245.155   1 
  -3   2  10 586.999 247.473   1 
  -3  -2  10 1515.60 366.490   1 
  -3   2   9 1339.77 329.920   1 
  -3  -2   9 2445.10 423.755   1 
  -3   2   8 2451.94 415.003   1 
  -3  -2   8 1843.35 342.228   1 
  -3  -2   7 1251.62 272.791   1 
  -3   2   7 1693.43 349.040   1 
  -3   2   6 11789.2 827.529   1 
  -3  -2   6 11261.7 802.359   1 
  -3   2   5 4287.68 492.231   1 
  -3  -2   5 4775.83 514.467   1 
  -3   2   4 1080.80 307.096   1 
  -3  -2   4 1728.43 303.950   1 
  -3   2   3 1361.58 260.310   1 
  -3  -2   3 3261.67 396.103   1 
  -3   2   2 91.8117 76.1868   1 
  -3  -2   2 7.80595 89.0471   1 
  -3   2   1-19.3803 105.290   1 
  -3  -2   1-20.5881 91.7312   1 
  -3   2   0 5054.35 498.520   1 
  -3  -2   0 3857.96 402.430   1 
  -3  -2   0 4080.36 308.715   3 
  -3  -2  -1 320.481 109.300   1 
  -3  -2  -1 387.891 88.3184   3 
  -3  -2  -2 255.132 74.8016   3 
   3   2   2 170.332 93.0191   2 
  -3  -2  -2 192.275 78.6188   1 
  -3  -2  -3 4367.20 271.497   3 
   3   2   3 4401.81 525.391   2 
   3  -2   3 4175.60 490.081   2 
   3   2   4 13.7085 63.2693   2 
   3  -2   4 220.330 112.253   2 
   3   2   5 1277.30 275.092   2 
   3  -2   5 1529.87 307.672   2 
   3   2   6 12907.0 915.385   2 
   3  -2   6 13451.0 908.426   2 
   3   2   7 2567.09 426.455   2 
   3  -2   7 2557.16 414.866   2 
   3   2   8 9945.83 831.728   2 
   3  -2   8 9807.92 810.448   2 
   3  -2   9 1358.58 320.034   2 
   3   2   9 1475.62 336.374   2 
   3  -2  10 1022.83 265.228   2 
   3   2  10 2098.75 402.820   2 
   3  -2  11 187.807 130.137   2 
   3   2  11 150.704 131.726   2 
   3   2  12 3751.00 552.191   2 
   3  -2  12 4077.96 558.647   2 
   3   2  13-67.6689 86.4581   2 
   3  -2  13 93.3098 105.978   2 
   3   2  14 1303.95 341.567   2 
   3  -2  14 1410.26 354.558   2 
   3   2  15 1077.36 327.311   2 
   3  -2  15 1102.57 328.671   2 
   3   2  16 143.945 165.191   2 
   3  -2  16-163.491 157.327   2 
   3  -2  17 381.798 176.482   2 
  -3   3  18 253.387 156.912   1 
  -3  -3  18 306.245 228.755   1 
  -3   3  17 31.9918 121.760   1 
  -3  -3  17 205.875 120.306   1 
  -3  -3  16 1789.37 399.464   1 
  -3   3  16 1367.98 373.348   1 
  -3  -3  15 401.175 207.866   1 
  -3   3  15 685.943 297.103   1 
  -3  -3  14 260.339 190.536   1 
  -3   3  14 620.341 307.859   1 
  -3   3  13 907.435 312.608   1 
  -3  -3  13 287.391 164.358   1 
  -3   3  12 682.400 277.366   1 
  -3  -3  12 510.665 207.873   1 
  -3   3  11 231.491 147.736   1 
  -3  -3  11 624.951 238.398   1 
  -3   3  10 6351.76 672.349   1 
  -3  -3  10 8109.96 733.956   1 
  -3   3   9 8897.55 792.352   1 
  -3  -3   9 10151.5 816.157   1 
  -3  -3   8 1707.10 345.518   1 
  -3   3   8 1061.39 265.072   1 
  -3  -3   7 145.774 116.612   1 
  -3   3   7-5.95038 90.4521   1 
  -3   3   6 4401.00 521.903   1 
  -3  -3   6 5738.23 594.377   1 
  -3   3   5 3358.91 461.393   1 
  -3  -3   5 3287.47 410.261   1 
  -3   3   4 5160.76 532.558   1 
  -3  -3   4 5152.24 507.736   1 
  -3   3   3 4788.95 504.652   1 
  -3  -3   3 4900.43 482.285   1 
  -3   3   2-55.2322 92.4751   1 
  -3  -3   2 763.843 203.970   1 
  -3   3   1 243.514 80.5527   1 
  -3  -3   1 382.934 129.085   1 
  -3   3   0 1430.83 282.901   1 
  -3  -3   0 2170.42 309.807   1 
  -3  -3   0 2275.71 244.420   3 
  -3  -3  -1 391.654 95.8435   3 
  -3  -3  -1 424.091 133.816   1 
  -3   3  -1 277.896 46.2330   3 
  -3  -3  -2 572.781 114.070   3 
  -3  -3  -2 502.762 110.610   1 
   3   3   2 660.946 203.340   2 
   3   3   3 836.239 240.694   2 
  -3  -3  -3 1015.10 145.670   3 
  -3  -3  -3 838.188 174.941   1 
   3   3   4 1106.41 273.468   2 
   3  -3   4 220.217 113.540   2 
   3   3   5 159.830 124.181   2 
   3  -3   5 635.630 192.700   2 
   3   3   6 898.646 259.294   2 
   3  -3   6 4671.78 559.342   2 
   3   3   7 4070.79 534.363   2 
   3  -3   7 4514.96 541.843   2 
   3   3   8 7040.50 711.897   2 
   3  -3   8 5220.30 604.960   2 
   3   3   9 993.406 284.771   2 
   3  -3   9 929.264 266.004   2 
   3   3  10 4854.66 612.553   2 
   3  -3  10 4743.14 586.379   2 
   3  -3  11-72.9098 119.017   2 
   3   3  11 8.46504 95.4531   2 
   3  -3  12 534.845 220.034   2 
   3   3  12 522.391 226.533   2 
   3   3  13 205.728 138.737   2 
   3  -3  13 158.403 120.504   2 
   3   3  14 304.792 198.327   2 
   3  -3  14 345.308 191.178   2 
   3   3  15 68.9416 93.3232   2 
   3  -3  15 167.442 144.746   2 
   3   3  16 582.645 241.593   2 
   3  -3  16 759.219 271.484   2 
   3  -3  17 183.907 120.540   2 
  -3   4  18 533.729 264.048   1 
  -3  -4  17 684.919 297.188   1 
  -3   4  17 344.462 193.715   1 
  -3   4  16 677.311 314.295   1 
  -3  -4  16 725.487 263.103   1 
  -3  -4  15 829.671 300.614   1 
  -3   4  15 1437.42 379.878   1 
  -3  -4  14 22.6506 94.9084   1 
  -3   4  14 264.985 209.712   1 
  -3  -4  13 756.901 281.656   1 
  -3   4  13 862.124 296.050   1 
  -3   4  12 2258.79 429.065   1 
  -3  -4  12 2015.62 401.743   1 
  -3   4  11 173.778 166.306   1 
  -3  -4  11 66.2660 106.283   1 
  -3  -4  10 2767.53 458.938   1 
  -3   4  10 1724.90 369.212   1 
  -3  -4   9 678.661 282.254   1 
  -3   4   9 1970.21 407.346   1 
  -3   4   8 2920.90 449.146   1 
  -3  -4   8 4313.92 514.308   1 
  -3  -4   7 341.121 183.511   1 
  -3   4   7 359.247 179.389   1 
  -3   4   6 17916.1 1023.52   1 
  -3  -4   6 19721.5 1018.49   1 
  -3   4   5 450.025 235.120   1 
  -3  -4   5 662.450 222.049   1 
  -3   4   4 1389.60 293.853   1 
  -3  -4   4 978.816 253.287   1 
  -3   4   3 1329.45 265.627   1 
  -3  -4   3 131.375 76.7781   1 
  -3   4   2 1732.33 304.472   1 
  -3  -4   2 3841.60 414.764   1 
  -3  -4   1 551.261 162.055   1 
  -3   4   1 278.557 95.3176   1 
  -3  -4   0 8231.24 571.526   1 
  -3  -4   0 7679.73 475.145   3 
  -3  -4  -1 3557.07 375.917   1 
  -3  -4  -1 4028.35 319.189   3 
  -3  -4  -2 1139.20 207.365   1 
  -3  -4  -2 1499.16 197.424   3 
   3   4   2 1533.35 326.136   2 
  -3  -4  -3 2015.49 264.069   1 
  -3  -4  -3 2498.04 243.276   3 
   3   4   3 2492.88 405.081   2 
  -3  -4  -4 3084.84 330.328   1 
  -3  -4  -4 3420.21 280.565   3 
   3   4   4 3296.91 465.849   2 
   3  -4   4 2478.55 386.165   2 
   3   4   5 837.846 235.827   2 
   3  -4   5 109.743 118.647   2 
   3   4   6 2139.36 381.024   2 
   3  -4   6 1379.43 312.069   2 
   3  -4   7 1418.69 315.954   2 
   3   4   7 2614.98 455.111   2 
   3   4   8 17539.8 1106.80   2 
   3  -4   8 17591.3 1075.85   2 
   3   4   9 2889.18 457.666   2 
   3  -4   9 2583.92 431.701   2 
   3   4  10 3794.63 541.517   2 
   3  -4  10 4126.76 546.390   2 
   3  -4  11 497.474 211.144   2 
   3   4  11 688.086 246.209   2 
   3   4  12 640.415 272.313   2 
   3  -4  12 635.020 232.335   2 
   3   4  13 20.8245 82.0317   2 
   3  -4  13 39.0253 73.0649   2 
   3   4  14 3882.02 598.397   2 
   3  -4  14 4144.74 600.437   2 
   3   4  15 429.660 214.608   2 
   3  -4  15 360.427 195.057   2 
   3   4  16 172.024 188.027   2 
   3  -4  16 10.4556 59.3917   2 
   3  -4  17 425.203 229.231   2 
  -3   5  18 1115.28 346.715   1 
  -3  -5  17 451.303 254.434   1 
  -3   5  17 135.948 144.221   1 
  -3  -5  16 199.059 193.734   1 
  -3   5  16-188.887 106.114   1 
  -3   5  15 822.787 329.566   1 
  -3  -5  15 385.104 215.533   1 
  -3   5  14 990.225 315.083   1 
  -3  -5  14 559.803 227.785   1 
  -3   5  13 2419.11 456.430   1 
  -3  -5  13 2274.31 442.670   1 
  -3  -5  12 1507.69 345.336   1 
  -3   5  12 1783.03 390.930   1 
  -3   5  11 1880.23 386.282   1 
  -3  -5  11 1852.66 364.858   1 
  -3  -5  10 379.349 141.531   1 
  -3   5  10 355.525 218.080   1 
  -3  -5   9 1224.46 300.937   1 
  -3   5   9 240.606 99.0034   1 
  -3   5   8 4355.70 536.062   1 
  -3  -5   8 4769.95 560.157   1 
  -3  -5   7 1632.90 312.625   1 
  -3   5   7 1092.72 279.084   1 
  -3  -5   6 593.287 221.587   1 
  -3   5   6 4464.03 571.943   1 
  -3   5   5 3467.53 449.756   1 
  -3  -5   5 5223.56 504.471   1 
  -3   5   4 3563.14 437.283   1 
  -3  -5   4 4160.17 433.542   1 
  -3   5   3 1112.68 238.590   1 
  -3  -5   3 1533.47 254.485   1 
  -3   5   2 5722.54 554.157   1 
  -3  -5   2 6677.19 540.819   1 
  -3   5   1 821.551 197.122   2 
  -3  -5   1 1127.18 230.068   1 
  -3   5   1 493.549 162.406   1 
  -3  -5   0 6779.01 502.871   1 
  -3  -5   0 7080.27 466.038   3 
  -3  -5  -1 12535.6 678.659   1 
  -3   5  -1 10701.7 722.395   2 
  -3  -5  -1 11411.5 575.719   3 
  -3  -5  -2 3954.19 372.307   1 
  -3  -5  -2 4010.70 329.135   3 
   3   5   2 4807.86 553.576   2 
  -3  -5  -3 5588.00 446.299   1 
  -3  -5  -3 6393.09 418.752   3 
   3   5   3 6143.72 632.115   2 
  -3  -5  -4 3813.90 354.456   1 
  -3  -5  -4 4072.09 331.535   3 
   3   5   4 4101.72 512.696   2 
   3  -5   4 4459.97 514.731   2 
   3   5   5 2560.84 407.860   2 
   3  -5   5 2318.15 365.928   2 
   3   5   6 2262.22 393.563   2 
   3  -5   6 2642.68 407.953   2 
   3   5   7 10284.0 846.123   2 
   3  -5   7 10082.3 801.735   2 
   3   5   8 5449.76 618.780   2 
   3  -5   8 9451.17 796.643   2 
   3   5   9 3208.95 481.797   2 
   3  -5   9 3468.82 495.742   2 
   3   5  10 2395.90 430.344   2 
   3  -5  10 2830.76 439.997   2 
   3  -5  11 1.61442 63.2470   2 
   3   5  11 93.2353 58.2455   2 
   3   5  12 2285.71 426.256   2 
   3  -5  12 2450.20 440.021   2 
   3   5  13 4261.41 604.677   2 
   3  -5  13 3816.59 556.895   2 
   3   5  14 441.034 244.868   2 
   3  -5  14 70.8060 103.410   2 
   3   5  15 708.455 265.654   2 
   3  -5  15 617.621 216.480   2 
   3  -5  16 494.844 235.354   2 
   3  -5  17 535.295 223.993   2 
  -3   6  17 625.598 251.198   1 
  -3  -6  17 1408.27 388.931   1 
  -3  -6  16 725.582 293.236   1 
  -3   6  16 844.715 310.441   1 
  -3  -6  15 210.989 181.811   1 
  -3   6  15 277.125 207.662   1 
  -3   6  14 495.002 254.813   1 
  -3  -6  14-137.493 134.754   1 
  -3   6  13 673.114 293.758   1 
  -3  -6  13 593.497 237.534   1 
  -3   6  12 711.775 277.696   1 
  -3  -6  12 579.855 233.293   1 
  -3  -6  11 1373.50 329.462   1 
  -3   6  11 1268.07 350.130   1 
  -3   6  10 448.422 240.308   1 
  -3  -6  10 555.046 243.244   1 
  -3  -6   9-92.4813 167.041   1 
  -3   6   9-69.3116 154.020   1 
  -3   6   8 434.612 261.150   1 
  -3  -6   8 1460.74 347.472   1 
  -3   6   7 1607.42 326.446   1 
  -3  -6   7 1954.34 356.248   1 
  -3   6   6 1156.54 271.101   1 
  -3  -6   6 1753.69 309.321   1 
   3   6  -5 2983.21 446.184   1 
  -3   6   5 3184.67 464.286   1 
  -3  -6   5 3066.14 401.161   1 
  -3  -6   4 292.758 159.152   1 
  -3   6   4 768.592 229.144   1 
  -3   6   3 616.535 189.325   1 
  -3  -6   3 1321.23 272.511   1 
  -3   6   2 3422.55 434.051   1 
  -3  -6   2 2676.91 339.336   1 
  -3   6   1 1045.86 230.375   2 
  -3   6   1 1172.81 248.032   1 
  -3  -6   1 1681.31 262.782   1 
  -3  -6   0 2016.67 270.127   1 
  -3   6   0 2426.93 346.471   2 
  -3  -6   0 1748.74 249.820   3 
  -3  -6  -1 10260.2 589.956   1 
  -3   6  -1 9733.31 685.749   2 
  -3  -6  -1 9989.51 563.410   3 
  -3  -6  -2 851.915 159.962   3 
   3   6   2 1204.80 286.755   2 
  -3  -6  -2 711.442 149.899   1 
  -3  -6  -3 8940.12 534.716   1 
  -3  -6  -3 9925.31 543.767   3 
   3   6   3 9972.86 796.073   2 
  -3  -6  -4 2563.26 283.886   1 
  -3  -6  -4 3006.47 294.077   3 
   3   6   4 2694.19 410.960   2 
  -3  -6  -5 2548.38 280.421   1 
   3   6   5 2976.65 433.719   2 
   3  -6   5 3514.24 460.341   2 
   3  -6   6 876.584 235.118   2 
   3   6   6 2051.50 387.587   2 
   3   6   7 1491.00 339.211   2 
   3  -6   7 3213.33 463.455   2 
   3   6   8 1303.70 314.236   2 
   3  -6   8 1615.96 341.152   2 
   3   6   9 226.747 122.689   2 
   3  -6   9 595.137 229.684   2 
   3   6  10 2431.31 431.546   2 
   3  -6  10 2553.08 417.049   2 
   3  -6  11 496.791 185.461   2 
   3   6  11 517.712 203.194   2 
   3   6  12 1795.51 395.164   2 
   3  -6  12 2357.27 440.494   2 
   3  -6  13 87.3259 129.435   2 
   3   6  13 157.693 133.451   2 
   3   6  14-33.5714 77.6767   2 
   3  -6  14-38.6244 105.935   2 
   3   6  15 394.647 216.052   2 
   3  -6  15 336.809 207.044   2 
   3  -6  16 1020.28 302.171   2 
   3  -6  17-115.425 165.271   2 
  -3  -7  17 459.598 269.485   1 
  -3   7  17 157.835 132.856   1 
  -3   7  16 759.168 348.898   1 
  -3  -7  16 537.412 256.283   1 
  -3  -7  15 1618.94 395.799   1 
  -3   7  15 1848.64 431.828   1 
  -3  -7  14 249.060 192.531   1 
  -3   7  14 261.330 182.239   1 
  -3   7  13 1508.56 356.043   1 
  -3  -7  13 1768.23 379.743   1 
  -3   7  12 948.102 304.367   1 
  -3  -7  12 994.902 295.478   1 
  -3  -7  11 310.429 158.500   1 
  -3   7  11 29.3584 112.392   1 
  -3  -7  10 2621.33 413.429   1 
  -3   7  10 2342.21 424.511   1 
  -3   7   9 509.012 170.376   1 
  -3  -7   9 546.788 202.506   1 
  -3   7   8 6135.67 645.667   1 
  -3  -7   8 7019.99 643.434   1 
  -3   7   7 1242.16 302.982   1 
  -3  -7   7 1480.64 325.473   1 
  -3   7   6 65.4339 90.2621   1 
  -3  -7   6 587.439 219.590   1 
  -3   7   5 1107.77 274.713   1 
  -3  -7   5 1496.28 303.016   1 
   3   7  -5 1220.17 283.873   1 
  -3   7   4-300.585 145.512   1 
  -3  -7   4 372.487 164.711   1 
  -3   7   3 5268.68 552.783   1 
  -3  -7   3 6146.86 507.092   1 
  -3   7   2 203.033 113.997   2 
  -3   7   2 209.533 125.269   1 
  -3  -7   1 4699.93 427.209   1 
  -3   7   1 3891.43 443.226   2 
  -3   7   1 4288.79 260.961   3 
  -3  -7   1 4244.26 400.581   3 
  -3  -7   0 4302.93 400.604   1 
  -3   7   0 3999.48 443.589   2 
  -3   7   0 3908.78 198.499   3 
  -3  -7   0 3717.56 362.362   3 
  -3  -7  -1 13948.6 682.241   1 
  -3   7  -1 14467.8 826.948   2 
  -3  -7  -1 13162.2 665.297   3 
  -3  -7  -2 740.471 173.398   3 
  -3  -7  -2 747.345 190.254   1 
   3   7   2 1213.03 331.599   2 
  -3  -7  -3 512.721 150.103   3 
   3   7   3 421.532 186.745   2 
  -3  -7  -3 368.429 130.159   1 
   3   7   4 999.813 277.806   2 
  -3  -7  -4 775.403 169.447   1 
  -3  -7  -4 753.988 165.662   3 
  -3  -7  -5 343.648 151.280   1 
   3   7   5 483.961 233.136   2 
   3  -7   5 801.922 240.373   2 
  -3  -7  -6 9859.37 530.202   1 
   3   7   6 10469.0 847.328   2 
   3  -7   6 10478.6 783.949   2 
   3   7   7 1140.67 291.986   2 
   3  -7   7 1307.61 287.191   2 
   3   7   8 2685.89 440.631   2 
   3  -7   8 2356.40 390.303   2 
   3   7   9 369.846 200.279   2 
   3  -7   9 595.373 223.881   2 
   3   7  10 149.887 69.4233   2 
   3  -7  10 297.886 162.088   2 
   3   7  11-34.6114 114.300   2 
   3  -7  11 24.9386 99.1142   2 
   3  -7  12 416.472 180.331   2 
   3   7  12 301.986 106.294   2 
   3  -7  13 1383.34 339.884   2 
   3   7  13 1351.65 342.576   2 
   3  -7  14 66.7809 144.392   2 
   3   7  14 35.5275 128.013   2 
   3   7  15 180.111 181.107   2 
   3  -7  15 570.727 237.980   2 
   3  -7  16 40.4529 96.2807   2 
   3  -7  17 346.020 160.386   2 
  -3   8  17 618.022 320.826   1 
  -3  -8  17 681.490 277.492   1 
  -3  -8  16 1931.80 446.086   1 
  -3   8  16 1586.23 406.822   1 
  -3   8  15 1999.10 465.335   1 
  -3  -8  15 2150.90 445.118   1 
  -3   8  14 378.811 225.042   1 
  -3  -8  14 397.781 215.697   1 
  -3  -8  13 908.726 289.420   1 
  -3   8  13 588.362 263.378   1 
  -3   8  12 325.074 150.580   1 
  -3  -8  12 206.304 200.673   1 
  -3  -8  11 1151.91 315.486   1 
  -3   8  11 1119.35 322.473   1 
  -3  -8  10 315.128 168.709   1 
  -3   8  10 176.506 146.305   1 
  -3  -8   9-13.9940 83.4487   1 
  -3   8   9-31.1069 150.355   1 
  -3   8   8 963.388 280.040   1 
  -3  -8   8 407.853 173.844   1 
  -3   8   7 2062.28 371.463   1 
  -3  -8   7 2554.74 386.489   1 
  -3   8   6-33.1179 97.6590   1 
  -3  -8   6 126.257 154.625   1 
   3   8  -5 391.657 156.527   1 
  -3   8   5 266.302 99.6812   1 
  -3   8   4 1213.01 256.791   1 
   3   8  -4 1538.90 301.495   1 
  -3  -8   4 1626.98 286.257   1 
  -3   8   3 337.489 212.244   1 
  -3  -8   3 1115.30 271.395   1 
  -3   8   2 5666.14 588.281   1 
  -3  -8   2 6831.63 508.808   1 
  -3   8   2 6228.28 559.743   2 
  -3  -8   1 3381.74 350.505   1 
  -3   8   1 3162.59 395.770   2 
  -3   8   1 3216.27 230.172   3 
  -3  -8   1 2774.50 335.113   3 
  -3  -8   0 1640.33 236.867   1 
  -3   8   0 1816.16 302.255   2 
  -3   8   0 1562.43 128.540   3 
  -3  -8   0 1675.86 259.740   3 
  -3  -8  -1 844.359 183.259   3 
  -3   8  -1 1236.75 260.562   2 
  -3  -8  -1 1029.01 180.291   1 
  -3  -8  -2 5348.91 404.556   1 
  -3   8  -2 5053.81 475.974   2 
  -3  -8  -2 4883.53 421.331   3 
   3   8   2 6216.42 638.514   2 
  -3  -8  -3 2441.12 277.666   1 
  -3   8  -3 1914.39 288.474   2 
  -3  -8  -3 2402.84 308.087   3 
   3   8   3 2779.42 434.602   2 
  -3  -8  -4 3029.07 281.693   1 
  -3  -8  -4 3250.21 338.435   3 
   3   8   4 3233.46 467.599   2 
  -3  -8  -5 4500.16 337.470   1 
  -3  -8  -5 4746.23 413.238   3 
   3   8   5 4805.16 566.318   2 
   3  -8   5 4978.18 537.327   2 
   3   8   6 229.441 162.235   2 
  -3  -8  -6 29.8328 52.7400   1 
  -3  -8  -7 523.437 114.386   1 
   3   8   7 483.905 188.343   2 
   3  -8   7 632.553 213.429   2 
   3   8   8 3690.89 526.278   2 
   3  -8   8 3718.69 502.762   2 
   3   8   9 3840.42 545.076   2 
   3  -8   9 3774.58 501.150   2 
   3   8  10 453.049 233.577   2 
   3  -8  10 449.073 205.301   2 
   3   8  11 469.997 193.247   2 
   3  -8  11 504.167 201.667   2 
   3  -8  12 817.094 260.146   2 
   3   8  12 1071.21 307.489   2 
   3  -8  13 350.837 185.965   2 
   3   8  13 57.7342 118.610   2 
   3  -8  14 2035.94 411.652   2 
   3   8  14 1897.24 418.277   2 
   3  -8  15 1908.71 408.209   2 
   3   8  15 1485.34 378.718   2 
   3  -8  16 732.129 251.785   2 
   3  -8  17 651.368 265.029   2 
  -3  -9  17 1478.74 383.901   1 
  -3   9  17 1677.70 428.781   1 
  -3   9  16 113.394 235.837   1 
  -3  -9  16 255.726 177.565   1 
  -3   9  15 3581.10 586.615   1 
  -3  -9  15 3258.70 563.481   1 
  -3   9  14 168.788 150.748   1 
  -3  -9  14 246.651 175.382   1 
  -3   9  13 124.918 208.156   1 
  -3  -9  13 428.362 213.754   1 
  -3  -9  12 331.809 216.161   1 
  -3   9  12 75.4594 114.616   1 
  -3  -9  11 636.568 242.627   1 
  -3   9  11 581.208 211.090   1 
  -3   9  10 3008.62 485.068   1 
  -3  -9  10 3682.63 482.813   1 
  -3  -9   9 159.550 119.908   1 
  -3   9   9 176.189 81.3304   1 
  -3  -9   8 550.716 187.860   1 
  -3   9   8 642.585 215.903   1 
  -3  -9   7-2.62991 95.9289   1 
  -3   9   7 20.5251 78.4455   1 
  -3   9   6 1124.45 267.835   1 
  -3  -9   6 1013.33 229.587   1 
  -3   9   5 83.6136 61.9978   1 
   3   9  -5 355.532 152.950   1 
  -3  -9   5 602.508 167.810   1 
  -3   9   4 268.001 118.549   1 
   3   9  -4 217.125 112.886   1 
  -3   9   3 7631.71 694.322   1 
  -3  -9   3 9165.30 613.808   1 
  -3   9   2 21.8102 113.915   2 
  -3  -9   2 352.554 152.244   1 
  -3   9   2 409.258 165.994   1 
  -3   9   2 71.0368 70.5521   3 
  -3   9   1 139.248 58.6068   3 
  -3   9   1 122.924 126.781   2 
  -3  -9   1 41.7802 59.6447   3 
  -3  -9   1 178.146 100.947   1 
  -3   9   0 370.823 139.334   2 
  -3   9   0 275.861 57.5174   3 
  -3  -9   0 196.098 96.1640   3 
  -3  -9   0 289.086 117.911   1 
  -3  -9  -1 29.7640 46.7069   1 
  -3  -9  -1 175.573 105.070   3 
  -3   9  -1 76.0414 61.5289   2 
  -3  -9  -2 2276.50 244.253   1 
  -3   9  -2 2155.20 315.191   2 
  -3  -9  -2 2243.79 298.631   3 
   3   9   2 2447.18 402.673   2 
  -3  -9  -3 5702.88 388.278   1 
  -3   9  -3 5073.21 465.513   2 
  -3  -9  -3 5147.28 448.107   3 
   3   9   3 5307.00 599.470   2 
   3   9   4 1273.18 294.927   2 
  -3  -9  -4 1202.40 166.306   1 
  -3   9  -4 1370.68 242.995   2 
  -3  -9  -4 1267.99 223.806   3 
   3   9   5 837.235 238.504   2 
   3  -9   5 1168.05 273.092   2 
  -3  -9  -5 928.868 145.667   1 
  -3  -9  -5 903.037 190.553   3 
  -3  -9  -6 1575.73 186.131   1 
   3   9   6 1869.24 372.805   2 
   3  -9   6 1844.96 327.814   2 
   3   9   7 191.164 150.965   2 
  -3  -9  -7 127.552 54.9706   1 
   3  -9   7 269.131 142.892   2 
  -3  -9  -8 249.490 72.3042   1 
   3   9   8 317.454 181.993   2 
   3  -9   8 525.667 203.506   2 
   3   9   9 646.197 217.775   2 
   3  -9   9 845.909 247.327   2 
  -3  -9  -9 632.311 124.457   1 
   3   9  10 45.2072 97.2199   2 
   3  -9  10-85.3133 104.795   2 
   3   9  11 2740.90 486.145   2 
   3  -9  11 2652.76 444.366   2 
   3   9  12 3322.50 526.970   2 
   3  -9  12 3334.57 503.732   2 
   3  -9  13 159.762 129.323   2 
   3   9  13 195.009 151.908   2 
   3  -9  14 144.944 133.582   2 
   3   9  14 163.163 125.986   2 
   3  -9  15-23.3013 102.505   2 
   3  -9  16 393.226 187.208   2 
   3  -9  17 3713.04 612.238   2 
  -3  10  17 539.076 323.774   1 
  -3 -10  16 494.863 249.592   1 
  -3  10  16 587.013 269.674   1 
  -3 -10  15 876.569 312.213   1 
  -3  10  15 832.262 320.900   1 
  -3  10  14 319.093 205.102   1 
  -3 -10  14 223.105 166.960   1 
  -3  10  13 3151.39 514.970   1 
  -3 -10  13 3188.56 527.855   1 
  -3 -10  12 975.385 303.940   1 
  -3  10  12 628.258 248.061   1 
  -3 -10  11 920.984 254.872   1 
  -3  10  11 864.005 258.890   1 
  -3  10  10 745.395 237.602   1 
  -3 -10  10 941.004 263.550   1 
  -3  10   9 177.850 117.617   1 
  -3 -10   9 61.8910 89.7552   1 
  -3  10   8 175.834 132.276   1 
  -3 -10   8 204.154 185.778   1 
  -3 -10   7 436.615 154.478   1 
  -3  10   7 332.610 134.863   1 
  -3  10   6 1869.39 357.339   1 
  -3 -10   6 2170.86 331.737   1 
   3  10  -5 627.956 180.693   1 
  -3  10   5 342.315 136.865   1 
  -3 -10   5 810.218 219.202   1 
  -3  10   4 232.918 121.981   1 
  -3 -10   4 436.235 158.423   1 
   3  10  -4 195.210 112.708   1 
  -3  10   3 1591.47 335.767   1 
  -3 -10   3 1660.00 258.904   1 
  -3  10   3 1688.45 223.611   3 
  -3  10   2 1028.68 229.936   2 
  -3 -10   2 887.601 200.566   3 
  -3  10   2 815.147 216.599   1 
  -3 -10   2 1437.11 243.431   1 
  -3  10   2 957.703 153.267   3 
  -3  10   1 86.1158 45.2627   3 
  -3  10   1-2.55229 66.7786   2 
  -3 -10   1 20.8847 54.8395   3 
  -3 -10   0 1847.04 243.704   1 
  -3  10   0 1572.31 272.897   2 
  -3 -10   0 1391.92 240.863   3 
  -3  10   0 1424.80 136.228   3 
  -3 -10  -1 988.745 207.520   3 
  -3 -10  -1 1352.83 216.835   1 
  -3  10  -1 976.616 204.030   2 
  -3 -10  -2 2.52458 51.4275   3 
  -3 -10  -2 113.878 64.2951   1 
   3  10   2 165.244 130.131   2 
  -3  10  -2 39.0058 37.5285   2 
  -3 -10  -3 96.8412 66.3975   1 
   3  10   3 123.353 132.414   2 
  -3 -10  -3 191.307 124.113   3 
  -3  10  -3 316.077 130.611   2 
   3  10   4 541.561 205.260   2 
  -3  10  -4 633.205 160.925   2 
  -3 -10  -4 449.140 94.0892   1 
  -3 -10  -4 514.092 144.217   3 
   3  10   5 537.242 199.486   2 
  -3 -10  -5 511.195 87.2981   1 
  -3 -10  -5 564.785 157.781   3 
   3  10   6 938.792 283.417   2 
   3 -10   6 840.260 230.488   2 
  -3 -10  -6 881.993 121.652   1 
   3  10   7 988.719 282.090   2 
   3 -10   7 1029.92 247.226   2 
  -3 -10  -7 880.136 119.770   1 
  -3 -10  -8 2024.75 179.087   1 
   3  10   8 2322.16 418.998   2 
   3 -10   8 2140.19 374.645   2 
   3  10   9 721.885 258.726   2 
   3 -10   9 638.772 216.177   2 
   3  10  10 978.863 288.474   2 
   3 -10  10 1292.52 301.267   2 
   3  10  11 78.6156 77.5045   2 
   3 -10  11 166.766 145.989   2 
   3 -10  12-28.4941 64.6280   2 
   3  10  12 91.8647 65.8224   2 
   3 -10  13 740.687 256.450   2 
   3  10  13 714.105 259.365   2 
   3 -10  14 789.298 234.266   2 
   3  10  14 657.246 253.065   2 
   3 -10  15 55.4375 80.9618   2 
   3 -10  16 1351.52 360.808   2 
   3 -10  17 2082.71 451.587   2 
  -3  11  17 798.951 313.752   1 
  -3  11  16 718.508 284.361   1 
  -3  11  15 335.829 197.268   1 
  -3 -11  15 324.399 226.538   1 
  -3  11  14 371.979 199.368   1 
  -3 -11  14 864.258 288.506   1 
  -3  11  13 1487.84 360.557   1 
  -3 -11  13 1764.24 385.158   1 
  -3 -11  12 402.892 208.268   1 
  -3  11  12 240.739 157.709   1 
  -3 -11  11 152.743 144.139   1 
  -3  11  11 17.6554 181.674   1 
  -3 -11  10 626.932 232.100   1 
  -3  11  10 214.975 128.496   1 
  -3 -11   9 276.865 193.219   1 
  -3  11   9 65.4595 104.408   1 
  -3  11   8 1519.21 316.120   1 
  -3 -11   8 2018.72 349.763   1 
  -3  11   7-4.96244 101.006   1 
  -3 -11   7 201.474 130.544   1 
  -3  11   6 165.152 102.192   1 
  -3 -11   6 263.405 136.488   1 
   3  11  -5 2900.34 411.414   1 
  -3  11   5 2724.26 425.113   1 
  -3 -11   5 3480.13 402.850   1 
  -3  11   4 38.5570 76.8040   1 
  -3 -11   4 193.731 123.776   1 
  -3  11   4 36.6947 33.3233   3 
   3  11  -4 163.248 123.086   1 
  -3  11   3 59.9435 82.5384   1 
  -3 -11   3 285.828 133.669   1 
  -3  11   3 89.2912 52.4099   3 
  -3  11   2-0.90002 30.1564   3 
  -3  11   2 129.903 86.0898   2 
  -3 -11   2 151.717 152.883   3 
  -3  11   2 38.4790 71.9076   1 
  -3 -11   2 38.1423 132.791   1 
  -3 -11   1 1228.22 196.899   1 
  -3  11   1 1358.92 264.143   2 
  -3  11   1 1518.72 173.903   3 
  -3 -11   1 1351.05 260.002   3 
  -3  11   0 273.085 106.459   2 
  -3 -11   0 323.364 125.590   3 
  -3  11   0 381.772 75.8002   3 
  -3 -11   0 378.898 87.0538   1 
  -3  11  -1 5226.12 482.606   2 
  -3 -11  -1 5724.92 393.682   1 
  -3 -11  -1 4955.41 469.044   3 
  -3 -11  -2 94.8269 108.374   3 
   3  11   2 122.201 161.990   2 
  -3 -11  -2 181.255 109.741   1 
  -3  11  -2-52.8398 57.8678   2 
  -3 -11  -3-20.5044 54.3625   3 
   3  11   3 151.716 125.042   2 
  -3 -11  -3 254.051 93.8148   1 
  -3  11  -3-48.5338 63.7739   2 
   3  11   4 1622.73 339.095   2 
  -3  11  -4 1426.96 236.354   2 
  -3 -11  -4 1715.68 164.752   1 
  -3 -11  -4 1573.00 260.467   3 
   3  11   5 1003.15 265.849   2 
  -3 -11  -5 951.218 111.704   1 
  -3  11  -5 947.662 180.086   2 
  -3 -11  -5 952.749 208.087   3 
   3  11   6 5938.98 654.595   2 
   3  11   7 1446.22 332.805   2 
   3 -11   7 1477.46 302.899   2 
   3  11   8-37.3591 81.8665   2 
   3 -11   8-29.6268 90.9788   2 
   3  11   9 1065.56 304.924   2 
   3 -11   9 1140.60 274.810   2 
   3  11  10 58.3633 133.494   2 
   3 -11  10 61.3599 98.3267   2 
   3  11  11 845.676 273.185   2 
   3 -11  11 773.867 251.517   2 
   3  11  12 743.628 260.566   2 
   3 -11  12 943.216 281.361   2 
   3 -11  13 815.209 260.833   2 
   3  11  13 807.465 283.071   2 
   3 -11  14 342.349 198.623   2 
   3  11  14-32.5222 102.680   2 
   3 -11  15 1073.89 298.224   2 
   3 -11  16 92.9036 140.020   2 
  -3  12  16 1259.06 388.739   1 
  -3  12  15 181.332 190.927   1 
  -3  12  14 1019.92 308.864   1 
  -3 -12  14 932.361 279.813   1 
  -3 -12  13 569.913 250.819   1 
  -3  12  13 429.406 227.007   1 
  -3  12  12-193.284 189.859   1 
  -3 -12  12 389.384 212.326   1 
  -3 -12  11 616.812 209.190   1 
  -3  12  11 224.565 112.870   1 
  -3  12  10 1670.36 367.370   1 
  -3 -12  10 2414.56 397.821   1 
  -3  12   9 32.7671 86.1366   1 
  -3 -12   9 220.869 144.841   1 
  -3  12   8 1166.07 290.954   1 
  -3 -12   8 1511.50 309.125   1 
  -3 -12   7 257.387 151.188   1 
  -3  12   7 73.2329 89.0707   1 
  -3 -12   6 909.312 214.901   1 
  -3  12   6 660.384 225.075   1 
   3  12  -5 2840.71 407.061   1 
  -3  12   5 2566.40 424.377   1 
  -3 -12   5 3000.54 371.149   1 
  -3  12   5 2976.71 344.637   3 
  -3  12   4 1775.37 338.880   1 
   3  12  -4 1697.58 313.275   1 
  -3 -12   4 2137.84 296.944   1 
  -3  12   4 2016.11 270.974   3 
  -3 -12   3 687.536 191.761   3 
  -3  12   3 1084.74 240.410   2 
  -3 -12   3 1333.27 234.783   1 
  -3  12   3 978.635 173.545   3 
  -3  12   3 1165.94 276.201   1 
  -3 -12   2 9238.51 559.517   1 
  -3  12   2 8119.31 638.573   2 
  -3  12   2 8782.17 489.165   3 
  -3 -12   2 7708.76 635.667   3 
  -3  12   1 430.108 137.451   2 
  -3  12   1 491.180 105.621   3 
  -3 -12   1 470.403 184.081   3 
  -3 -12   1 344.446 103.965   1 
  -3 -12   0 100.141 102.513   3 
  -3  12   0 168.958 58.8182   3 
  -3 -12   0 199.019 67.2044   1 
  -3  12   0 17.9068 50.5376   2 
  -3 -12  -1 481.410 152.116   3 
  -3 -12  -1 641.558 122.935   1 
  -3  12  -1 447.798 139.892   2 
   3  12   2 7121.95 707.538   2 
  -3  12  -2 6770.58 525.325   2 
  -3 -12  -2 7284.97 359.172   1 
  -3 -12  -2 7032.17 580.038   3 
  -3  12  -3 1340.08 227.708   2 
  -3 -12  -3 1629.95 150.436   1 
  -3 -12  -3 1782.98 295.518   3 
   3  12   3 1704.45 349.549   2 
   3  12   4 642.126 236.672   2 
  -3  12  -4 555.148 148.836   2 
  -3 -12  -4 422.067 62.5950   1 
  -3 -12  -4 408.326 153.764   3 
   3  12   5 1029.80 275.743   2 
  -3  12  -5 910.518 182.001   2 
  -3 -12  -5 971.897 222.298   3 
   3  12   6 297.973 181.099   2 
   3  12   7-50.5506 105.877   2 
   3 -12   7 97.6495 105.844   2 
   3  12   8 355.066 183.211   2 
   3 -12   8 308.588 133.129   2 
   3  12   9 490.575 214.296   2 
   3 -12   9 361.827 152.857   2 
   3  12  10 2056.80 408.708   2 
   3 -12  10 2528.35 414.128   2 
   3  12  11 158.732 125.096   2 
   3 -12  11 16.0701 79.7400   2 
   3  12  12 335.396 198.066   2 
   3 -12  12 403.411 178.743   2 
   3 -12  13 105.092 90.6386   2 
   3  12  13-50.9377 137.092   2 
   3 -12  14 198.877 157.092   2 
   3  12  14 345.659 177.594   2 
   3 -12  15 39.4164 139.981   2 
  -3  13  16 537.613 263.916   1 
  -3  13  15-147.668 111.238   1 
  -3  13  14 753.638 274.757   1 
  -3  13  13 534.137 226.978   1 
  -3 -13  12 254.924 182.269   1 
  -3  13  12-281.761 175.458   1 
  -3 -13  11 234.185 161.652   1 
  -3  13  11-102.103 156.955   1 
  -3 -13  10 564.251 224.745   1 
  -3  13  10 513.311 208.066   1 
  -3  13   9 773.745 240.895   1 
  -3 -13   9 952.667 263.404   1 
  -3 -13   8 1280.72 286.584   1 
  -3  13   8 876.578 256.838   1 
  -3  13   7 13.3965 78.8518   1 
  -3 -13   7 148.766 125.626   1 
  -3  13   6 1.28344 83.9044   1 
  -3 -13   6 292.509 175.856   1 
  -3  13   6 122.246 92.5085   3 
  -3  13   5 344.593 133.909   1 
   3  13  -5 453.852 169.716   1 
  -3 -13   5 543.953 168.346   1 
  -3  13   5 369.614 129.144   3 
   3  13  -4 2436.21 357.199   1 
  -3  13   4 1981.04 382.167   1 
  -3  13   4 2449.49 299.628   3 
  -3 -13   4 2643.88 318.680   1 
   3  13  -3 2662.20 368.996   1 
  -3  13   3 2374.80 405.992   1 
  -3 -13   3 2985.77 326.342   1 
  -3  13   3 2135.62 331.481   2 
  -3  13   3 2793.57 308.693   3 
  -3 -13   3 2188.42 358.805   3 
  -3  13   2 317.364 100.937   3 
  -3  13   2 259.210 132.056   2 
  -3 -13   2 626.407 153.658   1 
  -3 -13   2 243.872 141.838   3 
  -3 -13   1 146.737 96.4765   1 
  -3  13   1 191.866 88.9998   2 
  -3  13   1 128.007 62.2209   3 
  -3 -13   1 73.9060 85.1078   3 
  -3 -13   0 903.801 150.839   1 
  -3 -13   0 706.688 209.765   3 
  -3  13   0 553.039 154.772   2 
  -3 -13  -1 199.841 100.380   3 
  -3 -13  -1 171.965 61.2687   1 
  -3  13  -1 108.195 51.1787   2 
   3  13   2 1613.81 337.900   2 
  -3  13  -2 1565.84 249.841   2 
  -3 -13  -2 1336.17 138.121   1 
  -3 -13  -2 1486.13 280.679   3 
  -3  13  -3 2237.93 290.195   2 
  -3 -13  -3 2659.88 370.818   3 
   3  13   3 2586.42 434.058   2 
  -3  13  -4 5850.82 454.595   2 
  -3 -13  -4 5986.66 551.039   3 
   3  13   4 6188.65 679.198   2 
   3  13   5 89.7466 164.436   2 
  -3  13  -5 33.3725 51.0109   2 
  -3 -13  -5 74.0447 96.0089   3 
   3  13   6 2045.31 388.129   2 
   3  13   7 2632.52 453.106   2 
   3  13   8 182.682 143.278   2 
   3 -13   8 186.896 95.3282   2 
   3  13   9 52.5268 82.7376   2 
   3 -13   9 183.702 103.029   2 
   3  13  10-40.0942 57.7271   2 
   3 -13  10 403.758 176.219   2 
   3  13  11 697.921 252.500   2 
   3 -13  11 871.975 243.366   2 
   3  13  12 222.725 147.283   2 
   3 -13  12 136.961 88.9852   2 
   3 -13  13 150.802 120.203   2 
   3  13  13 84.0358 79.1947   2 
   3 -13  14 287.184 171.034   2 
  -3  14  16 312.807 209.101   1 
  -3  14  15 416.434 203.461   1 
  -3  14  14 299.075 184.846   1 
  -3  14  13-21.5549 153.149   1 
  -3  14  12-65.0778 207.859   1 
  -3  14  11-522.263 223.946   1 
  -3  14  10 207.711 126.712   1 
  -3  14   9 372.543 197.685   1 
  -3 -14   9 291.199 188.651   1 
  -3  14   8 1451.53 345.053   1 
  -3 -14   8 1842.56 331.173   1 
  -3  14   7 2371.86 417.571   1 
  -3 -14   7 2886.55 388.488   1 
  -3  14   6 1387.32 316.991   1 
  -3  14   6 1940.42 295.876   3 
  -3 -14   6 2025.11 308.278   1 
  -3  14   5 183.807 140.521   1 
   3  14  -5-14.9024 64.6119   1 
  -3 -14   5 154.994 91.1081   1 
  -3  14   5 72.1253 77.7360   3 
  -3  14   4 650.261 212.378   1 
   3  14  -4 974.316 210.337   1 
  -3 -14   4 840.559 238.864   3 
  -3 -14   4 1106.04 209.345   1 
  -3  14   4 1219.40 220.496   3 
  -3  14   3 7.32134 42.3997   3 
  -3  14   3 57.9931 68.7880   2 
  -3 -14   3 146.235 121.172   3 
  -3 -14   3 141.247 104.153   1 
   3  14  -3 23.5752 72.4505   1 
  -3  14   3 206.787 158.808   1 
  -3  14   2 2416.21 339.451   2 
  -3  14   2 2663.46 286.192   3 
  -3 -14   2 2560.70 278.357   1 
  -3 -14   2 2242.68 356.934   3 
  -3  14   1 3298.34 389.547   2 
  -3 -14   1 3478.74 293.687   1 
  -3 -14   1 2810.32 393.796   3 
  -3  14   1 3202.68 292.832   3 
  -3  14   0 2233.93 307.555   2 
  -3 -14   0 2149.80 341.710   3 
  -3 -14  -1 641.763 179.218   3 
  -3  14  -1 874.122 183.099   2 
  -3 -14  -2-106.069 106.341   3 
   3  14   2-56.0083 104.303   2 
  -3  14  -2-91.2248 87.5042   2 
  -3  14  -3 2896.46 324.169   2 
  -3 -14  -3 2577.25 382.043   3 
   3  14   3 3141.07 482.687   2 
   3  14   4 223.589 135.082   2 
  -3  14  -4 101.446 58.7600   2 
  -3 -14  -4 90.9951 63.3655   3 
  -3  14  -5 7384.92 494.365   2 
  -3 -14  -5 7264.50 630.163   3 
   3  14   5 7252.57 745.316   2 
   3  14   6-22.2019 106.923   2 
   3  14   7 36.0665 69.4667   2 
   3  14   8 90.0892 91.8287   2 
   3  14   9 491.473 219.583   2 
   3 -14   9 727.445 214.980   2 
   3  14  10 1666.87 390.844   2 
   3 -14  10 1768.19 338.563   2 
   3  14  11 2597.37 485.731   2 
   3 -14  11 3154.45 463.746   2 
   3  14  12-72.3985 133.227   2 
   3 -14  12-1.27548 42.6683   2 
   3  14  13 384.074 191.121   2 
  -3  15  15 67.9906 125.034   1 
  -3  15  14-0.83201 134.647   1 
  -3  15  13 17.7366 113.913   1 
  -3  15  12 65.8000 81.8747   1 
  -3  15  11-208.430 234.160   1 
  -3  15  10 96.7977 151.538   1 
  -3  15   9 1367.62 326.393   1 
  -3  15   8-85.2780 146.992   1 
  -3  15   7 27.1689 83.9127   1 
  -3  15   6-131.172 133.418   1 
  -3  15   5 434.857 151.708   3 
  -3  15   5 268.167 139.895   1 
   3  15  -5 420.079 168.930   1 
  -3  15   4 1003.15 202.086   3 
  -3  15   4 768.515 237.590   1 
   3  15  -4 785.483 200.208   1 
  -3 -15   4 820.210 239.716   3 
  -3  15   3 4662.56 613.821   1 
   3  15  -3 5348.63 501.928   1 
  -3  15   3 4725.22 482.830   2 
  -3  15   3 4800.56 423.347   3 
  -3 -15   3 5206.46 572.757   3 
  -3 -15   2 1369.61 296.038   3 
  -3  15   2 1439.49 261.443   2 
  -3  15   2 1388.88 211.715   3 
  -3  15   1 214.447 90.5729   2 
  -3 -15   1 288.095 142.780   3 
  -3  15   1 337.011 107.537   3 
  -3 -15   0 47.7457 70.3063   3 
  -3  15   0 94.4199 46.8300   2 
  -3 -15  -1 16.2380 72.6383   3 
  -3  15  -1-0.16688 43.4799   2 
  -3 -15  -2-27.6590 101.354   3 
  -3  15  -2-39.5064 62.5651   2 
  -3  15  -3 3884.41 364.601   2 
  -3 -15  -3 3553.13 452.820   3 
   3  15   3 4003.89 545.571   2 
   3  15   4 401.998 175.317   2 
  -3  15  -4 447.412 124.433   2 
  -3 -15  -4 295.200 139.198   3 
  -3 -15  -5 9876.89 752.347   3 
   3  15   5 10580.2 903.251   2 
   3  15   6 425.210 190.414   2 
  -3 -15  -6 602.265 197.875   3 
   3  15   7-20.6479 74.9211   2 
   3  15   8-50.0475 111.691   2 
   3  15   9 840.188 259.457   2 
   3 -15   9 1104.92 258.638   2 
   3  15  10 268.413 157.867   2 
   3 -15  10 129.068 101.594   2 
   3  15  11 2674.01 504.919   2 
   3  15  12 406.113 177.492   2 
   3  15  13-69.0470 176.769   2 
  -3  16  15 248.901 189.514   1 
  -3  16  14 884.089 288.545   1 
  -3  16  13-0.42552 104.577   1 
  -3  16  12 345.834 178.256   1 
  -3  16  11 38.2175 103.026   1 
  -3  16  10 407.080 189.418   1 
  -3  16   9 176.149 157.650   1 
  -3  16   8 1047.69 298.437   1 
  -3  16   7 805.911 251.795   1 
  -3  16   6-27.0778 141.195   1 
  -3  16   5 256.274 129.041   1 
  -3 -16   5 289.183 145.222   3 
  -3  16   4 102.602 90.5067   1 
   3  16  -4-30.0055 60.4004   1 
  -3 -16   4 16.8712 84.6976   3 
  -3 -16   3 1458.64 327.644   3 
   3  16  -3 1922.54 303.256   1 
  -3  16   3 1755.90 261.917   3 
  -3  16   3 1640.22 369.874   1 
  -3  16   2 764.770 185.036   2 
  -3 -16   2 881.281 249.199   3 
  -3  16   1 6592.24 535.341   2 
  -3 -16   1 6379.44 630.980   3 
  -3 -16   0 0.25982 62.4665   3 
  -3  16   0 15.3732 44.1599   2 
  -3 -16  -1 586.902 189.587   3 
  -3  16  -1 703.073 162.237   2 
  -3 -16  -2 829.591 224.103   3 
  -3  16  -2 814.371 174.008   2 
  -3 -16  -3 5.23115 94.1698   3 
   3  16   3 163.147 186.351   2 
   3  16   4 133.532 126.094   2 
  -3 -16  -4 116.222 119.966   3 
   3  16   5 297.444 185.044   2 
  -3 -16  -5 285.029 130.210   3 
  -3 -16  -6 2921.19 423.180   3 
   3  16   6 2905.29 480.190   2 
   3  16   7 110.755 79.8336   2 
   3  16   8 262.077 159.976   2 
   3  16   9 66.1201 77.3558   2 
   3  16  10 41.8872 121.314   2 
   3  16  11 355.417 200.290   2 
   3  16  12 275.572 178.281   2 
  -3  17  15 1168.07 335.044   1 
  -3  17  14 324.528 207.317   1 
  -3  17  13 945.999 296.755   1 
  -3  17  12-168.364 168.428   1 
  -3  17  11-188.767 173.444   1 
  -3  17  10 10.4316 112.531   1 
  -3  17   9 608.969 241.862   1 
  -3  17   8 1583.73 364.528   1 
  -3  17   7 177.666 151.927   1 
  -3  17   6 76.9217 92.6530   1 
  -3  17   5 659.604 210.662   1 
  -3 -17   5 787.585 242.425   3 
  -3  17   4 383.950 212.445   1 
  -3 -17   4 375.177 174.231   3 
  -3  17   3 3431.36 537.915   1 
  -3 -17   3 3725.07 510.629   3 
  -3 -17   2 1374.11 303.990   3 
  -3 -17   1 164.672 123.735   3 
  -3 -17   0 240.022 110.854   3 
  -3 -17  -1 19.2144 78.5460   3 
  -3 -17  -2 2038.35 363.307   3 
   3  17   3 6191.74 703.906   2 
  -3 -17  -3 5949.74 611.961   3 
   3  17   4 76.3574 142.838   2 
  -3 -17  -4-30.2834 56.2484   3 
   3  17   5 787.649 274.384   2 
  -3 -17  -5 933.556 244.046   3 
   3  17   6 338.661 161.528   2 
  -3 -17  -6 283.625 136.275   3 
   3  17   7-128.675 148.544   2 
   3  17   8 266.632 158.593   2 
   3  17   9 580.313 238.550   2 
   3  17  10 738.944 273.305   2 
   3  17  11 904.090 297.581   2 
   3  17  12 638.185 257.571   2 
  -3  18  14 136.830 117.813   1 
  -3  18  13 351.399 196.970   1 
  -3  18  12-122.216 197.306   1 
  -3  18  11 1360.24 356.045   1 
  -3  18  10 1725.07 403.239   1 
  -3  18   9 385.183 201.557   1 
  -3  18   8 3256.82 526.472   1 
  -3  18   7-221.471 149.457   1 
  -3 -18   6 418.253 195.458   3 
  -3  18   6 280.813 131.535   1 
  -3  18   5 3320.37 515.247   1 
  -3 -18   5 3535.37 521.065   3 
  -3  18   4 1789.70 377.109   1 
  -3 -18   4 1591.61 352.538   3 
  -3 -18   3 1312.30 311.115   3 
  -3  18   3 1362.20 342.765   1 
  -3 -18   2 444.330 181.549   3 
  -3 -18   1 625.659 204.007   3 
  -3 -18   0 558.762 184.524   3 
  -3 -18  -1 125.228 93.9597   3 
  -3 -18  -2 109.453 109.623   3 
  -3 -18  -3 575.251 202.340   3 
   3  18   3 613.636 242.227   2 
  -3 -18  -4 1812.61 345.766   3 
   3  18   4 2268.95 421.557   2 
   3  18   5 133.603 150.431   2 
  -3 -18  -5 238.276 107.000   3 
   3  18   6 528.780 221.253   2 
  -3 -18  -6 403.810 162.439   3 
   3  18   7 175.983 155.588   2 
   3  18   8 627.629 245.320   2 
   3  18   9 140.363 92.2455   2 
   3  18  10 3274.99 559.247   2 
   3  18  11 141.036 137.358   2 
  -3  19  13-194.368 223.707   1 
  -3  19  12 53.5930 113.238   1 
  -3  19  11 520.448 251.353   1 
  -3  19  10 185.540 150.306   1 
  -3  19   9 441.103 216.249   1 
  -3  19   8 1939.91 419.060   1 
  -3 -19   7 1.81198 53.8780   3 
  -3  19   7 70.2985 117.312   1 
  -3 -19   6 142.115 133.072   3 
  -3  19   6 52.8564 99.8778   1 
  -3  19   5 10.8055 76.8402   1 
  -3 -19   5 14.0358 122.181   3 
  -3  19   4 34.6655 75.2582   1 
  -3 -19   4-93.4045 118.272   3 
  -3 -19   3 676.604 219.322   3 
  -3  19   3 755.047 251.412   1 
  -3 -19   2 188.708 142.806   3 
  -3 -19   1-28.7911 91.7779   3 
  -3 -19   0 258.644 136.407   3 
  -3 -19  -1-12.1053 69.7676   3 
  -3 -19  -2 829.641 243.799   3 
  -3 -19  -3 510.460 198.663   3 
   3  19   4 187.004 150.986   2 
  -3 -19  -4 94.3934 114.002   3 
   3  19   5 123.146 104.567   2 
  -3 -19  -5 30.0465 67.4461   3 
   3  19   6 610.893 235.488   2 
  -3 -19  -6 828.694 246.869   3 
   3  19   7 863.062 274.064   2 
   3  19   8 689.648 262.267   2 
   3  19   9 1921.19 423.737   2 
   3  19  10 53.3695 92.4197   2 
   3  19  11 1931.37 435.704   2 
  -3  20  13-300.698 193.140   1 
  -3  20  12 3.61002 137.459   1 
  -3  20  11 170.526 124.514   1 
  -3  20  10-94.6467 114.524   1 
  -3  20   9 255.607 163.991   1 
  -3 -20   8 101.126 167.760   3 
  -3  20   8 14.3021 96.0279   1 
  -3 -20   7 1176.14 331.771   3 
  -3  20   7 743.752 260.213   1 
  -3 -20   6-45.2041 70.0630   3 
  -3  20   6 40.9154 68.6892   1 
  -3  20   5 343.930 150.955   1 
  -3 -20   5 416.037 197.701   3 
  -3  20   4 670.931 247.605   1 
  -3 -20   4 1028.11 286.430   3 
  -3 -20   3 180.997 163.840   3 
  -3  20   3 26.9214 94.1847   1 
  -3 -20   2 1389.46 316.562   3 
  -3 -20   1 848.494 256.378   3 
  -3 -20   0 708.264 237.072   3 
  -3 -20  -1 177.344 126.026   3 
  -3 -20  -2-12.1282 61.2185   3 
  -3 -20  -3 317.196 168.571   3 
   3  20   4 1462.74 352.864   2 
  -3 -20  -4 1284.76 309.145   3 
   3  20   5 863.899 292.025   2 
  -3 -20  -5 572.328 202.433   3 
   3  20   6-5.73856 62.7334   2 
   3  20   7 252.395 159.776   2 
   3  20   8-24.6654 87.7889   2 
   3  20   9 121.765 117.420   2 
   3  20  10 2440.28 492.406   2 
   3  20  11 188.994 147.259   2 
  -3  21  12-507.069 237.884   1 
  -3  21  11 917.704 309.865   1 
  -3  21  10 226.840 180.070   1 
  -3 -21   9 1135.67 344.470   3 
  -3  21   9 1162.96 330.955   1 
  -3 -21   8 184.451 137.178   3 
  -3  21   8 30.9019 94.9747   1 
  -3 -21   7 96.7254 102.556   3 
  -3  21   7 470.019 215.526   1 
  -3 -21   6-104.676 122.689   3 
  -3  21   6-51.9648 125.100   1 
  -3  21   5-24.9780 117.740   1 
  -3 -21   5 197.074 148.964   3 
  -3  21   4 698.181 248.594   1 
  -3 -21   4 1101.90 312.214   3 
  -3 -21   3 2049.32 406.668   3 
  -3  21   3 2131.95 452.936   1 
  -3 -21   2-58.9533 115.818   3 
  -3 -21   1 288.184 164.793   3 
  -3 -21   0-57.5395 80.5415   3 
  -3 -21  -1 86.0729 115.521   3 
  -3 -21  -2 105.672 107.681   3 
  -3 -21  -3 1399.22 330.642   3 
   3  21   4 194.905 172.206   2 
  -3 -21  -4 142.287 109.014   3 
   3  21   5 491.668 232.124   2 
  -3 -21  -5 701.187 241.150   3 
   3  21   6 113.995 133.258   2 
   3  21   7 151.030 133.031   2 
   3  21   8 47.6117 82.1500   2 
   3  21   9 1168.43 340.023   2 
   3  21  10 13.9263 75.4042   2 
  -3  22  11 1419.85 374.660   1 
  -3  22  10 172.912 176.463   1 
  -3  22   9 485.302 230.047   1 
  -3 -22   8 38.1254 85.4664   3 
  -3  22   8 219.579 169.416   1 
  -3  22   7 2563.17 489.393   1 
  -3 -22   7 2326.84 472.211   3 
  -3 -22   6 391.163 218.133   3 
  -3  22   6 466.288 189.556   1 
  -3  22   5 2786.10 500.553   1 
  -3 -22   5 3103.94 510.482   3 
  -3  22   4 476.186 183.221   1 
  -3 -22   4 610.643 242.417   3 
  -3 -22   3 161.267 128.799   3 
  -3  22   3 146.593 151.548   1 
  -3 -22   2 380.950 172.150   3 
  -3 -22   1 149.063 148.376   3 
  -3 -22   0 967.475 294.013   3 
  -3 -22  -1 524.545 200.222   3 
  -3 -22  -2 80.6256 73.3478   3 
  -3 -22  -3 587.313 214.912   3 
  -3 -22  -4 146.635 120.749   3 
   3  22   5 1442.54 372.864   2 
  -3 -22  -5 2019.35 412.410   3 
   3  22   6 1879.31 406.671   2 
   3  22   7 263.396 172.891   2 
   3  22   8 72.8142 163.088   2 
   3  22   9 465.358 206.702   2 
   3  22  10 66.2061 62.4280   2 
  -3  23  10 179.521 176.188   1 
  -3  23   9 1053.10 321.453   1 
  -3  23   8 212.887 189.479   1 
  -3  23   7 505.973 233.688   1 
  -3 -23   6-44.4419 83.6865   3 
  -3  23   6-78.2082 114.797   1 
  -3 -23   5 290.462 190.514   3 
  -3  23   5 81.9377 75.2884   1 
  -3  23   4-59.5218 135.145   1 
  -3 -23   4-96.7481 169.713   3 
  -3 -23   3 1114.57 318.570   3 
  -3  23   3 1023.93 300.543   1 
  -3 -23   2 1350.14 343.789   3 
  -3 -23   1 169.898 141.741   3 
  -3 -23   0 308.445 169.478   3 
  -3 -23  -1 611.807 236.105   3 
  -3 -23  -2 73.4749 98.7472   3 
  -3 -23  -3 150.510 135.370   3 
  -3 -23  -4 103.972 79.7923   3 
   3  23   5 824.213 280.823   2 
  -3 -23  -5 493.767 233.050   3 
   3  23   6 1686.79 388.874   2 
   3  23   7 949.773 299.907   2 
   3  23   8 118.385 93.6431   2 
   3  23   9 19.2367 68.1507   2 
  -3  24   9 449.745 226.007   1 
  -3  24   8-85.2579 164.348   1 
  -3  24   7-231.916 163.710   1 
  -3  24   6-9.40405 108.965   1 
  -3  24   5 366.232 197.198   1 
  -3  24   4 88.9291 105.092   1 
  -3 -24   4 83.2276 110.124   3 
  -3 -24   3 45.0873 89.3041   3 
  -3  24   3 51.1290 83.1091   1 
  -3 -24   2 2597.21 494.921   3 
  -3 -24   1 299.286 191.279   3 
  -3 -24   0 157.464 86.8611   3 
  -3 -24  -1 307.671 141.539   3 
  -3 -24  -2 884.870 287.171   3 
  -3 -24  -3 932.285 302.363   3 
  -3 -24  -4 2012.98 430.075   3 
   3  24   5 189.224 150.106   2 
  -3 -24  -5 149.211 130.129   3 
   3  24   6 547.782 231.068   2 
   3  24   7-43.3789 92.0063   2 
   3  24   8 43.4516 109.574   2 
   3  24   9 839.542 329.268   2 
  -3  25   7 298.387 153.170   1 
  -3  25   6-91.9593 71.7531   1 
  -3  25   5 342.045 154.348   1 
  -3  25   4-60.0637 141.368   1 
  -3  25   3 127.577 112.244   1 
   3  25   6 505.712 248.042   2 
   3  25   7 285.709 192.090   2 
  -4   0  14 981.844 342.535   1 
  -4   0  13 819.959 316.926   1 
  -4   0  12 1031.63 349.079   1 
  -4   0  11 582.334 248.662   1 
  -4   0  10 609.066 260.100   1 
  -4   0   9 354.137 164.298   1 
  -4   0   8 928.795 277.814   1 
  -4   0   7 235.020 112.530   1 
  -4   0   6 462.856 181.938   1 
  -4   0   5-573.315 207.821   1 
  -4   0   4 1007.91 267.810   1 
  -4   0   3 158.684 125.195   1 
  -4   0   2 756.172 256.185   1 
  -4   0   1 6.06414 46.0353   3 
  -4   0   1 98.4927 82.4302   1 
  -4   0   0 479.380 103.621   3 
  -4   0   0 458.516 156.012   1 
  -4   0  -1-40.2652 28.6662   3 
  -4   0  -1 15.0532 56.5929   1 
  -4   0  -2-4.25948 60.1233   1 
  -4   0  -3-6.66886 67.0718   1 
  -4   0  -4 2898.02 421.993   1 
   4   0   5 222.864 217.989   2 
   4   0   6 639.034 302.582   2 
   4   0   7 182.003 179.264   2 
   4   0   8 480.339 237.617   2 
   4   0   9-71.2383 81.7175   2 
   4   0  10 448.359 193.046   2 
   4   0  11 237.185 205.703   2 
   4   0  12 1092.10 363.847   2 
  -4   1  14 1123.58 346.747   1 
  -4  -1  14 550.145 234.728   1 
  -4   1  13 1072.60 344.912   1 
  -4  -1  13 1160.00 382.025   1 
  -4   1  12 2386.21 466.155   1 
  -4  -1  12 2465.11 486.993   1 
  -4   1  11 1047.32 305.452   1 
  -4  -1  11 1414.62 355.766   1 
  -4   1  10 583.344 236.426   1 
  -4  -1  10 701.799 263.163   1 
  -4   1   9 761.924 270.845   1 
  -4  -1   9 1842.54 407.691   1 
  -4  -1   8 1127.73 302.626   1 
  -4   1   8 997.650 291.180   1 
  -4  -1   7 2321.69 425.861   1 
  -4   1   7 940.380 279.562   1 
  -4   1   6 184.511 83.5218   1 
  -4  -1   6 553.843 200.197   1 
  -4   1   5-5.10292 78.8338   1 
  -4  -1   5-456.708 188.397   1 
  -4   1   4 868.589 249.269   1 
  -4  -1   4 458.441 174.109   1 
  -4   1   3 234.376 105.934   1 
  -4  -1   3 601.443 213.465   1 
  -4   1   2 1553.17 320.335   1 
  -4  -1   2 1722.11 337.475   1 
  -4  -1   1 122.624 88.0471   3 
  -4   1   1-37.1028 44.6875   3 
  -4   1   1 8.13610 59.5411   1 
  -4  -1   0 561.014 116.200   3 
  -4   1   0 533.324 202.372   1 
  -4  -1   0 463.471 166.360   1 
  -4   1   0 559.652 103.460   3 
  -4  -1  -1-6.49368 28.0225   3 
  -4   1  -1 18.2825 84.1247   1 
  -4  -1  -1-13.9095 61.8453   1 
  -4   1  -2-42.8834 76.5265   1 
  -4  -1  -2 141.789 67.6543   1 
  -4  -1  -3 385.667 146.581   1 
  -4   1  -3 370.155 159.602   1 
  -4   1  -4 1872.60 350.418   1 
  -4  -1  -4 1736.62 314.399   1 
   4   1   5 348.056 215.631   2 
   4  -1   5 250.480 187.253   2 
  -4  -1  -5 421.759 191.634   1 
   4   1   6 4214.53 630.517   2 
   4  -1   6 3971.72 601.371   2 
   4   1   7 564.940 266.300   2 
   4  -1   7 87.8985 145.263   2 
   4   1   8 593.325 269.575   2 
   4  -1   8 636.253 249.978   2 
   4   1   9 150.134 122.574   2 
   4  -1   9 117.136 84.8641   2 
   4   1  10 297.791 168.275   2 
   4  -1  10 488.203 232.648   2 
   4   1  11 75.9829 122.273   2 
   4  -1  11 162.523 195.761   2 
   4   1  12 938.837 307.239   2 
   4  -1  12 885.593 308.458   2 
  -4   2  14 1124.03 374.336   1 
  -4  -2  14-93.3356 154.316   1 
  -4   2  13 1021.91 315.409   1 
  -4  -2  13 1215.72 358.242   1 
  -4   2  12 1905.84 425.124   1 
  -4  -2  12 1715.43 420.266   1 
  -4   2  11 466.239 234.765   1 
  -4  -2  11 395.871 234.481   1 
  -4   2  10 166.210 166.028   1 
  -4  -2  10 188.291 180.785   1 
  -4   2   9 2391.12 446.946   1 
  -4  -2   9 2535.06 453.980   1 
  -4  -2   8 745.014 265.069   1 
  -4   2   8 333.736 189.838   1 
  -4   2   7 3064.27 481.903   1 
  -4  -2   7 3164.38 480.937   1 
  -4   2   6 1449.35 312.784   1 
  -4  -2   6 1618.21 336.829   1 
  -4   2   5 98.1976 116.568   1 
  -4  -2   5 175.466 157.765   1 
  -4   2   4 612.577 201.487   1 
  -4  -2   4 280.461 120.241   1 
  -4   2   3 848.405 238.466   1 
  -4  -2   3 1020.36 241.811   1 
  -4   2   2 1277.77 302.867   1 
  -4  -2   2 1190.24 268.381   1 
  -4   2   1 808.131 210.399   1 
  -4  -2   1 978.515 239.627   1 
  -4  -2   1 869.386 167.790   3 
  -4  -2   0 544.831 124.763   3 
  -4   2   0 457.354 180.780   1 
  -4  -2   0 724.980 213.497   1 
  -4   2   0 613.792 96.9694   3 
  -4  -2  -1 397.588 94.6138   3 
  -4   2  -1 342.766 146.505   1 
  -4  -2  -1 435.708 167.816   1 
  -4   2  -2 7.79822 85.0642   1 
  -4  -2  -2-64.2361 105.276   1 
  -4  -2  -2-16.7947 42.0913   3 
  -4  -2  -3 219.488 109.862   1 
  -4   2  -3 303.688 158.657   1 
  -4  -2  -4 1236.92 263.556   1 
   4   2   5 6037.87 737.052   2 
  -4  -2  -5 4964.07 524.825   1 
   4  -2   6 1552.03 404.246   2 
   4   2   6 1319.68 357.423   2 
  -4  -2  -6 1058.02 246.443   1 
   4   2   7 3904.05 604.280   2 
   4  -2   7 3843.85 594.276   2 
   4   2   8 167.433 192.497   2 
   4  -2   8 163.977 132.380   2 
   4   2   9 198.094 125.709   2 
   4  -2   9 125.188 120.320   2 
   4   2  10 365.230 188.816   2 
   4  -2  10 433.441 213.346   2 
   4   2  11 1623.03 431.124   2 
   4  -2  11 784.775 288.676   2 
   4   2  12 212.800 203.176   2 
   4  -2  12 249.403 214.703   2 
   4  -2  13 2460.13 520.294   2 
  -4   3  14 433.508 280.170   1 
  -4  -3  14 170.425 191.757   1 
  -4   3  13 1321.82 359.584   1 
  -4  -3  13 397.183 169.083   1 
  -4   3  12 1011.87 314.794   1 
  -4  -3  12 1050.50 331.066   1 
  -4   3  11 101.124 85.5552   1 
  -4  -3  11 663.553 267.629   1 
  -4  -3  10 842.563 280.021   1 
  -4   3  10 428.332 197.885   1 
  -4  -3   9 1225.61 338.998   1 
  -4   3   9 797.934 264.423   1 
  -4  -3   8 1598.52 346.911   1 
  -4   3   8 904.503 246.811   1 
  -4   3   7 2419.44 455.033   1 
  -4  -3   7 3284.39 492.881   1 
  -4   3   6 613.397 227.377   1 
  -4  -3   6 310.329 171.685   1 
  -4   3   5 533.876 194.637   1 
  -4  -3   5 318.780 140.163   1 
  -4   3   4-30.5639 119.628   1 
  -4  -3   4-67.7296 146.198   1 
  -4   3   3 680.467 216.840   1 
  -4  -3   3 459.305 155.983   1 
  -4   3   2 435.533 162.491   1 
  -4  -3   2 526.035 199.006   1 
  -4  -3   1 63.9703 60.0333   3 
  -4   3   1 100.618 107.495   1 
  -4  -3   0 722.946 153.032   3 
  -4   3   0 888.077 225.533   1 
  -4  -3   0 746.092 212.657   1 
  -4  -3  -1 151.354 63.0194   3 
  -4   3  -1 31.4307 114.581   1 
  -4  -3  -1 170.588 78.8944   1 
  -4  -3  -2 12.0739 70.2057   1 
  -4   3  -2-95.5670 98.5444   1 
  -4  -3  -2 3.78470 26.5662   3 
  -4  -3  -3 822.078 198.718   1 
  -4  -3  -4 101.300 132.681   1 
  -4  -3  -5 315.262 162.135   1 
   4   3   5 492.439 237.781   2 
   4   3   6 114.618 123.157   2 
   4  -3   6 192.935 187.663   2 
  -4  -3  -6 20.7514 75.7608   1 
   4   3   7 7833.59 853.490   2 
   4  -3   7 7590.32 837.342   2 
   4   3   8 583.084 232.714   2 
   4  -3   8 858.671 294.127   2 
   4   3   9-24.7052 119.462   2 
   4  -3   9 136.597 75.3386   2 
   4   3  10 315.786 197.410   2 
   4  -3  10 405.093 227.766   2 
   4   3  11 1552.64 410.507   2 
   4  -3  11 1770.99 434.252   2 
   4  -3  12 215.476 152.758   2 
   4  -3  13 634.475 263.413   2 
  -4  -4  14 91.1968 101.300   1 
  -4   4  14 455.263 255.919   1 
  -4   4  13 352.917 253.116   1 
  -4  -4  13-162.278 180.965   1 
  -4   4  12 150.525 155.546   1 
  -4  -4  12-151.854 155.455   1 
  -4   4  11 14.3724 78.2417   1 
  -4  -4  11 643.186 273.704   1 
  -4  -4  10 593.836 259.821   1 
  -4   4  10 122.008 124.249   1 
  -4  -4   9 2134.23 421.509   1 
  -4   4   9 1916.15 412.987   1 
  -4  -4   8 867.616 288.648   1 
  -4   4   8 740.378 261.422   1 
  -4   4   7 3954.56 567.483   1 
  -4  -4   7 4039.35 518.061   1 
  -4  -4   6 99.7276 84.2504   1 
  -4   4   6-20.9001 121.166   1 
  -4   4   5 183.523 132.918   1 
  -4  -4   5 369.589 175.232   1 
  -4   4   4-99.2140 140.173   1 
  -4  -4   4-30.7718 110.060   1 
  -4   4   3 137.946 117.013   1 
  -4  -4   3 404.064 221.543   1 
  -4   4   2 194.511 135.423   1 
  -4  -4   2 1074.27 288.724   1 
  -4  -4   1 619.417 155.937   3 
  -4   4   1 552.285 207.152   1 
  -4  -4   1 1022.71 247.636   1 
  -4   4   0 404.577 155.730   1 
  -4  -4   0 584.520 151.205   3 
  -4   4  -1-87.5461 101.215   1 
  -4  -4  -1-54.7405 63.9243   3 
  -4  -4  -1 146.888 102.648   1 
  -4  -4  -2 72.4516 48.7763   3 
  -4  -4  -2-9.27799 72.5819   1 
  -4   4  -2-61.9433 105.744   1 
  -4  -4  -3 244.331 105.113   1 
  -4  -4  -3 393.411 108.013   3 
  -4  -4  -4 560.182 196.898   1 
  -4  -4  -5 2424.81 344.784   1 
   4   4   5 3437.28 564.405   2 
  -4  -4  -6 398.280 142.690   1 
   4   4   6 732.152 264.192   2 
   4  -4   6 700.016 275.844   2 
   4   4   7 269.235 199.779   2 
   4  -4   7 576.201 298.150   2 
  -4  -4  -7 114.419 133.462   1 
   4   4   8 245.170 186.271   2 
   4  -4   8 89.9629 80.0545   2 
   4   4   9 6.11232 84.9934   2 
   4  -4   9 86.7585 81.3366   2 
   4   4  10 283.837 209.879   2 
   4  -4  10 17.0256 110.495   2 
   4   4  11 1003.33 342.748   2 
   4  -4  11 1924.84 446.764   2 
   4  -4  12 446.818 244.744   2 
   4  -4  13 893.941 339.546   2 
  -4  -5  14 411.007 229.622   1 
  -4   5  13 35.1063 164.902   1 
  -4  -5  13 78.4296 85.7698   1 
  -4   5  12 571.295 250.474   1 
  -4  -5  12 642.867 255.062   1 
  -4   5  11 1.96084 92.4386   1 
  -4  -5  11-332.404 187.589   1 
  -4  -5  10 1220.38 341.691   1 
  -4   5  10 315.128 152.705   1 
  -4  -5   9 1356.20 339.748   1 
  -4   5   9 1031.40 333.395   1 
  -4  -5   8 851.769 281.393   1 
  -4   5   8 384.274 193.669   1 
  -4  -5   7 310.005 190.355   1 
  -4   5   7 1555.10 373.578   1 
  -4  -5   6 709.994 236.559   1 
  -4   5   6 426.758 171.802   1 
  -4  -5   5 651.831 224.315   1 
  -4   5   5 333.483 94.8769   1 
  -4   5   4 293.764 105.851   1 
  -4  -5   4 188.474 105.299   1 
  -4   5   3 2068.49 394.920   1 
  -4  -5   3 2891.39 431.502   1 
  -4   5   2 3396.13 482.740   1 
  -4  -5   2 3592.46 450.626   1 
  -4  -5   2 3772.17 397.315   3 
  -4   5   1 814.259 244.238   1 
  -4  -5   1 639.723 161.161   3 
  -4  -5   1 478.822 152.039   1 
  -4   5   0 1639.42 336.197   1 
  -4  -5   0 2370.53 360.887   1 
  -4  -5   0 2086.46 278.457   3 
  -4  -5  -1 2.55798 32.3597   3 
  -4   5  -1 6.85145 65.5430   1 
  -4  -5  -2 21.0697 33.3518   3 
  -4   5  -2-57.4869 114.366   1 
  -4  -5  -2-42.6996 70.3095   1 
  -4  -5  -3 18.9295 60.3039   1 
  -4  -5  -3 65.9776 43.2643   3 
  -4  -5  -4 4223.11 443.145   1 
  -4  -5  -5 341.064 134.437   1 
   4   5   5 753.727 280.591   2 
  -4  -5  -6 21.3320 38.2343   1 
   4   5   6-20.5104 99.3587   2 
   4  -5   7 5916.26 738.213   2 
  -4  -5  -7 4222.96 441.559   1 
   4   5   7 4995.78 698.950   2 
   4   5   8 104.390 63.7826   2 
   4  -5   8 157.635 142.079   2 
   4   5   9 69.5308 94.6598   2 
   4  -5   9 31.0980 154.953   2 
   4   5  10 202.622 177.930   2 
   4  -5  10-97.2699 136.901   2 
   4   5  11 969.650 320.328   2 
   4  -5  11 1119.72 345.274   2 
   4  -5  12 1470.77 400.967   2 
   4  -5  13 684.362 290.438   2 
  -4  -6  14 67.3476 141.778   1 
  -4   6  13 129.867 160.093   1 
  -4  -6  13 105.658 146.215   1 
  -4   6  12 733.660 285.524   1 
  -4  -6  12 740.318 263.688   1 
  -4  -6  11 347.474 212.536   1 
  -4   6  11 205.144 152.017   1 
  -4  -6  10 541.325 225.852   1 
  -4   6  10 459.564 226.834   1 
  -4  -6   9 257.126 188.193   1 
  -4   6   9 122.360 134.397   1 
  -4  -6   8 982.340 305.766   1 
  -4   6   8 150.393 162.634   1 
  -4  -6   7 389.245 216.375   1 
  -4   6   7 87.6319 122.893   1 
  -4  -6   6 954.293 270.029   1 
  -4   6   6 769.943 261.221   1 
  -4  -6   5 1201.54 290.161   1 
  -4   6   5 615.126 203.890   1 
  -4  -6   4-50.3694 76.1638   1 
  -4   6   4-38.2887 66.1291   1 
  -4   6   3 2225.62 414.710   1 
  -4  -6   3 1987.41 336.205   1 
  -4  -6   2 105.028 82.0319   3 
  -4   6   2 324.212 183.751   1 
  -4  -6   2 122.591 137.702   1 
  -4   6   1 48.8472 58.8749   1 
  -4  -6   1 34.7903 54.1211   3 
  -4  -6   1-68.2406 93.1356   1 
  -4   6   0 2000.15 388.938   1 
  -4  -6   0 2205.23 366.238   1 
  -4  -6   0 2134.41 291.578   3 
  -4  -6  -1 1050.51 190.280   3 
  -4  -6  -1 1091.11 227.434   1 
  -4   6  -1 843.637 245.116   1 
  -4  -6  -2 199.482 85.5156   3 
  -4  -6  -2 107.054 83.5537   1 
  -4  -6  -3 2705.53 347.766   1 
  -4  -6  -3 2812.95 301.303   3 
   4   6   4 261.406 180.905   2 
  -4  -6  -4 92.7556 53.8304   1 
   4   6   5 1273.96 354.491   2 
  -4  -6  -5 959.628 203.671   1 
  -4  -6  -6 153.466 91.9203   1 
   4   6   6 234.725 157.920   2 
   4   6   7 375.670 217.872   2 
   4  -6   7 450.903 253.910   2 
   4   6   8 386.003 211.445   2 
   4  -6   8 655.683 249.903   2 
   4   6   9 3931.27 633.332   2 
   4  -6   9 3989.64 621.699   2 
   4   6  10 335.241 215.682   2 
   4  -6  10 397.621 250.235   2 
   4   6  11 84.8761 126.130   2 
   4  -6  11 204.950 158.969   2 
   4  -6  12 234.775 194.208   2 
   4  -6  13-125.995 168.607   2 
  -4  -7  14 486.234 218.269   1 
  -4   7  13 186.874 156.340   1 
  -4  -7  13 144.794 131.446   1 
  -4   7  12 262.974 194.308   1 
  -4  -7  12 31.3594 114.804   1 
  -4   7  11 903.397 268.308   1 
  -4  -7  11 813.275 269.455   1 
  -4   7  10 361.603 171.771   1 
  -4  -7  10 235.599 126.995   1 
  -4  -7   9 419.378 178.386   1 
  -4   7   9 428.643 177.650   1 
  -4   7   8 1156.98 296.251   1 
  -4  -7   8 1799.96 373.849   1 
  -4  -7   7 771.880 257.254   1 
  -4   7   7 80.6353 104.836   1 
  -4  -7   6 1025.79 284.527   1 
  -4   7   6 339.325 183.798   1 
  -4  -7   5 911.650 266.969   1 
  -4   7   5 614.125 231.766   1 
  -4  -7   4 593.039 199.634   1 
  -4   7   4 207.017 128.565   1 
  -4  -7   3 337.696 145.516   1 
  -4   7   3 757.717 245.962   1 
  -4   7   2 1136.01 290.849   1 
  -4  -7   2 1306.45 252.315   3 
  -4  -7   2 1129.06 244.821   1 
  -4   7   1-109.082 78.4134   1 
  -4  -7   1 161.717 103.349   3 
  -4  -7   1 293.381 163.928   1 
  -4   7   0 4440.21 577.940   1 
  -4  -7   0 4829.46 509.573   1 
  -4  -7   0 4715.85 437.099   3 
  -4  -7  -1-109.010 87.7784   3 
  -4   7  -1-10.8426 60.5774   1 
  -4  -7  -1-131.850 113.024   1 
  -4  -7  -2 175.741 82.0034   3 
  -4  -7  -2 103.669 46.8402   1 
  -4  -7  -3 1853.78 281.037   1 
  -4  -7  -3 2025.03 267.909   3 
   4   7   4 149.155 190.046   2 
  -4  -7  -4 53.9233 39.7645   1 
   4   7   5 711.455 277.653   2 
  -4  -7  -5 448.524 147.942   1 
   4   7   6 681.874 287.505   2 
   4   7   7 229.024 164.721   2 
   4   7   8 41.7355 78.3961   2 
   4  -7   8-106.801 133.043   2 
   4   7   9 115.579 135.154   2 
   4  -7   9 152.162 154.129   2 
   4   7  10 457.055 234.855   2 
   4  -7  10 370.302 187.397   2 
   4  -7  11 389.243 237.471   2 
   4  -7  12 1203.46 358.546   2 
   4  -7  13-40.3522 119.110   2 
  -4  -8  14 135.707 174.097   1 
  -4   8  13 275.073 203.604   1 
  -4  -8  13 421.833 209.053   1 
  -4  -8  12 170.923 122.514   1 
  -4   8  12 342.679 197.261   1 
  -4  -8  11 72.9374 158.670   1 
  -4   8  11 120.201 96.6474   1 
  -4  -8  10 150.148 150.682   1 
  -4   8  10-25.6386 126.600   1 
  -4   8   9-84.0892 175.439   1 
  -4  -8   9 46.7984 107.829   1 
  -4   8   8 821.913 267.427   1 
  -4  -8   8 728.319 240.226   1 
  -4   8   7 504.956 208.964   1 
  -4  -8   7 1173.13 301.373   1 
  -4   8   6 644.087 230.798   1 
  -4  -8   6 1157.02 317.219   1 
  -4   8   5 1145.53 318.882   1 
  -4  -8   5 1603.78 351.369   1 
  -4   8   4 116.578 94.3036   1 
  -4  -8   4 538.972 214.444   1 
  -4  -8   3 94.4682 91.9217   3 
  -4   8   3 55.5250 79.2381   1 
  -4  -8   3 38.0439 79.1273   1 
  -4   8   2 318.790 171.542   1 
  -4  -8   2 117.828 76.1573   1 
  -4  -8   2 144.195 87.6846   3 
  -4   8   1 2414.36 430.517   1 
  -4  -8   1 2841.55 374.894   1 
  -4  -8   1 2679.43 353.508   3 
  -4  -8   0 1653.10 272.088   1 
  -4  -8   0 1608.24 272.840   3 
  -4   8   0 1932.76 388.762   1 
  -4   8  -1 1614.23 353.856   1 
  -4  -8  -1 1980.68 308.367   1 
  -4  -8  -1 1587.37 256.266   3 
  -4  -8  -2 113.339 69.1210   3 
  -4  -8  -2-121.313 119.888   1 
  -4  -8  -3-109.672 109.388   1 
  -4  -8  -3-60.1317 65.9355   3 
   4   8   4 412.360 225.379   2 
  -4  -8  -4 340.402 127.761   1 
  -4  -8  -4 241.383 105.290   3 
   4   8   5 1192.02 350.996   2 
   4   8   6-37.6021 167.249   2 
   4   8   7 811.634 269.200   2 
   4   8   8 344.836 190.625   2 
   4  -8   8 387.792 172.698   2 
   4   8   9 553.335 254.423   2 
   4  -8   9 863.554 310.448   2 
   4   8  10 81.9575 70.9210   2 
   4  -8  10 44.6552 86.6293   2 
   4  -8  11 515.201 246.696   2 
   4  -8  12 214.373 173.460   2 
   4  -8  13 955.651 339.863   2 
  -4  -9  14 83.0319 184.433   1 
  -4  -9  13 297.728 192.514   1 
  -4  -9  12-7.33913 114.774   1 
  -4   9  12-157.467 139.421   1 
  -4  -9  11 55.1643 179.881   1 
  -4   9  11 189.920 140.793   1 
  -4  -9  10 730.087 257.388   1 
  -4   9  10 802.130 278.948   1 
  -4  -9   9-122.728 80.2389   1 
  -4   9   9-140.688 177.519   1 
  -4   9   8 480.005 244.356   1 
  -4  -9   8 233.298 130.707   1 
  -4   9   7 253.911 186.847   1 
  -4  -9   7-88.3478 126.370   1 
  -4   9   6 23.7988 76.5713   1 
  -4  -9   6 209.062 165.609   1 
  -4   9   5 680.901 253.878   1 
  -4  -9   5 697.129 262.483   1 
  -4   9   4 515.818 205.340   1 
  -4  -9   4 737.047 232.452   1 
  -4  -9   3 159.588 107.737   3 
  -4   9   3 8.37476 93.9929   1 
  -4  -9   3 126.173 146.043   1 
  -4   9   2 96.7199 99.1163   1 
  -4  -9   2 194.563 115.929   3 
  -4  -9   2 201.928 136.773   1 
  -4   9   1 1014.39 279.623   1 
  -4  -9   1 548.294 170.295   3 
  -4  -9   1 754.526 190.871   1 
  -4  -9   0 100.728 72.0584   3 
  -4  -9   0 350.226 130.042   1 
  -4   9   0 373.406 202.109   1 
  -4  -9  -1 788.247 189.874   3 
  -4  -9  -1 994.823 211.001   1 
  -4  -9  -2 1206.86 235.682   3 
  -4  -9  -2 1189.87 211.444   1 
  -4  -9  -3-22.6541 57.8824   1 
  -4  -9  -3-51.3202 48.6462   3 
   4   9   4 1564.90 406.153   2 
  -4  -9  -4 1424.15 248.364   3 
   4   9   5 590.125 266.434   2 
   4   9   6 181.157 142.549   2 
   4   9   7 157.848 116.901   2 
   4   9   8 639.748 250.455   2 
   4   9   9 494.739 238.575   2 
   4  -9   9 233.826 140.694   2 
   4   9  10 110.561 92.4902   2 
   4  -9  10 96.3003 112.218   2 
   4  -9  11 790.941 293.214   2 
   4  -9  12-156.096 99.4867   2 
   4  -9  13 0.48061 118.341   2 
  -4 -10  14 301.804 181.913   1 
  -4 -10  13 204.215 151.306   1 
  -4 -10  12 391.753 218.305   1 
  -4  10  12 112.272 90.3660   1 
  -4 -10  11 718.335 250.614   1 
  -4  10  11 424.992 195.819   1 
  -4 -10  10 405.777 198.579   1 
  -4  10  10-40.5001 148.485   1 
  -4 -10   9 165.432 170.350   1 
  -4  10   9-21.3955 126.084   1 
  -4 -10   8 145.134 119.162   1 
  -4  10   8 25.2202 70.8391   1 
  -4  10   7 91.4509 112.140   1 
  -4 -10   7 24.0215 70.8675   1 
  -4  10   6-92.9095 106.078   1 
  -4 -10   6-31.7228 85.9315   1 
  -4  10   5 190.667 128.496   1 
  -4 -10   5-77.8817 122.566   1 
  -4  10   4 193.023 118.917   1 
  -4 -10   4 301.021 152.072   1 
  -4 -10   3 400.013 157.300   3 
  -4  10   3 350.820 163.332   1 
  -4 -10   3 792.903 230.395   1 
  -4  10   2 615.979 216.290   1 
  -4 -10   2 647.023 206.208   3 
  -4 -10   2 681.219 212.504   1 
  -4  10   1 101.179 90.0191   1 
  -4 -10   1 201.326 117.992   3 
  -4 -10   1 336.998 123.657   1 
  -4 -10   0 267.079 103.228   3 
  -4 -10   0 595.627 162.371   1 
  -4  10   0 435.568 198.724   1 
  -4 -10  -1 140.856 94.7819   3 
  -4 -10  -1 327.356 137.139   1 
  -4 -10  -2-1.46304 71.3325   3 
  -4 -10  -2-1.58558 56.0770   1 
  -4 -10  -3 1357.97 248.831   3 
  -4 -10  -4 1204.74 231.479   3 
   4  10   5 1350.10 377.314   2 
   4  10   6-53.1799 100.242   2 
   4  10   7 120.975 77.0516   2 
   4  10   8 243.240 195.048   2 
   4  10   9 728.172 290.799   2 
   4 -10   9 715.023 261.403   2 
   4 -10  10-11.8196 71.4044   2 
   4 -10  11-202.221 142.558   2 
   4 -10  12 207.166 144.339   2 
   4 -10  13 459.692 268.149   2 
  -4 -11  14 154.546 214.402   1 
  -4 -11  13 477.961 211.097   1 
  -4 -11  12 366.682 218.105   1 
  -4 -11  11 224.858 156.156   1 
  -4  11  11-66.8483 131.580   1 
  -4  11  10-258.222 180.183   1 
  -4 -11  10 156.021 128.143   1 
  -4 -11   9 355.354 173.269   1 
  -4  11   9 7.11783 93.1174   1 
  -4 -11   8 701.293 228.181   1 
  -4  11   8 778.582 260.956   1 
  -4 -11   7 128.517 114.597   1 
  -4  11   7-362.647 184.872   1 
  -4 -11   6 297.768 182.525   1 
  -4  11   6 72.7184 108.607   1 
  -4  11   5 1204.99 325.711   1 
  -4 -11   5 1173.85 286.193   1 
  -4 -11   4 155.094 126.596   3 
  -4  11   4 56.8692 116.797   1 
  -4 -11   4-13.9967 73.9802   1 
  -4  11   3 656.577 232.329   1 
  -4 -11   3 447.496 166.685   3 
  -4 -11   3 833.468 220.847   1 
  -4  11   2 1136.70 296.691   1 
  -4 -11   2 1196.37 263.268   3 
  -4 -11   2 1949.17 318.957   1 
  -4  11   1 11.4197 89.8053   1 
  -4 -11   1 128.411 106.743   3 
  -4 -11   1 141.769 130.259   1 
  -4 -11   0-55.1786 96.4005   3 
  -4  11   0 67.2299 133.660   1 
  -4 -11   0 232.063 121.390   1 
  -4 -11  -1 332.231 139.176   3 
  -4 -11  -2 1709.25 296.634   3 
  -4 -11  -3 1547.58 272.718   3 
  -4 -11  -4 747.410 197.132   3 
   4  11   5 918.234 292.913   2 
   4  11   6 693.034 278.228   2 
   4  11   7 597.401 267.466   2 
   4  11   8 656.249 272.751   2 
   4  11   9 97.5560 122.166   2 
   4 -11  10 395.203 201.849   2 
   4 -11  11 595.169 237.786   2 
   4 -11  12 189.278 134.240   2 
  -4 -12  13 168.095 163.139   1 
  -4 -12  12 310.887 189.619   1 
  -4 -12  11 490.869 238.397   1 
  -4  12  11 47.6115 94.0081   1 
  -4 -12  10 53.6513 121.555   1 
  -4  12  10-691.624 268.551   1 
  -4  12   9-54.2740 87.3957   1 
  -4 -12   9-170.581 78.2161   1 
  -4  12   8-49.8705 116.844   1 
  -4 -12   8 207.947 99.5038   1 
  -4  12   7-159.664 133.159   1 
  -4 -12   7 67.9642 128.615   1 
  -4  12   6 898.964 282.993   1 
  -4 -12   6 1052.26 272.747   1 
  -4  12   5 2303.21 447.191   1 
  -4 -12   5 2258.23 361.837   1 
  -4 -12   4 64.2763 96.8149   1 
  -4 -12   4-32.2080 51.1112   3 
  -4  12   4-84.7972 122.621   1 
  -4 -12   3 1063.66 236.387   1 
  -4  12   3 1229.58 310.743   1 
  -4 -12   3 792.357 215.098   3 
  -4  12   2 388.441 173.829   1 
  -4 -12   2 728.935 211.672   3 
  -4 -12   2 594.027 171.412   1 
  -4 -12   1 897.461 227.487   3 
  -4 -12   1 921.207 180.500   1 
  -4  12   1 826.235 279.223   1 
  -4 -12   0 557.421 166.018   3 
  -4  12   0 612.240 227.538   1 
  -4 -12  -1 382.033 163.709   3 
  -4 -12  -2 75.3603 85.9782   3 
  -4 -12  -3 1111.37 239.021   3 
  -4 -12  -4 161.778 60.3709   3 
   4  12   5 145.846 162.663   2 
   4  12   6 81.4331 80.9952   2 
   4  12   7 375.083 232.999   2 
   4  12   8 115.772 135.871   2 
   4 -12  11-80.8724 201.404   2 
  -4 -13  13 410.761 235.642   1 
  -4 -13  12-73.4462 110.435   1 
  -4 -13  11-2.56399 72.9876   1 
  -4  13  10 91.4833 120.822   1 
  -4 -13  10 485.631 208.421   1 
  -4 -13   9 502.922 209.940   1 
  -4  13   9 401.394 203.625   1 
  -4 -13   8 346.305 169.192   1 
  -4  13   8-51.3179 149.183   1 
  -4  13   7 504.720 222.499   1 
  -4 -13   7 748.984 226.374   1 
  -4  13   6 241.276 171.067   1 
  -4 -13   6 388.478 163.164   1 
  -4 -13   5 486.257 202.824   3 
  -4  13   5 571.974 228.860   1 
  -4 -13   5 630.466 207.104   1 
  -4 -13   4 189.470 128.654   3 
  -4  13   4 618.977 221.290   1 
  -4 -13   4 467.755 165.602   1 
  -4  13   3 230.178 186.967   1 
  -4 -13   3 366.855 169.840   3 
  -4 -13   3 352.714 133.642   1 
  -4  13   2 89.2900 120.830   1 
  -4 -13   2 7.87931 75.0625   3 
  -4 -13   1 325.598 147.065   3 
  -4  13   1 336.208 160.587   1 
  -4 -13   0-50.1923 66.2255   3 
  -4  13   0 44.0646 68.2636   1 
  -4 -13  -1 338.060 164.688   3 
  -4 -13  -2 796.861 220.155   3 
  -4 -13  -3 134.500 78.2093   3 
  -4 -13  -4 365.719 138.752   3 
   4  13   5 451.520 238.983   2 
   4  13   6 567.120 252.441   2 
   4  13   7 48.9974 66.5049   2 
   4  13   8 443.147 221.909   2 
  -4 -14  13 130.966 129.445   1 
  -4 -14  12 164.254 162.901   1 
  -4 -14  11 243.531 166.980   1 
  -4 -14  10 337.909 180.664   1 
  -4 -14   9 368.166 182.147   1 
  -4  14   9 166.677 150.395   1 
  -4  14   8 77.4826 97.1401   1 
  -4 -14   8 402.786 188.312   1 
  -4  14   7 87.5348 116.169   1 
  -4 -14   7 418.464 170.586   1 
  -4  14   6 31.8013 101.451   1 
  -4 -14   6 171.882 136.293   1 
  -4  14   5 1857.55 405.522   1 
  -4 -14   5 1930.47 330.280   1 
  -4 -14   5 1724.50 362.303   3 
  -4 -14   4 475.363 175.773   1 
  -4 -14   4 561.085 217.896   3 
  -4  14   4 250.095 148.330   1 
  -4  14   3 486.604 203.818   1 
  -4 -14   3 573.531 208.971   3 
  -4  14   2 516.571 216.824   1 
  -4 -14   2 696.416 214.937   3 
  -4 -14   1-113.710 129.327   3 
  -4  14   1-98.2988 108.469   1 
  -4 -14   0 1063.51 254.505   3 
  -4 -14  -1 696.104 211.910   3 
  -4 -14  -2 716.985 212.177   3 
  -4 -14  -3 185.224 85.9552   3 
  -4 -14  -4 381.964 148.246   3 
   4  14   5 638.111 255.756   2 
  -4 -14  -5 472.442 153.008   3 
   4  14   6 268.808 183.030   2 
   4  14   7 735.809 299.134   2 
  -4 -15  11 140.059 156.781   1 
  -4 -15  10 962.412 265.084   1 
  -4 -15   9 191.391 132.985   1 
  -4  15   9 151.370 142.128   1 
  -4  15   8 251.591 183.484   1 
  -4 -15   8 106.644 89.7800   1 
  -4  15   7-31.2755 76.4001   1 
  -4 -15   7 120.935 104.571   1 
  -4 -15   6 15.4528 60.3127   3 
  -4  15   6 165.621 137.603   1 
  -4 -15   5 457.242 212.260   3 
  -4  15   5 420.963 234.054   1 
  -4  15   4 2501.75 476.379   1 
  -4 -15   4 2233.80 415.435   3 
  -4  15   3 195.054 147.728   1 
  -4 -15   3 211.593 118.575   3 
  -4  15   2 467.003 201.207   1 
  -4 -15   2 269.364 145.857   3 
  -4 -15   1-105.097 115.127   3 
  -4  15   1-51.8762 125.441   1 
  -4 -15   0 34.6945 88.6573   3 
  -4 -15  -1-24.0141 79.3562   3 
  -4 -15  -2 6593.77 659.616   3 
  -4 -15  -3 291.430 142.478   3 
  -4 -15  -4 401.503 188.226   3 
   4  15   5 101.136 139.196   2 
  -4 -15  -5 53.6194 66.8582   3 
   4  15   6-92.3068 110.170   2 
   4  15   7 86.1052 132.825   2 
  -4 -16   7 230.068 174.628   3 
  -4  16   7 213.952 98.3140   1 
  -4 -16   6-174.295 146.021   3 
  -4  16   6 6.85433 101.235   1 
  -4 -16   5 111.866 80.6546   3 
  -4  16   5 387.906 226.115   1 
  -4  16   4 2176.94 449.713   1 
  -4 -16   4 2348.54 424.633   3 
  -4  16   3 92.9264 133.496   1 
  -4 -16   3 182.514 119.848   3 
  -4  16   2 936.248 295.469   1 
  -4 -16   2 605.160 194.203   3 
  -4 -16   1-203.066 159.641   3 
  -4  16   1-11.2983 94.1133   1 
  -4 -16   0 126.274 124.195   3 
  -4 -16  -1 67.8189 93.1154   3 
  -4 -16  -2 318.122 161.839   3 
  -4 -16  -3 1326.74 294.937   3 
  -4 -16  -4 60.9660 70.4355   3 
   4  16   5 1.84502 67.8918   2 
  -4 -16  -5 39.8212 51.6734   3 
   4  16   6 594.173 236.980   2 
  -4 -17   7-50.1738 59.0806   3 
  -4 -17   6 166.519 80.1610   3 
  -4  17   6 267.780 154.238   1 
  -4 -17   5-32.1169 65.6656   3 
  -4  17   5 69.7167 106.314   1 
  -4 -17   4 57.7387 98.2191   3 
  -4  17   4 75.8773 139.404   1 
  -4  17   3 179.967 163.200   1 
  -4 -17   3 254.281 138.703   3 
  -4  17   2-35.0178 98.4088   1 
  -4 -17   2 53.7454 63.8147   3 
  -4 -17   1 20.1549 97.6263   3 
  -4  17   1-69.8815 74.0130   1 
  -4 -17   0 451.903 182.472   3 
  -4 -17  -1 342.888 150.565   3 
  -4 -17  -2 762.631 241.782   3 
  -4 -17  -3 344.280 175.191   3 
  -4 -17  -4 734.680 226.750   3 
  -4 -17  -5 69.2822 70.0232   3 
   4  17   6-9.97008 72.6812   2 
  -4 -18   7 210.254 141.993   3 
  -4 -18   6 95.7696 62.9377   3 
  -4 -18   5 219.125 139.737   3 
  -4 -18   4 3.10434 83.0440   3 
  -4  18   3-66.9042 146.258   1 
  -4 -18   3 107.823 111.249   3 
  -4  18   2 98.1846 139.322   1 
  -4 -18   2 212.922 135.568   3 
  -4 -18   1 392.374 174.945   3 
  -4  18   1 257.787 164.995   1 
  -4 -18   0 294.916 183.401   3 
  -4 -18  -1 206.830 151.773   3 
  -4 -18  -2 288.766 150.947   3 
  -4 -18  -3 636.656 221.056   3 
  -4 -18  -4 122.429 114.883   3 
  -4 -18  -5-40.6571 99.4914   3 
  -4 -19   6 108.115 136.810   3 
  -4 -19   5 462.344 203.475   3 
  -4 -19   4 295.802 161.335   3 
  -4 -19   3 290.636 194.530   3 
  -4 -19   2 103.575 75.7035   3 
  -4 -19   1 206.836 183.852   3 
  -4 -19   0-30.0020 91.3729   3 
  -4 -19  -1 1300.68 325.041   3 
  -4 -19  -2 61.1188 92.0502   3 
  -4 -19  -3 190.245 124.302   3 
  -4 -19  -4 551.781 223.159   3 
  -4 -19  -5 1.01711 72.5758   3 
  -4 -20   4 397.496 196.925   3 
  -4 -20   3 157.616 116.254   3 
  -4 -20   2 82.6208 88.9584   3 
  -4 -20   1 136.428 83.3594   3 
  -4 -20   0 310.813 185.501   3 
  -4 -20  -1 439.644 212.853   3 
  -4 -20  -2-32.0530 59.1760   3 
  -4 -20  -3 688.206 241.233   3 
  -4 -20  -4 61.5376 66.4469   3 
  -4 -20  -5-110.254 107.904   3 
  -4 -21   2 0.38262 99.5499   3 
  -4 -21   1 6.13151 70.5565   3 
  -4 -21   0-32.5948 130.206   3 
  -4 -21  -1 68.5880 97.8447   3 
  -4 -21  -2 478.628 214.919   3 
  -4 -21  -3 54.2482 125.017   3 
  -4 -21  -4 296.703 172.704   3 
  -5   0   8-69.7605 126.340   1 
  -5   0   7 259.933 154.933   1 
  -5   0   6-133.963 153.114   1 
  -5   0   5 344.684 174.685   1 
  -5   0   4-197.599 197.766   1 
  -5   0   3-159.551 174.245   1 
  -5   0   2 169.181 139.715   1 
  -5   0   1 222.829 142.190   1 
  -5   0   0-105.492 151.243   1 
  -5   0  -1 231.832 118.037   1 
  -5   0  -2 74.6496 108.136   1 
  -5   0  -3 1584.33 333.603   1 
  -5   0  -4 298.817 162.466   1 
  -5   0  -5 19.9879 76.5295   1 
  -5  -1   8 413.624 226.805   1 
  -5   1   8 141.197 161.648   1 
  -5  -1   7-2.66822 85.7687   1 
  -5   1   7 140.121 172.926   1 
  -5   1   6 308.499 206.794   1 
  -5  -1   6 199.577 76.6215   1 
  -5   1   5 77.6479 93.6160   1 
  -5  -1   5-82.7176 186.483   1 
  -5   1   4 181.325 120.679   1 
  -5  -1   4 91.6140 90.5110   1 
  -5   1   3 369.398 194.450   1 
  -5  -1   3 74.0216 68.8093   1 
  -5   1   2 51.5899 109.847   1 
  -5  -1   2-43.0927 110.291   1 
  -5   1   1-6.36053 63.9793   1 
  -5  -1   1 195.995 152.240   1 
  -5   1   0 37.8931 99.4180   1 
  -5  -1   0-30.3220 105.006   1 
  -5   1  -1 150.425 92.5810   1 
  -5  -1  -1 51.0242 71.7115   1 
  -5   1  -2-7.58358 104.713   1 
  -5  -1  -2 42.4789 62.8201   1 
  -5   1  -3 1058.04 292.899   1 
  -5  -1  -3 1080.56 278.477   1 
  -5   1  -4 185.816 142.297   1 
  -5  -1  -4 132.896 87.7389   1 
  -5   1  -5 2888.68 469.628   1 
  -5   1  -6-81.6087 129.128   1 
  -5  -2   9 315.454 207.462   1 
  -5  -2   8 617.173 270.227   1 
  -5  -2   7 372.980 175.028   1 
  -5   2   7 357.987 130.414   1 
  -5  -2   6 365.429 153.097   1 
  -5   2   6 82.0784 116.740   1 
  -5   2   5-204.420 212.820   1 
  -5  -2   5 156.034 140.364   1 
  -5   2   4 192.493 141.960   1 
  -5  -2   4 32.9327 113.074   1 
  -5   2   3 234.312 148.056   1 
  -5  -2   3-214.864 171.078   1 
  -5   2   2 428.836 188.299   1 
  -5  -2   2 499.006 174.820   1 
  -5   2   1-82.1563 62.9792   1 
  -5  -2   1-38.2768 100.699   1 
  -5   2   0-85.6147 119.103   1 
  -5  -2   0 20.1239 94.2892   1 
  -5   2  -1 141.292 123.098   1 
  -5  -2  -1 20.9828 68.2836   1 
  -5   2  -2 77.5139 81.6358   1 
  -5  -2  -2 91.9073 85.4975   1 
  -5   2  -3 684.550 254.004   1 
  -5  -2  -3 575.514 204.328   1 
  -5   2  -4 1024.20 285.845   1 
  -5   2  -5 139.431 128.602   1 
  -5   2  -6-6.97289 106.086   1 
  -5   2  -7-126.976 113.251   1 
  -5  -3   9 53.9276 113.528   1 
  -5  -3   8 601.466 254.907   1 
  -5  -3   7 97.7234 180.013   1 
  -5   3   7-304.471 185.259   1 
  -5  -3   6 127.505 124.238   1 
  -5   3   6-229.665 175.302   1 
  -5   3   5-112.488 151.063   1 
  -5  -3   5 5.19699 67.7365   1 
  -5   3   4 712.021 248.174   1 
  -5  -3   4 572.537 221.638   1 
  -5   3   3 44.7157 90.7649   1 
  -5  -3   3 4.23404 102.682   1 
  -5   3   2 107.988 140.699   1 
  -5  -3   2-87.9475 104.836   1 
  -5   3   1-20.7757 67.4941   1 
  -5  -3   1-141.542 165.958   1 
  -5   3   0 108.521 104.465   1 
  -5  -3   0-113.944 135.683   1 
  -5   3  -1 137.102 75.0794   1 
  -5  -3  -1 87.0123 106.177   1 
  -5   3  -2 1298.45 316.819   1 
  -5  -3  -2 1085.91 266.007   1 
  -5   3  -3 191.723 162.566   1 
  -5   3  -4 181.776 152.649   1 
  -5   3  -5 468.136 206.335   1 
  -5   3  -6 277.603 207.789   1 
  -5   3  -7 11.5343 72.8498   1 
  -5  -4   9 271.249 238.271   1 
  -5  -4   8 406.546 249.133   1 
  -5  -4   7 93.9024 170.128   1 
  -5  -4   6 207.253 169.840   1 
  -5   4   6 1.23755 170.415   1 
  -5  -4   5 309.819 162.149   1 
  -5   4   5 110.401 128.049   1 
  -5   4   4-23.5382 68.3089   1 
  -5  -4   4-64.2691 88.6742   1 
  -5   4   3 248.353 148.244   1 
  -5  -4   3 216.507 129.826   1 
  -5   4   2 404.379 194.692   1 
  -5  -4   2 9.05591 94.1397   1 
  -5   4   1 47.9131 62.4094   1 
  -5  -4   1-170.646 137.501   1 
  -5   4   0 69.8545 67.3841   1 
  -5  -4   0-120.541 118.638   1 
  -5   4  -1 260.434 157.641   1 
  -5  -4  -1 24.6182 61.1281   1 
  -5   4  -2 292.068 173.737   1 
  -5   4  -3 76.9716 76.1533   1 
  -5   4  -4 627.539 235.211   1 
  -5   4  -5 209.859 144.447   1 
  -5   4  -6-115.726 150.600   1 
  -5   4  -7-37.2008 102.457   1 
  -5  -5   9 716.505 308.623   1 
  -5  -5   8 570.121 263.094   1 
  -5  -5   7 102.746 132.364   1 
  -5  -5   6 80.8686 207.832   1 
  -5   5   6-145.723 132.837   1 
  -5  -5   5 177.833 162.977   1 
  -5   5   5 13.5436 83.7811   1 
  -5  -5   4 334.933 142.955   1 
  -5   5   4 461.849 202.499   1 
  -5   5   3 1147.42 321.387   1 
  -5  -5   3 934.742 245.129   1 
  -5   5   2 157.318 147.079   1 
  -5  -5   2 80.3525 87.8890   1 
  -5   5   1 41.1386 82.5453   1 
  -5  -5   1-35.0860 105.600   1 
  -5   5   0 132.044 62.9454   1 
  -5  -5   0-12.4303 113.340   1 
  -5   5  -1 113.463 106.669   1 
  -5   5  -2 123.774 138.453   1 
  -5   5  -3-22.3338 73.1091   1 
  -5   5  -4 599.950 244.202   1 
  -5   5  -5 423.155 219.638   1 
  -5   5  -6 117.990 155.111   1 
  -5  -6   9 382.475 233.127   1 
  -5  -6   8 521.775 265.129   1 
  -5  -6   7 304.398 234.197   1 
  -5  -6   6 1005.25 279.088   1 
  -5  -6   5 61.9963 179.483   1 
  -5   6   5 3.96324 106.310   1 
  -5  -6   4 143.297 145.338   1 
  -5   6   4 80.7491 109.473   1 
  -5  -6   3 69.5756 74.4032   1 
  -5   6   3-107.858 130.920   1 
  -5  -6   2-15.3707 73.1244   1 
  -5   6   2 39.1031 118.222   1 
  -5   6   1-21.6116 95.3892   1 
  -5  -6   1-6.44347 107.504   1 
  -5   6   0 1014.74 295.979   1 
  -5   6  -1 45.6051 73.6256   1 
  -5   6  -2 27.3016 100.947   1 
  -5   6  -3 36.8562 70.7492   1 
  -5   6  -4 97.8899 118.886   1 
  -5   6  -5-110.340 142.879   1 
  -5   6  -6 125.513 97.6782   1 
  -5  -7   9 317.275 181.980   1 
  -5  -7   8 334.086 189.370   1 
  -5  -7   7 461.804 238.533   1 
  -5  -7   6 287.393 174.389   1 
  -5  -7   5 250.680 168.500   1 
  -5  -7   4 212.735 165.332   1 
  -5   7   4 173.983 86.5034   1 
  -5  -7   3 368.702 182.014   1 
  -5   7   3 216.586 175.082   1 
  -5   7   2 27.2350 69.5904   1 
  -5   7   1 88.1403 92.8840   1 
  -5   7   0 226.275 137.747   1 
  -5   7  -1-5.94372 64.0414   1 
  -5   7  -2 164.746 130.561   1 
  -5   7  -3-31.8151 80.1767   1 
  -5   7  -4 24.0847 75.0638   1 
  -5   7  -5 257.040 172.678   1 
  -5  -8   9-473.434 215.778   1 
  -5  -8   8 101.469 116.121   1 
  -5  -8   7 421.065 196.367   1 
  -5  -8   6 288.929 212.523   1 
  -5  -8   5 168.942 184.650   1 
  -5  -8   4 441.457 189.418   1 
  -5   8   2 411.704 211.432   1 
  -5   8   1 54.2002 148.904   1 
  -5   8   0 97.7743 87.3854   1 
  -5   8  -1 158.972 132.844   1 
  -5   8  -2-282.262 168.418   1 
  -5   8  -3 736.052 272.998   1 
  -5  -9   9 38.2031 132.150   1 
  -5  -9   8-174.356 177.719   1 
  -5  -9   7-4.09985 102.912   1 
  -5  -9   6 139.544 113.996   1 
   0   0   0    0.00    0.00   0 
TITL yxg1494 in P2(1)/m 
REM P2(1)/m (#11 in standard setting) 
CELL 0.71073   4.016485  23.916233  17.104306  90.0000  94.4189  90.0000 
ZERR   23.00   0.000646   0.003341   0.001972   0.0000   0.0131   0.0000 
LATT  1 
SYMM -x, y+1/2,-z 
SFAC C H N O S 
UNIT 23.00 23.00 23.00 23.00 23.00 
TREF 
HKLF 4 
END 
;
_shelx_hkl_checksum              1266
loop_
_space_group_symop_operation_xyz
'x, y, z'
'-x+1/2, y+1/2, -z+1/2'
'-x, -y, -z'
'x-1/2, -y-1/2, z-1/2'
loop_
_atom_site_label
_atom_site_type_symbol
_atom_site_fract_x
_atom_site_fract_y
_atom_site_fract_z
_atom_site_U_iso_or_equiv
_atom_site_adp_type
_atom_site_occupancy
_atom_site_site_symmetry_order
_atom_site_calc_flag
_atom_site_refinement_flags_posn
_atom_site_refinement_flags_adp
S1 S 0.5577(3) 0.34825(4) 0.50315(6) 0.0428(3) Uani 1 1 d . .
S2 S 0.2761(3) 0.31720(4) 0.34614(6) 0.0409(3) Uani 1 1 d . .
N1 N 0.2590(8) 0.19738(12) 0.41770(17) 0.0361(7) Uani 1 1 d . .
N2 N 0.1086(8) 0.21237(12) 0.35271(18) 0.0376(8) Uani 1 1 d . .
N3 N -0.4200(9) 0.04084(13) 0.15668(19) 0.0427(8) Uani 1 1 d . .
O1 O 0.6576(9) 0.25722(12) 0.58931(17) 0.0615(9) Uani 1 1 d . .
O2 O -0.5816(11) 0.05336(13) 0.0965(2) 0.0820(13) Uani 1 1 d . .
O3 O -0.3757(10) -0.00752(12) 0.1761(2) 0.0724(12) Uani 1 1 d . .
C1 C 0.6611(11) 0.12080(16) 0.5187(2) 0.0444(10) Uani 1 1 d . .
H1 H 0.7389 0.1299 0.4705 0.053 Uiso 1 1 calc R U
C2 C 0.6714(12) 0.06605(18) 0.5441(3) 0.0535(12) Uani 1 1 d . .
H2 H 0.7628 0.0386 0.5138 0.064 Uiso 1 1 calc R U
C3 C 0.5464(12) 0.05208(19) 0.6142(3) 0.0575(13) Uani 1 1 d . .
H3 H 0.5453 0.0150 0.6304 0.069 Uiso 1 1 calc R U
C4 C 0.4228(13) 0.0934(2) 0.6603(3) 0.0582(13) Uani 1 1 d . .
H4 H 0.3398 0.0840 0.7078 0.070 Uiso 1 1 calc R U
C5 C 0.4214(12) 0.14811(18) 0.6365(2) 0.0480(11) Uani 1 1 d . .
H5 H 0.3435 0.1758 0.6687 0.058 Uiso 1 1 calc R U
C6 C 0.5357(10) 0.16242(15) 0.5646(2) 0.0372(9) Uani 1 1 d . .
C7 C 0.5393(11) 0.22270(16) 0.5425(2) 0.0408(9) Uani 1 1 d . .
C8 C 0.3977(10) 0.24022(15) 0.4636(2) 0.0360(9) Uani 1 1 d . .
C9 C -0.0188(10) 0.16694(14) 0.3069(2) 0.0333(8) Uani 1 1 d . .
C10 C -0.2138(11) 0.18117(15) 0.2393(2) 0.0388(9) Uani 1 1 d . .
H10 H -0.2563 0.2186 0.2277 0.047 Uiso 1 1 calc R U
C11 C -0.3454(11) 0.14009(15) 0.1892(2) 0.0388(9) Uani 1 1 d . .
H11 H -0.4757 0.1494 0.1437 0.047 Uiso 1 1 calc R U
C12 C -0.2794(10) 0.08531(14) 0.2081(2) 0.0338(8) Uani 1 1 d . .
C13 C -0.0887(10) 0.06986(14) 0.2756(2) 0.0364(9) Uani 1 1 d . .
H13 H -0.0516 0.0323 0.2875 0.044 Uiso 1 1 calc R U
C14 C 0.0438(10) 0.11082(15) 0.3243(2) 0.0369(9) Uani 1 1 d . .
H14 H 0.1762 0.1012 0.3693 0.044 Uiso 1 1 calc R U
C15 C 0.4068(9) 0.29601(15) 0.4401(2) 0.0343(8) Uani 1 1 d . .
C16 C 0.4282(12) 0.40600(16) 0.4389(3) 0.0493(11) Uani 1 1 d . .
H16A H 0.2010 0.4169 0.4473 0.059 Uiso 1 1 calc R U
H16B H 0.5730 0.4380 0.4498 0.059 Uiso 1 1 calc R U
C17 C 0.4494(11) 0.38696(15) 0.3562(2) 0.0452(10) Uani 1 1 d . .
H17A H 0.6804 0.3868 0.3433 0.054 Uiso 1 1 calc R U
H17B H 0.3254 0.4123 0.3205 0.054 Uiso 1 1 calc R U
loop_
_atom_site_aniso_label
_atom_site_aniso_U_11
_atom_site_aniso_U_22
_atom_site_aniso_U_33
_atom_site_aniso_U_23
_atom_site_aniso_U_13
_atom_site_aniso_U_12
S1 0.0533(7) 0.0408(6) 0.0333(6) -0.0041(4) -0.0034(5) -0.0042(4)
S2 0.0487(6) 0.0433(6) 0.0298(5) 0.0028(4) -0.0028(4) 0.0003(4)
N1 0.0413(19) 0.0429(17) 0.0239(16) -0.0011(13) 0.0014(14) -0.0045(13)
N2 0.0436(19) 0.0425(17) 0.0261(16) -0.0017(13) -0.0014(15) -0.0024(14)
N3 0.053(2) 0.0389(18) 0.0352(19) -0.0029(14) -0.0045(17) -0.0007(15)
O1 0.097(3) 0.0511(17) 0.0336(17) -0.0032(13) -0.0146(18) -0.0118(16)
O2 0.129(4) 0.0546(19) 0.054(2) -0.0050(15) -0.045(2) -0.0038(19)
O3 0.111(3) 0.0363(17) 0.065(2) -0.0033(14) -0.024(2) -0.0024(16)
C1 0.044(2) 0.053(2) 0.036(2) 0.0001(18) 0.0050(19) -0.0035(18)
C2 0.052(3) 0.050(3) 0.058(3) -0.005(2) -0.003(2) 0.0043(19)
C3 0.056(3) 0.055(3) 0.059(3) 0.019(2) -0.011(3) -0.005(2)
C4 0.065(3) 0.072(3) 0.037(2) 0.017(2) -0.003(2) -0.009(2)
C5 0.054(3) 0.063(3) 0.027(2) 0.0014(18) 0.002(2) -0.002(2)
C6 0.039(2) 0.046(2) 0.026(2) -0.0002(15) -0.0026(17) -0.0022(16)
C7 0.047(2) 0.046(2) 0.028(2) -0.0011(17) -0.0003(19) -0.0028(17)
C8 0.040(2) 0.041(2) 0.028(2) -0.0007(15) 0.0029(17) -0.0043(16)
C9 0.039(2) 0.0375(19) 0.0242(18) -0.0008(14) 0.0083(17) -0.0030(15)
C10 0.050(2) 0.0336(19) 0.032(2) 0.0042(15) -0.0002(19) -0.0017(16)
C11 0.052(2) 0.040(2) 0.0228(18) 0.0025(15) -0.0039(18) -0.0004(17)
C12 0.041(2) 0.0353(19) 0.0259(19) -0.0031(14) 0.0062(17) -0.0030(15)
C13 0.046(2) 0.0305(18) 0.033(2) 0.0021(15) 0.0026(18) 0.0024(16)
C14 0.041(2) 0.045(2) 0.0243(18) 0.0017(15) 0.0004(17) 0.0043(16)
C15 0.032(2) 0.046(2) 0.0249(19) -0.0010(15) -0.0018(16) 0.0005(15)
C16 0.056(3) 0.041(2) 0.049(3) 0.0005(18) -0.006(2) -0.0022(18)
C17 0.048(2) 0.043(2) 0.043(2) 0.0079(18) -0.001(2) 0.0007(18)
loop_
_atom_type_symbol
_atom_type_description
_atom_type_scat_dispersion_real
_atom_type_scat_dispersion_imag
_atom_type_scat_source
C C 0.0033 0.0016 'International Tables Vol C Tables 4.2.6.8 and 6.1.1.4'
H H 0.0000 0.0000 'International Tables Vol C Tables 4.2.6.8 and 6.1.1.4'
N N 0.0061 0.0033 'International Tables Vol C Tables 4.2.6.8 and 6.1.1.4'
O O 0.0106 0.0060 'International Tables Vol C Tables 4.2.6.8 and 6.1.1.4'
S S 0.1246 0.1234 'International Tables Vol C Tables 4.2.6.8 and 6.1.1.4'
loop_
_geom_angle_atom_site_label_1
_geom_angle_atom_site_label_2
_geom_angle_atom_site_label_3
_geom_angle
C15 S1 C16 95.87(18)
C15 S2 C17 95.45(18)
N2 N1 C8 115.5(3)
N1 N2 C9 113.3(3)
O2 N3 O3 121.7(3)
O2 N3 C12 119.1(3)
O3 N3 C12 119.1(3)
C2 C1 C6 120.5(4)
C2 C1 H1 119.8
C6 C1 H1 119.8
C1 C2 C3 120.1(4)
C1 C2 H2 120.0
C3 C2 H2 120.0
C4 C3 C2 119.7(4)
C4 C3 H3 120.2
C2 C3 H3 120.2
C5 C4 C3 120.5(5)
C5 C4 H4 119.7
C3 C4 H4 119.7
C4 C5 C6 120.3(4)
C4 C5 H5 119.9
C6 C5 H5 119.9
C1 C6 C5 118.9(4)
C1 C6 C7 122.7(4)
C5 C6 C7 118.3(4)
O1 C7 C8 120.5(3)
O1 C7 C6 119.9(3)
C8 C7 C6 119.6(3)
N1 C8 C15 124.3(3)
N1 C8 C7 114.6(3)
C15 C8 C7 121.0(3)
C10 C9 C14 119.7(3)
C10 C9 N2 115.5(3)
C14 C9 N2 124.8(3)
C11 C10 C9 120.4(3)
C11 C10 H10 119.8
C9 C10 H10 119.8
C12 C11 C10 118.4(3)
C12 C11 H11 120.8
C10 C11 H11 120.8
C11 C12 C13 122.4(3)
C11 C12 N3 119.6(3)
C13 C12 N3 118.0(3)
C14 C13 C12 118.8(3)
C14 C13 H13 120.6
C12 C13 H13 120.6
C13 C14 C9 120.3(3)
C13 C14 H14 119.9
C9 C14 H14 119.9
C8 C15 S1 121.8(3)
C8 C15 S2 122.4(3)
S1 C15 S2 115.8(2)
C17 C16 S1 107.8(3)
C17 C16 H16A 110.1
S1 C16 H16A 110.1
C17 C16 H16B 110.1
S1 C16 H16B 110.1
H16A C16 H16B 108.5
C16 C17 S2 108.7(3)
C16 C17 H17A 109.9
S2 C17 H17A 109.9
C16 C17 H17B 109.9
S2 C17 H17B 109.9
H17A C17 H17B 108.3
loop_
_geom_bond_atom_site_label_1
_geom_bond_atom_site_label_2
_geom_bond_distance
S1 C15 1.729(4)
S1 C16 1.816(4)
S2 C15 1.728(4)
S2 C17 1.811(4)
N1 N2 1.275(4)
N1 C8 1.382(5)
N2 C9 1.412(5)
N3 O2 1.212(4)
N3 O3 1.213(4)
N3 C12 1.465(5)
O1 C7 1.221(5)
C1 C2 1.379(6)
C1 C6 1.386(6)
C1 H1 0.9300
C2 C3 1.376(7)
C2 H2 0.9300
C3 C4 1.380(7)
C3 H3 0.9300
C4 C5 1.370(6)
C4 H4 0.9300
C5 C6 1.389(6)
C5 H5 0.9300
C6 C7 1.491(5)
C7 C8 1.483(5)
C8 C15 1.395(5)
C9 C10 1.387(5)
C9 C14 1.394(5)
C10 C11 1.382(5)
C10 H10 0.9300
C11 C12 1.370(5)
C11 H11 0.9300
C12 C13 1.386(5)
C13 C14 1.367(5)
C13 H13 0.9300
C14 H14 0.9300
C16 C17 1.496(6)
C16 H16A 0.9700
C16 H16B 0.9700
C17 H17A 0.9700
C17 H17B 0.9700
loop_
_geom_hbond_atom_site_label_D
_geom_hbond_atom_site_label_H
_geom_hbond_atom_site_label_A
_geom_hbond_distance_DH
_geom_hbond_distance_HA
_geom_hbond_distance_DA
_geom_hbond_angle_DHA
_geom_hbond_site_symmetry_A
C17 H17B O3 0.97 2.64 3.433(5) 139.4 2_455
C11 H11 S1 0.93 2.93 3.844(4) 166.6 4_465
loop_
_geom_torsion_atom_site_label_1
_geom_torsion_atom_site_label_2
_geom_torsion_atom_site_label_3
_geom_torsion_atom_site_label_4
_geom_torsion
C8 N1 N2 C9 178.0(3)
C6 C1 C2 C3 2.2(6)
C1 C2 C3 C4 -2.5(7)
C2 C3 C4 C5 0.5(7)
C3 C4 C5 C6 1.8(7)
C2 C1 C6 C5 0.1(6)
C2 C1 C6 C7 175.9(4)
C4 C5 C6 C1 -2.1(6)
C4 C5 C6 C7 -178.1(4)
C1 C6 C7 O1 -127.9(5)
C5 C6 C7 O1 47.9(6)
C1 C6 C7 C8 52.3(6)
C5 C6 C7 C8 -131.9(4)
N2 N1 C8 C15 -5.9(6)
N2 N1 C8 C7 173.7(3)
O1 C7 C8 N1 -177.3(4)
C6 C7 C8 N1 2.5(5)
O1 C7 C8 C15 2.3(6)
C6 C7 C8 C15 -177.9(4)
N1 N2 C9 C10 173.7(4)
N1 N2 C9 C14 -7.6(6)
C14 C9 C10 C11 -0.2(6)
N2 C9 C10 C11 178.6(4)
C9 C10 C11 C12 0.2(6)
C10 C11 C12 C13 0.5(6)
C10 C11 C12 N3 179.0(4)
O2 N3 C12 C11 3.0(6)
O3 N3 C12 C11 -175.9(4)
O2 N3 C12 C13 -178.4(4)
O3 N3 C12 C13 2.7(6)
C11 C12 C13 C14 -1.3(6)
N3 C12 C13 C14 -179.9(4)
C12 C13 C14 C9 1.3(6)
C10 C9 C14 C13 -0.6(6)
N2 C9 C14 C13 -179.3(4)
N1 C8 C15 S1 175.3(3)
C7 C8 C15 S1 -4.2(5)
N1 C8 C15 S2 -5.9(6)
C7 C8 C15 S2 174.5(3)
C16 S1 C15 C8 -171.3(4)
C16 S1 C15 S2 9.9(3)
C17 S2 C15 C8 -167.8(3)
C17 S2 C15 S1 11.0(3)
C15 S1 C16 C17 -32.5(4)
S1 C16 C17 S2 43.7(4)
C15 S2 C17 C16 -33.5(3)
