#------------------------------------------------------------------------------
#$Date: 2018-01-26 11:05:38 +0200 (Fri, 26 Jan 2018) $
#$Revision: 205734 $
#$URL: file:///home/coder/svn-repositories/cod/cif/1/54/87/1548789.cif $
#------------------------------------------------------------------------------
#
# This file is available in the Crystallography Open Database (COD),
# http://www.crystallography.net/. The original data for this entry
# were provided by IUCr Journals, http://journals.iucr.org/.
#
# The file may be used within the scientific community so long as
# proper attribution is given to the journal article from which the
# data were obtained.
#
data_1548789
loop_
_publ_author_name
'Mohamed, Shaaban K.'
'Mague, Joel T.'
'Akkurt, Mehmet'
'Bakhite, Etify A.'
'Al-Taifi, Elham A.'
_publ_section_title
;
 5-Acetyl-3-amino-4-(4-methoxyphenyl)-6-methylthieno[2,3-<i>b</i>]pyridine-2-carbonitrile
;
_journal_coeditor_code           TK4041
_journal_issue                   12
_journal_name_full               IUCrData
_journal_page_first              x171700
_journal_paper_doi               10.1107/S241431461701700X
_journal_volume                  2
_journal_year                    2017
_chemical_formula_iupac          'C18 H15 N3 O2 S'
_chemical_formula_moiety         'C18 H15 N3 O2 S'
_chemical_formula_sum            'C18 H15 N3 O2 S'
_chemical_formula_weight         337.39
_chemical_name_systematic
5-Acetyl-3-amino-4-(4-methoxyphenyl)-6-methylthieno[2,3-<i>b</i>]pyridine-2-carbonitrile
_space_group_crystal_system      triclinic
_space_group_IT_number           2
_space_group_name_Hall           '-P 1'
_space_group_name_H-M_alt        'P -1'
_symmetry_space_group_name_Hall  '-P 1'
_symmetry_space_group_name_H-M   'P -1'
_atom_sites_solution_hydrogens   mixed
_atom_sites_solution_primary     direct
_atom_sites_solution_secondary   difmap
_audit_creation_method           SHELXL-2014/7
_cell_angle_alpha                107.331(3)
_cell_angle_beta                 109.298(2)
_cell_angle_gamma                99.272(3)
_cell_formula_units_Z            4
_cell_length_a                   10.5214(4)
_cell_length_b                   13.2896(6)
_cell_length_c                   13.3680(6)
_cell_measurement_reflns_used    7503
_cell_measurement_temperature    150.(2)
_cell_measurement_theta_max      72.4457
_cell_measurement_theta_min      3.6384
_cell_volume                     1612.66(13)
_computing_cell_refinement
;
<i>SAINT</i> (Bruker, 2016)
;
_computing_data_collection
;
<i>APEX3</i> (Bruker, 2016)
;
_computing_data_reduction
;
<i>SAINT</i>  (Bruker, 2016)
;
_computing_molecular_graphics
;
<i>DIAMOND</i> (Brandenburg & Putz, 2012)
;
_computing_publication_material
;
<i>SHELXTL</i> (Sheldrick, 2008)
;
_computing_structure_refinement
;
<i>SHELXL2014</i> (Sheldrick, 2015<i>b</i>)
;
_computing_structure_solution
;
<i>SHELXT</i> (Sheldrick, 2015<i>a</i>)
;
_diffrn_ambient_temperature      150(2)
_diffrn_detector_area_resol_mean 10.4167
_diffrn_measured_fraction_theta_full 0.959
_diffrn_measured_fraction_theta_max 0.935
_diffrn_measurement_device_type  'Bruker D8 VENTURE PHOTON 100 CMOS'
_diffrn_measurement_method       '\w scans'
_diffrn_radiation_monochromator  mirror
_diffrn_radiation_type           CuK\a
_diffrn_radiation_wavelength     1.54178
_diffrn_reflns_av_R_equivalents  0.0594
_diffrn_reflns_limit_h_max       12
_diffrn_reflns_limit_h_min       -12
_diffrn_reflns_limit_k_max       16
_diffrn_reflns_limit_k_min       -15
_diffrn_reflns_limit_l_max       15
_diffrn_reflns_limit_l_min       -14
_diffrn_reflns_number            12139
_diffrn_reflns_theta_full        68.000
_diffrn_reflns_theta_max         72.438
_diffrn_reflns_theta_min         3.638
_exptl_absorpt_coefficient_mu    1.916
_exptl_absorpt_correction_T_max  0.98
_exptl_absorpt_correction_T_min  0.78
_exptl_absorpt_correction_type   multi-scan
_exptl_absorpt_process_details
;
(<i>SADABS</i>; Bruker, 2016)
;
_exptl_crystal_colour            yellow
_exptl_crystal_density_diffrn    1.390
_exptl_crystal_density_method    'not measured'
_exptl_crystal_description       plate
_exptl_crystal_F_000             704
_exptl_crystal_size_max          0.234
_exptl_crystal_size_mid          0.170
_exptl_crystal_size_min          0.010
_refine_diff_density_max         0.318
_refine_diff_density_min         -0.387
_refine_ls_extinction_method     none
_refine_ls_goodness_of_fit_ref   1.063
_refine_ls_hydrogen_treatment    mixed
_refine_ls_matrix_type           full
_refine_ls_number_parameters     487
_refine_ls_number_reflns         5977
_refine_ls_number_restraints     0
_refine_ls_restrained_S_all      1.063
_refine_ls_R_factor_all          0.0939
_refine_ls_R_factor_gt           0.0657
_refine_ls_shift/su_max          0.000
_refine_ls_shift/su_mean         0.000
_refine_ls_structure_factor_coef Fsqd
_refine_ls_weighting_details
'w=1/[\s^2^(Fo^2^)+(0.0371P)^2^+2.7497P] where P=(Fo^2^+2Fc^2^)/3'
_refine_ls_weighting_scheme      calc
_refine_ls_wR_factor_gt          0.1362
_refine_ls_wR_factor_ref         0.1532
_reflns_number_gt                4333
_reflns_number_total             5977
_reflns_threshold_expression     'I > 2\s(I)'
_cod_data_source_file            tk4041sup1.cif
_cod_data_source_block           I
_cod_original_cell_volume        1612.66(12)
_cod_database_code               1548789
_shelx_space_group_comment
;
The symmetry employed for this shelxl refinement is uniquely defined
by the following loop, which should always be used as a source of
symmetry information in preference to the above space-group names.
They are only intended as comments.
;
_shelx_estimated_absorpt_t_min   0.663
_shelx_estimated_absorpt_t_max   0.981
_shelx_hkl_file
;
  -1   0   0    0.75    0.09
   1   0   0    0.74    0.10
  -2   0   0   60.50    3.49
   2   0   0   63.45    3.49
  -3   0   0   10.72    0.75
   3   0   0   12.61    0.79
  -4   0   0    0.45    0.27
   4   0   0   -0.23    0.32
  -5   0   0    1.38    0.51
   6   0   0   12.52    1.48
  -7   0   0   17.59    1.51
   7   0   0   20.42    2.44
   7   0   0   13.60    1.44
  -8   0   0    2.15    0.66
   8   0   0    3.07    1.11
   9   0   0    3.05    1.08
 -10   0   0    8.50    1.08
  10   0   0    7.08    1.03
 -11   0   0    5.17    0.94
  11   0   0    4.85    0.89
  11  -1   0    8.36    0.94
 -11   1   0    5.53    0.90
  10  -1   0   10.76    1.06
 -10   1   0    7.95    1.10
   9  -1   0   19.57    1.62
  -9   1   0   19.26    1.55
  -8   1   0    7.03    1.22
   7  -1   0    0.35    0.64
  -7   1   0    0.49    0.59
   6  -1   0   29.57    2.12
  -6   1   0   28.29    2.19
   5  -1   0    8.95    1.05
  -5   1   0    9.94    0.92
   4  -1   0    7.08    0.67
  -4   1   0    7.11    0.60
   3  -1   0  264.61   14.35
  -3   1   0  250.18   14.34
   2  -1   0    0.74    0.16
  -2   1   0    0.47    0.15
   1  -1   0  220.16   11.14
  -1   1   0  181.21   11.14
   0  -1   0    0.23    0.05
   0   1   0    0.24    0.05
  -1  -1   0  245.44   13.70
   1   1   0  247.43   13.70
  -2  -1   0    0.49    0.14
   2   1   0    0.75    0.23
  -3  -1   0   72.82    4.14
   3   1   0   73.04    4.15
  -4  -1   0    2.38    0.52
   4   1   0    1.80    0.60
  -5  -1   0    1.59    0.54
   6   1   0   26.57    2.63
   6   1   0   31.29    2.08
  -7  -1   0   73.09    4.33
   7   1   0   72.00    4.26
   7   1   0   70.88    4.64
  -8  -1   0   10.88    1.26
   8   1   0    8.69    1.99
  -9  -1   0    1.22    0.62
   9   1   0    0.94    0.58
 -10  -1   0    3.91    1.02
  10   1   0    1.42    0.47
 -11  -1   0    0.46    0.57
  11   1   0    0.97    0.43
  12  -2   0   -0.38    0.40
 -12   2   0   -0.34    0.39
  11  -2   0    1.54    0.52
 -11   2   0    0.25    0.48
  10  -2   0    4.92    1.07
 -10   2   0    2.63    0.99
   9  -2   0   21.34    1.85
  -9   2   0   23.93    1.75
   8  -2   0    1.20    0.63
  -8   2   0    0.01    0.60
   7  -2   0    7.62    1.38
  -7   2   0    7.98    1.25
  -6   2   0   60.74    3.61
  -6   2   0   55.06    3.60
   5  -2   0   12.95    1.15
  -5   2   0   13.08    1.03
   4  -2   0    8.70    0.69
  -4   2   0    7.53    0.63
   3  -2   0    6.32    0.46
  -3   2   0    6.14    0.45
   2  -2   0  134.03    7.17
  -2   2   0  123.24    7.17
   0  -2   0  215.07   12.06
   0   2   0  218.95   12.06
  -1  -2   0   -0.01    0.10
   1   2   0    0.15    0.11
  -2  -2   0  727.96   41.08
   2   2   0  751.14   41.08
  -3  -2   0   25.13    1.52
   3   2   0   24.30    1.53
  -4  -2   0    5.09    0.69
   4   2   0    4.91    0.81
  -5  -2   0    1.83    0.68
   6   2   0   62.24    4.00
   6   2   0   65.50    3.86
  -7  -2   0    3.73    1.26
   7   2   0    6.13    1.13
  -8  -2   0    7.06    1.34
   8   2   0    5.70    1.10
   8   2   0    6.80    1.69
  -9  -2   0    1.83    0.69
   9   2   0    1.21    1.05
   9   2   0    1.17    0.57
 -10  -2   0    3.99    1.07
  10   2   0    5.98    0.87
  11   2   0    7.20    0.83
  12  -3   0    6.59    0.85
 -12   3   0    5.81    0.79
  11  -3   0    0.83    0.55
 -11   3   0    1.20    0.48
  10  -3   0    5.05    1.27
   9  -3   0    1.68    0.62
  -9   3   0    0.92    0.81
  -9   3   0    3.57    1.03
   8  -3   0    1.23    0.71
  -8   3   0    1.49    0.70
   7  -3   0    8.47    1.48
  -7   3   0   13.59    1.41
  -6   3   0    9.61    1.36
  -6   3   0   10.06    1.33
   5  -3   0    1.67    0.54
  -5   3   0    2.44    0.64
   4  -3   0    4.22    0.51
  -4   3   0    3.03    0.44
   3  -3   0  862.80   47.13
  -3   3   0  835.78   47.14
   1  -3   0  247.05   13.72
   0  -3   0    4.45    0.32
   0   3   0    4.14    0.33
  -1  -3   0  156.74    8.36
   1   3   0  141.92    8.35
  -2  -3   0   28.65    1.64
   2   3   0   25.62    1.63
  -3  -3   0   16.42    1.12
   3   3   0   15.71    1.16
  -4  -3   0   45.10    2.77
   5   3   0   19.55    1.70
   6   3   0    1.55    0.81
   6   3   0    3.26    1.22
  -7  -3   0    1.12    0.78
   7   3   0    0.27    0.75
   7   3   0    0.55    0.61
   8   3   0    1.40    0.84
   8   3   0    2.68    0.98
  -9  -3   0    0.43    0.72
   9   3   0   -0.29    0.92
   9   3   0   -0.11    0.50
 -10  -3   0    4.09    1.40
  12  -4   0    2.42    0.88
 -12   4   0    0.87    0.39
  11  -4   0    2.95    0.95
 -11   4   0    1.61    0.52
  10  -4   0    0.87    0.71
 -10   4   0    2.76    1.00
   9  -4   0    4.05    1.34
  -9   4   0    6.00    1.23
  -9   4   0    2.88    1.09
   8  -4   0    4.04    1.33
   7  -4   0   25.11    2.01
  -7   4   0   22.66    1.88
  -6   4   0    5.59    1.29
   5  -4   0    8.78    1.01
   5  -4   0    8.84    0.92
  -5   4   0    8.60    0.89
   4  -4   0    2.32    0.48
   1  -4   0    2.93    0.26
  -1   4   0    3.11    0.31
   0  -4   0   53.94    3.02
   0   4   0   52.36    3.03
  -1  -4   0    0.48    0.22
   1   4   0    0.23    0.23
  -2  -4   0    7.41    0.66
   2   4   0    6.38    0.70
  -3  -4   0    4.72    0.84
  -3  -4   0    3.26    0.74
   5   4   0    0.04    0.62
   6   4   0   27.15    1.92
   6   4   0   21.28    1.91
  -7  -4   0    0.24    0.86
   7   4   0    1.24    0.63
   7   4   0    1.49    0.74
   8   4   0   10.38    1.49
   8   4   0   10.93    1.21
   9   4   0    6.72    1.43
   9   4   0    7.37    1.00
  10   4   0    1.72    0.70
  12  -5   0    4.28    1.17
 -12   5   0    5.02    0.72
  11  -5   0   -0.52    0.55
 -11   5   0    0.98    0.48
  10  -5   0    0.49    0.68
 -10   5   0    0.63    0.57
   9  -5   0    5.09    1.52
  -9   5   0    5.53    1.25
   8  -5   0   22.08    2.01
  -8   5   0   20.66    1.69
   7  -5   0   37.11    2.82
  -7   5   0   39.51    2.55
   6  -5   0    8.54    0.90
  -6   5   0    5.09    1.45
   5  -5   0  131.88    7.44
   4  -5   0    9.37    0.75
   3  -5   0    8.02    0.67
   2  -5   0   16.74    1.07
   1  -5   0   46.69    3.12
   1  -5   0   59.52    3.11
  -1   5   0   57.92    3.13
   0  -5   0    7.07    0.63
   0  -5   0    8.66    0.64
   0   5   0    7.70    0.66
  -1  -5   0    0.71    0.33
  -1  -5   0    0.72    0.33
   1   5   0    0.58    0.40
  -2  -5   0    3.83    0.62
  -2  -5   0    2.62    0.69
   2   5   0    3.86    0.93
  -3  -5   0   14.10    1.37
  -3  -5   0   14.93    1.19
  -4  -5   0   15.22    1.38
   4   5   0   14.66    1.45
   5   5   0    1.56    0.60
   6   5   0    2.76    1.15
   7   5   0    6.57    1.15
   7   5   0    5.51    1.31
   8   5   0   11.76    1.19
   8   5   0    8.16    1.30
   9   5   0    2.89    0.76
   9   5   0    1.20    0.68
  10   5   0    0.18    0.44
 -12   6   0    0.40    0.42
  11  -6   0    8.49    1.29
 -11   6   0    9.36    1.15
 -11   6   0    8.83    1.08
  10  -6   0    0.52    0.68
 -10   6   0    1.21    0.62
 -10   6   0    1.15    0.53
  -9   6   0    7.30    1.26
  -9   6   0    8.90    1.24
   8  -6   0   61.78    3.79
  -8   6   0   57.74    3.64
  -8   6   0   60.87    3.68
   7  -6   0    0.98    0.82
  -7   6   0    1.17    0.74
   6  -6   0    1.06    0.90
  -6   6   0    0.81    0.87
   5  -6   0    7.70    0.74
   4  -6   0    2.11    0.48
   3  -6   0    4.69    0.51
   2  -6   0    1.39    0.38
   1  -6   0    0.21    0.24
   1  -6   0    0.43    0.30
   0  -6   0    1.80    0.61
   0  -6   0    2.07    0.45
   0   6   0    3.67    0.75
  -1  -6   0   33.44    2.02
  -1  -6   0   32.44    1.91
   1   6   0   28.61    2.13
  -2  -6   0    8.13    1.14
  -2  -6   0    9.13    0.83
  -3  -6   0    3.88    0.83
  -3  -6   0    3.58    1.37
   3   6   0    3.58    1.23
  -4  -6   0   11.38    1.28
   4   6   0    9.29    1.22
   5   6   0    0.87    0.51
   6   6   0    2.75    0.68
   6   6   0    1.67    0.65
   7   6   0   -0.07    0.54
   7   6   0   -0.91    0.64
   8   6   0    3.04    1.03
   9   6   0   -0.27    0.71
   9   6   0    0.08    0.50
 -12   7   0    2.52    0.90
 -11   7   0    0.03    0.49
 -11   7   0    0.68    0.49
  10  -7   0   23.12    2.03
 -10   7   0   23.10    1.86
 -10   7   0   23.88    1.65
   9  -7   0   -0.25    0.83
  -9   7   0    0.72    0.69
  -9   7   0    0.12    0.59
   8  -7   0   -0.27    0.79
  -8   7   0    0.06    0.68
  -8   7   0    0.63    0.63
   7  -7   0    0.33    0.60
   7  -7   0   -0.01    0.84
  -7   7   0    1.24    0.60
  -7   7   0    1.03    0.75
   6  -7   0    4.98    0.73
  -6   7   0    3.62    0.95
  -6   7   0    3.61    0.98
   5  -7   0   16.44    1.11
  -5   7   0   13.84    1.40
   4  -7   0    0.08    0.29
  -4   7   0    0.18    0.67
   3  -7   0   -0.06    0.27
   2  -7   0    7.64    0.63
   1  -7   0   62.55    3.69
   1  -7   0   63.71    3.62
   0  -7   0   -0.04    0.30
   0  -7   0    0.34    0.56
   0   7   0    0.39    0.82
  -1  -7   0    9.33    1.38
  -1  -7   0   10.74    0.84
  -2  -7   0    0.15    0.43
  -3  -7   0   15.05    1.22
   3   7   0   13.57    1.47
  -4  -7   0    8.54    1.45
   4   7   0    8.96    1.17
   5   7   0    2.53    0.91
   6   7   0    2.21    0.62
   6   7   0    2.13    0.71
   8   7   0    0.06    0.50
   8   7   0    0.36    0.52
 -11   8   0    5.85    1.03
 -11   8   0    3.32    0.74
 -10   8   0    7.01    0.96
 -10   8   0    6.02    1.13
  -9   8   0    7.15    1.47
  -9   8   0    7.53    1.07
  -8   8   0    7.85    1.46
  -8   8   0    6.65    1.11
   7  -8   0   37.08    2.42
  -7   8   0   41.61    2.52
  -7   8   0   36.49    2.74
   6  -8   0   34.78    2.17
  -6   8   0   34.72    2.30
   5  -8   0    7.92    0.75
  -5   8   0    5.92    1.13
   4  -8   0    2.11    0.50
  -4   8   0    1.48    0.64
   3  -8   0    5.92    0.62
  -3   8   0    7.39    1.27
   2  -8   0    5.91    0.59
   1  -8   0    2.51    0.85
   1  -8   0    1.69    0.47
   0  -8   0    0.11    0.34
  -1  -8   0   12.63    0.98
  -2  -8   0    9.70    1.68
  -2  -8   0    7.20    0.86
  -3  -8   0    6.11    0.96
   3   8   0    4.99    1.05
   4   8   0   30.43    2.05
   5   8   0    1.44    0.74
   5   8   0    0.25    0.53
   6   8   0    1.27    0.51
   6   8   0    0.31    0.64
   7   8   0   -0.04    0.65
   7   8   0    0.48    0.50
   8   8   0    3.59    0.81
 -11   9   0    1.14    0.38
 -11   9   0   -0.67    0.81
 -10   9   0   -0.09    0.43
 -10   9   0   -0.95    0.63
  -9   9   0    7.15    0.99
  -9   9   0    7.38    1.40
  -8   9   0    2.10    0.80
  -8   9   0   -0.63    0.85
   7  -9   0   24.16    1.77
  -7   9   0   26.67    1.81
   6  -9   0   24.39    1.70
  -6   9   0   27.29    1.85
   5  -9   0    1.45    0.42
  -5   9   0    1.12    0.52
   4  -9   0    0.36    0.34
  -4   9   0    0.07    0.63
   3  -9   0    0.31    0.33
   3  -9   0    1.41    0.98
  -3   9   0    0.22    0.71
   2  -9   0    1.16    0.90
   2  -9   0    2.22    0.51
  -2   9   0    4.27    1.38
   1  -9   0    0.18    0.34
   0  -9   0    0.38    0.40
  -1  -9   0   39.27    2.39
  -2  -9   0    1.84    0.55
   2   9   0    1.47    0.70
  -3  -9   0    9.10    1.13
   3   9   0    9.45    1.15
   4   9   0    0.42    0.51
   5   9   0    1.36    0.54
   5   9   0    1.64    0.83
   7   9   0   -0.50    0.41
 -11  10   0   15.95    1.11
 -10  10   0    2.99    0.63
  -9  10   0    7.68    0.92
  -8  10   0    3.21    0.92
   7 -10   0    1.46    0.61
  -7  10   0    0.97    0.55
   6 -10   0   -0.12    0.46
  -6  10   0   -0.07    0.56
   5 -10   0    0.72    0.42
  -5  10   0    1.20    0.60
   4 -10   0   16.52    1.21
  -4  10   0   18.16    1.52
   3 -10   0   14.49    1.07
  -3  10   0   13.45    1.49
   2 -10   0    5.12    0.66
  -2  10   0    6.80    1.38
   1 -10   0    3.62    0.63
   0 -10   0   21.28    1.44
  -1 -10   0    2.06    0.69
  -2 -10   0    2.05    0.61
   2  10   0    2.05    0.59
  -3 -10   0    3.18    1.20
   3  10   0    3.38    0.94
   4  10   0    9.66    1.00
   5  10   0   -0.14    0.42
   6  10   0   12.39    1.02
 -10  11   0   19.28    1.29
  -9  11   0   -0.34    0.35
  -8  11   0    9.61    0.98
   7 -11   0   -0.32    0.61
  -7  11   0   -0.22    0.47
   6 -11   0    0.35    0.50
  -6  11   0   -0.22    0.49
   5 -11   0   33.82    2.26
  -5  11   0   39.05    2.35
   4 -11   0    2.32    0.63
  -4  11   0    5.00    1.11
   3 -11   0   10.22    0.90
  -3  11   0    8.65    1.35
   2 -11   0    0.35    0.41
   1 -11   0   -0.43    0.43
   0 -11   0    3.56    0.69
  -1 -11   0   12.33    1.06
   1  11   0   12.27    1.31
  -2 -11   0    2.81    0.86
   2  11   0    1.87    0.60
   3  11   0    0.58    0.43
   4  11   0    0.06    0.41
   5  11   0    7.64    0.81
 -10  12   0    0.55    0.32
  -9  12   0    0.08    0.32
  -8  12   0    5.15    0.70
   7 -12   0   -0.38    0.64
  -7  12   0   -0.06    0.39
   6 -12   0    0.55    0.49
  -6  12   0    1.19    0.49
   5 -12   0    4.64    0.74
  -5  12   0    4.05    1.03
   4 -12   0   13.50    1.11
  -4  12   0   15.74    1.40
   3 -12   0   13.24    1.12
  -3  12   0   16.62    1.54
   2 -12   0   12.32    1.02
   1 -12   0    3.67    0.68
  -1  12   0    4.06    1.20
   0 -12   0    7.46    0.84
   0  12   0    7.40    1.19
  -1 -12   0    4.19    0.81
   1  12   0    2.52    0.96
  -2 -12   0    6.47    1.18
   2  12   0    8.93    0.94
   3  12   0    1.79    0.70
   4  12   0   -0.39    0.34
  -9  13   0   14.42    1.00
  -8  13   0    5.22    0.64
   7 -13   0    1.71    0.71
  -7  13   0    2.06    0.67
   6 -13   0    3.86    0.81
  -6  13   0    4.75    0.80
  -5  13   0    1.36    0.53
   4 -13   0    6.04    0.77
  -4  13   0    6.89    1.23
   3 -13   0    0.31    0.45
   2 -13   0   -0.07    0.43
  -2  13   0    1.80    0.69
   1 -13   0    5.63    0.77
  -1  13   0    5.38    1.11
   0 -13   0    0.25    0.53
   0  13   0   -0.36    0.50
   1  13   0    6.06    0.83
   2  13   0    0.09    0.42
   3  13   0    9.62    0.86
  -8  14   0    1.52    0.58
  -7  14   0    0.27    0.37
   6 -14   0    2.15    0.82
  -6  14   0    2.19    0.79
   5 -14   0    1.84    0.71
  -5  14   0   -0.99    0.92
   4 -14   0    0.93    0.46
   3 -14   0    0.66    0.46
   2 -14   0    4.67    0.75
   1 -14   0    2.51    0.73
  -1  14   0    0.60    0.53
   0 -14   0    1.18    0.64
   0  14   0   -0.83    0.49
   1  14   0    0.03    0.44
   2  14   0    2.13    0.78
   5 -15   0   -0.64    0.72
   4 -15   0    1.99    0.76
   3 -15   0    0.42    0.53
   2 -15   0    5.50    0.86
   0  15  -1    1.22    0.53
  -1  15  -1    0.66    0.59
   1 -15   1    0.42    0.54
   2 -15   1    1.24    0.50
   3 -15   1    0.91    0.50
   4 -15   1    0.27    0.53
   5 -15   1    0.76    0.64
   2  14  -1   -0.04    0.39
   1  14  -1    2.76    0.69
  -1 -14   1    1.23    0.70
   0 -14   1    2.60    0.76
  -1  14  -1   -0.20    0.55
   1 -14   1    0.77    0.48
  -2  14  -1    0.91    0.64
   2 -14   1   -0.27    0.45
   3 -14   1    0.32    0.46
   4 -14   1   -0.18    0.46
  -5  14  -1    0.23    0.67
   5 -14   1    0.38    0.50
  -6  14  -1   22.42    1.59
   6 -14   1   21.48    1.62
  -7  14  -1    0.07    0.38
  -8  14  -1    4.54    0.67
   4  13  -1    0.14    0.32
   3  13  -1    0.57    0.38
   2  13  -1    0.94    0.40
  -2 -13   1    0.55    0.72
   1  13  -1   -0.36    0.48
  -1 -13   1   -0.72    0.50
   0  13  -1   11.54    1.15
   0 -13   1    9.01    0.95
   1 -13   1    0.95    0.46
   2 -13   1   30.41    1.93
   3 -13   1    0.59    0.47
  -4  13  -1    6.40    1.37
   4 -13   1    9.12    0.88
  -5  13  -1   -0.95    0.54
   5 -13   1   -0.33    0.52
  -6  13  -1    2.65    0.81
   6 -13   1    1.64    0.65
  -7  13  -1   31.32    1.80
   7 -13   1   23.40    2.04
  -8  13  -1    0.20    0.35
  -9  13  -1    0.02    0.32
   5  12  -1    0.68    0.36
   4  12  -1    0.41    0.39
  -3 -12   1    1.16    0.91
   2  12  -1   -0.58    0.46
  -2 -12   1    0.71    0.59
   1  12  -1    2.60    1.05
  -1 -12   1    3.15    0.74
   0 -12   1    0.67    0.45
   1 -12   1    0.44    0.44
   2 -12   1    0.67    0.43
  -3  12  -1   20.68    2.26
   3 -12   1   17.71    1.33
  -4  12  -1   25.66    1.94
   4 -12   1   23.39    1.65
  -5  12  -1   27.18    1.81
   5 -12   1   23.19    1.70
  -6  12  -1    6.35    0.89
   6 -12   1    3.57    0.93
  -7  12  -1    0.72    0.40
   7 -12   1    0.75    0.79
  -8  12  -1    1.68    0.62
  -9  12  -1    9.68    0.83
 -10  12  -1   10.00    0.82
   6  11  -1    7.70    0.81
   5  11  -1    0.09    0.38
   4  11  -1    5.81    0.80
   3  11  -1   -0.34    0.52
  -3 -11   1   -0.72    0.67
   2  11  -1   23.99    1.62
  -2 -11   1   18.04    1.46
  -1 -11   1    0.85    0.47
   0 -11   1    4.38    0.68
   1 -11   1    0.21    0.42
   2 -11   1    0.90    0.45
   3 -11   1    1.75    0.84
   3 -11   1    0.92    0.46
  -4  11  -1    3.88    1.14
   4 -11   1    2.90    0.98
  -5  11  -1   19.82    1.59
   5 -11   1   18.57    1.39
  -6  11  -1    8.29    1.12
   6 -11   1    6.82    0.94
  -7  11  -1   -0.96    0.52
   7 -11   1    0.93    0.76
  -8  11  -1    1.26    0.47
  -9  11  -1    0.38    0.42
 -10  11  -1   -0.24    0.32
   7  10  -1    1.17    0.42
   6  10  -1    0.30    0.38
   5  10  -1   -0.11    0.76
   5  10  -1    0.49    0.45
   4  10  -1    0.00    0.46
  -4 -10   1   -1.55    0.95
   3  10  -1    0.29    0.54
  -3 -10   1    0.04    0.62
  -2 -10   1    1.05    0.54
  -2 -10   1    0.52    0.90
  -1 -10   1   32.55    2.04
   0 -10   1    0.29    0.41
   1 -10   1    1.70    0.57
   2 -10   1    0.10    0.76
   2 -10   1    0.56    0.40
  -3  10  -1   27.36    2.16
   3 -10   1   26.33    2.31
   3 -10   1   29.48    1.79
  -4  10  -1   14.33    1.50
   4 -10   1   11.57    2.04
   4 -10   1   18.60    1.20
  -5  10  -1   32.90    2.22
   5 -10   1   34.14    2.13
  -6  10  -1   67.32    3.99
   6 -10   1   66.10    3.95
  -7  10  -1    2.73    0.93
  -8  10  -1    3.07    0.84
 -10  10  -1    1.16    0.41
 -11  10  -1    0.49    0.34
   8   9  -1    0.38    0.50
   7   9  -1    4.41    1.13
   7   9  -1    3.55    0.88
   6   9  -1    2.14    0.83
   6   9  -1    3.60    1.18
   5   9  -1   -0.41    0.48
   4   9  -1    2.41    0.96
  -4  -9   1    1.39    0.79
   3   9  -1    2.76    1.11
  -2  -9   1   -0.30    0.48
  -2  -9   1    1.04    0.86
  -1  -9   1    8.32    2.08
  -1  -9   1    9.22    0.83
   0  -9   1    6.67    0.70
   1  -9   1    1.64    0.74
   1  -9   1    1.30    0.49
  -2   9  -1   27.02    2.46
   2  -9   1   28.07    2.37
   2  -9   1   33.41    1.88
  -3   9  -1    1.32    0.75
   3  -9   1    1.31    0.36
   3  -9   1    0.50    0.90
  -4   9  -1   -0.42    0.68
   4  -9   1    1.70    1.10
   4  -9   1    0.38    0.34
  -5   9  -1    3.56    1.06
   5  -9   1    1.37    0.43
  -6   9  -1   67.01    3.88
   6  -9   1   61.46    3.78
  -7   9  -1   11.92    1.24
   7  -9   1   10.76    1.84
  -8   9  -1   -0.24    0.93
   8  -9   1    1.74    0.85
  -9   9  -1    2.97    0.81
  -9   9  -1    5.94    1.46
   9  -9   1    3.18    1.00
 -10   9  -1    1.19    0.46
 -10   9  -1    0.98    0.75
 -11   9  -1    2.63    0.65
   8   8  -1    2.52    0.96
   8   8  -1    2.85    0.94
   7   8  -1    0.56    0.50
   7   8  -1    0.72    0.57
   6   8  -1    0.39    0.61
   6   8  -1    0.30    0.58
   5   8  -1   33.38    2.20
   4   8  -1    8.71    1.21
  -4  -8   1   10.57    1.20
  -3  -8   1   27.19    2.22
  -3  -8   1   32.52    1.93
  -2  -8   1    7.07    0.77
  -2  -8   1    9.88    1.60
  -1  -8   1    0.61    0.35
   0  -8   1   14.12    1.60
   0  -8   1   14.47    1.02
   1  -8   1   48.85    2.86
   2  -8   1    1.52    0.43
  -3   8  -1    0.16    1.11
   3  -8   1    0.38    0.33
  -4   8  -1    4.30    0.81
   4  -8   1    4.82    0.65
  -5   8  -1    1.93    0.61
   5  -8   1    4.44    1.71
   5  -8   1    1.18    0.46
   6  -8   1    4.02    1.56
   6  -8   1    3.00    0.82
  -7   8  -1   16.19    1.87
  -7   8  -1   19.03    1.49
   7  -8   1   19.06    1.81
  -8   8  -1    8.20    1.53
  -8   8  -1    8.64    1.15
   8  -8   1    7.75    1.48
  -9   8  -1   22.58    1.68
  -9   8  -1   22.22    1.98
   9  -8   1   22.10    1.98
 -10   8  -1    7.26    1.26
 -10   8  -1    6.91    0.88
  10  -8   1    5.33    1.34
 -11   8  -1    0.40    0.55
 -11   8  -1    2.08    0.78
   9   7  -1    5.15    0.86
   8   7  -1    0.15    0.49
   8   7  -1    0.35    0.60
   7   7  -1    5.44    1.07
   7   7  -1    5.42    1.13
   6   7  -1    4.45    1.06
   5   7  -1    1.19    0.58
   4   7  -1    2.24    0.66
  -4  -7   1    2.14    0.67
  -3  -7   1    0.12    0.48
  -3  -7   1    0.93    0.72
  -2  -7   1   12.17    1.77
  -2  -7   1   16.84    1.10
   1   7  -1   17.72    1.90
  -1  -7   1   23.09    1.41
  -1  -7   1   24.06    1.68
   0   7  -1   73.86    4.73
   0  -7   1   85.35    4.70
   0  -7   1   85.49    4.65
   1  -7   1   14.15    0.96
   2  -7   1    2.14    0.43
   3  -7   1    5.78    0.61
   4  -7   1   24.60    1.56
   5  -7   1   21.74    1.47
  -6   7  -1    0.46    0.96
   6  -7   1   -0.42    0.75
  -7   7  -1   45.35    3.26
   7  -7   1   52.48    3.15
  -8   7  -1    5.53    1.27
   8  -7   1    5.09    1.32
  -9   7  -1    3.27    1.26
  -9   7  -1    4.19    1.06
 -10   7  -1    1.20    0.63
  10  -7   1   -0.28    0.64
 -11   7  -1   -0.17    0.50
 -11   7  -1    0.60    0.52
  11  -7   1    0.67    0.59
   9   6  -1    1.59    0.79
   9   6  -1    1.68    0.50
   8   6  -1    5.97    1.30
   8   6  -1    7.10    0.96
   7   6  -1    3.76    1.16
   6   6  -1    8.36    1.18
   5   6  -1   26.53    1.92
  -5  -6   1   25.24    2.12
   4   6  -1    4.77    1.28
  -4  -6   1    4.55    0.90
  -3  -6   1    0.57    0.87
  -3  -6   1    0.28    0.45
  -2  -6   1   11.42    0.86
  -2  -6   1   10.60    1.11
   1   6  -1    4.80    0.84
  -1  -6   1    3.46    0.55
  -1  -6   1    4.27    0.69
   0   6  -1   29.78    1.85
   0  -6   1   32.54    1.84
   0  -6   1   29.14    1.82
   1  -6   1   10.64    0.77
   2  -6   1   22.59    1.39
   3  -6   1   -0.07    0.31
   4  -6   1   34.95    2.11
   5  -6   1    1.62    0.65
  -6   6  -1   53.31    3.47
   6  -6   1   53.96    3.42
  -7   6  -1   24.95    1.91
   7  -6   1   26.01    2.03
  -8   6  -1    3.17    1.18
   8  -6   1    3.91    1.34
  -9   6  -1    0.18    0.72
  -9   6  -1    0.58    0.57
   9  -6   1    0.57    0.68
 -10   6  -1    1.57    0.60
 -10   6  -1    3.23    1.09
  10  -6   1    1.05    0.59
 -11   6  -1   -0.01    0.53
 -11   6  -1   -1.12    0.66
  11  -6   1   -0.15    0.55
  10   5  -1    0.46    0.40
   9   5  -1    1.43    0.79
   9   5  -1    1.44    0.46
   8   5  -1    7.76    1.06
   8   5  -1    7.61    1.53
   7   5  -1    4.29    1.25
   6   5  -1   21.05    1.68
   5   5  -1    2.97    0.73
  -5  -5   1    5.03    1.27
   4   5  -1    4.21    1.41
  -4  -5   1    0.55    0.57
  -3  -5   1   12.53    1.00
  -3  -5   1   12.14    1.17
   2   5  -1   14.97    1.20
  -2  -5   1   15.54    1.08
  -2  -5   1   17.64    1.16
   1   5  -1   20.34    1.30
  -1  -5   1   20.59    1.29
   0   5  -1   36.14    2.20
   0  -5   1   39.98    2.20
   4  -5   1    2.99    0.65
   5  -5   1    5.44    0.85
  -6   5  -1   45.57    3.02
   6  -5   1   45.24    3.03
  -7   5  -1    0.38    0.69
   7  -5   1    0.13    0.70
  -8   5  -1   -0.86    0.62
   8  -5   1   -0.26    0.70
  -9   5  -1    6.15    1.20
   9  -5   1    7.75    1.42
 -10   5  -1   -0.08    0.51
 -10   5  -1   -0.10    0.61
  10  -5   1   -0.99    0.55
 -11   5  -1    4.79    0.82
  11  -5   1    4.35    0.91
  10   4  -1    2.42    0.73
   9   4  -1    2.29    0.88
   9   4  -1    2.61    0.90
   8   4  -1    4.59    1.64
   8   4  -1    3.96    1.02
   7   4  -1    2.30    0.60
   7   4  -1    4.15    1.40
   6   4  -1   -0.29    0.73
  -6  -4   1   -2.13    1.61
   5   4  -1   16.93    1.80
  -5  -4   1   21.76    1.69
  -4  -4   1    6.37    1.09
  -4  -4   1    8.58    0.94
   3   4  -1  157.04    9.64
  -3  -4   1  171.86    9.59
  -3  -4   1  184.08    9.65
   2   4  -1   39.79    2.36
  -2  -4   1   40.40    2.36
   1   4  -1    1.88    0.31
  -1  -4   1    1.57    0.31
   0   4  -1   77.50    4.42
   0  -4   1   79.95    4.42
  -5   4  -1    0.96    0.46
   5  -4   1   -0.20    0.57
  -6   4  -1   42.91    2.80
   6  -4   1   40.93    2.72
   6  -4   1   43.10    2.79
  -7   4  -1    2.05    0.65
   7  -4   1    3.20    1.23
  -8   4  -1    7.65    1.27
   8  -4   1   10.28    1.38
  -9   4  -1    5.74    1.12
   9  -4   1    3.77    1.39
 -10   4  -1    2.24    0.75
  10  -4   1    1.97    0.64
 -11   4  -1   -0.18    0.45
  11  -4   1    0.73    0.45
  11   3  -1    3.88    0.68
  10   3  -1   -0.01    0.39
 -10  -3   1    0.34    0.69
   9   3  -1    3.36    0.60
  -9  -3   1    2.49    0.81
   8   3  -1   -0.44    0.53
   8   3  -1   -1.28    0.99
  -8  -3   1   -0.67    0.79
   7   3  -1    5.24    1.07
  -7  -3   1    7.06    1.55
   6   3  -1    0.29    0.95
  -6  -3   1   -1.33    0.89
  -5  -3   1   11.90    1.37
  -4  -3   1    4.45    0.90
  -4  -3   1    5.36    0.78
   3   3  -1   53.18    3.07
  -3  -3   1   52.26    3.07
   2   3  -1  353.49   19.26
  -2  -3   1  338.06   19.25
   1   3  -1   77.55    4.29
  -1  -3   1   75.19    4.29
   0   3  -1   38.22    2.16
   0  -3   1   38.64    2.17
   3  -3   1  403.90   22.44
  -4   3  -1  100.73    5.75
   4  -3   1  103.44    5.76
  -5   3  -1   56.73    3.23
   5  -3   1   52.59    3.28
  -6   3  -1   26.63    2.34
   6  -3   1   32.44    2.30
   6  -3   1   27.03    2.13
  -7   3  -1   -0.43    0.61
   7  -3   1    0.81    0.60
  -8   3  -1    3.18    1.13
   8  -3   1    5.63    1.20
  -9   3  -1    4.88    1.07
   9  -3   1    6.78    1.23
 -10   3  -1    1.38    0.51
  10  -3   1    2.20    0.59
 -11   3  -1    5.45    0.83
  11  -3   1    3.99    0.83
  11   2  -1    2.71    0.65
 -11  -2   1    0.04    0.65
 -10  -2   1    2.94    1.09
   9   2  -1    3.01    1.04
  -9  -2   1    4.52    1.16
   8   2  -1   17.73    1.44
   8   2  -1   12.64    2.16
  -8  -2   1   16.20    1.66
   7   2  -1   27.02    1.96
   7   2  -1   30.98    2.47
  -7  -2   1   26.40    2.12
   6   2  -1    4.47    1.43
  -6  -2   1    4.57    1.84
  -5  -2   1    2.09    0.74
  -5  -2   1    1.41    0.62
   4   2  -1    2.10    0.67
  -4  -2   1    1.89    0.54
   3   2  -1   13.23    0.91
  -3  -2   1   13.38    0.89
  -2  -2   1  152.56    8.53
   1   2  -1  260.62   14.38
  -1  -2   1  256.59   14.38
  -2   2  -1   37.59    2.20
   2  -2   1   40.40    2.20
  -3   2  -1  113.24    6.72
   3  -2   1  126.87    6.73
  -4   2  -1   46.49    2.69
   4  -2   1   46.09    2.70
  -5   2  -1   10.23    1.01
  -6   2  -1    4.60    1.59
   6  -2   1    6.76    1.33
  -7   2  -1   10.37    1.41
   7  -2   1   10.67    1.50
   7  -2   1    7.93    2.62
   7  -2   1    7.64    1.41
  -8   2  -1    9.19    1.22
   8  -2   1   10.48    1.28
  -9   2  -1    2.97    1.02
   9  -2   1    4.24    1.03
 -10   2  -1    7.45    1.00
  10  -2   1    9.23    1.18
 -11   2  -1    0.45    0.41
  11  -2   1    0.41    0.42
  11   1  -1    0.22    0.38
 -11  -1   1   -0.02    0.56
  10   1  -1    2.75    0.86
   9   1  -1    1.21    0.58
  -9  -1   1    1.32    0.62
   8   1  -1   24.21    1.77
  -8  -1   1   21.92    1.90
   7   1  -1    8.00    1.19
  -7  -1   1    6.78    1.32
  -6  -1   1   14.73    1.94
  -5  -1   1   27.66    1.84
   4   1  -1   19.83    1.38
  -4  -1   1   21.55    1.34
   3   1  -1    0.71    0.23
  -3  -1   1    0.41    0.17
   2   1  -1   20.15    1.14
  -2  -1   1   18.54    1.14
   1   1  -1  139.01    7.49
  -1  -1   1  130.04    7.49
  -1   1  -1  118.31    6.94
   1  -1   1  131.21    6.94
  -2   1  -1   17.53    1.05
   2  -1   1   18.42    1.06
  -3   1  -1  112.15    6.53
   3  -1   1  120.86    6.54
  -4   1  -1    7.07    0.68
   4  -1   1    8.70    0.73
  -5   1  -1    1.79    0.57
   5  -1   1    2.97    0.99
  -6   1  -1   10.48    2.08
   6  -1   1   14.48    1.51
   7  -1   1   17.52    2.13
   7  -1   1   20.90    2.53
   7  -1   1   21.93    1.72
  -8   1  -1    4.29    1.14
   8  -1   1    7.16    1.17
   8  -1   1    6.30    2.24
  -9   1  -1    5.43    1.10
   9  -1   1    7.35    1.12
 -10   1  -1   15.76    1.27
  10  -1   1   14.21    1.28
 -11   1  -1   12.54    1.10
  11  -1   1   12.85    1.10
  12   0  -1    0.97    0.39
 -12   0   1    0.21    0.49
  11   0  -1    2.43    0.78
  10   0  -1    3.55    1.02
 -10   0   1    4.20    1.03
   9   0  -1    3.54    1.08
  -9   0   1    0.88    0.60
   8   0  -1   17.02    1.52
  -8   0   1   16.80    1.61
   7   0  -1   23.89    1.94
  -7   0   1   27.64    1.95
  -6   0   1    8.24    1.34
   5   0  -1   16.58    1.44
  -5   0   1   19.57    1.32
   4   0  -1  110.94    6.09
  -4   0   1  104.01    6.08
   3   0  -1   70.28    3.87
  -3   0   1   66.17    3.86
   2   0  -1  164.74    8.65
  -2   0   1  145.49    8.65
   1   0  -1  124.13    6.70
  -1   0   1  116.39    6.69
   0   0  -1   35.19    2.01
   0   0   1   36.61    2.01
  -1   0  -1    8.61    0.53
   1   0   1    8.89    0.53
  -2   0  -1   55.99    3.13
   2   0   1   54.48    3.13
  -3   0  -1   24.41    1.51
   3   0   1   26.14    1.53
  -4   0  -1   35.44    2.18
   4   0   1   37.30    2.23
  -5   0  -1   37.94    2.43
   6   0   1    0.23    0.98
   6   0   1   -0.05    0.57
   7   0   1   10.56    1.90
   7   0   1    7.46    1.28
  -8   0  -1    3.87    1.15
   8   0   1    6.49    1.80
   8   0   1    4.52    1.19
   9   0   1    7.23    2.20
 -10   0  -1    4.50    0.91
  10   0   1    3.35    0.82
 -11   0  -1    5.09    0.91
  11   0   1    3.97    0.75
 -12   1   1    2.87    0.80
  11  -1  -1    7.73    1.02
 -11   1   1    8.79    1.04
  10  -1  -1    0.05    0.62
 -10   1   1    0.64    0.59
   9  -1  -1   17.63    1.64
  -9   1   1   18.25    1.51
   8  -1  -1    0.18    0.63
  -8   1   1   -0.44    0.67
   7  -1  -1    5.12    1.28
  -7   1   1    3.96    1.20
  -6   1   1   37.99    2.52
   5  -1  -1   75.35    4.45
  -5   1   1   77.36    4.41
   4  -1  -1  118.93    6.54
  -4   1   1  112.77    6.53
   3  -1  -1  106.93    5.87
  -3   1   1  102.10    5.87
   2  -1  -1    9.47    0.58
  -2   1   1    9.05    0.58
   0  -1  -1    2.42    0.19
   0   1   1    2.52    0.20
  -1  -1  -1  292.76   17.00
   1   1   1  319.05   17.01
   2   1   1   19.53    1.18
  -3  -1  -1    9.41    0.70
   3   1   1    9.52    0.75
  -4  -1  -1   19.93    1.31
   4   1   1   17.57    1.40
  -5  -1  -1    2.93    1.08
   6   1   1   22.29    1.79
   6   1   1   25.01    2.21
   7   1   1   20.81    1.75
   7   1   1   23.90    2.07
  -8  -1  -1    2.94    1.13
   8   1   1    3.30    1.08
   8   1   1    1.81    0.91
  -9  -1  -1    8.29    1.14
   9   1   1    9.47    1.09
   9   1   1    7.09    1.87
 -10  -1  -1    5.48    0.97
  10   1   1    3.61    0.79
  11   1   1    5.55    0.80
  12  -2  -1   -0.05    0.43
 -12   2   1   -0.60    0.38
  11  -2  -1    1.47    0.58
 -11   2   1    2.77    0.89
  10  -2  -1    1.57    0.59
 -10   2   1    3.11    1.11
   9  -2  -1    1.56    0.67
  -9   2   1    0.87    0.56
   8  -2  -1    4.13    1.45
  -8   2   1    6.63    1.10
   7  -2  -1   32.91    2.39
  -7   2   1   32.07    2.27
  -6   2   1    0.52    0.63
  -6   2   1   -0.58    0.56
   5  -2  -1    0.26    0.48
  -5   2   1    0.01    0.34
   4  -2  -1  132.11    7.31
  -4   2   1  128.10    7.32
   3  -2  -1   96.93    5.27
  -3   2   1   90.59    5.27
   2  -2  -1    3.80    0.31
   1  -2  -1   80.02    4.48
   0  -2  -1   83.83    4.74
   0   2   1   85.48    4.75
  -1  -2  -1  658.65   36.56
   1   2   1  658.10   36.57
  -2  -2  -1   36.38    2.07
   2   2   1   34.09    2.07
  -3  -2  -1    5.05    0.58
   3   2   1    5.71    0.69
  -4  -2  -1    0.84    0.48
   5   2   1   10.00    1.40
   5   2   1   11.00    1.58
   6   2   1   23.31    2.04
   6   2   1   23.90    1.86
   7   2   1    1.02    0.83
   7   2   1    0.36    0.56
  -8  -2  -1    0.89    0.62
   8   2   1   -0.15    0.80
   8   2   1   -0.68    0.55
  -9  -2  -1    0.32    0.59
   9   2   1    1.63    0.87
   9   2   1    0.77    0.45
 -10  -2  -1    0.11    0.55
  10   2   1   -0.13    0.40
  12  -3  -1   -0.26    0.47
 -12   3   1    0.63    0.37
  11  -3  -1    1.69    0.64
 -11   3   1    1.30    0.48
 -10   3   1    3.62    1.04
   9  -3  -1   41.41    2.84
  -9   3   1   40.80    2.87
  -9   3   1   42.01    2.70
   8  -3  -1   17.53    1.80
  -8   3   1   18.77    1.53
   7  -3  -1   41.42    2.91
  -7   3   1   42.65    2.72
  -6   3   1   10.34    1.26
   5  -3  -1   32.58    2.09
  -5   3   1   33.92    2.06
   4  -3  -1   56.89    3.27
  -4   3   1   57.14    3.28
   3  -3  -1  117.13    6.56
   2  -3  -1   46.19    2.55
   2  -3  -1   43.38    2.54
   1  -3  -1   26.13    1.51
  -1   3   1   26.32    1.53
   0  -3  -1    0.33    0.13
   0   3   1    0.31    0.16
  -1  -3  -1   63.56    3.59
   1   3   1   62.64    3.61
  -2  -3  -1   24.49    1.56
   2   3   1   25.96    1.59
  -3  -3  -1    0.70    0.39
  -4  -3  -1   28.84    2.02
   5   3   1    0.39    0.76
   5   3   1   -0.56    0.73
   6   3   1    5.79    1.22
   6   3   1    3.28    0.76
  -7  -3  -1   17.77    1.79
   7   3   1   16.09    1.50
   7   3   1   18.18    1.80
  -8  -3  -1   27.19    2.05
   8   3   1   28.38    1.93
   8   3   1   26.10    2.11
   9   3   1    1.18    0.47
   9   3   1    1.72    0.78
  10   3   1    0.60    0.38
  12  -4  -1    5.83    1.07
 -12   4   1    3.34    0.74
  11  -4  -1    1.06    0.62
 -11   4   1    4.00    0.89
  10  -4  -1    3.43    0.83
   9  -4  -1   16.75    1.75
  -9   4   1   14.61    1.70
  -9   4   1   17.91    1.57
   8  -4  -1   13.29    1.52
  -8   4   1   11.42    1.38
  -8   4   1    8.84    1.29
   7  -4  -1   13.74    1.86
   7  -4  -1   11.50    1.21
  -7   4   1   12.97    1.30
  -6   4   1    0.56    0.89
   5  -4  -1   49.93    2.98
   4  -4  -1    3.57    0.51
   3  -4  -1    8.03    0.59
   3  -4  -1    6.90    0.55
   2  -4  -1    0.03    0.14
   2  -4  -1   -0.16    0.19
   1  -4  -1    0.02    0.14
  -1   4   1   -0.10    0.19
   0  -4  -1   25.70    1.53
   0   4   1   26.01    1.57
  -1  -4  -1   51.88    2.97
   1   4   1   50.24    2.99
  -2  -4  -1    0.85    0.38
   2   4   1    0.62    0.49
  -3  -4  -1   50.26    3.07
   4   4   1    4.32    1.14
   5   4   1    8.60    1.47
   5   4   1    8.34    1.31
   6   4   1    4.41    1.15
   6   4   1    4.41    0.79
  -7  -4  -1    4.16    0.95
   7   4   1    6.98    1.15
   8   4   1    3.82    1.18
   8   4   1    4.09    1.08
   9   4   1    1.19    0.71
   9   4   1    2.22    0.87
  10   4   1    0.29    0.46
 -12   5   1   -0.30    0.36
  11  -5  -1    7.88    1.34
 -11   5   1   10.57    1.14
  10  -5  -1    0.01    0.76
 -10   5   1    0.41    0.64
   9  -5  -1    8.15    1.73
  -9   5   1    7.70    1.25
  -9   5   1   11.47    1.35
   8  -5  -1   10.00    1.86
  -8   5   1   11.06    1.39
  -8   5   1   12.55    1.33
   7  -5  -1   10.82    0.98
   7  -5  -1    7.90    2.13
  -7   5   1    9.34    1.40
   6  -5  -1    8.09    0.83
  -6   5   1    7.25    1.47
   5  -5  -1    1.01    0.45
   5  -5  -1    0.85    0.37
   5  -5  -1    0.76    0.76
   4  -5  -1    1.00    0.32
   4  -5  -1    1.18    0.46
   4  -5  -1    1.04    0.40
   3  -5  -1   37.14    2.25
   3  -5  -1   37.66    2.24
   3  -5  -1   40.90    2.27
   2  -5  -1    4.52    0.48
   2  -5  -1    4.41    0.43
   1  -5  -1   49.87    3.05
   1  -5  -1   56.21    3.06
  -1   5   1   54.02    3.09
   0  -5  -1   20.46    1.31
   0  -5  -1   22.33    1.34
   0   5   1   20.85    1.41
  -1  -5  -1   14.61    1.03
  -1  -5  -1   15.38    1.10
   1   5   1   13.32    1.20
  -2  -5  -1   14.95    1.31
  -2  -5  -1   16.21    1.21
  -3  -5  -1   25.34    1.74
   3   5   1   22.13    1.83
   4   5   1   14.29    1.34
   5   5   1    1.87    0.65
   5   5   1    3.30    1.31
   6   5   1   -0.11    0.55
   6   5   1   -0.38    0.64
   7   5   1    4.11    1.17
   7   5   1    3.39    1.21
   8   5   1    1.56    0.54
   8   5   1    3.13    1.05
   9   5   1   -0.25    0.65
   9   5   1    0.15    0.44
 -12   6   1    9.19    0.91
  11  -6  -1    4.54    1.78
 -11   6   1    1.85    0.56
 -11   6   1    2.14    0.51
  10  -6  -1    0.72    0.84
 -10   6   1    0.70    0.69
 -10   6   1    1.26    0.60
   9  -6  -1   17.17    1.99
  -9   6   1   18.85    1.52
  -9   6   1   17.01    1.61
   8  -6  -1    1.63    0.89
  -8   6   1   -0.02    0.65
  -8   6   1    1.09    0.64
   7  -6  -1    0.07    0.48
  -7   6   1    0.76    0.68
  -7   6   1   -0.60    0.60
   6  -6  -1   10.59    0.85
  -6   6   1   10.55    1.22
  -6   6   1    6.66    1.51
   5  -6  -1   -0.22    0.29
  -5   6   1    1.18    0.64
   4  -6  -1   10.48    0.78
   3  -6  -1    5.78    0.56
   3  -6  -1    5.68    0.61
   3  -6  -1    7.48    0.80
   2  -6  -1   12.49    0.88
   2  -6  -1   13.42    0.92
   1  -6  -1   39.91    2.34
   1  -6  -1   41.60    2.38
  -1   6   1   38.76    2.46
   0  -6  -1    0.24    0.28
   0  -6  -1    0.37    0.46
   0   6   1   -0.28    0.63
  -1  -6  -1   44.77    2.64
  -1  -6  -1   45.12    2.82
  -2  -6  -1    0.29    0.50
   2   6   1    0.57    0.78
  -3  -6  -1   11.79    1.27
   3   6   1   12.08    1.31
   4   6   1    2.77    0.96
   5   6   1    5.40    1.13
   5   6   1    8.78    1.46
   6   6   1    0.38    0.55
   6   6   1    0.23    0.63
   7   6   1   13.12    1.30
   7   6   1   11.28    1.34
   8   6   1    0.47    0.50
   8   6   1    0.28    0.52
 -12   7   1    0.14    0.44
 -11   7   1    0.46    0.42
 -11   7   1    0.47    0.47
 -10   7   1   -0.98    0.56
 -10   7   1   -0.14    0.52
  -9   7   1    3.78    1.30
  -9   7   1    3.35    0.91
   8  -7  -1    0.42    0.60
  -8   7   1   -0.52    0.79
  -8   7   1    0.96    0.53
   7  -7  -1   19.20    1.39
  -7   7   1   20.83    1.58
  -7   7   1   17.32    1.90
   6  -7  -1   10.68    0.89
  -6   7   1    9.72    1.74
  -6   7   1    9.51    1.21
   5  -7  -1    4.89    0.61
  -5   7   1    6.81    1.08
   4  -7  -1   23.68    1.43
  -4   7   1   21.51    1.68
   3  -7  -1    0.33    0.24
   2  -7  -1   51.42    2.98
   2  -7  -1   51.48    3.06
   1  -7  -1   61.80    3.78
   1  -7  -1   65.33    3.65
   0  -7  -1    6.40    0.65
   0  -7  -1    8.36    1.33
  -1  -7  -1    9.28    0.87
  -2  -7  -1   10.86    0.95
   2   7   1    7.23    1.31
   3   7   1   -0.22    0.55
   4   7   1   11.50    1.17
   5   7   1    2.58    1.01
   5   7   1   -0.39    0.91
   6   7   1   -1.21    0.69
   6   7   1    0.32    0.51
   7   7   1    1.55    0.52
   7   7   1    0.71    0.70
   8   7   1    1.15    0.46
 -12   8   1    1.87    0.86
 -11   8   1   -0.41    0.49
 -10   8   1    0.26    0.59
 -10   8   1    0.20    0.46
  -9   8   1    8.20    1.11
  -9   8   1   10.23    1.36
   8  -8  -1   -0.51    0.60
  -8   8   1    0.72    0.50
  -8   8   1    1.15    0.73
   7  -8  -1  127.21    7.03
  -7   8   1  127.29    7.08
  -7   8   1  115.06    7.13
   6  -8  -1   37.61    2.23
  -6   8   1   37.30    2.33
  -6   8   1   32.08    2.82
   5  -8  -1    0.04    0.34
  -5   8   1    0.41    0.49
   4  -8  -1   43.08    2.57
  -4   8   1   43.45    2.80
   3  -8  -1    2.58    0.47
  -3   8   1    3.61    1.15
   2  -8  -1   36.49    2.04
  -2   8   1   30.26    2.40
   1  -8  -1    9.85    0.79
   0  -8  -1    0.83    0.39
  -1  -8  -1    6.50    0.77
  -2  -8  -1    3.08    0.87
   2   8   1    4.84    1.05
  -3  -8  -1    1.04    0.82
   3   8   1    0.41    0.55
   4   8   1   17.31    1.38
   5   8   1   -0.02    0.51
   5   8   1    1.60    0.82
   6   8   1    0.10    0.46
   6   8   1   -0.12    1.10
   7   8   1    2.54    0.75
 -11   9   1    0.76    0.36
 -11   9   1    0.67    0.62
 -10   9   1    3.57    0.70
 -10   9   1    1.05    0.60
  -9   9   1    3.68    0.95
  -9   9   1    4.63    0.80
   8  -9  -1    5.08    0.96
  -8   9   1    4.41    1.67
  -8   9   1    5.50    1.00
   7  -9  -1    3.56    0.77
  -7   9   1    2.91    0.93
   6  -9  -1    1.42    0.44
  -6   9   1    2.01    0.57
   5  -9  -1    7.84    0.74
  -5   9   1    6.20    1.13
   4  -9  -1   10.40    0.85
  -4   9   1   10.64    1.21
   3  -9  -1    0.33    0.33
  -3   9   1   -0.07    0.62
   2  -9  -1   -0.08    0.33
  -2   9   1    1.53    0.73
   1  -9  -1   -0.24    0.35
   0  -9  -1   57.44    3.39
  -1  -9  -1    3.27    0.76
   1   9   1    2.62    0.76
  -2  -9  -1    6.35    1.02
   2   9   1    5.59    1.10
   3   9   1    0.82    0.52
   4   9   1   38.01    2.43
   5   9   1    5.12    0.82
   6   9   1    2.24    0.77
   7   9   1    0.93    0.37
 -11  10   1    0.25    0.34
 -10  10   1    9.84    0.87
  -9  10   1    0.93    0.40
   8 -10  -1    5.77    1.02
  -8  10   1    7.42    0.94
   7 -10  -1    3.91    0.79
  -7  10   1    2.73    0.86
   6 -10  -1   -0.23    0.42
  -6  10   1    0.19    0.49
   5 -10  -1   34.16    2.10
  -5  10   1   33.06    2.21
   4 -10  -1   13.04    1.04
  -4  10   1   14.40    1.31
  -3  10   1    0.29    0.63
   2 -10  -1   26.82    1.71
  -2  10   1   26.18    2.07
   1 -10  -1   19.78    1.38
   0 -10  -1    0.06    0.47
   0  10   1    0.69    0.77
  -1 -10  -1    4.26    0.80
  -2 -10  -1   -0.40    0.64
   2  10   1    0.31    0.54
   3  10   1    7.41    0.95
   4  10   1    0.54    0.44
   5  10   1    5.90    0.84
   6  10   1    1.91    0.62
 -10  11   1   -0.41    0.33
  -9  11   1    3.46    0.65
   8 -11  -1   -0.80    0.68
  -8  11   1   -0.22    0.38
   7 -11  -1    4.31    0.84
  -7  11   1    6.11    0.83
   6 -11  -1   23.76    1.63
  -6  11   1   24.72    1.69
   5 -11  -1   83.20    4.91
  -5  11   1   86.40    4.97
   4 -11  -1    5.29    0.71
  -4  11   1    7.71    1.05
   3 -11  -1    1.60    0.59
  -3  11   1    2.46    0.75
   2 -11  -1    1.80    0.60
  -1  11   1    3.51    1.28
   0 -11  -1    1.93    0.69
   0  11   1    4.29    1.13
  -1 -11  -1    1.02    0.59
   1  11   1   -0.08    0.55
  -2 -11  -1    5.58    1.30
   2  11   1    2.95    0.84
   3  11   1    3.78    0.79
   4  11   1    2.08    0.69
   5  11   1    0.65    0.37
 -10  12   1   -0.34    0.27
  -9  12   1    0.46    0.33
   8 -12  -1    8.43    1.28
  -8  12   1   11.90    0.94
   7 -12  -1   -0.82    0.54
  -7  12   1    0.49    0.39
   6 -12  -1   -0.14    0.48
  -6  12   1    1.00    0.48
   5 -12  -1   10.66    0.96
  -5  12   1   11.32    1.15
   4 -12  -1    0.08    0.37
  -4  12   1    0.08    0.63
   3 -12  -1   10.19    0.94
  -3  12   1   11.12    1.43
   2 -12  -1    2.60    0.63
  -2  12   1    0.23    0.81
   1 -12  -1    6.03    0.80
   0 -12  -1    0.41    0.56
   0  12   1   -0.24    0.56
  -1 -12  -1   14.25    1.40
   1  12   1   19.05    1.31
   2  12   1    0.50    0.46
   3  12   1    7.08    0.81
   4  12   1   -0.05    0.40
  -9  13   1   14.25    1.02
  -8  13   1    4.78    0.66
   7 -13  -1   -0.33    0.60
  -7  13   1    0.25    0.36
   6 -13  -1    2.18    0.74
   5 -13  -1    4.83    0.73
  -5  13   1    2.87    0.93
   4 -13  -1    2.46    0.63
  -4  13   1    1.39    0.68
   3 -13  -1   13.33    1.07
   2 -13  -1    0.39    0.43
   1 -13  -1   -0.34    0.52
  -1  13   1    0.35    0.57
   0 -13  -1    2.34    0.87
   0  13   1    0.91    0.53
   1  13   1    2.29    0.81
   2  13   1    0.84    0.41
  -8  14   1   12.04    0.92
  -7  14   1    0.15    0.38
   6 -14  -1    9.45    1.00
  -6  14   1   11.05    1.02
   5 -14  -1    0.49    0.49
   4 -14  -1   -0.28    0.43
   3 -14  -1    8.91    0.88
   2 -14  -1   -0.87    0.53
   1 -14  -1   11.03    1.10
   0  14   1   -1.04    0.64
   1  15  -2    2.29    0.67
   0  15  -2    0.77    0.44
   0 -15   2    0.96    0.62
  -1  15  -2    0.24    0.52
   1 -15   2    0.91    0.52
   2 -15   2    0.18    0.46
   3 -15   2    2.77    0.72
   4 -15   2    2.37    0.63
   5 -15   2    3.93    1.03
   3  14  -2    0.25    0.36
   2  14  -2   -0.03    0.35
  -2 -14   2    0.24    0.81
   1  14  -2    2.21    0.80
  -1 -14   2    2.81    0.81
   0  14  -2    4.44    0.93
   0 -14   2    3.16    0.70
  -1  14  -2   15.23    1.26
   1 -14   2   12.49    1.06
   2 -14   2   24.88    1.64
   3 -14   2    0.62    0.47
   4 -14   2    1.93    0.77
  -5  14  -2    0.10    0.75
   5 -14   2   -0.02    0.62
  -6  14  -2    0.56    0.48
   6 -14   2   -1.53    0.87
  -7  14  -2   -0.33    0.38
  -8  14  -2    9.61    0.84
   4  13  -2    0.31    0.35
   3  13  -2    2.39    0.64
  -3 -13   2    1.35    0.93
   2  13  -2    2.05    0.76
  -2 -13   2    1.16    0.56
   1  13  -2   -0.07    0.55
   0 -13   2    3.26    0.70
   1 -13   2    2.56    0.65
   2 -13   2    0.14    0.42
   3 -13   2    9.19    0.90
  -4  13  -2   -0.09    0.75
   4 -13   2    0.84    0.49
  -5  13  -2    0.90    0.57
   5 -13   2    2.12    0.58
  -6  13  -2    1.00    0.46
   6 -13   2    1.02    0.73
  -7  13  -2    5.80    0.77
  -8  13  -2    8.16    0.79
  -9  13  -2    0.14    0.34
   5  12  -2    0.87    0.37
   4  12  -2    4.12    0.67
   3  12  -2    6.99    0.91
  -3 -12   2    5.61    1.00
   2  12  -2   26.31    1.69
  -2 -12   2   19.62    1.56
  -1 -12   2    0.09    0.47
   0 -12   2    2.78    0.64
   1 -12   2    1.80    0.58
   2 -12   2   15.12    1.17
   3 -12   2   31.19    2.24
   3 -12   2   28.36    1.91
  -4  12  -2    4.44    1.18
   4 -12   2    0.81    0.85
   4 -12   2    2.32    0.73
  -5  12  -2    2.29    0.63
   5 -12   2    2.45    0.84
  -6  12  -2    6.93    1.03
  -7  12  -2    1.35    0.48
  -8  12  -2    8.08    0.89
  -9  12  -2    5.35    0.66
   6  11  -2    0.05    0.36
   5  11  -2    4.23    1.31
   5  11  -2    4.24    0.71
   4  11  -2    0.63    0.43
  -4 -11   2    0.12    0.86
   3  11  -2    1.05    0.59
  -3 -11   2    2.57    0.82
  -2 -11   2    4.11    1.66
  -1 -11   2    9.95    0.90
   0 -11   2   -0.61    1.66
   0 -11   2    0.13    0.41
   1 -11   2    9.34    0.89
   1 -11   2    9.17    1.37
   2 -11   2    0.52    0.70
   2 -11   2    0.34    0.43
  -3  11  -2    1.01    0.80
   3 -11   2    0.59    0.49
   3 -11   2    2.08    0.79
  -4  11  -2    7.75    1.38
   4 -11   2    8.12    0.92
   4 -11   2    7.15    1.66
  -5  11  -2   23.55    1.70
   5 -11   2   20.18    1.58
  -6  11  -2   11.66    1.11
   6 -11   2    8.45    1.21
  -7  11  -2    4.03    0.85
  -8  11  -2   -0.26    0.42
  -9  11  -2    0.66    0.41
 -10  11  -2    0.49    0.33
   7  10  -2    3.82    0.83
   7  10  -2    4.06    1.13
   6  10  -2    2.01    0.74
   6  10  -2    2.25    0.65
   5  10  -2    2.30    0.81
   4  10  -2    3.08    0.99
  -4 -10   2    5.01    0.96
  -3 -10   2    4.40    0.80
  -3 -10   2    6.53    1.38
  -2 -10   2   -0.59    0.48
  -2 -10   2    1.38    0.76
  -1 -10   2   15.63    1.13
  -1 -10   2   12.39    1.99
   0 -10   2   21.23    2.16
   0 -10   2   23.78    1.83
   0 -10   2   21.83    1.49
   1 -10   2   15.45    1.56
   1 -10   2   14.89    1.09
   1 -10   2   12.61    1.94
   2 -10   2    0.71    0.74
   2 -10   2    0.72    0.38
  -3  10  -2    2.60    0.81
   3 -10   2    2.51    1.14
   3 -10   2    3.74    0.65
   3 -10   2    3.40    1.37
  -4  10  -2   59.42    3.80
   4 -10   2   60.64    3.94
   4 -10   2   67.36    3.72
   4 -10   2   63.55    4.10
  -5  10  -2   66.89    3.90
   5 -10   2   64.67    3.82
   5 -10   2   61.34    4.04
  -6  10  -2   10.61    1.19
   6 -10   2    8.44    1.61
  -7  10  -2    1.03    0.56
   7 -10   2    1.32    0.79
  -8  10  -2   24.47    1.62
   8 -10   2   18.25    1.95
  -9  10  -2    7.46    0.84
   9 -10   2    4.91    1.95
 -10  10  -2    6.85    0.79
   8   9  -2    0.76    0.55
   8   9  -2    2.93    0.89
   7   9  -2    1.47    0.52
   6   9  -2    3.06    1.11
   5   9  -2   21.80    1.58
  -5  -9   2   18.81    1.91
   4   9  -2    9.26    1.18
  -4  -9   2    9.25    1.10
  -3  -9   2   20.00    1.75
  -3  -9   2   18.65    1.38
  -2  -9   2   15.22    1.85
  -2  -9   2   16.06    1.16
  -1  -9   2   30.15    2.56
  -1  -9   2   34.87    2.03
   0  -9   2   22.13    1.82
   0  -9   2   17.61    2.11
   0  -9   2   22.74    1.41
   1  -9   2   12.23    0.95
   1  -9   2   12.40    1.90
   1  -9   2   12.11    1.53
  -2   9  -2   -0.95    0.92
   2  -9   2    0.31    0.35
   2  -9   2    0.45    0.90
  -3   9  -2    8.57    1.53
   3  -9   2    6.32    1.66
   3  -9   2    7.20    0.75
  -4   9  -2    8.42    1.35
   4  -9   2    8.66    1.63
   4  -9   2    9.10    0.88
   4  -9   2    7.76    1.79
  -5   9  -2   11.65    1.27
   5  -9   2   11.83    1.10
   5  -9   2   12.61    1.74
   5  -9   2   10.12    1.98
  -6   9  -2    1.36    0.58
   6  -9   2    0.58    0.75
   6  -9   2    1.22    0.76
  -7   9  -2    8.48    1.18
   7  -9   2    9.70    1.42
  -8   9  -2    4.75    1.27
  -8   9  -2    7.50    1.07
   8  -9   2    7.11    1.34
  -9   9  -2   -0.43    0.88
  -9   9  -2   -0.28    0.51
   9  -9   2   -0.18    0.67
 -10   9  -2    3.18    0.72
  10  -9   2    2.26    0.74
 -11   9  -2    3.46    0.68
   9   8  -2    3.14    0.79
   8   8  -2    1.34    0.45
   8   8  -2    0.54    0.62
   7   8  -2    0.21    0.50
   7   8  -2   -0.14    0.58
   6   8  -2   -0.89    0.53
   5   8  -2   18.61    1.61
  -5  -8   2   21.85    1.72
   4   8  -2    1.93    0.72
  -4  -8   2    1.42    0.59
  -4  -8   2    1.10    0.59
  -3  -8   2    1.16    0.64
  -3  -8   2    0.04    0.41
  -2  -8   2    2.43    0.56
  -2  -8   2    4.11    1.60
  -1  -8   2    9.96    1.38
  -1  -8   2   10.11    0.81
   0  -8   2    3.45    0.54
   0  -8   2    2.23    0.72
   1  -8   2  113.03    6.40
   2  -8   2    6.36    0.66
   3  -8   2   -0.01    0.36
   4  -8   2   14.92    2.11
   4  -8   2   11.71    1.84
   4  -8   2   16.74    1.14
   5  -8   2   12.31    1.15
   5  -8   2   15.81    1.59
   5  -8   2   12.84    2.10
   6  -8   2   41.43    2.74
  -7   8  -2   70.92    4.50
   7  -8   2   75.66    4.42
  -8   8  -2   15.94    1.72
   8  -8   2   15.65    1.58
  -9   8  -2   11.12    1.14
  -9   8  -2    7.01    1.41
   9  -8   2   10.33    1.29
 -10   8  -2    3.24    0.81
 -10   8  -2    2.89    0.73
  10  -8   2    4.70    1.08
 -11   8  -2    0.72    0.50
 -11   8  -2    0.24    0.60
  11  -8   2   -1.14    0.66
   9   7  -2   -0.38    0.41
   8   7  -2    0.91    0.47
   8   7  -2    1.20    0.72
   7   7  -2    4.51    1.20
   7   7  -2    4.13    1.09
   6   7  -2    0.25    0.59
   5   7  -2    0.66    0.64
  -5  -7   2   -0.68    0.75
  -4  -7   2    9.22    1.37
  -4  -7   2    9.65    0.97
  -3  -7   2   28.14    1.68
  -3  -7   2   23.73    2.04
  -2  -7   2   15.46    1.64
  -2  -7   2   16.07    1.10
   1   7  -2    0.42    0.67
  -1  -7   2    0.83    0.56
  -1  -7   2    1.20    0.48
   0  -7   2    1.31    0.47
   1  -7   2   14.00    0.97
   2  -7   2    0.25    0.31
   3  -7   2   72.52    4.17
   4  -7   2    0.40    0.46
   5  -7   2   55.58    3.50
   5  -7   2   59.05    3.28
   5  -7   2   50.06    4.01
  -6   7  -2   17.20    1.79
   6  -7   2   19.75    1.65
  -7   7  -2   62.36    3.81
   7  -7   2   61.30    3.79
  -8   7  -2    3.83    1.40
   8  -7   2    4.08    1.18
   9  -7   2    4.03    1.21
 -10   7  -2    4.08    0.88
 -10   7  -2    3.13    1.06
  10  -7   2    2.90    1.09
 -11   7  -2    2.90    1.00
  11  -7   2    0.30    0.47
  10   6  -2    0.43    0.35
   9   6  -2    0.48    0.44
   9   6  -2   -0.33    0.99
   8   6  -2    1.60    0.55
   8   6  -2    4.11    1.28
   7   6  -2    2.81    0.78
   6   6  -2   -0.07    0.66
  -6  -6   2   -0.07    1.18
   5   6  -2    5.07    1.23
  -5  -6   2    2.56    0.99
  -4  -6   2    1.20    0.60
  -4  -6   2    0.37    0.46
  -3  -6   2   84.23    4.97
  -3  -6   2   82.92    4.77
   2   6  -2   32.76    2.33
  -2  -6   2   37.15    2.18
  -2  -6   2   39.86    2.31
   1   6  -2    6.01    0.73
  -1  -6   2    5.76    0.69
  -1  -6   2    7.16    0.62
   0  -6   2   -0.24    0.27
   1  -6   2   12.86    0.90
   2  -6   2    3.54    0.55
   3  -6   2   27.59    1.71
   4  -6   2   64.03    3.72
   5  -6   2    2.00    0.73
  -6   6  -2   -0.44    0.80
   6  -6   2    1.30    0.67
   7  -6   2    4.26    1.23
  -8   6  -2    0.63    0.72
   8  -6   2   -0.40    0.62
  -9   6  -2   -0.35    0.66
   9  -6   2    0.61    0.64
 -10   6  -2   21.46    1.71
 -10   6  -2   24.82    1.77
  10  -6   2   25.44    1.74
 -11   6  -2    8.22    1.16
 -11   6  -2    8.09    1.06
  11  -6   2    7.82    0.97
  10   5  -2    0.07    0.39
   9   5  -2    0.01    0.46
   8   5  -2    0.72    0.85
   8   5  -2    0.76    0.56
   7   5  -2    8.30    1.53
   6   5  -2    3.28    1.26
  -6  -5   2   -0.53    0.94
   5   5  -2   -0.41    0.82
  -5  -5   2    1.70    0.65
  -4  -5   2  131.73    7.90
  -4  -5   2  141.23    7.72
   3   5  -2   38.55    2.67
  -3  -5   2   46.93    2.66
  -3  -5   2   43.20    2.53
   2   5  -2   86.11    4.79
  -2  -5   2   82.74    4.75
  -2  -5   2   82.26    4.79
   1   5  -2    0.40    0.24
  -1  -5   2    0.20    0.23
  -1  -5   2   -0.08    0.30
   5  -5   2   86.85    5.11
  -6   5  -2    8.12    1.46
   6  -5   2    5.64    2.31
   6  -5   2    6.21    1.39
  -7   5  -2   15.80    1.56
   7  -5   2   15.74    1.62
  -8   5  -2    5.77    1.27
  -9   5  -2    3.58    1.05
   9  -5   2    4.08    1.15
 -10   5  -2    6.11    1.06
 -10   5  -2    4.16    1.09
  10  -5   2    5.62    1.01
 -11   5  -2    0.74    0.45
  11  -5   2    0.75    0.43
  11   4  -2   -0.01    0.31
  10   4  -2   -0.02    0.44
   9   4  -2   21.86    1.58
   8   4  -2   11.60    1.97
   8   4  -2   14.11    1.30
   7   4  -2    1.26    0.90
  -7  -4   2    2.55    1.93
   6   4  -2    4.17    1.48
  -6  -4   2    4.35    1.24
  -5  -4   2   -0.06    0.62
  -4  -4   2   77.55    4.34
  -4  -4   2   73.11    4.45
   3   4  -2  113.61    6.96
  -3  -4   2  130.12    6.98
  -3  -4   2  124.78    6.92
   2   4  -2    6.57    0.56
  -2  -4   2    5.76    0.54
   1   4  -2   20.28    1.18
  -1  -4   2   19.27    1.18
  -5   4  -2    0.22    0.53
   6  -4   2   10.06    1.53
   6  -4   2   10.42    2.28
   6  -4   2   10.97    1.34
  -7   4  -2    1.61    0.67
   7  -4   2    2.36    1.23
   7  -4   2    2.37    0.66
  -8   4  -2   14.44    1.50
   8  -4   2   16.16    1.65
  -9   4  -2   12.34    1.32
   9  -4   2   12.97    1.49
 -10   4  -2   -0.35    0.48
 -10   4  -2   -0.26    0.73
  10  -4   2    0.14    0.46
 -11   4  -2    1.10    0.44
  11  -4   2    2.81    0.72
  11   3  -2   -0.24    0.38
  10   3  -2    3.31    0.83
 -10  -3   2    1.91    0.85
   9   3  -2    2.36    0.55
  -9  -3   2    5.25    1.38
   8   3  -2    0.56    2.11
   8   3  -2    3.79    1.05
  -8  -3   2    4.55    1.45
   7   3  -2    5.11    1.97
  -7  -3   2    2.24    0.97
   6   3  -2   17.90    2.05
  -6  -3   2   24.73    2.61
  -6  -3   2   22.99    1.71
  -5  -3   2   15.16    1.27
  -5  -3   2   10.47    1.37
   4   3  -2   -0.22    0.49
  -4  -3   2   -0.13    0.41
  -4  -3   2    0.90    0.48
   3   3  -2   19.53    1.33
  -3  -3   2   21.77    1.32
   2   3  -2  278.01   15.44
  -2  -3   2  275.96   15.44
   1   3  -2  169.91    9.14
  -1  -3   2  157.80    9.13
  -4   3  -2    2.74    0.52
   4  -3   2    3.00    0.65
  -5   3  -2    6.51    0.99
   5  -3   2    6.44    1.26
   6  -3   2    2.14    1.14
   6  -3   2   -0.99    0.72
   6  -3   2   -0.05    0.61
   7  -3   2   40.84    2.63
   7  -3   2   39.52    2.69
   7  -3   2   38.38    3.20
  -8   3  -2    5.61    1.11
   8  -3   2    3.45    1.34
   8  -3   2    5.20    1.21
  -9   3  -2   52.60    3.24
   9  -3   2   52.04    3.32
 -10   3  -2    3.13    0.83
  10  -3   2    1.54    0.54
 -11   3  -2    0.19    0.40
  11  -3   2    0.89    0.39
  11   2  -2    0.54    0.41
 -11  -2   2   -0.24    0.62
  10   2  -2    0.82    0.49
 -10  -2   2    1.28    0.66
   9   2  -2    0.00    0.53
  -9  -2   2   -1.12    0.77
   8   2  -2    0.99    0.57
  -8  -2   2    0.17    0.79
  -7  -2   2   11.80    1.81
  -6  -2   2    1.88    1.41
  -6  -2   2   -0.51    0.69
  -5  -2   2   69.13    3.78
  -5  -2   2   58.86    3.81
   4   2  -2    0.15    0.40
  -4  -2   2    0.05    0.31
   3   2  -2  119.80    6.81
  -3  -2   2  122.03    6.81
   2   2  -2  994.03   55.33
  -2  -2   2 1000.00   55.34
   1   2  -2  150.46    7.96
  -1  -2   2  135.35    7.96
  -2   2  -2  297.53   17.83
   2  -2   2  344.26   17.84
  -3   2  -2    4.35    0.44
   3  -2   2    5.49    0.50
  -4   2  -2    2.71    0.56
   4  -2   2    2.69    0.71
  -5   2  -2    5.35    1.07
   5  -2   2    7.06    1.35
  -6   2  -2   -0.82    1.57
   6  -2   2    3.83    1.07
   6  -2   2    2.43    0.77
   6  -2   2    3.25    1.27
   7  -2   2    1.60    0.90
   7  -2   2    0.99    0.56
   7  -2   2    2.20    1.14
  -8   2  -2    0.09    0.59
   8  -2   2    1.01    0.57
   8  -2   2   -0.47    1.20
  -9   2  -2   12.50    1.29
   9  -2   2   12.83    1.36
 -10   2  -2    0.64    0.46
  10  -2   2   -0.40    0.48
 -11   2  -2    0.60    0.40
  11  -2   2    0.56    0.35
  12   1  -2    4.65    0.82
  11   1  -2    0.38    0.42
 -11  -1   2    0.81    0.57
  10   1  -2    5.16    1.08
 -10  -1   2    4.89    1.10
   9   1  -2    4.65    1.10
   8   1  -2    4.06    1.14
  -8  -1   2    2.15    0.77
   7   1  -2    1.39    0.72
  -7  -1   2    2.85    0.83
  -6  -1   2   29.35    2.38
  -6  -1   2   37.96    2.23
  -5  -1   2   -0.22    0.42
  -5  -1   2    0.31    0.53
   4   1  -2   17.84    1.22
  -4  -1   2   18.47    1.18
   3   1  -2    0.06    0.18
  -3  -1   2    0.16    0.16
   2   1  -2   22.07    1.26
  -2  -1   2   20.87    1.26
   1   1  -2   72.60    4.02
  -1  -1   2   71.01    4.02
   0   1  -2    0.18    0.07
  -1   1  -2   11.67    0.70
   1  -1   2   11.99    0.71
  -2   1  -2  204.15   11.53
   2  -1   2  209.36   11.53
  -3   1  -2   29.32    1.71
   3  -1   2   28.13    1.73
  -4   1  -2    6.04    0.68
   4  -1   2    5.73    0.87
  -5   1  -2  154.92    8.83
   6  -1   2    3.28    1.20
   6  -1   2    1.35    0.96
   7  -1   2   12.45    1.85
   7  -1   2   16.35    1.93
   7  -1   2   15.86    1.52
  -8   1  -2   13.50    1.37
   8  -1   2   15.56    2.05
   8  -1   2   14.31    1.46
  -9   1  -2    9.48    1.11
   9  -1   2    9.03    1.13
   9  -1   2    5.53    1.96
 -10   1  -2    3.64    0.79
 -11   1  -2    3.04    0.81
  11  -1   2    2.63    0.65
  12   0  -2    1.35    0.47
 -12   0   2    0.43    0.43
  11   0  -2    7.06    0.93
 -11   0   2    4.66    1.00
  10   0  -2    3.96    1.10
 -10   0   2    0.98    0.59
   9   0  -2   22.68    1.86
  -9   0   2   24.94    1.85
   8   0  -2    5.33    1.18
  -8   0   2    6.13    1.27
   7   0  -2    5.93    1.33
  -7   0   2    8.13    1.38
  -7   0   2    8.76    1.41
  -6   0   2   38.12    2.50
  -6   0   2   41.79    2.66
   5   0  -2   40.98    2.52
  -5   0   2   36.78    2.44
  -5   0   2   43.72    2.47
  -4   0   2    0.82    0.24
   3   0  -2  395.22   21.73
  -3   0   2  385.98   21.74
  -2   0   2   10.54    0.67
   1   0  -2    0.20    0.09
   0   0  -2    9.53    0.59
   0   0   2    9.69    0.59
  -1   0  -2   40.62    2.40
   1   0   2   44.11    2.41
  -2   0  -2   11.63    0.75
   2   0   2   11.03    0.76
  -3   0  -2    7.35    0.63
   3   0   2    7.08    0.68
  -4   0  -2    0.02    0.42
   4   0   2    0.12    0.54
  -5   0  -2    2.10    0.81
   5   0   2    2.54    0.55
   5   0   2    5.45    1.29
   6   0   2    7.81    1.67
   6   0   2    9.01    1.33
   6   0   2   10.60    1.68
   7   0   2    8.86    1.38
   7   0   2    9.09    1.67
  -8   0  -2   20.58    1.61
   8   0   2   19.68    1.60
   8   0   2   18.43    2.06
  -9   0  -2    4.25    0.98
   9   0   2    2.14    0.53
   9   0   2    2.01    1.03
 -10   0  -2    6.85    0.95
  10   0   2    5.81    0.92
  12  -1  -2    0.71    0.50
 -12   1   2    1.06    0.41
  11  -1  -2    4.26    0.97
 -11   1   2    5.29    0.88
  10  -1  -2    1.11    0.62
 -10   1   2    0.80    0.57
   9  -1  -2    0.55    0.66
  -9   1   2   -0.65    0.62
   8  -1  -2    0.25    0.68
  -8   1   2   -0.53    0.62
   7  -1  -2    0.04    0.73
  -7   1   2    0.62    0.59
  -7   1   2   -0.16    0.56
  -6   1   2  142.88    8.13
  -6   1   2  140.82    8.01
  -5   1   2    5.58    0.68
  -5   1   2    5.07    0.75
   4  -1  -2   56.77    3.21
  -4   1   2   54.61    3.21
   3  -1  -2  207.99   11.45
  -3   1   2  202.25   11.46
   2  -1  -2   16.86    1.01
   1  -1  -2  137.57    7.68
   0  -1  -2  108.84    6.05
   0   1   2  107.54    6.06
  -1  -1  -2  741.11   42.48
   1   1   2  789.27   42.50
  -2  -1  -2   33.95    2.05
   2   1   2   35.92    2.08
  -3  -1  -2    4.77    0.60
   3   1   2    5.26    0.71
  -4  -1  -2   13.14    1.11
   5   1   2    1.12    0.53
   5   1   2    1.17    0.67
   5   1   2    4.22    1.42
   6   1   2    0.74    0.65
   6   1   2   -0.27    0.81
   7   1   2    0.60    0.61
   7   1   2    0.47    0.80
  -8  -1  -2    3.61    1.11
   8   1   2    1.95    0.57
   8   1   2    4.06    1.35
  -9  -1  -2   -0.20    0.54
   9   1   2   -0.05    0.88
   9   1   2    0.42    0.45
 -10  -1  -2    2.48    0.96
  12  -2  -2    1.21    0.51
 -12   2   2    2.60    0.73
  11  -2  -2    0.73    0.58
 -11   2   2   -0.08    0.47
  10  -2  -2    0.43    0.69
 -10   2   2    0.44    0.57
   9  -2  -2   13.04    1.54
  -9   2   2   13.17    1.47
   8  -2  -2   21.33    1.96
  -8   2   2   19.32    1.61
   7  -2  -2    6.14    1.71
  -7   2   2    6.60    1.79
  -7   2   2    8.13    0.98
  -7   2   2    9.03    1.18
  -6   2   2    4.29    0.76
  -6   2   2    4.80    1.05
   5  -2  -2    5.12    0.74
  -5   2   2    3.63    0.64
  -5   2   2    5.63    0.69
   4  -2  -2    7.27    0.62
  -4   2   2    6.78    0.60
   3  -2  -2    4.94    0.44
   2  -2  -2    0.69    0.23
   2  -2  -2    0.77    0.21
   1  -2  -2  114.38    6.41
   0  -2  -2  119.08    6.75
   0   2   2  122.18    6.77
  -1  -2  -2  178.78   10.32
   1   2   2  190.58   10.35
  -2  -2  -2   88.61    5.08
   2   2   2   90.06    5.11
  -3  -2  -2   -0.01    0.40
   3   2   2   -0.41    0.95
  -4  -2  -2   33.17    2.21
   5   2   2    0.31    0.66
   5   2   2    1.86    0.70
   5   2   2    1.41    0.59
   6   2   2   12.04    1.39
   6   2   2   11.21    1.48
   7   2   2   20.08    1.68
   7   2   2   21.35    1.81
  -8  -2  -2   19.00    1.67
   8   2   2   23.09    1.84
   8   2   2   21.97    1.67
  -9  -2  -2    2.84    0.97
   9   2   2    1.28    0.73
   9   2   2    1.41    0.46
 -10  -2  -2    1.39    0.59
  10   2   2    0.58    0.43
  12  -3  -2   -0.61    0.57
 -12   3   2   -0.05    0.38
  11  -3  -2    3.78    1.35
 -11   3   2    4.78    0.93
  10  -3  -2   90.08    5.45
 -10   3   2   94.29    5.42
   9  -3  -2    1.61    0.81
  -9   3   2    0.44    0.83
  -9   3   2    2.79    1.05
   8  -3  -2   11.77    1.70
  -8   3   2   10.09    1.33
  -8   3   2   14.61    1.70
   7  -3  -2    6.69    1.13
  -7   3   2    7.34    1.64
  -7   3   2    4.44    1.11
  -6   3   2   35.29    2.37
   5  -3  -2   30.20    1.90
  -5   3   2   29.39    1.83
   4  -3  -2  140.37    7.60
  -4   3   2  129.54    7.59
   3  -3  -2    7.16    0.59
   2  -3  -2   30.45    1.78
   1  -3  -2   -0.18    0.14
  -1   3   2    0.06    0.19
   0  -3  -2   13.12    0.83
   0   3   2   12.73    0.87
  -1  -3  -2   44.10    2.51
   1   3   2   41.96    2.55
  -2  -3  -2   69.49    3.66
   2   3   2   55.31    3.68
  -3  -3  -2   74.70    4.40
   4   3   2    3.88    0.89
   4   3   2    3.01    0.76
   4   3   2    2.78    0.70
   5   3   2   13.97    1.71
   5   3   2   18.91    1.53
   6   3   2    0.66    0.61
   6   3   2    1.13    0.65
   7   3   2   21.52    1.73
   7   3   2   21.23    1.80
  -8  -3  -2    0.75    0.66
   8   3   2    2.11    0.53
   8   3   2    4.02    1.11
  -9  -3  -2    0.81    0.68
   9   3   2    0.82    0.68
   9   3   2   -0.11    0.43
  10   3   2    0.85    0.43
  12  -4  -2    4.69    1.63
  11  -4  -2    4.95    1.33
 -11   4   2    5.03    1.00
  10  -4  -2   -1.54    0.89
 -10   4   2   -0.72    0.55
   9  -4  -2    1.87    0.85
  -9   4   2    2.33    0.65
  -9   4   2    1.71    0.77
  -8   4   2    5.23    1.12
   7  -4  -2   41.52    3.47
  -7   4   2   46.80    2.87
  -7   4   2   46.29    2.94
  -6   4   2   28.77    2.31
   5  -4  -2   13.16    1.18
   4  -4  -2    0.50    0.37
   4  -4  -2    0.49    0.28
   3  -4  -2  155.39    8.44
   3  -4  -2  144.76    8.42
   2  -4  -2   81.38    4.61
   1  -4  -2    0.86    0.30
  -1   4   2    1.25    0.44
   0  -4  -2    3.08    0.42
   0   4   2    2.06    0.58
  -1  -4  -2    0.33    0.33
   1   4   2   -0.10    0.45
  -2  -4  -2   32.32    2.08
   3   4   2    1.59    0.64
   4   4   2    8.41    1.67
   4   4   2    5.47    1.14
   4   4   2    4.91    1.44
   5   4   2    5.60    1.18
   5   4   2    4.90    0.81
   6   4   2    0.06    0.58
   6   4   2    0.83    0.69
   7   4   2   -0.80    0.61
   7   4   2    1.09    0.71
  -8  -4  -2   -0.34    0.72
   8   4   2   -0.13    0.56
   8   4   2    0.68    0.56
   9   4   2    4.46    1.15
 -12   5   2    4.90    0.80
  11  -5  -2    5.87    1.75
 -11   5   2    3.61    0.93
  10  -5  -2    1.43    0.94
 -10   5   2   -0.87    0.61
 -10   5   2   -0.66    0.63
   9  -5  -2   31.74    2.93
  -9   5   2   37.58    2.44
  -9   5   2   37.36    2.39
   8  -5  -2   45.42    2.85
  -8   5   2   45.83    3.00
  -8   5   2   49.44    3.00
   7  -5  -2    0.44    0.46
  -7   5   2    0.47    0.63
  -7   5   2    0.15    0.65
  -6   5   2    0.37    0.76
  -6   5   2    0.17    0.65
   5  -5  -2    9.86    1.21
   5  -5  -2    7.30    1.05
   4  -5  -2   17.41    1.26
   4  -5  -2   18.90    1.37
   3  -5  -2    7.30    0.83
   3  -5  -2    5.84    0.64
   3  -5  -2    7.35    0.59
   2  -5  -2   14.15    0.94
   2  -5  -2   14.30    0.96
   1  -5  -2    0.78    0.28
  -1   5   2    0.70    0.44
   0  -5  -2    6.19    0.59
   0  -5  -2    5.87    0.68
   0   5   2    5.58    0.94
  -1  -5  -2   20.71    1.40
  -1  -5  -2   21.78    1.55
  -2  -5  -2   32.76    2.16
   2   5   2   35.31    2.32
   3   5   2    9.29    1.17
   4   5   2    1.20    0.91
   4   5   2    1.40    0.94
   4   5   2    1.50    0.57
   5   5   2    1.47    0.59
   5   5   2    1.45    0.71
   6   5   2    1.81    0.60
   6   5   2    2.62    0.78
   7   5   2    4.32    1.01
   7   5   2    5.36    1.27
   8   5   2    1.18    0.52
   8   5   2    0.78    0.53
   9   5   2    4.63    1.85
 -12   6   2    0.51    0.37
 -11   6   2    9.35    1.11
 -11   6   2   11.47    1.10
 -10   6   2   16.05    1.40
 -10   6   2   10.83    1.35
  -9   6   2   26.10    1.91
  -9   6   2   26.86    2.05
   8  -6  -2    0.21    0.54
  -8   6   2    0.27    0.55
  -8   6   2    0.96    0.72
   7  -6  -2   17.23    1.18
  -7   6   2   16.01    1.43
  -7   6   2   13.68    1.68
   6  -6  -2    1.78    0.41
  -6   6   2    2.02    0.80
  -6   6   2    3.40    0.99
   5  -6  -2  104.17    5.76
  -5   6   2   98.32    5.85
   4  -6  -2   22.56    1.60
   4  -6  -2   23.92    1.45
   3  -6  -2    4.51    0.71
   3  -6  -2    3.73    1.07
   3  -6  -2    4.46    0.49
   2  -6  -2   32.67    2.03
   2  -6  -2   32.93    1.95
   1  -6  -2    6.15    0.78
   1  -6  -2    4.67    0.52
   0  -6  -2    2.91    0.52
   0  -6  -2    3.36    0.96
  -1  -6  -2    0.10    0.87
  -1  -6  -2    2.72    0.66
   1   6   2    1.33    0.85
  -2  -6  -2   33.05    2.07
   2   6   2   29.75    2.15
   3   6   2    3.84    1.01
   4   6   2    6.09    1.88
   5   6   2    7.49    1.12
   5   6   2    5.91    1.52
   6   6   2    4.43    1.44
   6   6   2    5.38    1.02
   7   6   2    2.77    0.86
   7   6   2    1.96    0.76
   8   6   2    1.78    0.46
 -12   7   2    2.56    0.78
 -11   7   2    0.20    0.50
 -11   7   2   -0.40    0.44
 -10   7   2    2.35    0.86
  -9   7   2    4.81    1.20
  -9   7   2    4.09    1.06
   8  -7  -2    4.62    0.85
  -8   7   2    7.37    1.04
  -8   7   2    7.93    1.30
   7  -7  -2   18.10    1.31
  -7   7   2   19.06    1.73
  -7   7   2   18.68    1.48
   6  -7  -2   57.92    3.31
  -6   7   2   54.70    3.39
  -6   7   2   56.01    3.52
   5  -7  -2    0.51    0.31
  -5   7   2    0.53    0.54
   4  -7  -2    2.44    0.47
  -4   7   2    2.68    0.63
   3  -7  -2   10.70    0.80
  -3   7   2   11.43    1.21
   2  -7  -2   28.49    1.69
   2  -7  -2   26.49    1.94
   1  -7  -2    0.24    0.82
   0  -7  -2    3.90    0.59
  -1  -7  -2   47.49    2.73
   1   7   2   42.92    2.90
  -2  -7  -2    3.99    1.06
   2   7   2    3.70    1.08
   3   7   2    3.89    0.98
   4   7   2    3.26    1.00
   5   7   2    0.61    0.50
   5   7   2   -0.28    1.38
   6   7   2    0.52    0.49
   7   7   2    0.16    0.42
 -12   8   2    0.64    0.44
 -11   8   2   16.15    1.37
 -11   8   2   18.00    1.25
 -10   8   2   -0.03    0.40
 -10   8   2   -0.31    0.52
  -9   8   2    5.37    1.20
  -9   8   2    2.75    0.90
   8  -8  -2    2.02    0.72
  -8   8   2    2.51    0.94
  -8   8   2    3.38    1.27
   7  -8  -2    1.55    0.48
  -7   8   2    4.25    1.27
  -7   8   2    1.73    0.58
   6  -8  -2    0.33    0.36
  -6   8   2    0.17    0.80
  -6   8   2    0.31    0.50
   5  -8  -2   19.25    1.32
  -5   8   2   20.76    1.57
   4  -8  -2    1.55    0.46
  -4   8   2    1.37    0.54
   3  -8  -2    0.35    0.29
  -3   8   2    0.60    0.61
   2  -8  -2   14.63    1.01
  -2   8   2   14.27    1.44
   1  -8  -2    5.36    0.61
  -1   8   2    3.19    0.83
   0  -8  -2   19.29    1.25
   0   8   2   15.17    1.75
  -1  -8  -2   23.82    1.70
   1   8   2   27.17    1.90
  -2  -8  -2    0.80    0.79
   2   8   2    0.64    0.55
   3   8   2    0.62    0.51
   4   8   2   10.16    1.14
   5   8   2    0.57    0.46
   6   8   2    0.88    0.44
   7   8   2    0.63    0.36
 -11   9   2   -0.32    0.37
 -11   9   2    0.58    0.52
 -10   9   2    1.10    0.41
 -10   9   2    0.59    0.55
   9  -9  -2   -0.37    0.71
  -9   9   2    0.22    0.60
  -9   9   2   -0.45    0.40
   8  -9  -2   25.23    1.77
  -8   9   2   28.83    1.83
  -8   9   2   25.13    2.09
   7  -9  -2    5.76    0.77
  -7   9   2    7.85    1.88
  -7   9   2    6.64    0.94
   6  -9  -2   13.16    1.04
  -6   9   2   13.33    1.18
   5  -9  -2   17.29    1.20
  -5   9   2   16.66    1.38
   4  -9  -2    2.73    0.53
  -4   9   2    1.87    0.59
   3  -9  -2    0.22    0.32
  -3   9   2   -0.16    0.53
   2  -9  -2    5.06    0.64
  -2   9   2    7.07    1.19
   1  -9  -2    3.94    0.64
  -1   9   2    3.22    0.81
  -1   9   2    2.73    0.94
   0  -9  -2    0.41    0.52
   0   9   2    0.65    0.66
  -1  -9  -2    0.47    0.60
   1   9   2   -0.55    0.62
  -2  -9  -2    0.86    0.99
   2   9   2   -0.05    0.53
   3   9   2    5.20    1.00
   4   9   2    0.78    0.49
   5   9   2    9.48    0.95
   6   9   2    0.13    0.38
 -11  10   2   -0.30    0.29
 -10  10   2    0.01    0.37
   9 -10  -2    1.20    0.80
  -9  10   2    2.52    0.65
   8 -10  -2    9.57    1.05
  -8  10   2    9.88    0.97
   7 -10  -2    2.61    0.67
  -7  10   2    3.34    0.77
   6 -10  -2   12.73    1.05
  -6  10   2   13.59    1.15
   5 -10  -2   52.56    3.09
  -5  10   2   51.50    3.20
   4 -10  -2    4.13    0.64
  -4  10   2    4.05    0.95
   3 -10  -2    0.55    0.39
  -3  10   2    1.39    0.65
   2 -10  -2   25.18    1.66
  -2  10   2   25.94    1.96
   1 -10  -2   15.97    1.18
  -1  10   2   13.26    1.59
   0 -10  -2   24.92    1.65
   0  10   2   23.75    1.89
  -1 -10  -2    2.37    0.92
   1  10   2    1.53    0.60
   2  10   2    9.72    1.11
   3  10   2    0.41    0.48
   4  10   2    0.69    0.45
   5  10   2    0.11    0.39
 -10  11   2    2.15    0.53
   9 -11  -2   -1.56    1.05
   8 -11  -2    0.79    0.58
  -8  11   2    0.50    0.42
   7 -11  -2    1.06    0.48
  -7  11   2    1.22    0.45
   6 -11  -2    6.85    0.75
  -6  11   2    5.40    0.91
   5 -11  -2    2.67    0.61
  -5  11   2    2.20    0.86
   4 -11  -2    2.17    0.60
  -4  11   2    2.80    0.66
   3 -11  -2   30.50    1.92
  -3  11   2   29.61    2.13
   2 -11  -2   17.66    1.31
  -2  11   2   19.68    1.88
   1 -11  -2    2.39    0.69
  -1  11   2    4.71    1.27
   0 -11  -2    0.50    0.55
   0  11   2    0.79    0.60
  -1 -11  -2    3.80    1.15
   1  11   2    2.15    0.54
   2  11   2    3.93    0.87
   3  11   2    0.83    0.42
   4  11   2    0.21    0.42
 -10  12   2    3.17    0.56
  -9  12   2    9.56    0.81
   8 -12  -2    1.12    0.61
  -8  12   2    1.23    0.36
   7 -12  -2    9.18    0.95
  -7  12   2   10.02    0.89
   6 -12  -2    2.70    0.67
  -6  12   2    2.77    0.78
   5 -12  -2    4.93    0.70
  -5  12   2    4.59    0.86
   4 -12  -2   22.62    1.64
  -4  12   2   28.18    1.80
   3 -12  -2    2.40    0.67
  -3  12   2    1.11    0.69
   2 -12  -2    1.89    0.51
   1 -12  -2    5.79    0.80
  -1  12   2    5.22    1.15
   0 -12  -2    0.06    0.69
   0  12   2   -0.23    0.56
   1  12   2    4.70    0.89
   2  12   2    8.41    0.92
   3  12   2    3.70    0.83
  -9  13   2    0.20    0.25
  -8  13   2    3.15    0.56
   7 -13  -2    0.64    0.56
  -7  13   2   -0.08    0.32
   6 -13  -2    0.08    0.48
  -6  13   2    0.82    0.40
   5 -13  -2    2.35    0.66
  -5  13   2    1.45    0.50
   4 -13  -2   40.47    2.53
  -4  13   2   43.23    2.67
   3 -13  -2   20.31    1.42
   2 -13  -2    1.78    0.70
   1 -13  -2   12.25    1.17
   0  13   2   -0.41    0.58
   1  13   2    1.05    0.58
   2  13   2    1.77    0.86
  -7  14   2    2.19    0.65
   6 -14  -2    4.93    0.80
  -6  14   2    5.96    0.93
   5 -14  -2    5.71    0.78
   4 -14  -2    0.65    0.46
   3 -14  -2    0.63    0.53
   2 -14  -2    0.70    0.70
   2  15  -3    0.21    0.33
   1  15  -3    1.86    0.67
  -1 -15   3    1.00    0.74
   0  15  -3    0.83    0.44
   0 -15   3    1.20    0.55
  -1  15  -3    4.08    0.90
   2 -15   3   22.35    1.52
   3 -15   3    1.86    0.55
   4 -15   3    6.05    0.96
   3  14  -3   10.35    0.84
   2  14  -3    0.99    0.42
  -2 -14   3    0.39    0.59
   1  14  -3    3.25    0.82
  -1 -14   3    4.58    0.76
   0 -14   3    0.31    0.44
   1 -14   3    1.35    0.49
   2 -14   3    1.14    0.51
   3 -14   3   12.16    1.07
   4 -14   3    3.31    0.85
  -5  14  -3    5.47    1.05
   5 -14   3    7.02    1.14
  -6  14  -3    0.62    0.52
  -7  14  -3   18.48    1.31
   5  13  -3   -0.11    0.35
   4  13  -3    6.19    0.69
   3  13  -3   11.27    0.99
  -3 -13   3    9.99    1.12
   2  13  -3    1.08    0.51
  -2 -13   3    1.10    0.54
  -1 -13   3   -0.04    0.44
   0 -13   3    0.41    0.48
   1 -13   3   -0.80    0.45
   2 -13   3   14.25    1.15
   3 -13   3   11.52    1.04
  -4  13  -3   31.78    2.28
   4 -13   3   30.86    2.26
   4 -13   3   29.70    2.00
  -5  13  -3    3.87    1.03
   5 -13   3    3.15    1.04
  -6  13  -3    0.58    0.46
  -7  13  -3    2.22    0.71
  -8  13  -3    0.31    0.36
  -9  13  -3    4.66    0.61
   6  12  -3    2.06    0.63
   5  12  -3    2.28    1.04
   4  12  -3    5.90    0.80
  -4 -12   3    4.65    1.16
   3  12  -3    2.49    0.86
  -2 -12   3    6.06    1.42
  -1 -12   3   -0.25    0.44
  -1 -12   3   -0.67    0.75
   0 -12   3    6.18    0.76
   0 -12   3    6.37    1.92
   1 -12   3   35.73    2.24
   1 -12   3   33.52    2.65
   1 -12   3   37.89    2.44
   2 -12   3    0.86    0.66
   2 -12   3    1.86    0.94
   2 -12   3    1.70    0.64
   3 -12   3   50.40    3.17
   3 -12   3   57.45    3.66
   3 -12   3   51.22    3.33
  -4  12  -3   16.16    1.62
   4 -12   3   13.29    1.22
   4 -12   3   16.26    2.13
   4 -12   3   16.16    1.70
  -5  12  -3    1.05    0.66
   5 -12   3    1.47    0.68
   5 -12   3   -0.04    0.88
  -6  12  -3    9.54    1.11
  -7  12  -3   -0.67    0.47
  -8  12  -3    0.45    0.40
   7  11  -3    0.01    0.51
   6  11  -3    5.29    1.06
   6  11  -3    4.91    0.76
   5  11  -3    6.36    0.80
  -5 -11   3    3.43    1.32
   4  11  -3    1.49    0.54
  -4 -11   3    1.50    0.65
  -3 -11   3    0.56    0.63
  -3 -11   3    0.61    0.51
  -2 -11   3    4.38    1.26
  -1 -11   3   10.66    1.60
  -1 -11   3    8.13    0.87
   0 -11   3   19.48    1.90
   0 -11   3   20.00    1.72
   0 -11   3   21.92    1.44
   1 -11   3    0.39    0.62
   1 -11   3    0.88    0.77
   1 -11   3   -0.45    0.41
   2 -11   3    9.83    1.44
   2 -11   3    9.99    0.95
   2 -11   3    9.95    1.61
  -3  11  -3    4.59    1.64
   3 -11   3    0.81    0.69
   3 -11   3    0.29    0.82
   3 -11   3    0.48    0.51
  -4  11  -3   90.40    5.22
   4 -11   3   93.31    5.18
   4 -11   3   85.85    5.28
   4 -11   3   85.71    5.25
  -5  11  -3    0.89    0.60
   5 -11   3    1.15    0.87
   5 -11   3    2.50    0.70
   5 -11   3    0.91    0.78
  -6  11  -3    3.50    1.00
   6 -11   3    3.55    0.80
  -7  11  -3   -0.41    0.51
   7 -11   3   -0.73    0.68
  -8  11  -3    3.29    0.78
   8 -11   3    3.87    1.35
  -9  11  -3    2.19    0.71
 -10  11  -3    0.83    0.36
   7  10  -3    2.21    0.81
   6  10  -3    4.16    0.80
   5  10  -3    2.17    0.93
  -5 -10   3    0.63    0.82
   4  10  -3    3.62    1.05
  -3 -10   3    2.69    0.75
  -3 -10   3    2.99    1.13
  -2 -10   3    0.97    0.46
  -2 -10   3    0.91    0.72
  -1 -10   3   -0.51    0.40
  -1 -10   3    0.11    0.68
  -1 -10   3   -0.74    0.61
   0 -10   3   16.52    1.57
   0 -10   3   17.32    1.19
   0 -10   3   16.00    1.77
   1 -10   3    0.14    0.40
   1 -10   3    0.41    0.68
   1 -10   3   -0.22    0.73
   2 -10   3    0.73    0.43
   2 -10   3    0.83    0.73
   2 -10   3   -0.61    0.67
  -3  10  -3   -0.77    0.81
   3 -10   3    0.82    0.72
   3 -10   3   -0.43    0.70
   3 -10   3    0.58    0.49
  -4  10  -3   -0.27    0.68
   4 -10   3   -0.59    0.71
   4 -10   3    0.24    0.56
   4 -10   3   -0.74    0.78
  -5  10  -3   34.31    2.29
   5 -10   3   33.02    2.24
   5 -10   3   31.85    2.34
   5 -10   3   34.19    2.54
  -6  10  -3    0.44    0.61
   6 -10   3    0.18    0.99
   6 -10   3    3.27    1.23
  -7  10  -3    7.97    1.07
   7 -10   3    5.79    1.37
  -8  10  -3    0.00    0.51
   8 -10   3    0.11    0.60
  -9  10  -3    4.40    0.78
   9 -10   3    5.55    1.09
 -10  10  -3    5.37    0.77
   8   9  -3    0.43    0.43
   8   9  -3    0.42    0.65
   7   9  -3    2.55    0.88
   7   9  -3    4.67    0.97
  -6  -9   3    1.95    1.72
   5   9  -3    6.85    1.13
  -4  -9   3   -0.24    0.53
  -4  -9   3    0.44    0.60
  -3  -9   3   14.24    1.10
  -3  -9   3   13.38    1.40
  -2  -9   3   27.22    1.65
  -2  -9   3   23.33    2.07
  -1  -9   3   30.16    1.80
  -1  -9   3   27.70    2.19
  -1  -9   3   27.69    2.06
   0  -9   3   68.80    3.81
   0  -9   3   67.17    3.97
   0  -9   3   59.79    4.03
   1  -9   3    1.97    0.57
   1  -9   3    2.51    0.76
  -2   9  -3   18.86    2.41
   2  -9   3   25.16    1.99
   2  -9   3   22.15    1.94
   2  -9   3   25.00    1.56
   3  -9   3    9.01    1.45
   3  -9   3    9.15    0.91
   3  -9   3   11.05    1.49
   4  -9   3   19.39    1.43
   4  -9   3   19.45    1.94
   4  -9   3   16.56    1.76
   5  -9   3   10.97    1.27
   6  -9   3    1.53    0.62
   6  -9   3    1.10    1.00
   7  -9   3   -0.39    0.57
  -8   9  -3   -0.37    0.52
   8  -9   3    0.36    0.57
  -9   9  -3    2.36    1.03
  -9   9  -3    1.60    0.52
   9  -9   3    1.47    0.58
 -10   9  -3    5.87    0.72
  10  -9   3    3.57    1.11
   9   8  -3    0.99    0.42
   8   8  -3   12.20    1.11
   8   8  -3   11.33    1.37
   7   8  -3    1.47    0.67
   6   8  -3    5.08    1.08
  -6  -8   3    7.17    1.42
   5   8  -3   21.50    1.74
  -5  -8   3   21.96    1.66
  -4  -8   3    4.08    1.06
  -4  -8   3    3.04    0.74
  -3  -8   3    7.92    1.44
  -3  -8   3    7.28    0.77
  -2  -8   3    0.45    0.35
  -2  -8   3   -0.66    0.65
  -2  -8   3    0.26    0.64
  -1  -8   3   13.60    1.52
  -1  -8   3   11.01    0.87
  -1  -8   3   11.75    1.40
   0  -8   3    4.86    0.61
   0  -8   3    4.95    1.30
   1  -8   3   22.46    1.46
   2  -8   3    2.58    0.59
   3  -8   3   25.97    1.63
   3  -8   3   22.31    1.98
   3  -8   3   24.13    2.10
   4  -8   3    1.66    0.64
   4  -8   3    2.77    0.80
   4  -8   3    0.19    0.85
   5  -8   3    0.84    0.87
   5  -8   3    0.57    0.60
   6  -8   3    3.63    1.13
   6  -8   3    1.40    0.96
  -7   8  -3    1.07    1.01
   7  -8   3    0.17    0.60
  -8   8  -3    6.56    1.47
   8  -8   3    5.82    1.19
  -9   8  -3    0.66    0.56
  -9   8  -3    0.73    0.72
   9  -8   3    0.66    0.56
 -10   8  -3    0.24    0.43
  10  -8   3    0.03    0.47
 -11   8  -3    3.66    0.93
  11  -8   3    0.65    0.87
  10   7  -3    0.41    0.33
   9   7  -3    1.15    0.42
   8   7  -3   -0.29    0.81
   8   7  -3   -0.06    0.46
   7   7  -3    1.27    0.76
   6   7  -3    1.79    0.67
  -6  -7   3    0.30    0.84
   5   7  -3   26.80    2.22
  -5  -7   3   32.26    2.04
  -5  -7   3   31.59    2.05
  -4  -7   3   32.58    2.01
  -4  -7   3   30.97    2.16
  -3  -7   3   23.38    1.91
  -3  -7   3   23.16    1.48
  -3  -7   3   21.41    2.42
  -2  -7   3    5.36    0.60
  -2  -7   3    5.93    1.30
   1   7  -3   20.97    1.73
  -1  -7   3   26.75    1.56
  -1  -7   3   26.92    1.70
   0  -7   3    0.47    0.33
   1  -7   3    3.73    0.59
   2  -7   3   72.60    4.17
   3  -7   3   12.61    1.05
   4  -7   3    0.46    1.30
   4  -7   3    0.01    0.63
   4  -7   3   -0.88    0.62
   5  -7   3    6.79    1.24
   5  -7   3    7.00    1.98
  -6   7  -3    7.28    1.65
   6  -7   3    6.06    1.15
   6  -7   3    7.37    1.93
  -7   7  -3    1.58    0.84
   7  -7   3    2.71    1.09
   7  -7   3    3.50    1.09
  -8   7  -3   20.44    1.68
   8  -7   3   17.32    1.62
  -9   7  -3    0.87    0.73
   9  -7   3   -0.15    0.53
 -10   7  -3    5.76    0.90
 -10   7  -3    6.59    1.12
  10  -7   3    6.03    0.97
 -11   7  -3    3.19    1.05
  11  -7   3    2.22    0.89
  10   6  -3    2.10    0.69
   9   6  -3    3.26    0.81
   8   6  -3    0.29    0.89
   8   6  -3    0.82    0.53
   7   6  -3    1.59    0.78
   6   6  -3    0.35    0.76
  -6  -6   3   -0.38    0.76
  -5  -6   3   25.59    1.67
  -5  -6   3   21.69    1.79
  -4  -6   3  114.43    6.97
  -4  -6   3  128.90    6.91
  -3  -6   3   42.67    2.50
  -3  -6   3   41.62    2.77
   2   6  -3   11.38    1.09
  -2  -6   3   12.20    0.89
  -2  -6   3   13.52    1.13
   1   6  -3   55.42    3.18
  -1  -6   3   54.45    3.18
  -1  -6   3   55.60    3.19
   0  -6   3    1.76    0.49
   1  -6   3  126.26    7.11
   2  -6   3   24.85    1.59
   3  -6   3   12.67    1.08
  -5   6  -3    4.15    1.02
   5  -6   3    2.06    0.67
   5  -6   3    3.47    1.02
   5  -6   3    1.85    0.86
  -6   6  -3   29.29    2.28
   6  -6   3   30.28    2.12
   6  -6   3   29.49    2.37
   6  -6   3   30.27    2.09
  -7   6  -3   31.02    2.32
   7  -6   3   31.08    2.54
   7  -6   3   30.85    2.19
  -8   6  -3   55.08    3.59
   8  -6   3   60.17    3.58
  -9   6  -3    1.40    0.64
   9  -6   3    0.12    0.55
 -10   6  -3    1.80    0.53
 -10   6  -3    2.64    0.93
  10  -6   3    3.51    0.88
  11  -6   3    3.37    0.75
  10   5  -3    0.29    0.41
   9   5  -3   19.24    1.47
   8   5  -3   10.44    1.27
   7   5  -3   11.07    1.59
  -7  -5   3    6.96    1.47
   6   5  -3    1.71    0.89
  -6  -5   3    0.44    0.70
  -5  -5   3    0.61    0.52
  -5  -5   3   -0.09    0.54
  -4  -5   3   83.99    4.66
  -4  -5   3   78.51    4.86
   3   5  -3   65.16    4.14
  -3  -5   3   76.04    4.06
  -3  -5   3   71.01    4.15
   2   5  -3   10.40    0.84
  -2  -5   3   11.04    0.85
  -2  -5   3    9.99    0.80
   1   5  -3   13.14    0.87
  -1  -5   3   12.32    0.90
  -1  -5   3   13.96    0.87
   5  -5   3   26.49    2.00
   5  -5   3   23.99    1.88
   6  -5   3    4.78    1.80
   6  -5   3    5.41    1.30
   6  -5   3    4.79    1.33
   7  -5   3    3.94    1.25
   7  -5   3    1.15    1.08
   7  -5   3    3.21    1.04
  -8   5  -3   78.63    4.44
   8  -5   3   66.14    4.63
   8  -5   3   75.82    4.44
  -9   5  -3   10.50    1.26
   9  -5   3   12.10    1.28
 -10   5  -3   -0.74    0.61
 -10   5  -3    0.65    0.53
  10  -5   3   -0.10    0.43
 -11   5  -3    1.97    0.72
  11   4  -3    0.39    0.35
  10   4  -3   10.07    1.02
   9   4  -3    1.45    0.55
   8   4  -3   25.08    1.87
   7   4  -3    5.23    1.99
  -7  -4   3    3.68    1.14
  -6  -4   3   11.93    1.20
  -5  -4   3    0.86    0.57
  -5  -4   3    0.85    0.55
  -4  -4   3    8.32    1.00
  -4  -4   3    8.25    0.80
   3   4  -3   46.23    2.92
  -3  -4   3   48.99    2.86
  -3  -4   3   52.20    2.91
   2   4  -3   96.19    5.48
  -2  -4   3   97.76    5.48
   1   4  -3   38.72    2.16
  -1  -4   3   36.31    2.16
   5  -4   3   50.04    3.13
   5  -4   3   49.31    3.14
   6  -4   3    5.00    1.73
   6  -4   3    4.46    1.21
   6  -4   3    3.23    0.69
   7  -4   3   10.21    1.47
   7  -4   3   11.06    1.31
   7  -4   3    8.43    2.01
  -8   4  -3    4.23    1.14
   8  -4   3    5.60    1.30
   8  -4   3    8.71    2.01
  -9   4  -3   17.25    1.46
   9  -4   3   16.72    1.49
 -10   4  -3    4.14    1.31
 -10   4  -3    5.43    0.90
  10  -4   3    6.07    0.88
 -11   4  -3    0.90    0.44
  11  -4   3    2.01    0.66
  11   3  -3    0.72    0.39
  10   3  -3    5.39    0.97
 -10  -3   3    5.10    1.57
   9   3  -3    3.31    0.63
   8   3  -3    3.55    1.16
  -8  -3   3    2.05    1.02
  -7  -3   3   -0.06    0.63
  -7  -3   3    2.32    1.04
  -6  -3   3   11.85    1.17
  -5  -3   3    0.61    0.68
  -5  -3   3   -0.26    0.45
   4   3  -3   34.19    2.36
  -4  -3   3   39.18    2.29
  -4  -3   3   38.95    2.31
   3   3  -3    5.02    0.55
  -3  -3   3    4.06    0.50
   2   3  -3  176.40    9.76
  -2  -3   3  172.85    9.76
   1   3  -3   11.64    0.67
  -1  -3   3    9.47    0.67
  -3   3  -3  122.69    7.20
   3  -3   3  134.30    7.22
  -4   3  -3    0.39    0.40
   4  -3   3    0.67    0.58
  -5   3  -3   10.17    1.46
   5  -3   3   10.36    1.42
   5  -3   3   13.76    1.29
   6  -3   3    0.15    0.67
   6  -3   3    0.65    0.56
   6  -3   3    2.07    0.99
   7  -3   3   13.85    1.64
   7  -3   3   13.69    1.46
   7  -3   3   16.26    2.05
  -8   3  -3   12.94    1.38
   8  -3   3   11.54    2.11
   8  -3   3   15.10    1.54
  -9   3  -3   -0.04    0.57
   9  -3   3   -0.06    0.57
   9  -3   3   -1.12    1.18
 -10   3  -3    9.80    0.99
  10  -3   3   10.11    0.99
 -11   3  -3    8.66    0.86
  11  -3   3    6.98    0.77
  12   2  -3   -0.17    0.44
  11   2  -3    5.71    0.85
 -11  -2   3    3.46    1.15
  10   2  -3   16.37    1.37
 -10  -2   3   14.19    1.51
   9   2  -3    0.74    0.57
  -9  -2   3    1.05    0.78
   8   2  -3   10.27    1.27
  -8  -2   3   11.76    1.72
  -7  -2   3   12.74    1.84
  -7  -2   3   18.41    1.48
  -6  -2   3    3.14    0.81
  -5  -2   3   28.75    1.87
  -5  -2   3   29.03    1.93
   4   2  -3   11.59    0.96
  -4  -2   3   11.48    0.89
  -4  -2   3   11.65    0.99
   3   2  -3   14.78    0.93
  -3  -2   3   13.20    0.92
   2   2  -3   32.46    1.81
  -2  -2   3   29.57    1.80
   1   2  -3    2.48    0.25
  -1  -2   3    2.27    0.26
   0   2  -3    6.86    0.46
   0   2  -3    6.79    0.45
  -1   2  -3   35.80    2.02
   1  -2   3   35.20    2.02
  -2   2  -3    0.72    0.19
   2  -2   3    0.35    0.19
  -3   2  -3   15.18    1.10
   3  -2   3   19.34    1.18
  -4   2  -3   14.64    1.11
   4  -2   3   12.93    1.40
  -5   2  -3   60.66    4.03
   5  -2   3   66.44    4.13
   5  -2   3   66.99    3.97
   5  -2   3   68.04    3.90
   6  -2   3    3.79    1.20
   6  -2   3    0.49    0.63
   6  -2   3    0.06    0.93
   7  -2   3   21.56    2.17
   7  -2   3   22.22    1.86
   7  -2   3   22.43    1.79
  -8   2  -3    3.38    1.08
   8  -2   3    2.13    0.65
   8  -2   3    3.77    1.04
  -9   2  -3   25.15    1.82
   9  -2   3   27.14    2.30
   9  -2   3   26.09    1.88
 -10   2  -3    3.09    0.75
  10  -2   3    2.58    0.73
  11  -2   3    0.75    0.36
  12   1  -3    2.37    0.85
 -12  -1   3    3.26    1.12
  11   1  -3   15.48    1.25
 -11  -1   3   14.50    1.35
 -10  -1   3    3.85    1.28
   9   1  -3   14.41    1.43
  -9  -1   3   12.44    1.49
   8   1  -3    2.68    0.66
  -8  -1   3    1.67    0.76
  -7  -1   3   13.68    1.31
  -7  -1   3   14.94    1.63
  -6  -1   3    0.51    0.72
  -6  -1   3    1.32    0.49
   5   1  -3    0.44    0.60
  -5  -1   3    1.27    0.49
  -5  -1   3    0.36    0.43
   4   1  -3   29.59    1.81
  -4  -1   3   29.54    1.80
   3   1  -3   35.99    2.06
  -3  -1   3   34.15    2.05
   2   1  -3   20.69    1.24
  -2  -1   3   20.73    1.24
   1   1  -3    3.45    0.31
   0   1  -3    4.96    0.36
  -1   1  -3   22.06    1.28
   1  -1   3   21.66    1.29
  -2   1  -3   81.45    4.80
   2  -1   3   88.85    4.83
  -3   1  -3    1.33    0.32
   3  -1   3    1.00    0.44
  -4   1  -3   21.61    1.52
   4  -1   3   21.25    1.81
  -5   1  -3   28.41    2.49
   5  -1   3   37.73    2.44
   5  -1   3   32.82    2.23
   5  -1   3   31.92    2.15
   5  -1   3   32.80    2.47
   6  -1   3    2.99    1.20
   6  -1   3    1.06    0.74
   6  -1   3    1.87    0.87
   7  -1   3    0.25    0.79
   7  -1   3    0.80    0.91
   7  -1   3   -0.38    0.61
  -8   1  -3    8.06    1.13
   8  -1   3    6.52    1.14
   8  -1   3    8.33    1.68
  -9   1  -3    4.84    0.91
   9  -1   3    3.41    0.96
   9  -1   3    4.29    1.01
 -10   1  -3    3.21    0.77
  12   0  -3   19.54    1.48
 -11   0   3    4.44    1.04
  10   0  -3    1.87    0.69
 -10   0   3    4.03    1.20
   9   0  -3    8.66    1.32
  -9   0   3    8.47    1.30
   8   0  -3    0.60    0.68
  -8   0   3    0.15    0.65
  -8   0   3   -0.26    0.69
   7   0  -3   14.62    1.93
  -7   0   3   20.40    1.46
  -7   0   3   20.83    1.71
  -6   0   3    3.57    1.08
  -6   0   3    2.37    0.77
   5   0  -3   10.75    1.05
  -5   0   3   12.19    0.97
  -5   0   3   11.75    0.95
   4   0  -3   32.93    1.99
  -4   0   3   33.37    1.99
   3   0  -3  142.85    8.18
  -3   0   3  148.93    8.19
   2   0  -3   11.90    0.76
   1   0  -3   33.51    1.93
   0   0  -3  115.10    6.38
   0   0   3  112.37    6.38
  -1   0  -3  109.95    5.40
   1   0   3   81.94    5.40
  -2   0  -3   18.78    1.20
   2   0   3   19.98    1.27
  -3   0  -3   15.72    1.13
   3   0   3   15.75    1.28
  -4   0  -3    5.97    0.95
   5   0   3    0.28    0.48
   5   0   3    1.26    0.82
   5   0   3   -1.25    0.74
   5   0   3    0.82    0.74
   6   0   3    5.43    1.48
   6   0   3    6.20    1.33
   6   0   3    6.77    1.37
   7   0   3   -0.39    0.56
   7   0   3    0.10    0.79
   7   0   3   -0.80    0.96
  -8   0  -3    2.59    1.04
   8   0   3   -0.63    0.80
   8   0   3    0.35    0.50
  -9   0  -3    4.64    0.94
   9   0   3    2.84    0.85
   9   0   3    4.50    1.00
 -10   0  -3   10.08    1.00
  10   0   3    8.23    0.88
  12  -1  -3    6.73    1.15
 -12   1   3    6.07    0.81
  11  -1  -3   15.47    1.40
 -11   1   3   17.06    1.41
  10  -1  -3   14.66    1.54
 -10   1   3   15.36    1.46
   9  -1  -3    5.60    1.44
  -9   1   3    2.46    0.65
   8  -1  -3   16.37    1.73
  -8   1   3   15.15    1.36
  -8   1   3   15.11    1.61
   7  -1  -3    1.59    0.90
  -7   1   3    2.36    0.68
  -7   1   3    2.82    0.77
  -6   1   3  124.31    7.35
  -6   1   3  130.89    7.23
   5  -1  -3   38.02    2.35
  -5   1   3   36.73    2.27
  -5   1   3   39.07    2.33
   4  -1  -3   23.89    1.45
  -4   1   3   22.06    1.44
   3  -1  -3    5.85    0.51
   2  -1  -3   37.31    2.17
   1  -1  -3    0.21    0.13
   0  -1  -3  330.75   19.37
   0   1   3  365.48   19.39
  -1  -1  -3    2.97    0.34
   1   1   3    2.56    0.43
  -2  -1  -3   15.42    1.05
   2   1   3   15.72    1.15
  -3  -1  -3    0.10    0.43
  -4  -1  -3   22.09    1.81
   4   1   3   23.47    1.68
   4   1   3   24.44    1.95
   5   1   3   11.79    1.21
   5   1   3   11.47    1.58
   5   1   3   15.29    1.53
   5   1   3    9.96    1.61
   6   1   3   12.99    1.65
   6   1   3   15.43    1.59
   7   1   3    0.16    0.69
   7   1   3    1.96    0.60
  -8  -1  -3   -0.76    0.58
   8   1   3    0.84    0.75
   8   1   3    0.05    0.50
  -9  -1  -3    0.06    0.52
   9   1   3   -0.37    0.73
   9   1   3   -0.06    0.47
 -10  -1  -3   -0.54    0.47
  10   1   3   -0.03    0.39
  12  -2  -3   -0.85    0.66
 -12   2   3    0.17    0.39
  11  -2  -3   10.16    1.30
 -11   2   3    9.18    1.13
  10  -2  -3   67.83    4.39
 -10   2   3   75.03    4.31
   9  -2  -3    1.78    0.86
  -9   2   3    1.69    0.64
   8  -2  -3   10.74    1.80
  -8   2   3    9.46    1.28
   7  -2  -3   13.15    2.09
  -7   2   3   15.02    1.52
  -7   2   3   13.51    1.13
  -6   2   3   23.90    1.52
  -6   2   3   22.52    1.80
   5  -2  -3    2.02    0.77
  -5   2   3    2.15    0.67
  -5   2   3    3.09    0.53
   4  -2  -3  170.69    9.31
  -4   2   3  160.34    9.28
   3  -2  -3    1.36    0.28
   2  -2  -3   17.11    1.10
   2  -2  -3   18.43    1.13
   1  -2  -3   19.21    1.17
   0  -2  -3  164.17    9.21
   0   2   3  164.75    9.23
  -1  -2  -3    3.41    0.43
   1   2   3    3.69    0.59
  -2  -2  -3    5.12    0.66
   2   2   3    4.88    0.84
  -3  -2  -3    0.87    0.56
   4   2   3    2.41    0.71
   4   2   3    3.44    0.87
   4   2   3    4.13    1.00
   5   2   3    2.00    0.55
   5   2   3    4.45    1.45
   5   2   3    0.93    0.68
   6   2   3   -0.89    0.67
   6   2   3   -0.71    0.73
   7   2   3    9.44    1.40
   7   2   3   12.50    1.33
  -8  -2  -3    0.28    0.59
   8   2   3    1.37    0.64
   8   2   3    1.21    0.52
   9   2   3    8.56    1.34
   9   2   3    8.42    1.03
  12  -3  -3   -0.72    0.81
 -12   3   3    0.14    0.37
  11  -3  -3   19.82    1.98
 -11   3   3   19.80    1.53
  10  -3  -3    6.24    1.58
 -10   3   3    5.86    1.13
   9  -3  -3   15.34    2.03
  -9   3   3    9.42    1.87
  -9   3   3   13.11    1.42
   8  -3  -3    2.97    1.02
  -8   3   3    5.41    1.11
  -8   3   3    5.73    1.42
  -7   3   3   -0.11    0.87
  -7   3   3    0.13    0.58
  -6   3   3   47.47    2.81
   5  -3  -3   99.70    5.76
  -5   3   3   99.95    5.67
   4  -3  -3   33.29    2.04
  -4   3   3   32.50    1.98
   3  -3  -3   40.42    2.32
   3  -3  -3   37.09    2.29
   2  -3  -3   53.23    3.07
   1  -3  -3   49.13    2.83
  -1   3   3   48.58    2.85
   0  -3  -3    2.73    0.42
   0   3   3    3.55    0.59
  -1  -3  -3    4.99    0.58
   1   3   3    5.07    0.85
  -2  -3  -3  187.48   10.60
   3   3   3    6.88    1.38
   4   3   3    0.15    0.61
   4   3   3    1.04    0.83
   4   3   3    3.07    1.19
   5   3   3    7.46    1.10
   5   3   3    5.05    1.19
   5   3   3    6.61    1.54
   6   3   3   10.07    1.30
   6   3   3    8.17    1.59
   7   3   3    1.20    0.66
   7   3   3    1.00    0.60
  -8  -3  -3    8.72    1.23
   8   3   3   11.10    1.23
   8   3   3   10.49    1.15
  -9  -3  -3    2.12    0.80
   9   3   3    0.85    0.49
   9   3   3    1.62    0.67
 -12   4   3    5.31    0.81
 -11   4   3    7.78    1.03
  10  -4  -3   35.59    2.90
 -10   4   3   32.96    2.36
   9  -4  -3    8.01    2.26
  -8   4   3    0.70    0.59
  -8   4   3    0.91    0.69
  -7   4   3    0.43    0.65
  -7   4   3   -0.02    0.62
  -6   4   3   -0.74    0.60
  -6   4   3    0.59    0.74
   5  -4  -3    7.95    1.23
   5  -4  -3    8.33    0.97
   4  -4  -3   55.33    3.36
   4  -4  -3   57.01    3.31
   3  -4  -3   67.38    3.82
   3  -4  -3   63.21    3.76
   2  -4  -3   24.03    1.49
   1  -4  -3   17.86    1.12
   1  -4  -3   16.43    1.09
  -1   4   3   16.80    1.24
   0  -4  -3   16.32    1.16
   0  -4  -3   19.89    1.23
   0   4   3   17.39    1.40
  -1  -4  -3   44.03    2.74
  -1  -4  -3   48.29    2.80
   2   4   3  137.51    7.91
   3   4   3    3.86    1.27
   4   4   3    3.35    1.21
   4   4   3    3.14    0.93
   4   4   3    5.26    1.12
   5   4   3    3.35    1.11
   5   4   3    2.44    0.88
   6   4   3    4.65    1.46
  -7  -4  -3    0.45    0.68
   7   4   3    0.39    0.66
   7   4   3   -0.32    0.53
  -8  -4  -3    0.77    0.73
   8   4   3    1.00    0.59
 -12   5   3    2.74    0.77
 -11   5   3    2.78    0.88
 -10   5   3    0.68    0.56
  -9   5   3   25.17    1.93
  -9   5   3   24.44    1.92
   8  -5  -3    5.90    0.85
  -8   5   3    5.69    1.18
  -8   5   3    5.64    0.84
  -7   5   3   26.40    1.88
  -7   5   3   24.24    1.98
  -6   5   3    5.17    1.07
  -6   5   3    4.83    1.33
   5  -5  -3    2.77    1.00
   5  -5  -3    3.80    1.09
  -5   5   3    1.41    0.81
   4  -5  -3    7.35    0.91
   4  -5  -3    6.25    1.26
   3  -5  -3    5.17    0.53
   3  -5  -3    5.55    1.01
   3  -5  -3    3.55    0.69
   2  -5  -3   10.66    0.90
   2  -5  -3   10.82    0.77
   1  -5  -3    0.98    0.28
   1  -5  -3    0.73    0.39
   0  -5  -3   -0.25    0.34
   0  -5  -3    0.05    0.46
  -1  -5  -3    5.04    0.82
  -1  -5  -3    1.52    0.81
   2   5   3   15.61    1.45
   2   5   3   11.68    2.54
   3   5   3   -0.44    0.59
   3   5   3    1.47    0.82
   4   5   3   -0.43    1.01
   4   5   3    0.87    0.78
   4   5   3    0.15    0.58
   5   5   3   11.64    1.82
   5   5   3   11.04    1.29
   6   5   3   10.98    1.52
   6   5   3   13.07    1.33
   7   5   3    0.17    0.66
   7   5   3    0.54    0.49
   8   5   3   22.27    1.55
 -12   6   3    4.18    0.79
 -11   6   3    0.77    0.56
 -11   6   3    0.76    0.49
 -10   6   3    6.00    1.07
 -10   6   3    5.29    0.96
   9  -6  -3   -0.31    0.56
  -9   6   3   -0.05    0.58
  -9   6   3    0.72    0.56
   8  -6  -3   -0.31    0.45
  -8   6   3    0.23    0.60
  -8   6   3   -0.02    0.59
   7  -6  -3    9.43    0.83
  -7   6   3    8.40    1.27
  -7   6   3    7.11    1.15
   6  -6  -3    0.79    0.34
  -6   6   3    1.28    0.55
  -6   6   3    0.54    0.63
   5  -6  -3    4.41    0.54
  -5   6   3    4.65    0.99
  -5   6   3    3.51    0.77
   4  -6  -3   61.72    3.72
   4  -6  -3   61.45    3.55
  -4   6   3   61.15    3.67
   3  -6  -3   15.14    1.30
   3  -6  -3   14.79    1.00
   2  -6  -3  133.90    7.96
   2  -6  -3  145.79    7.88
   1  -6  -3    3.59    0.50
   0  -6  -3   35.39    2.07
   0   6   3   33.15    2.57
  -1  -6  -3    6.43    0.96
   1   6   3    4.33    1.26
   2   6   3   34.94    2.31
   3   6   3    0.75    0.60
   4   6   3    4.10    1.06
   5   6   3    1.59    0.60
   6   6   3   -0.44    0.49
   7   6   3    0.89    0.42
   8   6   3    2.01    0.78
 -12   7   3    3.13    0.70
 -11   7   3    4.28    1.00
 -11   7   3    7.23    0.92
 -10   7   3    1.58    0.56
 -10   7   3    0.52    0.47
   9  -7  -3    3.87    0.86
  -9   7   3    3.07    1.10
  -9   7   3    5.10    0.92
   8  -7  -3    8.03    0.87
  -8   7   3    8.66    1.26
  -8   7   3    6.94    1.05
   7  -7  -3    1.53    0.58
  -7   7   3    1.45    0.53
  -7   7   3    2.20    0.70
   6  -7  -3    7.63    0.70
  -6   7   3    6.24    0.98
  -6   7   3    6.67    1.55
   5  -7  -3   44.68    2.58
  -5   7   3   41.27    2.92
  -5   7   3   43.31    2.69
   4  -7  -3    0.18    0.28
  -4   7   3    0.06    0.52
   3  -7  -3   14.78    0.96
  -3   7   3   11.66    1.36
   2  -7  -3   14.46    0.98
  -2   7   3   12.76    1.45
   1  -7  -3   29.73    1.71
  -1   7   3   25.05    2.06
  -1   7   3   26.64    2.41
   0  -7  -3    0.20    0.46
   0   7   3    0.68    0.83
   0   7   3    0.83    0.75
  -1  -7  -3   -0.24    0.63
   1   7   3    0.09    0.63
   2   7   3   18.42    1.49
   3   7   3    1.79    0.64
   4   7   3    8.79    1.11
   5   7   3    1.10    0.49
   6   7   3    2.78    0.79
   7   7   3   -0.10    0.38
 -12   8   3    2.33    0.74
 -11   8   3    2.97    0.73
 -10   8   3    3.86    0.77
  -9   8   3    3.53    1.19
  -9   8   3    2.62    0.79
   8  -8  -3    3.82    0.73
  -8   8   3    6.37    1.22
  -8   8   3    4.32    0.82
   7  -8  -3    4.52    0.66
  -7   8   3    4.51    1.29
  -7   8   3    2.96    0.79
   6  -8  -3    5.37    0.64
  -6   8   3    3.84    1.18
  -6   8   3    4.35    0.84
   5  -8  -3    3.95    0.54
  -5   8   3    3.09    0.88
   4  -8  -3   20.60    1.33
  -4   8   3   19.39    1.58
   3  -8  -3    0.91    0.34
  -3   8   3    1.08    0.56
   2  -8  -3    7.91    0.73
  -2   8   3    8.48    1.20
   1  -8  -3    0.06    0.39
  -1   8   3    0.87    0.84
  -1   8   3    0.02    0.66
   0  -8  -3   34.34    2.08
   0   8   3   29.58    2.63
   0   8   3   33.74    2.34
  -1  -8  -3   29.04    1.93
   1   8   3   26.29    1.98
   2   8   3    0.97    0.58
   3   8   3   13.34    1.30
   4   8   3    0.11    0.50
   5   8   3    2.98    0.84
   6   8   3    4.03    0.72
 -11   9   3    0.35    0.32
 -11   9   3   -0.24    0.52
 -10   9   3    1.22    0.43
 -10   9   3    2.38    0.88
   9  -9  -3    0.42    0.57
  -9   9   3    0.34    0.41
  -9   9   3   -0.51    0.51
   8  -9  -3    1.50    0.49
  -8   9   3    2.42    0.75
  -8   9   3    2.73    1.10
   7  -9  -3   19.48    1.35
  -7   9   3   19.08    1.43
  -7   9   3   18.69    1.70
   6  -9  -3   70.43    4.02
  -6   9   3   66.67    4.05
   5  -9  -3   86.54    4.95
  -5   9   3   84.81    5.00
   4  -9  -3    2.29    0.53
  -4   9   3    3.45    0.89
   3  -9  -3   48.80    2.85
  -3   9   3   46.63    2.97
   2  -9  -3    1.45    0.43
  -2   9   3   -0.51    0.62
   1  -9  -3    9.03    0.89
  -1   9   3    7.10    1.41
   0  -9  -3   10.55    1.05
   0   9   3    9.82    1.37
  -1  -9  -3    1.39    0.82
   1   9   3    0.22    0.56
   2   9   3   13.03    1.29
   3   9   3   -0.36    0.46
   4   9   3   -0.19    0.43
   5   9   3    0.75    0.40
 -11  10   3    4.10    0.64
 -10  10   3    3.86    0.62
   9 -10  -3    1.94    0.61
  -9  10   3    0.33    0.38
   8 -10  -3    0.66    0.46
  -8  10   3    0.78    0.44
   7 -10  -3    1.00    0.42
  -7  10   3    0.82    0.47
   6 -10  -3   10.95    0.94
  -6  10   3   12.58    1.11
   5 -10  -3    3.78    0.61
  -5  10   3    3.51    0.83
   4 -10  -3    0.92    0.40
  -4  10   3    0.69    0.53
   3 -10  -3    1.49    0.57
  -3  10   3    1.43    0.59
   2 -10  -3    0.39    0.42
  -2  10   3   -0.12    0.64
   1 -10  -3    0.56    0.53
  -1  10   3   -0.48    0.76
   0 -10  -3    1.82    0.64
   0  10   3   -0.37    0.63
   1  10   3   41.85    2.66
   2  10   3   -0.65    0.51
   3  10   3    0.93    0.50
   4  10   3    0.20    0.41
 -10  11   3    0.73    0.32
   9 -11  -3    1.04    0.71
  -9  11   3    2.57    0.55
   8 -11  -3    8.74    0.91
  -8  11   3    7.18    0.78
   7 -11  -3    3.48    0.67
  -7  11   3    2.25    0.68
   6 -11  -3    6.15    0.74
  -6  11   3    8.03    0.93
   5 -11  -3    1.53    0.57
  -5  11   3    1.67    0.53
   4 -11  -3   28.39    1.89
  -4  11   3   31.57    2.03
   3 -11  -3   23.80    1.64
  -3  11   3   26.23    1.83
   2 -11  -3    6.05    0.82
  -2  11   3    7.26    1.41
   1 -11  -3    0.80    0.59
  -1  11   3   -0.55    0.71
   0 -11  -3    7.60    1.11
   0  11   3    6.37    1.16
   1  11   3   -0.35    0.53
   2  11   3    0.95    0.54
   3  11   3    2.35    0.83
 -10  12   3   10.40    0.77
  -9  12   3    3.28    0.52
   8 -12  -3    9.55    1.03
  -8  12   3   10.99    0.87
   7 -12  -3   -0.36    0.46
  -7  12   3    0.00    0.32
   6 -12  -3    8.29    0.82
  -6  12   3    8.01    0.86
   5 -12  -3   14.51    1.19
  -5  12   3   18.72    1.29
   4 -12  -3   14.60    1.12
  -4  12   3   14.39    1.24
   3 -12  -3    2.93    0.70
  -3  12   3    2.66    0.73
   2 -12  -3    1.64    0.58
   1 -12  -3    5.68    0.97
   0  12   3    0.72    0.61
   1  12   3    1.41    0.56
   2  12   3    0.50    0.55
  -8  13   3    0.14    0.31
   7 -13  -3    1.23    0.53
  -7  13   3    0.21    0.32
   6 -13  -3   -0.11    0.46
  -6  13   3    0.30    0.38
   5 -13  -3    6.43    0.80
  -5  13   3    8.16    0.96
  -4  13   3    0.80    0.89
   3 -13  -3    2.32    0.75
   2 -13  -3    3.55    0.92
   5 -14  -3    0.77    0.60
   0  16  -4   -0.12    0.39
  -1  16  -4    6.93    0.90
  -2  16  -4    6.72    1.14
   2  15  -4    0.01    0.32
   1  15  -4    0.07    0.40
  -1 -15   4    0.50    0.54
   0  15  -4    2.02    0.74
   0 -15   4    1.04    0.50
   1 -15   4    2.36    0.76
   2 -15   4    3.40    0.79
   3 -15   4    0.85    0.59
   4 -15   4    1.18    0.82
   4  14  -4   16.98    1.13
   3  14  -4    3.38    0.65
  -3 -14   4    3.20    1.05
   2  14  -4    0.36    0.44
  -2 -14   4    0.41    0.51
  -1 -14   4    0.55    0.48
   0 -14   4    6.43    0.81
   1 -14   4    2.34    0.69
   2 -14   4    1.02    0.54
   3 -14   4    0.50    0.58
   4 -14   4    1.31    0.73
  -6  14  -4    0.38    0.52
  -7  14  -4    4.20    0.80
   5  13  -4    3.35    0.62
   4  13  -4    0.56    0.35
  -4 -13   4    0.97    0.77
   3  13  -4    0.59    0.44
  -3 -13   4   -0.77    0.53
  -2 -13   4    2.30    0.71
  -2 -13   4    4.47    1.19
  -1 -13   4    0.47    0.64
  -1 -13   4    0.70    0.45
   0 -13   4    1.16    0.81
   0 -13   4    0.19    0.42
   1 -13   4    5.79    0.83
   1 -13   4    7.05    1.50
   2 -13   4    0.28    0.51
   2 -13   4    1.21    0.63
   2 -13   4    1.16    0.80
   3 -13   4   61.45    3.62
   3 -13   4   60.63    3.68
   3 -13   4   55.63    3.53
  -4  13  -4    2.06    0.80
   4 -13   4    1.14    0.69
   4 -13   4    4.06    1.47
   4 -13   4    3.99    1.15
  -5  13  -4    4.36    1.12
   5 -13   4    3.10    1.01
   5 -13   4    4.64    1.53
   5 -13   4    6.79    1.39
  -6  13  -4   -0.36    0.51
  -7  13  -4   -0.18    0.46
  -8  13  -4    4.89    0.71
   6  12  -4    0.45    0.41
   6  12  -4    1.98    0.66
   5  12  -4    2.66    0.67
   4  12  -4    2.10    0.78
  -4 -12   4    1.24    0.64
  -3 -12   4    8.20    1.16
  -3 -12   4    6.52    0.87
  -2 -12   4    6.67    0.82
  -1 -12   4    0.57    0.72
  -1 -12   4    0.52    0.43
   0 -12   4    1.36    0.50
   0 -12   4    1.47    0.66
   0 -12   4    3.24    1.05
   1 -12   4   21.62    1.64
   1 -12   4   18.15    1.37
   1 -12   4   18.15    1.76
   2 -12   4   33.48    2.30
   2 -12   4   39.25    2.46
   2 -12   4   36.65    2.46
   3 -12   4   11.77    1.38
   3 -12   4    9.42    1.02
   3 -12   4    9.31    1.43
  -4  12  -4    0.82    0.73
   4 -12   4    0.94    0.67
   4 -12   4    0.69    0.67
   4 -12   4   -0.23    0.67
  -5  12  -4    0.20    0.56
   5 -12   4    0.22    0.71
   5 -12   4    0.25    0.61
   5 -12   4    3.20    1.25
  -6  12  -4    4.91    0.83
   6 -12   4    6.02    1.73
   6 -12   4    3.98    1.19
  -7  12  -4    0.53    0.43
   7 -12   4    0.72    0.61
  -8  12  -4    5.17    0.78
   8 -12   4    3.04    1.00
  -9  12  -4    1.00    0.39
   7  11  -4    2.91    0.87
   7  11  -4    2.84    0.85
   6  11  -4    1.61    0.70
   5  11  -4   -0.05    0.47
  -5 -11   4    0.48    0.73
   4  11  -4    6.58    1.03
  -4 -11   4    5.69    1.10
  -4 -11   4    5.78    0.88
  -3 -11   4   45.12    2.71
  -3 -11   4   40.21    2.60
  -2 -11   4   11.68    1.52
  -2 -11   4   12.68    1.01
  -1 -11   4    3.84    1.16
  -1 -11   4    4.01    1.07
  -1 -11   4    3.21    0.67
   0 -11   4    0.03    0.58
   0 -11   4    0.04    0.46
   0 -11   4    0.69    0.65
   1 -11   4    8.21    1.37
   1 -11   4    6.47    1.21
   1 -11   4    5.90    0.81
   2 -11   4    6.35    1.18
   2 -11   4    6.94    0.87
   2 -11   4    9.55    1.35
  -3  11  -4    1.73    0.84
   3 -11   4    1.31    0.63
   3 -11   4    0.23    0.54
   3 -11   4    1.08    0.65
  -4  11  -4    2.03    0.74
   4 -11   4    1.49    0.66
   4 -11   4    1.11    0.72
   4 -11   4    2.36    0.92
  -5  11  -4    4.37    1.14
   5 -11   4    4.43    1.40
   5 -11   4    4.64    1.20
   6 -11   4    4.27    1.19
   6 -11   4    6.47    1.64
  -7  11  -4    7.93    1.04
   7 -11   4    9.36    1.20
  -8  11  -4    0.38    0.45
   8 -11   4    1.12    0.59
  -9  11  -4   14.84    1.14
   9 -11   4   16.12    1.49
   8  10  -4    2.13    1.11
   7  10  -4    5.92    0.99
   7  10  -4    5.61    0.83
   6  10  -4    2.85    0.85
  -6 -10   4    2.31    1.03
   5  10  -4    3.28    0.96
  -5 -10   4    1.81    0.70
  -4 -10   4   -0.18    0.54
  -4 -10   4    0.68    0.51
  -3 -10   4    0.73    0.63
  -3 -10   4   -0.19    0.45
  -2 -10   4    3.13    0.65
  -1 -10   4   16.69    1.47
  -1 -10   4   10.97    1.40
  -1 -10   4   13.65    1.08
   0 -10   4    2.66    0.64
   0 -10   4    3.86    1.16
   0 -10   4    3.26    1.15
   1 -10   4   43.16    2.87
   1 -10   4   44.81    2.86
   1 -10   4   45.73    2.69
   2 -10   4   61.63    3.53
   2 -10   4   56.96    3.62
   2 -10   4   59.99    3.70
  -3  10  -4   17.52    1.71
   3 -10   4   16.57    1.32
   3 -10   4   15.12    1.57
   3 -10   4   15.15    1.52
   4 -10   4   15.30    1.55
   4 -10   4   13.83    1.48
   4 -10   4   13.44    1.30
   5 -10   4   16.66    1.57
   5 -10   4   19.12    1.77
   6 -10   4    1.71    0.87
   6 -10   4    0.38    0.62
  -7  10  -4    0.80    0.55
   7 -10   4    0.46    0.60
  -8  10  -4    1.80    0.54
   8 -10   4    2.43    0.58
  -9  10  -4    2.57    0.74
   9 -10   4    3.79    0.91
 -10  10  -4    0.68    0.38
  10 -10   4    1.31    0.71
   9   9  -4   -0.04    0.38
   8   9  -4    6.13    0.84
   8   9  -4    7.18    1.29
   7   9  -4    0.62    0.60
   6   9  -4   -0.07    0.57
  -6  -9   4   -0.90    0.77
   5   9  -4    1.23    0.70
  -5  -9   4    1.01    0.61
  -5  -9   4    0.49    0.50
  -4  -9   4    0.91    0.54
  -4  -9   4    0.71    0.53
  -3  -9   4    2.73    0.63
  -2  -9   4    9.30    1.27
  -2  -9   4    9.58    0.85
  -2  -9   4    9.53    1.25
  -1  -9   4    1.57    0.64
  -1  -9   4    3.73    1.20
  -1  -9   4    1.83    0.44
   0  -9   4    9.72    1.27
   0  -9   4    7.10    1.27
   0  -9   4    8.55    0.78
   1  -9   4    1.44    0.59
   1  -9   4    2.99    1.17
   1  -9   4    0.69    0.37
   2  -9   4    0.21    0.58
   2  -9   4    0.81    0.46
   2  -9   4    0.42    0.67
   3  -9   4    4.99    0.87
   3  -9   4    5.95    0.86
   3  -9   4    3.00    1.15
   4  -9   4    0.11    0.69
   4  -9   4   -0.12    0.69
   4  -9   4    3.68    1.17
   5  -9   4   23.51    2.01
   5  -9   4   24.59    1.87
   6  -9   4    3.02    1.04
   6  -9   4    1.18    0.80
   7  -9   4    2.38    0.97
   7  -9   4    2.43    0.60
   8  -9   4    0.87    0.51
  -9   9  -4   23.00    1.65
   9  -9   4   25.18    1.74
 -10   9  -4    7.87    0.77
  10  -9   4    7.87    0.96
   9   8  -4    1.62    0.40
   8   8  -4    5.70    1.35
   8   8  -4    5.37    0.86
   7   8  -4   11.45    1.30
  -7  -8   4    7.60    1.65
   6   8  -4    5.19    1.24
  -6  -8   4    5.73    1.07
  -5  -8   4   70.62    3.99
  -5  -8   4   63.79    4.00
  -4  -8   4   57.22    3.29
  -4  -8   4   53.64    3.38
  -3  -8   4    0.31    0.39
  -3  -8   4    0.49    0.60
  -2  -8   4    6.16    1.20
  -2  -8   4    5.00    0.62
  -2  -8   4    3.74    1.24
  -1  -8   4    0.73    0.64
  -1  -8   4    0.36    0.65
  -1  -8   4   -0.22    0.33
   0  -8   4    9.79    1.42
   0  -8   4   12.14    1.50
   0  -8   4   12.60    0.90
   1  -8   4    0.75    0.41
   1  -8   4    1.24    0.68
   1  -8   4    0.70    0.70
   2  -8   4    2.04    0.49
   2  -8   4    1.07    0.71
   2  -8   4    1.14    0.61
   3  -8   4    2.57    0.84
   3  -8   4    6.35    1.38
   3  -8   4    4.55    1.13
   4  -8   4    9.74    1.27
   4  -8   4    9.73    1.38
   5  -8   4   12.81    1.64
   5  -8   4   12.24    1.32
   6  -8   4   37.86    2.68
   6  -8   4   36.41    2.46
  -7   8  -4   19.54    1.95
   7  -8   4   21.11    1.65
   7  -8   4   18.17    1.99
  -8   8  -4   12.48    1.83
   8  -8   4   13.13    1.34
  -9   8  -4    0.54    0.47
  -9   8  -4   -1.02    0.71
   9  -8   4   -0.15    0.47
 -10   8  -4    4.69    0.78
 -10   8  -4    5.45    1.40
  10  -8   4    2.96    0.88
  10   7  -4    2.17    0.64
   9   7  -4    1.31    0.42
   8   7  -4    0.68    0.85
   7   7  -4    1.35    0.72
  -7  -7   4    0.41    0.84
   6   7  -4    4.11    1.33
  -6  -7   4    1.62    0.66
  -5  -7   4   24.41    1.67
  -5  -7   4   23.96    1.78
  -4  -7   4   13.16    1.45
  -4  -7   4   12.90    1.03
  -3  -7   4    0.64    0.37
  -3  -7   4    0.01    0.70
  -3  -7   4   -0.45    0.60
  -3  -7   4   -1.39    1.17
  -2  -7   4   28.61    2.18
  -2  -7   4   32.51    1.89
  -1  -7   4   11.33    0.86
   0  -7   4   53.15    3.09
   1  -7   4   12.37    0.97
   2  -7   4   54.54    3.20
   3  -7   4   22.84    1.53
   3  -7   4   21.59    1.71
   3  -7   4   16.02    2.01
   4  -7   4    0.64    0.76
   4  -7   4    0.95    0.63
   4  -7   4   -0.12    0.56
  -5   7  -4    0.74    1.45
   5  -7   4    0.61    0.60
   5  -7   4   -0.39    0.76
   5  -7   4   -0.23    0.60
  -6   7  -4    0.42    0.86
   6  -7   4    0.30    0.80
   6  -7   4    0.39    0.57
   7  -7   4    0.99    0.58
   7  -7   4    6.00    1.62
  -8   7  -4    2.51    0.81
   8  -7   4    2.18    0.63
   8  -7   4    1.53    0.98
  -9   7  -4    0.85    0.70
   9  -7   4   -0.15    0.50
 -10   7  -4    6.57    0.90
 -10   7  -4    6.02    1.11
  10  -7   4    7.19    0.89
  10   6  -4    2.63    0.71
   9   6  -4   15.23    1.26
   8   6  -4    5.98    1.70
   7   6  -4   15.73    1.74
  -7  -6   4   19.99    1.53
   6   6  -4    1.34    0.84
  -6  -6   4    0.65    0.51
  -6  -6   4    0.46    0.63
  -5  -6   4    9.74    1.18
  -5  -6   4   10.69    1.00
  -4  -6   4    0.01    0.39
  -4  -6   4   -0.39    0.58
  -3  -6   4   10.04    0.82
  -3  -6   4    9.81    1.34
   2   6  -4   34.16    2.25
  -2  -6   4   38.46    2.28
  -2  -6   4   36.58    2.17
  -1  -6   4    0.31    0.29
   0  -6   4    0.27    0.33
   1  -6   4  120.05    6.78
   2  -6   4   57.28    3.35
   4  -6   4   14.27    1.43
   4  -6   4   14.94    1.61
   4  -6   4   14.40    1.53
   5  -6   4    8.33    1.60
   5  -6   4    9.08    1.25
   5  -6   4    9.55    1.22
  -6   6  -4   63.58    4.01
   6  -6   4   60.94    4.05
   6  -6   4   67.55    3.93
   6  -6   4   65.90    3.90
  -7   6  -4   27.18    2.11
   7  -6   4   26.16    1.98
   7  -6   4   27.04    2.20
  -8   6  -4   33.58    2.35
   8  -6   4   31.55    2.66
   8  -6   4   33.63    2.29
  -9   6  -4    7.94    1.07
   9  -6   4    7.10    1.04
 -10   6  -4    0.42    0.51
 -10   6  -4    2.53    0.93
  10  -6   4    0.40    0.41
  11   5  -4    3.70    0.64
  10   5  -4   15.56    1.20
   9   5  -4   13.19    1.24
   7   5  -4    0.15    0.91
  -7  -5   4   -0.29    0.73
   6   5  -4   -1.09    0.99
  -6  -5   4    1.07    0.57
  -6  -5   4    1.82    0.53
  -5  -5   4    5.02    0.80
  -5  -5   4    4.67    1.05
  -4  -5   4   85.77    5.33
  -4  -5   4   94.23    5.16
   3   5  -4  100.30    6.64
  -3  -5   4  120.14    6.58
  -3  -5   4  128.45    6.67
   2   5  -4    1.51    0.41
  -2  -5   4    1.51    0.49
  -2  -5   4    1.96    0.53
   1   5  -4    3.41    0.46
  -1  -5   4    3.58    0.53
  -1  -5   4    2.91    0.44
   0  -5   4    0.14    0.39
   4  -5   4   -0.11    0.60
   4  -5   4   -0.40    0.62
   5  -5   4   24.31    1.94
   5  -5   4   24.61    1.79
   5  -5   4   22.01    2.02
   6  -5   4    2.48    0.85
   6  -5   4    2.68    0.71
   6  -5   4    3.26    1.08
  -7   5  -4   29.35    2.16
   7  -5   4   28.17    2.48
   7  -5   4   27.80    2.04
   7  -5   4   29.10    2.08
  -8   5  -4    6.77    1.20
   8  -5   4    5.78    1.63
   8  -5   4    4.62    1.13
  -9   5  -4   15.44    1.33
   9  -5   4   15.56    1.33
 -10   5  -4    0.04    0.65
 -10   5  -4    0.79    0.50
  10  -5   4    0.00    0.39
  11   4  -4   -0.15    0.36
  10   4  -4    0.80    0.46
   9   4  -4    4.66    1.03
  -8  -4   4    5.70    1.35
  -7  -4   4    3.04    1.00
  -6  -4   4   -0.28    0.53
  -6  -4   4    1.56    0.57
  -5  -4   4   -0.44    0.92
  -5  -4   4    2.99    1.07
  -5  -4   4    1.37    0.51
  -4  -4   4   48.63    2.83
  -4  -4   4   47.23    2.96
   3   4  -4   50.56    3.06
  -3  -4   4   49.85    3.02
  -3  -4   4   55.65    3.07
   2   4  -4   26.55    1.63
  -2  -4   4   28.45    1.64
  -2  -4   4   26.01    1.66
   1   4  -4  170.24    9.26
  -1  -4   4  161.49    9.27
   5  -4   4   10.79    1.44
   5  -4   4   12.45    1.27
   5  -4   4    8.23    1.70
   6  -4   4    2.97    1.04
   6  -4   4   -1.04    0.84
   6  -4   4   -0.30    0.65
   7  -4   4   27.47    2.15
   7  -4   4   29.54    2.15
   7  -4   4   29.35    2.45
  -8   4  -4    0.91    0.62
   8  -4   4    4.47    1.72
   8  -4   4    0.90    0.65
  -9   4  -4   10.56    1.17
   9  -4   4   12.19    1.73
   9  -4   4   10.14    1.13
 -10   4  -4   -0.17    0.45
  10  -4   4    1.82    0.70
  11   3  -4    0.01    0.43
  10   3  -4    8.17    1.01
 -10  -3   4    4.62    1.58
   9   3  -4    0.22    0.55
  -9  -3   4    0.22    1.00
  -8  -3   4   24.83    2.35
  -8  -3   4   21.71    1.85
  -7  -3   4    0.24    1.14
  -7  -3   4    0.95    0.58
  -6  -3   4   21.79    1.56
  -5  -3   4   12.70    1.03
  -5  -3   4   10.92    1.30
   4   3  -4    1.50    0.53
  -4  -3   4    2.85    0.66
  -4  -3   4    1.58    0.44
   3   3  -4    7.68    0.67
  -3  -3   4    7.72    0.64
  -3  -3   4    5.46    0.69
   2   3  -4    0.51    0.22
  -2  -3   4    0.43    0.21
   1   3  -4   23.38    1.39
   0   3  -4  411.28   22.91
   0   3  -4  412.88   22.90
  -1   3  -4   20.68    1.21
  -2   3  -4  137.04    7.65
   2  -3   4  136.12    7.66
  -3   3  -4   79.01    4.53
   3  -3   4   79.80    4.57
  -4   3  -4    6.46    1.04
   5  -3   4   15.96    1.48
   5  -3   4   13.54    1.29
   5  -3   4   14.37    1.74
   6  -3   4    2.17    0.84
   6  -3   4    2.97    1.21
   6  -3   4    4.95    1.10
   7  -3   4   19.73    2.13
   7  -3   4   18.54    1.65
   7  -3   4   19.22    1.74
  -8   3  -4    3.61    1.11
   8  -3   4    4.92    1.20
   8  -3   4    4.48    1.72
  -9   3  -4   14.00    1.22
   9  -3   4   13.74    1.18
   9  -3   4   11.10    1.80
 -10   3  -4    0.14    0.43
  10  -3   4    0.43    0.37
  12   2  -4    0.11    0.38
  11   2  -4    0.54    0.48
 -11  -2   4    0.97    0.61
  10   2  -4    4.01    1.03
 -10  -2   4    0.79    0.79
   9   2  -4    4.30    1.13
  -9  -2   4    2.46    0.93
  -8  -2   4   -0.47    0.82
  -8  -2   4    0.61    0.88
  -7  -2   4   12.00    1.16
  -7  -2   4   14.99    1.90
  -6  -2   4    8.36    0.89
  -5  -2   4    1.30    0.46
  -5  -2   4    1.20    0.53
   4   2  -4   16.54    1.22
  -4  -2   4   15.73    1.19
  -4  -2   4   19.11    1.20
   3   2  -4    3.86    0.48
  -3  -2   4    3.20    0.46
   2   2  -4    9.05    0.65
  -2  -2   4    9.19    0.66
   1   2  -4  433.29   24.09
   0   2  -4    0.46    0.16
  -1   2  -4   86.65    4.66
   1  -2   4   78.61    4.66
  -2   2  -4    3.03    0.42
   2  -2   4    2.33    0.52
  -3   2  -4    5.65    0.72
   3  -2   4    4.91    0.96
  -4   2  -4   14.46    1.38
   5  -2   4    8.02    1.10
   5  -2   4    8.92    1.39
   5  -2   4    8.13    1.55
   5  -2   4    7.58    1.13
   6  -2   4   19.46    1.90
   6  -2   4   19.68    1.57
   6  -2   4   17.95    1.68
   7  -2   4    0.23    0.63
   7  -2   4    1.51    0.68
   7  -2   4    0.33    0.84
  -8   2  -4   10.25    1.22
   8  -2   4   10.89    1.32
   8  -2   4    7.57    1.56
  -9   2  -4    4.24    0.88
   9  -2   4    3.70    0.90
 -10   2  -4    4.46    0.85
  10  -2   4    6.91    0.78
  12   1  -4    2.46    0.81
 -12  -1   4    3.94    1.12
  11   1  -4   -0.16    0.48
 -11  -1   4    0.68    0.54
  10   1  -4    0.36    0.63
 -10  -1   4    0.60    0.69
   9   1  -4    0.07    0.63
  -9  -1   4   -0.07    0.78
   8   1  -4   -0.14    0.70
  -8  -1   4    1.48    0.81
  -8  -1   4    0.53    0.69
  -7  -1   4    1.01    0.78
  -7  -1   4    0.46    0.54
  -6  -1   4   54.90    3.11
  -6  -1   4   50.02    3.35
  -5  -1   4   10.31    0.97
  -5  -1   4    9.18    0.84
   4   1  -4  167.29    9.35
  -4  -1   4  168.94    9.36
  -4  -1   4  162.04    9.31
   3   1  -4    6.41    0.58
  -3  -1   4    6.61    0.57
   2   1  -4    1.56    0.33
   1   1  -4  119.36    6.68
   1   1  -4  118.51    6.68
   0   1  -4    0.12    0.15
  -1   1  -4   17.66    1.08
   1  -1   4   16.97    1.11
  -2   1  -4   98.35    5.58
   2  -1   4   98.67    5.62
  -3   1  -4   14.20    1.12
   3  -1   4   14.22    1.38
  -4   1  -4   18.90    1.65
   4  -1   4   20.93    1.50
   4  -1   4   20.15    1.86
   5  -1   4    5.69    1.38
   5  -1   4    3.57    1.40
   5  -1   4    4.37    1.07
   5  -1   4    6.09    0.95
   6  -1   4   -0.37    0.71
   6  -1   4    3.60    1.32
   6  -1   4   -0.25    0.64
   7  -1   4    1.45    0.79
   7  -1   4    0.13    0.80
   7  -1   4    0.38    0.61
  -8   1  -4    3.87    1.15
   8  -1   4    4.63    1.17
   8  -1   4    4.50    1.57
  -9   1  -4    0.30    0.47
   9  -1   4    1.07    0.73
  10  -1   4    1.92    0.71
  12   0  -4   20.77    1.61
 -12   0   4   21.00    1.51
  11   0  -4    3.92    1.03
 -11   0   4    3.69    0.99
  10   0  -4    4.19    1.32
 -10   0   4    2.30    0.69
   9   0  -4    6.47    1.39
  -9   0   4    6.56    1.35
  -9   0   4    4.36    1.20
   8   0  -4    2.18    0.78
  -8   0   4    1.60    0.75
  -8   0   4    2.90    0.91
  -7   0   4   21.20    1.52
  -7   0   4   19.92    1.86
  -6   0   4    2.19    0.65
  -6   0   4    1.55    0.67
   5   0  -4   22.16    1.75
  -5   0   4   27.04    1.64
  -5   0   4   28.16    1.73
   4   0  -4    1.13    0.35
  -4   0   4    1.01    0.28
  -4   0   4    1.17    0.33
   3   0  -4  184.72   10.36
   2   0  -4   -0.09    0.19
   1   0  -4  412.32   22.95
   0   0  -4    4.62    0.43
   0   0   4    4.61    0.47
  -1   0  -4    2.03    0.36
   1   0   4    1.80    0.49
  -2   0  -4    3.47    0.55
   2   0   4    3.50    0.83
  -3   0  -4    1.05    0.54
   4   0   4   76.29    4.51
   4   0   4   73.38    4.37
   4   0   4   73.80    4.59
   4   0   4   73.56    4.32
   5   0   4    5.16    1.39
   5   0   4    3.83    1.35
   5   0   4    3.46    0.87
   5   0   4    3.01    1.10
   6   0   4   24.22    1.95
   6   0   4   23.31    1.90
   6   0   4   21.33    1.75
   7   0   4    4.80    1.17
   7   0   4    3.15    1.34
  -8   0  -4   14.13    1.35
   8   0   4   14.57    1.43
   8   0   4   15.98    1.59
  -9   0  -4    2.98    0.90
   9   0   4    2.68    0.95
 -10   0  -4   -0.12    0.53
  10   0   4    0.43    0.42
  12  -1  -4    6.16    1.34
 -12   1   4    7.50    0.91
  11  -1  -4    0.34    0.66
 -11   1   4    1.11    0.51
  10  -1  -4    0.34    0.78
 -10   1   4    1.81    0.63
   9  -1  -4    8.56    1.71
  -9   1   4    9.23    1.39
   8  -1  -4   17.87    2.06
  -8   1   4   15.76    1.65
  -8   1   4   18.88    1.37
   7  -1  -4    1.67    1.08
  -7   1   4    0.30    0.64
  -7   1   4    0.03    0.45
  -6   1   4   51.42    3.04
  -6   1   4   51.58    3.26
   5  -1  -4    4.04    0.86
  -5   1   4    3.84    0.56
  -5   1   4    5.20    0.78
   4  -1  -4  111.40    6.23
  -4   1   4  107.78    6.19
   3  -1  -4    1.54    0.31
   2  -1  -4  167.36    9.58
   2  -1  -4  173.94    9.58
   1  -1  -4   -0.25    0.17
   0  -1  -4    3.37    0.40
   0   1   4    3.53    0.52
  -1  -1  -4    0.05    0.25
   1   1   4   -0.49    0.38
  -2  -1  -4   13.09    1.00
   2   1   4    9.57    1.23
  -3  -1  -4    3.87    1.11
   4   1   4   13.09    1.36
   4   1   4    9.27    1.57
   4   1   4   13.84    1.19
   5   1   4   13.71    1.39
   5   1   4   13.18    1.49
   5   1   4   12.55    1.19
   5   1   4   13.06    1.70
   6   1   4    5.69    1.26
   6   1   4    5.68    1.39
   7   1   4   11.03    1.33
   7   1   4   11.22    1.34
  -8  -1  -4    0.68    0.56
   8   1   4    1.54    0.63
   8   1   4    0.54    0.55
  -9  -1  -4   -0.05    0.48
   9   1   4    0.41    0.65
   9   1   4    2.27    0.80
 -12   2   4    0.42    0.43
  11  -2  -4   -0.16    0.71
 -11   2   4    0.44    0.49
  10  -2  -4    4.54    1.02
 -10   2   4    4.38    1.20
   9  -2  -4   30.93    2.66
  -9   2   4   33.09    2.24
   8  -2  -4   21.47    2.43
  -8   2   4   21.95    1.52
  -8   2   4   19.44    1.72
  -7   2   4   25.09    2.57
  -7   2   4   27.84    2.09
  -7   2   4   29.81    1.82
  -6   2   4    0.02    0.31
   5  -2  -4  196.51   11.50
  -5   2   4  210.16   11.40
   4  -2  -4    0.38    0.43
  -4   2   4    0.59    0.26
   3  -2  -4    3.91    0.60
   3  -2  -4    3.65    0.51
  -3   2   4    4.32    0.53
   2  -2  -4    1.66    0.38
   1  -2  -4   79.35    4.53
   0  -2  -4   68.20    3.75
   0   2   4   61.75    3.79
  -1  -2  -4   14.24    0.98
   1   2   4   10.64    1.15
  -2  -2  -4   36.38    2.34
   3   2   4    0.47    0.69
   3   2   4   -0.90    0.51
   4   2   4   -0.14    0.72
   4   2   4    0.75    0.64
   4   2   4   -0.39    0.50
   4   2   4    1.42    1.02
   5   2   4    2.90    1.21
   5   2   4    3.95    1.37
   6   2   4    6.84    1.46
   6   2   4    7.05    1.23
   7   2   4    1.77    0.66
  -8  -2  -4    3.06    0.97
   8   2   4    5.28    1.06
  -9  -2  -4    8.56    1.02
   9   2   4    8.17    1.23
   9   2   4    7.87    1.03
 -12   3   4    0.16    0.40
 -11   3   4   43.30    2.70
  10  -3  -4    1.76    1.10
 -10   3   4    0.61    0.64
  -9   3   4    1.03    0.64
  -9   3   4   -0.66    0.81
  -8   3   4   11.77    1.56
  -8   3   4   13.80    1.41
  -7   3   4    8.06    0.79
  -7   3   4   10.20    1.26
  -7   3   4    7.29    1.06
  -6   3   4    2.16    0.55
  -6   3   4    0.37    0.67
  -5   3   4    8.83    0.78
   4  -3  -4   25.73    1.85
   4  -3  -4   27.00    1.74
  -4   3   4   27.49    1.66
   3  -3  -4   27.42    1.82
   3  -3  -4   28.34    1.76
   2  -3  -4    2.79    0.46
   1  -3  -4   -0.45    0.26
   0  -3  -4    3.82    0.60
   0   3   4    2.47    0.91
  -1  -3  -4  284.03   15.93
   2   3   4   23.46    1.96
   3   3   4    5.48    1.22
   3   3   4    3.67    1.19
   3   3   4    5.48    1.14
   4   3   4    1.62    0.66
   4   3   4    2.20    0.83
   4   3   4    1.93    0.58
   5   3   4   41.17    2.97
   5   3   4   44.18    2.69
   5   3   4   42.88    2.79
   6   3   4    1.74    0.80
   6   3   4    3.43    1.08
   7   3   4    0.22    0.53
   7   3   4    1.20    0.63
  -8  -3  -4    6.37    1.12
   8   3   4    8.86    1.19
   8   3   4    8.30    1.02
 -12   4   4    3.75    0.72
 -11   4   4    6.39    0.92
 -10   4   4    1.35    0.68
 -10   4   4    1.12    0.58
  -9   4   4  140.66    8.38
  -9   4   4  152.89    8.42
  -8   4   4    1.43    0.67
  -8   4   4    4.95    1.11
  -7   4   4   31.11    2.27
  -7   4   4   32.92    2.25
   6  -4  -4    0.16    0.93
  -6   4   4    1.52    0.66
  -6   4   4    0.92    0.58
   5  -4  -4   13.19    1.40
   4  -4  -4    3.39    0.79
   4  -4  -4    2.61    0.72
   3  -4  -4  103.71    5.84
   3  -4  -4  100.39    5.91
   2  -4  -4    6.68    0.63
   2  -4  -4    7.71    0.77
   1  -4  -4    4.34    0.71
   1  -4  -4    4.09    0.55
   0  -4  -4    5.99    0.87
   0  -4  -4    4.72    0.70
   2   4   4   -0.03    0.85
   2   4   4    1.32    0.73
   2   4   4    0.36    0.64
   3   4   4   56.72    3.42
   3   4   4   58.13    3.46
   3   4   4   52.13    3.46
   4   4   4    0.60    0.63
   4   4   4    0.93    0.63
   5   4   4   -0.86    0.89
   5   4   4    0.83    0.62
   6   4   4    8.08    1.13
   6   4   4    4.89    1.41
  -7  -4  -4   -0.28    0.72
   7   4   4    0.15    0.47
   7   4   4   -0.78    0.72
   8   4   4   18.42    1.34
 -12   5   4    0.80    0.41
 -11   5   4    1.49    0.50
 -10   5   4    7.06    1.09
 -10   5   4    5.83    1.05
   9  -5  -4    0.73    0.54
  -9   5   4    1.02    0.54
  -9   5   4    1.15    0.56
  -8   5   4   22.55    1.67
  -8   5   4   20.53    1.68
  -7   5   4   12.05    1.25
  -7   5   4   10.61    1.24
  -6   5   4   16.88    1.58
  -6   5   4   19.18    1.45
   5  -5  -4    1.51    0.84
  -5   5   4    0.70    0.63
   4  -5  -4   87.55    5.13
   3  -5  -4   25.39    1.72
   3  -5  -4   23.07    1.49
   2  -5  -4   15.08    1.02
   2  -5  -4   15.17    1.27
   1  -5  -4    7.07    1.06
   1  -5  -4    7.67    0.67
   0  -5  -4   15.07    1.12
   1   5   4    1.25    0.80
   1   5   4    0.72    0.75
   1   5   4    1.19    0.70
   2   5   4   -0.56    0.69
   2   5   4    1.01    0.82
   2   5   4    0.02    0.75
   3   5   4  142.50    8.38
   3   5   4  150.85    8.36
   4   5   4   10.23    1.27
   4   5   4    8.45    1.43
   5   5   4    2.14    0.62
   6   5   4    1.40    0.52
   7   5   4   11.79    1.04
 -12   6   4    3.69    0.68
 -11   6   4    4.55    0.86
 -11   6   4    5.40    0.96
  10  -6  -4    0.35    0.66
 -10   6   4    1.18    0.52
 -10   6   4    0.19    0.53
   9  -6  -4   10.19    1.04
  -9   6   4   12.32    1.26
  -9   6   4   13.28    1.19
   8  -6  -4   10.02    0.93
  -8   6   4    9.31    1.06
  -8   6   4    8.88    1.18
   7  -6  -4   27.81    1.75
  -7   6   4   25.77    1.85
  -7   6   4   27.33    1.98
   6  -6  -4    0.04    0.33
  -6   6   4   -0.32    0.45
  -6   6   4    0.00    0.64
   5  -6  -4    0.63    0.30
  -5   6   4    1.25    0.64
  -5   6   4    0.73    0.49
   4  -6  -4    1.13    0.42
   4  -6  -4    1.23    0.97
  -4   6   4    1.75    0.62
  -4   6   4    3.44    0.95
   3  -6  -4    2.14    0.84
   3  -6  -4    2.00    0.45
  -3   6   4    3.06    0.88
   2  -6  -4   20.46    1.30
  -2   6   4   20.30    1.56
   1  -6  -4    4.93    0.62
  -1   6   4    5.78    1.11
   0  -6  -4   12.56    1.06
   0   6   4   13.78    1.60
   0   6   4   14.65    1.58
   0   6   4   11.69    1.63
   1   6   4    4.12    1.45
   1   6   4    5.26    1.71
   1   6   4    5.64    1.22
   2   6   4   58.19    3.60
   2   6   4   55.80    3.51
   3   6   4   59.01    3.54
   3   6   4   57.56    3.66
   4   6   4    2.05    0.62
   5   6   4   -0.20    0.53
   6   6   4   -0.36    0.43
   7   6   4   -0.42    0.40
 -11   7   4    6.27    0.82
 -11   7   4    6.80    0.89
  10  -7  -4    1.32    0.66
 -10   7   4    2.41    0.95
   9  -7  -4    8.33    0.90
  -9   7   4    9.21    1.24
  -9   7   4    6.26    0.99
   8  -7  -4   18.25    1.37
  -8   7   4   19.36    1.46
  -8   7   4   21.37    1.65
   7  -7  -4    3.22    0.61
  -7   7   4    5.37    1.17
  -7   7   4    4.45    0.83
   6  -7  -4   33.06    2.02
  -6   7   4   31.51    2.11
  -6   7   4   33.06    2.28
   5  -7  -4    0.52    0.31
  -5   7   4    0.70    0.47
  -5   7   4   -0.33    0.60
   4  -7  -4    0.73    0.32
  -4   7   4    0.58    0.50
  -4   7   4    0.64    0.72
   3  -7  -4    5.87    0.59
  -3   7   4    4.02    1.38
  -3   7   4    5.23    1.04
   2  -7  -4    2.34    0.50
  -2   7   4    0.91    0.57
   1  -7  -4    1.52    0.58
  -1   7   4   -1.50    0.94
  -1   7   4    0.71    0.60
   0  -7  -4   -0.42    0.55
   0   7   4    0.55    0.74
   0   7   4   -0.71    0.68
   1   7   4    1.19    0.94
   1   7   4    0.73    0.66
   2   7   4    0.38    0.62
   3   7   4    1.22    0.57
   4   7   4    1.43    0.55
   5   7   4    0.08    0.47
   6   7   4    2.71    0.67
 -12   8   4    0.40    0.38
 -11   8   4    0.67    0.39
 -11   8   4    0.66    0.35
  10  -8  -4    9.62    1.17
 -10   8   4    9.42    1.07
 -10   8   4   10.49    0.97
   9  -8  -4   -0.30    0.47
  -9   8   4    0.38    0.46
  -9   8   4    0.72    0.52
   8  -8  -4    0.37    0.41
  -8   8   4    0.15    0.43
  -8   8   4    0.79    0.59
   7  -8  -4    1.77    0.57
  -7   8   4    3.57    0.98
  -7   8   4    2.81    0.80
  -6   8   4    3.29    1.20
  -6   8   4    4.20    0.86
   5  -8  -4   27.70    1.73
  -5   8   4   25.43    2.08
  -5   8   4   28.26    1.87
   4  -8  -4    3.52    0.56
   3  -8  -4   42.99    2.53
  -3   8   4   40.99    2.64
   2  -8  -4   -0.17    0.37
  -2   8   4   -0.45    0.53
   1  -8  -4    5.86    0.77
  -1   8   4    4.46    1.44
  -1   8   4    6.09    1.18
   0  -8  -4   31.88    1.94
   0   8   4   27.95    2.10
   0   8   4   24.47    2.08
   1   8   4    0.13    0.67
   2   8   4   13.13    1.37
   3   8   4    2.32    0.63
   4   8   4    0.63    0.50
   5   8   4    3.26    0.74
 -11   9   4    9.65    1.07
 -11   9   4   10.63    0.88
  10  -9  -4    7.40    1.16
 -10   9   4    6.29    0.99
 -10   9   4    5.66    0.73
   9  -9  -4    6.15    0.84
  -9   9   4    4.96    1.10
  -9   9   4    6.12    0.79
   8  -9  -4    0.39    0.41
  -8   9   4    1.80    0.60
  -8   9   4    0.32    0.42
   7  -9  -4    3.64    0.61
  -7   9   4    4.52    1.30
  -7   9   4    3.24    0.79
   6  -9  -4    1.77    0.51
  -6   9   4    1.25    0.41
   5  -9  -4    0.14    0.36
  -5   9   4    0.41    0.43
   4  -9  -4    2.32    0.54
  -4   9   4    1.39    0.46
   3  -9  -4    1.01    0.40
  -3   9   4   -0.10    0.53
  -2   9   4    3.34    1.03
  -1   9   4    0.50    0.67
  -1   9   4    3.85    1.44
   0  -9  -4   37.48    2.53
   0   9   4   40.53    2.60
   1   9   4    0.67    0.62
   2   9   4    7.38    1.04
   3   9   4    0.25    0.53
   4   9   4   -0.07    0.43
   5   9   4    0.12    0.36
 -11  10   4    9.98    0.79
 -10  10   4    0.70    0.34
   9 -10  -4   14.79    1.16
  -9  10   4   12.48    1.02
   8 -10  -4    0.66    0.43
  -8  10   4    0.44    0.34
   7 -10  -4    1.43    0.56
  -7  10   4    0.77    0.38
   6 -10  -4    2.85    0.56
  -6  10   4    2.67    0.80
   5 -10  -4    3.81    0.61
  -5  10   4    3.24    0.79
   4 -10  -4    5.33    0.71
  -4  10   4    6.28    0.98
   3 -10  -4    9.63    0.92
  -3  10   4   10.86    1.13
   2 -10  -4    6.47    0.82
   1 -10  -4    7.68    0.97
  -1  10   4    6.35    1.48
   0  10   4    6.79    1.29
   1  10   4    2.51    0.99
   2  10   4    0.40    0.51
   3  10   4    0.73    0.49
   4  10   4    0.63    0.39
 -10  11   4    0.93    0.28
   9 -11  -4   -0.20    0.61
  -9  11   4    0.01    0.25
   8 -11  -4    1.96    0.68
   7 -11  -4    0.69    0.41
  -7  11   4    1.69    0.58
   6 -11  -4   16.28    1.19
  -6  11   4   17.57    1.25
   5 -11  -4   14.89    1.16
  -5  11   4   17.19    1.27
   4 -11  -4    5.87    0.77
  -4  11   4    7.67    0.95
   3 -11  -4    0.86    0.47
  -3  11   4    1.53    0.58
   2 -11  -4    0.53    0.56
  -2  11   4   -0.16    0.68
   1 -11  -4    1.28    0.70
   0  11   4    3.82    1.29
   1  11   4    0.87    0.62
   2  11   4    0.55    0.54
  -9  12   4    0.20    0.28
   8 -12  -4    0.64    0.53
  -8  12   4    0.73    0.31
   7 -12  -4    0.61    0.45
  -7  12   4    0.53    0.34
   6 -12  -4    0.11    0.41
  -6  12   4   -0.13    0.35
   5 -12  -4    1.39    0.46
  -5  12   4    2.95    0.74
  -4  12   4    1.93    0.55
   3 -12  -4    0.10    0.52
  -3  12   4   -0.04    0.66
   2 -12  -4    1.56    0.66
  -8  13   4   -0.05    0.28
   7 -13  -4    1.72    0.57
   6 -13  -4    2.76    0.72
  -6  13   4    3.99    0.70
   5 -13  -4   -0.21    0.48
  -5  13   4    0.73    0.44
   4 -13  -4    2.22    0.79
   3 -13  -4    1.02    0.69
   0  16  -5   -0.20    0.40
  -1  16  -5    4.08    0.79
   3  15  -5    6.82    0.68
   2  15  -5    0.55    0.36
  -2 -15   5   -0.87    0.92
  -1 -15   5    1.13    0.53
   0 -15   5    1.94    0.75
   1 -15   5   18.49    1.39
   2 -15   5    3.16    0.86
   3 -15   5    3.36    1.07
   4  14  -5    8.43    0.76
   3  14  -5    0.41    0.39
  -3 -14   5   -0.59    0.59
  -2 -14   5    9.17    0.92
  -1 -14   5    0.02    0.51
  -1 -14   5    1.04    0.59
   0 -14   5    0.47    0.47
   0 -14   5   -0.07    0.63
   1 -14   5    4.21    0.81
   1 -14   5    6.04    1.37
   2 -14   5    0.89    0.65
   2 -14   5    0.18    0.57
   3 -14   5    8.86    1.47
   3 -14   5   11.85    1.20
   3 -14   5   12.39    1.21
   4 -14   5    6.55    1.25
   4 -14   5    5.99    1.38
   4 -14   5    4.91    1.04
   5 -14   5    0.53    0.74
  -6  14  -5    0.18    0.53
  -7  14  -5    0.57    0.44
   5  13  -5   -0.08    0.34
   4  13  -5   -0.17    0.39
  -4 -13   5   -0.36    0.62
   3  13  -5    1.81    0.77
  -3 -13   5    2.29    0.93
  -3 -13   5    2.81    0.73
  -2 -13   5   -0.01    0.49
  -2 -13   5    0.74    0.47
  -1 -13   5   -0.04    0.46
  -1 -13   5    0.29    0.60
   0 -13   5   11.72    1.06
   0 -13   5   14.18    1.48
   1 -13   5    0.14    0.63
   1 -13   5    1.52    0.56
   1 -13   5    0.30    0.49
   2 -13   5    8.88    1.01
   2 -13   5   10.25    1.20
   2 -13   5    9.15    1.22
   3 -13   5    8.28    1.11
   3 -13   5    8.31    1.19
   3 -13   5   10.58    1.32
  -4  13  -5    5.33    1.11
   4 -13   5    6.08    1.15
   4 -13   5    5.80    1.23
  -5  13  -5    0.70    0.63
   5 -13   5    2.64    1.00
   5 -13   5    0.80    0.65
  -6  13  -5   31.40    1.98
   6 -13   5   28.14    2.02
  -7  13  -5    0.85    0.46
   7 -13   5    0.59    0.67
  -8  13  -5    6.27    0.77
   6  12  -5    4.08    0.74
   5  12  -5    0.07    0.42
  -5 -12   5   -0.18    0.67
   4  12  -5    0.52    0.51
  -4 -12   5    0.13    0.54
  -3 -12   5    2.67    0.93
  -2 -12   5   43.96    2.61
  -2 -12   5   36.48    2.46
  -1 -12   5    5.53    0.76
  -1 -12   5    7.92    1.23
   0 -12   5   11.77    1.32
   0 -12   5    9.29    0.96
   0 -12   5   11.33    1.22
   1 -12   5    1.69    0.58
   1 -12   5    3.16    1.12
   1 -12   5    1.88    0.59
   2 -12   5    1.03    0.57
   2 -12   5   -0.36    0.56
   2 -12   5    0.49    0.62
   3 -12   5   -0.53    0.59
   3 -12   5    0.43    0.65
   3 -12   5   -0.21    0.59
  -4  12  -5   11.44    1.42
   4 -12   5    9.63    1.37
   4 -12   5   13.75    1.29
  -5  12  -5    3.07    1.03
   5 -12   5    2.59    0.60
   5 -12   5    2.27    0.71
  -6  12  -5   11.61    1.11
   6 -12   5   11.12    1.49
   6 -12   5   11.22    1.19
  -7  12  -5    1.97    0.48
   7 -12   5    2.41    0.55
  -8  12  -5    0.24    0.37
   8 -12   5    0.23    0.56
  -9  12  -5    8.36    0.80
   7  11  -5    4.94    0.78
   7  11  -5    4.46    0.99
   6  11  -5    1.94    0.77
  -6 -11   5    4.04    1.31
   5  11  -5   13.70    1.16
  -5 -11   5   11.40    1.18
  -4 -11   5   -0.37    0.52
  -4 -11   5    0.17    0.51
  -3 -11   5   39.48    2.60
  -3 -11   5   45.53    2.71
  -2 -11   5   14.87    1.36
  -2 -11   5   11.28    1.02
  -1 -11   5    1.81    0.65
  -1 -11   5    1.63    0.59
  -1 -11   5    1.27    0.57
   0 -11   5    9.10    1.29
   0 -11   5   10.15    0.99
   0 -11   5   12.27    1.28
   1 -11   5    1.08    0.51
   1 -11   5    0.26    0.54
   1 -11   5    0.83    0.57
   2 -11   5    1.45    0.59
   2 -11   5    0.40    0.55
   2 -11   5    1.21    0.65
  -3  11  -5    2.73    0.96
   3 -11   5    3.55    1.08
   3 -11   5    5.21    1.20
   3 -11   5    2.60    0.95
  -4  11  -5    3.94    1.31
   4 -11   5    4.10    1.18
   4 -11   5    4.12    1.13
  -5  11  -5   -0.88    0.59
   5 -11   5   -0.45    0.66
   5 -11   5    0.79    0.56
  -6  11  -5   -0.27    0.61
   6 -11   5    0.23    0.74
   6 -11   5    0.08    0.54
  -7  11  -5    8.95    0.99
   7 -11   5    7.60    1.91
   7 -11   5    7.04    1.09
  -8  11  -5    0.84    0.44
   8 -11   5    1.16    0.53
  -9  11  -5    2.03    0.60
   9 -11   5   -0.13    0.53
   8  10  -5    0.86    0.41
   7  10  -5    4.24    1.00
   6  10  -5    3.79    0.93
  -6 -10   5    1.93    0.78
   5  10  -5   -0.04    0.67
  -5 -10   5   -0.09    0.46
  -5 -10   5    2.57    0.85
  -4 -10   5    2.98    0.69
  -4 -10   5    5.07    0.96
  -3 -10   5   25.50    1.66
  -3 -10   5   23.61    1.81
  -2 -10   5   -0.94    0.56
  -2 -10   5    0.59    0.42
  -2 -10   5    0.77    0.55
  -1 -10   5    0.18    0.52
  -1 -10   5    0.67    0.45
  -1 -10   5   -0.19    0.57
   0 -10   5    0.79    0.59
   0 -10   5    0.41    0.44
   0 -10   5    0.55    0.54
   1 -10   5   26.05    1.98
   1 -10   5   27.86    1.79
   1 -10   5   27.11    1.91
   2 -10   5    5.78    1.13
   2 -10   5    9.07    0.96
   2 -10   5    7.01    1.17
   3 -10   5   51.16    3.10
   3 -10   5   48.88    3.02
   3 -10   5   45.43    2.99
   4 -10   5    8.65    1.37
   4 -10   5    9.48    1.15
   5 -10   5    4.39    1.03
   5 -10   5    3.20    1.31
   6 -10   5    5.05    1.46
   6 -10   5    2.33    0.59
   7 -10   5    0.90    0.86
   7 -10   5   -0.32    0.53
  -8  10  -5    5.10    0.88
   8 -10   5    4.09    0.93
  -9  10  -5    1.75    0.66
   9 -10   5    0.05    0.44
   9   9  -5    7.81    0.78
   8   9  -5    0.39    0.99
   8   9  -5    2.51    0.74
   7   9  -5   22.25    1.55
  -7  -9   5   17.29    1.72
   6   9  -5    4.68    1.20
  -6  -9   5    4.81    0.98
  -5  -9   5    8.50    0.95
  -5  -9   5    6.79    1.10
  -4  -9   5   -0.07    0.45
  -4  -9   5   -0.08    0.56
  -3  -9   5   24.71    1.81
  -3  -9   5   21.83    1.84
  -3  -9   5   25.27    1.60
  -2  -9   5   12.95    0.97
  -2  -9   5    9.51    1.31
  -2  -9   5   11.76    1.33
  -1  -9   5   -0.50    0.58
  -1  -9   5   -0.11    0.57
  -1  -9   5    0.68    0.43
   0  -9   5    0.27    0.56
   0  -9   5    0.04    0.41
   0  -9   5    0.17    0.54
   1  -9   5    0.13    0.53
   1  -9   5   -0.27    0.46
   1  -9   5    0.48    0.56
   2  -9   5    7.95    1.14
   2  -9   5    6.22    1.33
   2  -9   5    7.22    0.91
   3  -9   5   11.98    1.28
   3  -9   5   14.72    1.45
   3  -9   5   12.74    1.32
   4  -9   5   12.29    1.45
   4  -9   5   12.37    1.36
   5  -9   5   16.00    1.60
   5  -9   5   14.47    1.43
   6  -9   5   11.29    1.21
   6  -9   5    9.35    1.54
   7  -9   5   -0.21    0.50
   7  -9   5   -0.78    0.79
   8  -9   5   13.06    1.27
  -9   9  -5   10.69    0.95
   9  -9   5    9.66    1.04
 -10   9  -5   22.29    1.52
  10  -9   5   25.63    1.59
   9   8  -5    1.73    0.69
   8   8  -5   -0.09    0.83
   7   8  -5    5.15    1.29
  -7  -8   5    3.63    1.12
   6   8  -5  105.65    5.94
  -6  -8   5   96.82    5.86
  -6  -8   5  102.84    5.88
  -5  -8   5   49.65    3.09
  -5  -8   5   51.38    3.07
  -4  -8   5    9.84    0.92
  -4  -8   5    9.30    1.24
  -3  -8   5    7.80    0.77
  -3  -8   5    7.86    1.16
  -3  -8   5    5.69    1.33
  -2  -8   5    0.15    0.37
  -2  -8   5    0.44    0.57
  -2  -8   5   -0.78    0.67
  -1  -8   5   19.18    1.62
  -1  -8   5   18.43    1.59
  -1  -8   5   20.25    1.32
   0  -8   5   54.26    2.98
   0  -8   5   48.02    3.13
   0  -8   5   48.30    3.08
   1  -8   5   13.89    1.38
   1  -8   5   15.39    1.14
   1  -8   5   15.09    1.51
   2  -8   5    0.61    0.54
   2  -8   5    1.01    0.54
   2  -8   5   -0.48    0.66
   3  -8   5    2.62    0.59
   3  -8   5    1.44    0.70
   3  -8   5    2.70    0.72
   3  -8   5    2.85    0.77
   4  -8   5   13.23    1.30
   4  -8   5   13.40    1.36
   4  -8   5   13.76    1.48
   5  -8   5    1.80    0.56
   5  -8   5    2.18    0.72
   6  -8   5    0.52    0.53
  -7   8  -5   -1.28    0.88
   7  -8   5    1.35    0.82
   7  -8   5    0.56    0.54
   8  -8   5    2.38    1.00
   8  -8   5    3.75    1.02
  -9   8  -5    0.32    0.75
   9  -8   5    0.31    0.40
  10  -8   5    1.83    0.71
  10   7  -5    0.14    0.35
   9   7  -5    8.74    0.95
  -8  -7   5    4.15    1.63
   7   7  -5    2.88    0.87
  -7  -7   5   -0.05    0.70
   6   7  -5   26.62    2.26
  -6  -7   5   28.11    1.91
  -6  -7   5   27.41    1.86
  -5  -7   5   51.73    3.21
  -5  -7   5   53.33    3.16
  -4  -7   5    1.28    0.44
  -4  -7   5    1.12    0.59
  -3  -7   5   32.92    1.92
  -3  -7   5   31.05    2.17
  -3  -7   5   27.98    2.28
  -2  -7   5    2.25    0.55
  -2  -7   5    2.92    0.71
  -2  -7   5    1.68    0.82
  -1  -7   5    7.16    0.70
   0  -7   5    1.90    0.54
   1  -7   5   72.98    4.20
   2  -7   5    3.06    1.06
   2  -7   5    0.44    0.62
   2  -7   5    0.37    0.55
   3  -7   5   10.47    1.27
   3  -7   5   11.05    1.39
   3  -7   5    9.11    1.42
   4  -7   5    4.74    1.10
   4  -7   5    5.35    1.26
  -5   7  -5    7.54    1.98
   5  -7   5    6.95    1.12
  -6   7  -5   35.14    2.53
   6  -7   5   32.05    2.26
   6  -7   5   32.99    2.41
   6  -7   5   32.03    2.28
  -7   7  -5   -0.75    0.80
   7  -7   5    1.31    0.85
   7  -7   5    0.78    0.55
  -8   7  -5   10.03    1.39
   8  -7   5    9.53    1.20
   8  -7   5    7.93    1.54
  -9   7  -5    1.06    0.68
   9  -7   5    0.63    0.45
 -10   7  -5    5.00    0.84
  10  -7   5    5.16    0.78
  10   6  -5   14.73    1.15
   9   6  -5    9.11    1.02
  -8  -6   5    0.33    0.85
   7   6  -5    5.37    1.65
   6   6  -5   26.52    2.40
  -6  -6   5   25.61    1.76
  -6  -6   5   24.81    1.86
  -5  -6   5    0.74    0.49
  -5  -6   5    0.86    0.59
  -4  -6   5   29.79    2.20
  -4  -6   5   31.15    2.68
  -4  -6   5   27.48    2.52
  -4  -6   5   35.20    1.96
   3   6  -5   16.08    1.72
  -3  -6   5   16.25    1.13
   2   6  -5    4.04    0.97
  -2  -6   5    4.82    0.59
  -2  -6   5    4.56    0.88
  -1  -6   5   29.84    1.82
   0  -6   5    9.39    0.80
   1  -6   5    4.05    0.67
   3  -6   5   12.35    1.31
   3  -6   5   12.36    1.36
   3  -6   5   11.05    1.37
   4  -6   5    0.31    0.57
   4  -6   5   -0.33    0.51
   4  -6   5   -1.03    0.69
   5  -6   5   14.11    1.55
   5  -6   5   13.43    1.36
   5  -6   5   13.28    1.45
   6  -6   5   -0.31    0.54
   6  -6   5    0.40    0.65
   6  -6   5    0.09    0.79
  -7   6  -5   31.97    2.41
   7  -6   5   35.31    2.26
   7  -6   5   33.42    2.44
   7  -6   5   33.14    2.28
  -8   6  -5    0.13    0.65
   8  -6   5    1.43    0.82
   8  -6   5    2.53    0.99
  -9   6  -5    0.65    0.54
   9  -6   5    0.31    0.45
 -10   6  -5   -0.24    0.46
 -10   6  -5   -0.60    0.56
  10  -6   5    0.46    0.36
  11   5  -5   -0.17    0.39
  10   5  -5    0.58    0.43
   9   5  -5    1.08    0.54
  -8  -5   5    0.67    0.80
  -7  -5   5   12.59    1.19
  -6  -5   5   11.62    1.08
  -5  -5   5    0.04    0.63
  -5  -5   5    1.03    0.48
  -4  -5   5   73.63    4.47
  -4  -5   5   82.15    4.70
   3   5  -5   82.44    5.40
  -3  -5   5   98.94    5.41
  -3  -5   5   98.30    5.32
   2   5  -5    4.65    0.71
  -2  -5   5    5.00    0.67
  -2  -5   5    4.64    0.59
   1   5  -5   11.45    0.81
  -1  -5   5   11.03    0.87
   0  -5   5    7.00    0.75
   4  -5   5   11.05    1.48
   4  -5   5   13.64    1.38
   4  -5   5   12.90    1.22
   5  -5   5   -0.12    0.58
   5  -5   5    0.66    0.59
   5  -5   5   -0.85    0.70
   6  -5   5    1.33    0.63
   6  -5   5    1.25    0.68
   6  -5   5    3.45    1.36
  -7   5  -5    2.73    0.84
   7  -5   5    3.79    1.12
   7  -5   5    2.10    0.90
   7  -5   5    2.91    1.09
  -8   5  -5    1.21    0.60
   8  -5   5    1.30    0.54
   8  -5   5   -0.12    0.78
  -9   5  -5    9.44    1.10
   9  -5   5   10.57    1.05
   9  -5   5    7.90    1.58
 -10   5  -5    4.65    1.35
  10  -5   5    3.68    0.71
  11   4  -5   15.80    1.22
  10   4  -5    0.90    0.48
   9   4  -5    2.60    0.61
  -8  -4   5   14.39    1.43
  -7  -4   5    2.24    0.85
  -6  -4   5   10.53    0.99
  -6  -4   5    7.34    1.28
  -5  -4   5    0.35    1.45
  -5  -4   5    1.00    0.70
  -5  -4   5    1.60    0.45
  -4  -4   5    9.97    0.89
  -4  -4   5    9.56    1.14
   3   4  -5   14.59    1.20
  -3  -4   5   17.26    1.20
  -3  -4   5   16.06    1.11
   2   4  -5   15.58    1.04
  -2  -4   5   15.51    1.05
  -2  -4   5   13.78    1.05
   1   4  -5   -0.01    0.26
   0   4  -5   37.46    2.17
   4  -4   5    5.14    1.35
   4  -4   5    2.32    0.81
   4  -4   5    2.97    1.00
   4  -4   5    2.47    0.68
   5  -4   5   14.40    1.33
   5  -4   5   15.56    1.57
   5  -4   5   14.52    1.68
   6  -4   5    4.23    1.33
   6  -4   5    4.99    1.53
   7  -4   5   16.49    1.78
   7  -4   5   16.34    1.52
   7  -4   5   18.12    1.55
  -8   4  -5    0.02    0.59
   8  -4   5   -0.31    0.56
   8  -4   5    1.05    0.87
  -9   4  -5   23.14    1.69
   9  -4   5   23.87    1.97
   9  -4   5   26.25    1.68
 -10   4  -5    5.42    0.85
  10  -4   5    4.61    0.70
  12   3  -5    3.88    0.74
  11   3  -5    2.04    0.50
   9   3  -5   17.99    1.54
  -9  -3   5   17.71    1.65
  -9  -3   5   18.22    2.14
  -8  -3   5   13.03    1.33
  -8  -3   5   12.15    2.15
  -7  -3   5   29.99    1.88
  -7  -3   5   25.25    2.83
  -6  -3   5    2.89    1.17
  -6  -3   5    3.42    0.72
  -5  -3   5   45.77    3.01
  -5  -3   5   47.67    2.80
   4   3  -5    5.23    0.94
  -4  -3   5    6.88    0.75
  -4  -3   5    8.00    0.91
   3   3  -5   12.31    0.98
  -3  -3   5   13.38    0.98
  -3  -3   5   12.01    0.96
   2   3  -5   78.38    4.06
  -2  -3   5   63.12    4.09
   1   3  -5   58.13    2.99
   1   3  -5   45.65    2.98
   0   3  -5    1.92    0.45
   0   3  -5    2.02    0.36
  -1   3  -5    1.11    0.36
  -2   3  -5   56.42    3.27
  -3   3  -5    0.23    0.53
   3  -3   5    0.58    0.78
   4  -3   5   12.82    1.33
   4  -3   5   16.61    1.70
   4  -3   5   14.99    1.62
   4  -3   5   15.84    1.28
   5  -3   5    3.90    1.37
   5  -3   5    1.05    0.54
   5  -3   5    2.10    0.63
   5  -3   5    1.99    0.74
   6  -3   5   -0.02    0.57
   6  -3   5    0.12    0.81
   7  -3   5    4.09    1.42
   7  -3   5    4.44    1.24
  -8   3  -5    5.20    1.12
   8  -3   5    5.51    1.36
   8  -3   5    6.11    1.02
  -9   3  -5    0.86    0.49
   9  -3   5    0.26    0.68
   9  -3   5    0.06    0.43
  10  -3   5    4.09    0.70
  12   2  -5    0.80    0.40
  11   2  -5    5.42    1.03
 -11  -2   5    6.51    1.29
  10   2  -5    6.57    1.12
 -10  -2   5    4.49    1.34
   9   2  -5    8.50    1.27
  -9  -2   5   11.77    1.77
  -9  -2   5    7.49    1.20
  -8  -2   5    2.88    0.97
  -8  -2   5    1.49    0.99
  -7  -2   5    2.05    0.76
  -7  -2   5    0.51    1.00
  -6  -2   5   11.72    0.99
  -5  -2   5    0.46    0.57
  -5  -2   5    0.24    0.36
   4   2  -5    3.39    0.76
  -4  -2   5    2.46    0.66
  -4  -2   5    1.85    0.61
   3   2  -5    3.14    0.57
  -3  -2   5    3.56    0.59
   2   2  -5   15.35    1.04
   1   2  -5   12.84    0.84
   1   2  -5   11.58    0.85
   0   2  -5    0.59    0.23
  -1   2  -5  103.81    5.86
  -2   2  -5   15.97    1.13
   2  -2   5   15.99    1.32
  -3   2  -5   38.01    2.39
   3  -2   5   35.18    2.66
  -4   2  -5    0.91    1.03
   4  -2   5    0.57    0.54
   4  -2   5    0.81    0.75
   4  -2   5    1.32    0.50
   4  -2   5   -0.39    0.74
   5  -2   5   13.86    1.61
   5  -2   5   13.24    1.25
   5  -2   5   15.07    1.62
   5  -2   5   14.90    1.30
   6  -2   5   -0.41    0.74
   6  -2   5   -0.38    0.72
   7  -2   5   15.49    1.48
   7  -2   5   14.19    1.61
   7  -2   5   17.84    1.76
  -8   2  -5   -0.38    0.52
   8  -2   5    0.62    0.50
   8  -2   5   -0.02    0.72
  -9   2  -5    5.02    0.85
   9  -2   5    3.84    0.83
   9  -2   5    3.77    1.28
 -10   2  -5    0.53    0.46
  12   1  -5    0.66    0.48
 -12  -1   5    0.75    0.57
  11   1  -5   -0.79    0.53
 -11  -1   5    0.20    0.51
  10   1  -5   -0.19    0.66
 -10  -1   5    0.30    0.69
   9   1  -5   -0.55    0.71
  -9  -1   5   -0.09    0.61
  -9  -1   5    0.23    0.81
  -8  -1   5   30.82    2.41
  -8  -1   5   29.26    2.04
  -7  -1   5   -0.21    0.88
  -7  -1   5    1.42    0.51
  -6  -1   5    0.40    0.41
  -5  -1   5   46.95    2.75
  -5  -1   5   41.06    2.58
   4   1  -5   26.02    1.72
  -4  -1   5   25.01    1.61
  -4  -1   5   27.59    1.72
   3   1  -5    5.99    0.66
  -3  -1   5    5.76    0.60
   2   1  -5   50.89    2.97
   1   1  -5    0.82    0.24
   1   1  -5    0.92    0.30
   0   1  -5   -0.02    0.24
  -1   1  -5    0.98    0.30
   1  -1   5    1.10    0.41
  -2   1  -5    8.50    0.86
   2  -1   5    9.32    1.21
   4  -1   5    0.69    0.71
   4  -1   5    0.04    0.77
   4  -1   5    0.33    0.47
   5  -1   5   20.19    1.47
   5  -1   5   18.05    1.80
   5  -1   5   20.52    1.55
   5  -1   5   19.15    1.83
   6  -1   5   12.32    1.56
   6  -1   5   11.56    1.53
   6  -1   5   13.89    1.29
   7  -1   5    1.33    0.76
   7  -1   5    0.74    0.70
   7  -1   5   -0.62    0.71
  -8   1  -5   -0.57    0.51
   8  -1   5    0.06    0.50
   8  -1   5    0.71    0.59
  -9   1  -5    2.76    0.83
   9  -1   5    2.98    0.83
  12   0  -5   10.80    1.31
 -12   0   5   11.62    1.13
  11   0  -5   -1.00    0.60
 -11   0   5   -0.08    0.51
  10   0  -5   10.89    1.65
 -10   0   5   11.73    1.41
   9   0  -5   -0.03    0.80
  -9   0   5    0.45    0.66
  -9   0   5   -0.21    0.75
   8   0  -5   30.26    2.53
  -8   0   5   35.21    2.13
  -8   0   5   31.53    2.40
  -7   0   5   33.55    2.14
  -7   0   5   33.61    2.48
  -6   0   5   12.70    1.56
  -6   0   5   14.33    1.06
  -5   0   5    5.70    0.65
   4   0  -5    5.63    0.78
  -4   0   5    5.48    0.64
   3   0  -5   32.80    1.97
  -3   0   5   30.98    1.91
   2   0  -5  126.33    7.30
   2   0  -5  131.56    7.30
   1   0  -5   27.52    1.68
   0   0  -5   29.18    1.79
  -1   0  -5   16.12    1.12
   1   0   5   15.45    1.30
  -2   0  -5   15.98    1.28
  -3   0  -5    1.96    0.86
   3   0   5    2.05    0.58
   3   0   5    1.47    0.51
   3   0   5    2.62    0.76
   4   0   5    2.53    0.94
   4   0   5    4.89    1.33
   4   0   5    5.15    1.07
   4   0   5    4.14    0.91
   5   0   5   13.63    1.68
   5   0   5   14.69    1.26
   5   0   5   14.26    1.34
   5   0   5   17.25    1.55
   6   0   5    1.65    0.73
   6   0   5    1.19    0.67
   6   0   5    3.75    1.16
   7   0   5    6.45    1.44
   7   0   5    6.75    1.29
   7   0   5    5.28    1.32
   8   0   5    0.53    0.51
   8   0   5    1.67    0.63
  -9   0  -5   14.79    1.16
   9   0   5   14.24    1.18
   9   0   5   12.83    1.33
 -12   1   5    0.55    0.42
  11  -1  -5    3.63    1.38
  10  -1  -5   -1.36    0.88
 -10   1   5   -0.18    0.59
   9  -1  -5    4.11    1.09
  -9   1   5    3.46    0.99
  -9   1   5    3.77    1.28
   8  -1  -5    8.50    2.18
  -8   1   5    5.17    1.33
  -8   1   5    6.16    0.86
  -7   1   5   -0.19    0.68
  -7   1   5    0.04    0.42
  -6   1   5    3.48    1.29
  -5   1   5   48.53    2.85
   4  -1  -5    8.08    0.95
  -4   1   5    7.39    0.67
   3  -1  -5   83.23    4.80
   3  -1  -5   84.33    4.78
  -3   1   5   81.70    4.72
   2  -1  -5    1.61    0.46
   2  -1  -5    2.26    0.59
   1  -1  -5   19.58    1.28
   0  -1  -5   83.58    4.39
   0   1   5   68.48    4.41
  -1  -1  -5   43.86    2.66
  -2  -1  -5   -0.49    0.66
   3   1   5   12.08    1.18
   3   1   5   12.35    1.24
   3   1   5   12.17    3.68
   3   1   5   11.56    1.52
   4   1   5    5.96    1.28
   4   1   5    4.00    1.10
   4   1   5    5.83    0.95
   4   1   5    3.77    1.03
   5   1   5    1.25    0.68
   5   1   5    3.34    1.15
   5   1   5    1.09    0.78
   6   1   5   19.12    1.75
   6   1   5   20.80    1.85
   6   1   5   21.58    1.73
   7   1   5    9.33    1.21
   7   1   5    8.57    1.32
  -8  -1  -5    7.86    1.03
   8   1   5    7.57    1.04
   8   1   5    7.52    1.13
  -9  -1  -5    0.14    0.46
   9   1   5    0.39    0.70
   9   1   5   -0.05    0.60
 -12   2   5   12.90    1.08
 -11   2   5    0.30    0.48
 -10   2   5    0.33    0.57
  -9   2   5    9.37    1.27
  -8   2   5   -0.49    0.47
  -8   2   5    0.55    0.62
  -7   2   5    5.31    0.73
  -7   2   5    4.52    1.01
  -7   2   5    6.53    1.24
  -6   2   5   29.30    2.20
  -6   2   5   30.29    1.85
  -5   2   5   13.54    0.96
   4  -2  -5    0.39    0.56
   4  -2  -5    0.13    0.42
  -4   2   5    0.15    0.26
   3  -2  -5    2.87    0.60
   3  -2  -5    2.39    0.78
  -3   2   5    2.04    0.50
   2  -2  -5   14.98    1.06
   1  -2  -5   28.03    1.77
   0  -2  -5  127.42    7.25
  -1  -2  -5   32.29    2.11
   2   2   5   10.13    1.63
   2   2   5   14.92    1.35
   2   2   5   13.48    1.32
   3   2   5    0.52    0.71
   4   2   5    2.54    0.74
   4   2   5    2.92    1.10
   4   2   5    1.98    1.07
   4   2   5    2.15    0.55
   5   2   5    9.04    1.75
   5   2   5   11.05    1.17
   5   2   5   12.20    1.39
   5   2   5    9.87    1.33
   6   2   5   14.88    1.67
   6   2   5   15.21    1.43
   7   2   5   12.09    1.49
   7   2   5   15.03    1.30
  -8  -2  -5    9.90    1.05
   8   2   5    9.18    1.34
   8   2   5    8.31    1.08
 -12   3   5   -0.15    0.39
 -11   3   5   12.63    1.20
 -10   3   5    5.41    1.04
  -8   3   5    5.04    1.18
  -8   3   5    4.33    1.32
  -7   3   5    0.89    0.35
  -7   3   5    1.10    0.55
  -7   3   5    1.89    0.74
  -6   3   5   10.02    1.41
  -6   3   5   13.13    0.96
  -6   3   5   11.41    1.25
   5  -3  -5   -0.71    0.63
  -5   3   5    0.80    0.32
   4  -3  -5    8.61    1.04
  -4   3   5    8.76    0.72
   3  -3  -5   20.77    1.47
   2  -3  -5   25.52    1.68
   1  -3  -5    0.49    0.36
   1  -3  -5    0.88    0.43
   0  -3  -5   30.05    2.01
   2   3   5    0.18    0.60
   2   3   5    0.28    0.60
   2   3   5    0.27    0.72
   3   3   5   28.87    2.08
   3   3   5   32.15    2.12
   3   3   5   32.10    2.21
   4   3   5    1.72    0.73
   4   3   5    0.42    0.54
   4   3   5    0.69    0.65
   5   3   5    9.27    1.25
   5   3   5    9.78    1.19
   6   3   5   65.72    3.93
  -7  -3  -5    0.41    0.55
   7   3   5    0.23    0.71
   7   3   5    0.35    0.50
  -8  -3  -5    0.47    0.62
   8   3   5    1.01    0.49
 -12   4   5   17.91    1.31
 -11   4   5    3.06    0.88
  10  -4  -5    0.12    0.62
 -10   4   5   -0.68    0.53
 -10   4   5   -1.13    0.74
  -9   4   5    9.05    1.15
  -9   4   5   11.25    1.38
  -8   4   5   23.81    1.69
  -8   4   5   21.08    1.78
  -7   4   5    9.15    1.18
  -7   4   5   10.28    1.21
  -6   4   5   29.93    2.17
  -6   4   5   33.81    2.20
   5  -4  -5    6.78    1.50
  -5   4   5    8.38    1.21
  -5   4   5    6.73    1.14
   4  -4  -5  187.77   10.68
   3  -4  -5    0.59    0.59
   2  -4  -5    8.35    1.06
   2  -4  -5    8.09    0.72
   1  -4  -5    2.76    1.02
   1  -4  -5    4.61    0.62
   0  -4  -5   56.44    3.28
   0   4   5   49.71    3.50
   0   4   5   58.37    3.33
   1   4   5    7.01    1.25
   1   4   5    6.15    1.26
   1   4   5    8.09    1.65
   2   4   5   16.06    1.46
   2   4   5   17.86    1.59
   2   4   5   12.09    1.49
   3   4   5    1.41    0.62
   3   4   5    2.01    0.68
   3   4   5    1.58    0.68
   4   4   5    5.29    1.21
   4   4   5    6.16    1.15
   5   4   5   31.40    2.18
   6   4   5   -0.23    0.47
  -7  -4  -5    0.48    0.69
   7   4   5    2.51    0.77
 -12   5   5    0.46    0.34
 -11   5   5    0.03    0.45
  10  -5  -5    0.88    0.56
 -10   5   5    1.26    0.54
 -10   5   5    0.45    0.61
   9  -5  -5    1.08    0.50
  -9   5   5    0.99    0.59
  -9   5   5    1.58    0.57
  -8   5   5    1.84    0.57
  -8   5   5    1.86    0.57
  -7   5   5    1.81    0.55
  -6   5   5    2.92    0.64
  -6   5   5    2.15    0.56
  -5   5   5    2.58    0.63
  -5   5   5    3.34    0.96
  -4   5   5    0.24    0.49
  -4   5   5    0.10    0.53
   3  -5  -5   34.16    1.96
  -3   5   5   28.59    2.18
  -3   5   5   33.87    2.15
   2  -5  -5    4.93    0.59
  -2   5   5    5.49    0.96
   1  -5  -5    3.93    0.60
  -1   5   5    3.01    1.02
  -1   5   5    2.40    0.62
   0  -5  -5   10.78    1.11
   0   5   5   12.85    1.35
   0   5   5   12.90    1.32
   0   5   5    9.69    1.76
   1   5   5    2.00    0.74
   1   5   5    4.87    1.36
   1   5   5    2.89    0.73
   2   5   5    1.42    0.68
   2   5   5    1.92    0.66
   2   5   5    2.39    0.73
   3   5   5   60.35    4.28
   3   5   5   75.11    4.30
   3   5   5   78.94    4.25
   4   5   5    5.90    1.29
   4   5   5    6.78    1.18
   5   5   5   -0.18    0.50
  -6  -5  -5    5.34    1.51
   6   5   5    2.68    0.78
   7   5   5    6.36    0.80
 -12   6   5    0.28    0.31
 -11   6   5    2.94    0.72
 -11   6   5    1.53    0.51
  10  -6  -5   -0.74    0.52
 -10   6   5    0.68    0.51
 -10   6   5    0.33    0.47
   9  -6  -5    3.17    0.69
  -9   6   5    3.44    0.98
  -9   6   5    3.45    0.98
   8  -6  -5   60.43    3.43
  -8   6   5   56.99    3.52
  -8   6   5   55.15    3.48
   7  -6  -5    5.15    0.69
  -7   6   5    4.94    0.95
  -7   6   5    5.50    1.06
   6  -6  -5   44.54    2.61
  -6   6   5   43.89    2.72
  -6   6   5   41.17    2.74
   5  -6  -5   11.78    0.92
  -5   6   5   12.84    1.22
  -5   6   5   12.62    1.18
   4  -6  -5    0.06    0.26
  -4   6   5    0.45    0.47
  -4   6   5   -0.41    0.56
   3  -6  -5    0.42    0.30
  -3   6   5    0.04    0.43
  -3   6   5   -0.37    0.57
   2  -6  -5    6.70    0.69
  -2   6   5    6.28    1.20
  -2   6   5    8.01    1.01
   1  -6  -5    0.54    0.41
  -1   6   5    0.05    1.74
  -1   6   5    3.70    1.36
  -1   6   5    0.61    0.55
   0  -6  -5   14.50    1.30
   0   6   5   13.21    1.54
   0   6   5   11.37    1.67
   0   6   5   12.22    1.35
   1   6   5    6.41    1.36
   1   6   5    7.88    1.45
   1   6   5    5.29    1.46
   2   6   5    4.43    1.18
   2   6   5    5.76    1.34
   2   6   5    4.64    1.32
   3   6   5   31.62    2.15
   3   6   5   30.45    2.28
   4   6   5   26.78    1.91
   5   6   5    8.15    0.97
   6   6   5    2.61    0.71
 -12   7   5    0.32    0.32
 -11   7   5    3.30    0.67
 -11   7   5    3.76    0.80
  10  -7  -5   11.37    1.10
 -10   7   5   10.97    1.02
 -10   7   5   13.04    1.11
   9  -7  -5    3.80    0.72
  -9   7   5    3.59    0.88
  -9   7   5    3.78    0.95
   8  -7  -5    9.22    0.91
  -8   7   5   11.30    1.20
  -8   7   5   11.00    1.08
   7  -7  -5   19.69    1.33
  -7   7   5   17.95    1.46
  -7   7   5   19.66    1.50
   6  -7  -5    1.37    0.50
  -6   7   5    2.82    0.99
  -6   7   5    1.45    0.51
   5  -7  -5   21.35    1.37
  -5   7   5   21.12    1.49
  -5   7   5   18.78    1.62
   4  -7  -5   16.16    1.13
  -4   7   5   16.34    1.37
  -4   7   5   15.70    1.49
   3  -7  -5   13.98    0.98
  -3   7   5   13.41    1.22
  -3   7   5   11.29    1.43
   2  -7  -5    6.96    0.73
  -2   7   5    7.54    1.31
   1  -7  -5   16.45    1.13
  -1   7   5   11.54    1.36
  -1   7   5   12.33    1.98
  -1   7   5   13.65    1.56
   0  -7  -5   -0.55    1.05
   0   7   5    0.95    0.81
   0   7   5   -0.15    0.61
   1   7   5    5.15    1.43
   1   7   5    5.71    1.27
   2   7   5    9.08    1.36
   3   7   5   -0.01    0.60
   4   7   5    3.77    0.89
   5   7   5    3.58    0.71
   6   7   5    9.99    0.89
 -12   8   5    5.46    0.77
 -11   8   5    0.75    0.34
 -11   8   5   -0.43    0.37
  10  -8  -5    1.54    0.57
 -10   8   5    1.02    0.40
 -10   8   5    0.73    0.42
   9  -8  -5    1.96    0.51
  -9   8   5    0.79    0.39
  -9   8   5    0.96    0.46
   8  -8  -5    2.07    0.59
  -8   8   5    1.11    0.39
  -8   8   5    3.41    0.91
   7  -8  -5    5.66    0.70
  -7   8   5    6.64    0.82
  -7   8   5    6.20    1.06
   6  -8  -5   12.35    0.95
  -6   8   5   11.72    1.35
  -6   8   5   11.26    1.06
   5  -8  -5    4.03    0.60
  -5   8   5    3.72    0.92
  -5   8   5    6.02    1.21
   4  -8  -5    2.25    0.55
  -4   8   5    2.19    0.85
  -4   8   5    4.87    1.36
  -3   8   5    2.43    0.92
   2  -8  -5   30.35    1.93
  -2   8   5   30.55    2.06
   1  -8  -5    2.26    0.89
  -1   8   5    4.91    1.73
  -1   8   5    1.67    0.60
   0   8   5   12.51    1.55
   0   8   5   12.41    1.44
   1   8   5    1.70    0.68
   2   8   5    0.03    0.60
   3   8   5    0.95    0.54
   4   8   5    6.64    0.90
   5   8   5    0.64    0.39
 -11   9   5    2.33    0.82
 -11   9   5    2.29    0.57
  10  -9  -5    8.96    1.13
 -10   9   5   11.72    1.02
 -10   9   5   10.77    0.92
   9  -9  -5    8.33    0.90
  -9   9   5    9.28    1.00
  -9   9   5    8.19    0.85
   8  -9  -5   21.34    1.51
  -8   9   5   21.11    1.67
  -8   9   5   24.87    1.56
   7  -9  -5    2.66    0.55
  -7   9   5    2.89    0.77
  -7   9   5    1.81    0.61
   6  -9  -5    2.92    0.54
  -6   9   5    2.11    0.50
  -6   9   5    1.72    0.68
   5  -9  -5    1.37    0.55
  -5   9   5    3.12    0.77
   4  -9  -5    0.23    0.36
  -4   9   5   -0.04    0.47
   3  -9  -5    1.71    0.63
  -3   9   5    2.45    0.86
   2  -9  -5   11.76    1.13
  -2   9   5   15.53    1.34
   1  -9  -5    0.65    0.71
  -1   9   5    0.62    0.61
   0   9   5    7.10    1.45
   1   9   5   -0.52    0.63
   2   9   5    3.50    1.02
   3   9   5    2.69    0.86
   4   9   5    4.17    0.77
 -11  10   5    4.03    0.64
 -10  10   5    0.43    0.28
   9 -10  -5    0.46    0.49
  -9  10   5    1.05    0.30
   8 -10  -5    1.83    0.62
  -8  10   5    0.87    0.35
   7 -10  -5    4.40    0.61
  -7  10   5    3.30    0.66
   6 -10  -5    0.02    0.35
  -6  10   5    0.24    0.41
   5 -10  -5    1.55    0.56
  -5  10   5    0.73    0.46
   4 -10  -5    5.09    0.70
  -4  10   5    4.26    0.86
   3 -10  -5    1.54    0.52
  -3  10   5    3.35    0.96
   2 -10  -5    2.79    0.88
  -2  10   5    3.48    1.00
   1 -10  -5   14.87    1.67
  -1  10   5   19.44    1.73
   0  10   5    2.41    0.83
   1  10   5    2.94    1.15
   2  10   5    0.40    0.53
   3  10   5    0.52    0.50
 -10  11   5    0.68    0.29
   9 -11  -5    0.48    0.58
  -9  11   5    0.66    0.28
   8 -11  -5    2.06    0.65
  -8  11   5    1.40    0.54
   7 -11  -5    4.40    0.65
  -7  11   5    3.21    0.64
   6 -11  -5    0.50    0.41
  -6  11   5    1.18    0.37
   5 -11  -5   20.92    1.44
  -5  11   5   21.95    1.48
   4 -11  -5    0.23    0.48
  -4  11   5    0.17    0.45
   3 -11  -5    3.47    0.83
  -3  11   5    3.08    0.89
  -9  12   5    4.03    0.52
   8 -12  -5   -0.20    0.53
  -8  12   5   -0.18    0.26
   7 -12  -5    6.29    0.77
  -7  12   5    6.31    0.68
   6 -12  -5   -0.02    0.46
  -6  12   5    0.42    0.36
   5 -12  -5   -0.50    0.46
  -5  12   5    0.25    0.43
   4 -12  -5    2.61    0.82
   3 -12  -5    1.03    0.73
  -7  13   5    0.62    0.31
  -6  13   5    6.40    0.76
  -5  13   5    4.46    1.10
   0  16  -6    2.97    0.68
   3  15  -6    1.51    0.58
   2  15  -6    6.83    0.77
  -1 -15   6   -0.12    0.54
  -1 -15   6    0.29    0.62
   0 -15   6    8.56    0.94
   0 -15   6    8.29    1.17
   1 -15   6   13.04    1.41
   1 -15   6   12.81    1.17
   2 -15   6    0.80    0.75
   2 -15   6   -0.18    0.74
   4  14  -6   -0.33    0.34
   3  14  -6    0.29    0.41
  -3 -14   6   -0.63    0.53
  -2 -14   6    3.22    0.86
  -2 -14   6    3.62    0.76
  -1 -14   6    0.66    0.47
  -1 -14   6    1.14    0.52
   0 -14   6    1.17    0.58
   0 -14   6    0.97    0.57
   1 -14   6    0.25    0.57
   1 -14   6    0.12    0.45
   1 -14   6    0.36    0.51
   2 -14   6    3.40    0.86
   2 -14   6    3.64    1.01
   2 -14   6    4.91    0.98
   3 -14   6    0.19    0.46
   3 -14   6    0.50    0.48
   3 -14   6    0.39    0.92
   4 -14   6    0.23    0.49
   4 -14   6    1.47    0.51
   5 -14   6    1.76    0.50
   5 -14   6    1.72    0.59
  -6  14  -6    1.49    0.62
   6 -14   6    1.34    0.70
   6  13  -6    2.44    0.89
   5  13  -6    2.18    0.64
  -5 -13   6    4.41    1.04
   4  13  -6    0.98    0.44
  -4 -13   6    0.17    0.55
  -3 -13   6   12.06    1.06
  -3 -13   6   11.91    1.07
  -2 -13   6    9.56    0.95
  -2 -13   6    9.26    1.04
  -1 -13   6    3.97    1.09
  -1 -13   6    2.16    0.75
   0 -13   6    4.17    0.84
   0 -13   6    3.06    1.04
   0 -13   6    4.24    1.00
   1 -13   6    0.15    0.52
   1 -13   6   -0.86    0.56
   1 -13   6   -0.37    0.58
   2 -13   6    1.65    0.56
   2 -13   6    1.26    0.66
   3 -13   6    0.96    0.83
   3 -13   6    2.71    0.98
   3 -13   6    1.35    0.58
   4 -13   6    3.91    0.94
   4 -13   6    4.91    0.98
   5 -13   6    3.44    1.01
   5 -13   6    2.55    0.87
  -6  13  -6    0.06    0.50
   6 -13   6   -0.23    0.72
   6 -13   6    0.30    0.45
  -7  13  -6    6.65    0.92
   7 -13   6    7.88    1.02
   7  12  -6    0.69    0.42
   6  12  -6   -0.42    0.41
   5  12  -6    0.82    0.47
  -5 -12   6    0.10    0.56
  -4 -12   6    1.33    0.55
  -4 -12   6    2.60    0.80
  -3 -12   6   20.26    1.42
  -3 -12   6   17.03    1.33
  -2 -12   6   12.35    1.11
  -2 -12   6   15.99    1.38
  -1 -12   6   20.80    1.54
  -1 -12   6   18.21    1.40
  -1 -12   6   18.35    1.52
   0 -12   6    4.67    1.01
   0 -12   6    3.06    0.79
   0 -12   6    3.98    0.97
   1 -12   6    6.28    1.13
   1 -12   6    5.99    0.95
   1 -12   6    7.00    1.15
   2 -12   6   -0.21    0.64
   2 -12   6    0.31    0.53
   2 -12   6   -0.01    0.56
   3 -12   6    3.30    1.06
   3 -12   6    1.52    0.53
   3 -12   6    1.82    0.85
  -4  12  -6    4.41    0.83
   4 -12   6    4.22    1.08
  -5  12  -6    0.60    0.59
   5 -12   6   -0.04    0.58
   5 -12   6   -0.16    0.45
  -6  12  -6   -0.28    0.50
   6 -12   6   -0.63    0.44
   6 -12   6   -0.36    0.62
  -7  12  -6    0.37    0.41
   7 -12   6    1.03    0.45
  -8  12  -6    6.37    0.74
   8 -12   6    5.87    0.97
   7  11  -6    9.48    1.11
   6  11  -6    5.03    0.92
  -6 -11   6    6.06    1.01
   5  11  -6    1.88    0.59
  -5 -11   6    0.74    0.55
  -5 -11   6    0.86    0.40
  -4 -11   6    2.05    0.75
  -4 -11   6    3.09    0.86
  -3 -11   6    0.27    0.52
  -3 -11   6    0.31    0.48
  -2 -11   6   13.53    1.34
  -2 -11   6   14.85    1.28
  -2 -11   6   13.65    1.15
  -1 -11   6    0.92    0.52
  -1 -11   6    0.05    0.50
  -1 -11   6   -0.27    0.53
   0 -11   6    2.84    1.02
   0 -11   6    4.19    1.08
   0 -11   6    5.17    0.84
   1 -11   6    0.63    0.60
   1 -11   6    0.14    0.56
   1 -11   6   -0.60    0.49
   2 -11   6    2.84    1.06
   2 -11   6    0.88    0.67
   2 -11   6    0.69    0.53
  -3  11  -6    3.78    1.47
   3 -11   6    3.49    1.02
   3 -11   6    5.05    1.07
   4 -11   6    9.57    1.15
   4 -11   6   10.89    1.27
   5 -11   6    0.86    0.62
   5 -11   6    0.91    0.52
   6 -11   6   11.42    1.17
   6 -11   6   11.66    1.34
  -7  11  -6   15.77    1.30
   7 -11   6   17.11    1.33
  -8  11  -6    2.65    0.72
   8 -11   6    3.53    0.83
  -9  11  -6    5.57    0.67
   9 -11   6    5.38    0.92
   8  10  -6    5.49    0.72
   7  10  -6   42.64    2.50
  -7 -10   6   36.57    2.58
   6  10  -6   17.53    1.43
  -6 -10   6   15.03    1.34
  -5 -10   6    0.01    0.47
  -5 -10   6   -0.57    0.51
  -4 -10   6    0.07    0.47
  -4 -10   6    0.66    0.52
  -3 -10   6   -0.33    0.57
  -3 -10   6    0.63    0.46
  -2 -10   6    6.48    1.16
  -2 -10   6    6.59    0.84
  -2 -10   6    8.50    1.07
  -1 -10   6   24.91    1.72
  -1 -10   6   27.22    1.85
  -1 -10   6   25.58    1.87
   0 -10   6    6.61    1.08
   0 -10   6    7.55    0.87
   0 -10   6    9.21    1.12
   1 -10   6    0.51    0.49
   1 -10   6    1.54    0.58
   1 -10   6    1.15    0.55
   2 -10   6   20.94    1.54
   2 -10   6   20.10    1.64
   2 -10   6   16.65    1.51
   3 -10   6   15.01    1.34
   3 -10   6   14.20    1.48
   4 -10   6   41.91    2.72
   4 -10   6   41.31    2.65
   5 -10   6   10.11    1.15
   5 -10   6    7.89    1.30
   6 -10   6    0.51    0.52
   6 -10   6   -0.16    0.65
   7 -10   6    1.35    0.74
   7 -10   6    2.53    0.86
  -8  10  -6    5.06    0.84
   8 -10   6    6.22    0.86
  -9  10  -6    0.64    0.36
   9 -10   6    0.80    0.43
   9   9  -6    0.80    0.37
   7   9  -6    4.40    1.19
  -7  -9   6    5.23    1.01
   6   9  -6    0.20    0.75
  -6  -9   6   -0.65    0.45
  -6  -9   6    0.71    0.56
  -5  -9   6   27.48    1.87
  -5  -9   6   25.49    1.77
  -4  -9   6    1.54    0.55
  -4  -9   6    2.43    0.69
  -3  -9   6    1.41    0.48
  -3  -9   6    1.17    0.54
  -3  -9   6    0.65    0.64
  -2  -9   6   11.90    1.42
  -2  -9   6   15.75    1.11
  -2  -9   6   11.69    1.26
  -1  -9   6    0.52    0.50
  -1  -9   6   -0.18    0.45
  -1  -9   6    0.18    0.56
   0  -9   6   42.04    2.70
   0  -9   6   40.15    2.68
   0  -9   6   45.48    2.61
   1  -9   6   11.30    1.07
   1  -9   6   11.85    1.25
   1  -9   6   11.81    1.33
   2  -9   6    5.92    1.02
   2  -9   6    4.49    0.99
   2  -9   6    6.58    1.17
   3  -9   6   12.42    1.21
   3  -9   6   11.34    1.36
   4  -9   6    0.68    0.60
   4  -9   6    0.60    0.54
   5  -9   6    1.70    0.66
   5  -9   6    2.96    1.00
   6  -9   6    2.88    1.02
   7  -9   6    1.98    0.72
   7  -9   6    0.87    0.51
   8  -9   6   -0.05    0.44
   8  -9   6   -0.27    0.85
  -9   9  -6    7.42    0.79
   9  -9   6    6.18    0.82
  10   8  -6    1.75    0.62
   9   8  -6    7.95    0.86
  -8  -8   6    7.99    1.33
   7   8  -6   12.33    1.54
  -7  -8   6   11.03    1.15
   6   8  -6    5.71    1.50
  -6  -8   6    3.76    1.04
  -6  -8   6    5.19    0.83
  -5  -8   6   19.21    1.41
  -5  -8   6   18.03    1.49
  -4  -8   6    5.78    1.16
  -4  -8   6    7.44    0.81
  -3  -8   6    0.25    0.67
  -3  -8   6    0.47    0.55
  -3  -8   6    0.04    0.43
  -2  -8   6    9.46    1.23
  -2  -8   6    9.25    1.35
  -2  -8   6    7.90    0.82
  -1  -8   6   36.37    2.17
  -1  -8   6   34.72    2.30
  -1  -8   6   34.14    2.32
   0  -8   6   10.67    1.12
   0  -8   6    9.14    0.87
   0  -8   6    7.13    1.31
   1  -8   6    6.41    1.22
   1  -8   6    4.12    1.01
   1  -8   6    6.40    0.83
   2  -8   6    5.67    1.02
   2  -8   6    6.88    1.36
   2  -8   6    6.26    1.04
   2  -8   6    6.46    1.14
   3  -8   6   39.22    2.59
   3  -8   6   42.16    2.83
   3  -8   6   40.85    2.63
   4  -8   6   32.74    2.26
   4  -8   6   30.41    2.14
   4  -8   6   33.48    2.22
   5  -8   6   34.09    2.24
   5  -8   6   30.97    2.32
   5  -8   6   33.82    2.27
   6  -8   6   25.23    1.94
   6  -8   6   27.37    2.04
  -7   8  -6    0.36    1.00
   7  -8   6    1.01    0.71
   7  -8   6    0.11    0.52
  -8   8  -6    0.80    0.95
   8  -8   6    0.39    0.42
   8  -8   6    1.07    0.83
  -9   8  -6   11.37    0.94
   9  -8   6    8.79    0.99
  10   7  -6   13.26    1.03
   9   7  -6    0.80    0.44
  -8  -7   6    7.30    1.09
   7   7  -6    7.96    1.74
  -7  -7   6    7.61    1.01
  -6  -7   6   44.46    2.73
  -6  -7   6   43.41    2.77
  -5  -7   6    0.22    0.55
  -5  -7   6    2.76    0.75
  -4  -7   6    0.68    0.58
  -4  -7   6    0.00    0.85
  -4  -7   6    0.03    0.43
  -3  -7   6    2.25    0.84
  -3  -7   6    2.71    1.11
  -3  -7   6    3.83    0.62
  -2  -7   6    1.40    0.68
  -2  -7   6    3.42    1.05
  -2  -7   6    1.66    0.57
  -1  -7   6   17.20    1.18
  -1  -7   6   15.81    1.61
  -1  -7   6   15.77    1.43
   0  -7   6    0.55    0.66
   0  -7   6    0.49    0.45
   0  -7   6    0.28    0.53
   1  -7   6    0.70    0.54
   1  -7   6    1.31    0.63
   1  -7   6    2.09    0.79
   2  -7   6    0.88    0.63
   2  -7   6    1.71    0.56
   3  -7   6    4.37    1.17
   3  -7   6    3.10    1.08
   4  -7   6    0.81    0.71
   4  -7   6    0.82    0.62
   4  -7   6   -0.10    0.51
   5  -7   6   12.90    1.37
   5  -7   6   14.47    1.45
   5  -7   6   13.63    1.43
  -6   7  -6   11.18    1.80
   6  -7   6    9.96    1.23
   6  -7   6    9.59    1.42
   6  -7   6    8.66    1.27
  -7   7  -6    4.31    1.50
   7  -7   6    8.40    1.13
   7  -7   6    6.58    1.39
  -8   7  -6    7.42    1.26
   8  -7   6    6.90    1.00
   8  -7   6    4.92    1.31
   9  -7   6   11.09    0.96
  11   6  -6   -0.38    0.37
  10   6  -6    0.45    0.42
   9   6  -6    0.92    0.52
  -9  -6   6    1.47    1.61
  -7  -6   6   13.17    1.13
  -6  -6   6   12.23    1.30
  -6  -6   6   13.46    1.14
  -5  -6   6    0.08    0.55
  -5  -6   6    0.74    0.47
  -4  -6   6    7.42    0.81
  -4  -6   6    7.92    1.20
  -3  -6   6   78.62    4.34
  -3  -6   6   70.66    4.48
  -3  -6   6   75.80    4.56
   2   6  -6    9.25    1.23
  -2  -6   6    9.31    0.83
  -1  -6   6   75.30    4.32
   0  -6   6    7.69    0.82
   1  -6   6   88.41    5.08
   2  -6   6   12.28    1.32
   2  -6   6   12.53    1.35
   3  -6   6    8.73    1.14
   3  -6   6    6.36    1.30
   3  -6   6    7.45    1.16
   4  -6   6    3.97    1.07
   4  -6   6    5.34    1.10
   4  -6   6    6.59    1.23
   5  -6   6    4.02    1.24
   5  -6   6    2.78    0.64
   6  -6   6    0.00    0.60
   6  -6   6   -0.26    0.72
   6  -6   6   -0.44    0.56
   7  -6   6   -0.70    0.69
   7  -6   6   -0.24    0.59
   7  -6   6    0.21    0.57
  -8   6  -6   12.93    1.32
   8  -6   6   11.99    1.43
   8  -6   6   10.85    1.20
  -9   6  -6    6.80    0.97
   9  -6   6    6.07    0.85
   9  -6   6    7.57    1.60
  11   5  -6   -0.60    0.39
  10   5  -6    5.70    0.90
  -9  -5   6    9.57    1.55
  -8  -5   6   44.37    2.77
  -7  -5   6   14.83    1.24
  -6  -5   6    4.25    0.82
  -6  -5   6    4.66    1.09
  -5  -5   6    3.62    0.75
  -5  -5   6    5.25    1.16
  -4  -5   6    0.78    0.41
  -4  -5   6    1.00    0.64
  -4  -5   6   -0.47    0.93
   3   5  -6    0.33    0.72
  -3  -5   6    1.54    0.66
  -3  -5   6    1.87    0.57
   2   5  -6   65.09    3.90
  -2  -5   6   68.69    3.86
   1   5  -6    0.65    0.37
   1   5  -6    1.04    0.41
  -1  -5   6    1.91    0.45
   0  -5   6   39.73    2.41
   3  -5   6    0.96    0.63
   3  -5   6    0.59    0.59
   3  -5   6    1.43    0.59
   4  -5   6    6.72    1.19
   4  -5   6    6.65    0.98
   4  -5   6    7.39    1.24
   4  -5   6    5.22    0.89
   5  -5   6    0.94    0.60
   5  -5   6    1.14    0.61
   5  -5   6    0.54    0.67
   6  -5   6    7.77    1.22
   6  -5   6    7.23    1.26
   6  -5   6    9.89    1.44
   7  -5   6   19.25    1.63
   7  -5   6   19.10    1.78
   7  -5   6   17.90    1.57
   8  -5   6    3.92    1.16
   8  -5   6    0.63    0.51
  -9   5  -6    3.45    0.86
   9  -5   6    4.86    1.26
   9  -5   6    5.20    0.77
  11   4  -6    0.36    0.46
  10   4  -6    1.15    0.52
  -9  -4   6   22.40    1.81
  -8  -4   6   70.03    4.16
  -7  -4   6    2.58    0.78
  -6  -4   6   17.32    1.59
  -6  -4   6   19.69    1.38
  -5  -4   6    8.56    1.32
  -5  -4   6    6.33    0.80
  -4  -4   6   66.77    3.94
  -4  -4   6   62.81    3.77
   3   4  -6   22.66    1.68
  -3  -4   6   23.92    1.52
   2   4  -6  151.71    8.82
  -2  -4   6  161.02    8.80
   1   4  -6   75.11    4.28
   1   4  -6   75.47    4.28
  -1  -4   6   73.07    4.27
   0   4  -6    8.16    0.80
   0   4  -6    6.84    0.69
  -1   4  -6    3.35    0.56
  -2   4  -6   -0.30    0.50
   3  -4   6    1.52    0.70
   3  -4   6    1.22    0.69
   3  -4   6    0.89    0.67
   3  -4   6    2.47    0.89
   4  -4   6    2.66    0.89
   4  -4   6    1.05    0.65
   4  -4   6   -0.07    0.66
   4  -4   6    1.26    0.61
   5  -4   6    1.35    0.70
   5  -4   6    1.51    0.66
   5  -4   6    2.16    0.60
   6  -4   6    4.60    1.21
   6  -4   6    6.57    1.45
   6  -4   6    6.15    1.04
   7  -4   6    0.06    0.71
   7  -4   6    1.02    0.65
   7  -4   6   -0.02    0.58
  -8   4  -6   22.54    1.62
   8  -4   6   22.32    1.73
   8  -4   6   19.46    1.57
  -9   4  -6    6.61    0.82
   9  -4   6    7.20    1.22
   9  -4   6    5.74    0.82
  12   3  -6    0.32    0.42
  11   3  -6    0.02    0.50
  10   3  -6    1.08    0.57
 -10  -3   6    0.75    0.82
   9   3  -6    6.05    1.31
  -9  -3   6    8.13    1.14
  -8  -3   6    1.18    0.60
  -8  -3   6    0.56    0.95
  -7  -3   6   -1.33    1.02
  -7  -3   6   -0.16    0.49
  -6  -3   6   10.13    0.93
  -6  -3   6   12.80    1.43
  -5  -3   6   -0.63    0.77
  -5  -3   6   -0.03    0.41
  -4  -3   6   19.96    1.56
  -4  -3   6   20.28    1.34
   3   3  -6    0.94    0.51
  -3  -3   6    1.91    0.52
  -2  -3   6  206.79   11.58
   1   3  -6   52.10    2.98
   1   3  -6   49.61    2.99
   0   3  -6   11.69    1.03
   0   3  -6   12.82    0.93
  -1   3  -6   20.35    1.33
  -2   3  -6    4.75    0.91
   3  -3   6    9.95    1.32
   3  -3   6    9.78    1.47
   3  -3   6   10.43    1.15
   3  -3   6   10.97    1.46
   4  -3   6   92.74    5.41
   4  -3   6   91.88    5.51
   4  -3   6   93.99    5.56
   4  -3   6   94.33    5.38
   5  -3   6    2.32    0.85
   5  -3   6    3.25    1.38
   6  -3   6    8.57    1.48
   6  -3   6    6.84    1.28
   6  -3   6    9.79    1.11
   7  -3   6   -0.19    0.63
   7  -3   6   -0.89    0.60
   7  -3   6    0.45    0.75
  -8   3  -6    0.99    0.54
   8  -3   6   -0.59    0.63
   8  -3   6    0.80    0.48
   9  -3   6    1.19    0.67
  12   2  -6    0.13    0.47
  11   2  -6   13.36    1.35
 -11  -2   6   15.39    1.49
  10   2  -6   26.26    1.89
 -10  -2   6   25.83    2.04
 -10  -2   6   22.46    1.96
   9   2  -6    0.78    0.66
  -9  -2   6    1.21    0.78
  -9  -2   6   -0.18    0.61
  -8  -2   6    0.27    0.84
  -8  -2   6    1.59    0.61
  -7  -2   6    7.00    0.90
  -6  -2   6    2.02    0.59
  -6  -2   6    0.47    0.93
  -6  -2   6    5.17    1.63
  -5  -2   6   58.23    3.35
  -5  -2   6   56.44    3.58
  -4  -2   6    7.42    0.72
   3   2  -6   96.22    5.52
  -3  -2   6   95.99    5.46
   2   2  -6   -0.04    0.38
   2   2  -6    0.46    0.31
  -2  -2   6    0.49    0.39
   1   2  -6   12.42    1.06
   1   2  -6   14.16    0.98
   0   2  -6    5.91    0.67
  -1   2  -6  185.42   10.43
  -2   2  -6    3.83    0.99
  -3   2  -6   12.36    2.01
   3  -2   6   16.12    1.36
   3  -2   6   17.19    1.95
   3  -2   6   15.04    1.62
   3  -2   6   18.46    1.33
   4  -2   6    0.57    0.68
   4  -2   6    0.80    0.52
   4  -2   6   -0.25    0.84
   4  -2   6    0.67    0.50
   5  -2   6    1.49    0.56
   5  -2   6    3.37    1.30
   5  -2   6    1.23    0.82
   5  -2   6    1.56    0.52
   6  -2   6    5.39    1.33
   6  -2   6    5.70    1.50
   6  -2   6    5.78    1.05
   7  -2   6    0.97    0.60
   7  -2   6    0.86    0.63
   7  -2   6    1.01    0.66
  -8   2  -6    0.81    0.53
   8  -2   6    0.31    0.56
   8  -2   6    0.55    0.49
  -9   2  -6    3.02    0.76
   9  -2   6    5.22    1.08
  12   1  -6    0.21    0.62
  11   1  -6   14.89    1.53
 -11  -1   6   16.88    1.44
  10   1  -6    1.71    0.74
 -10  -1   6    0.01    0.62
 -10  -1   6   -1.09    0.81
   9   1  -6    0.07    0.79
  -9  -1   6    1.27    0.63
  -9  -1   6    0.28    0.69
  -8  -1   6    3.16    0.91
  -8  -1   6    2.37    0.88
  -7  -1   6   92.30    5.47
  -7  -1   6   89.82    5.26
  -6  -1   6   12.03    0.99
  -6  -1   6    9.39    1.50
  -5  -1   6    0.04    0.30
  -4  -1   6   58.14    3.36
   3   1  -6   21.20    1.46
  -3  -1   6   18.73    1.27
   2   1  -6    3.43    0.57
   2   1  -6    2.53    0.69
  -2  -1   6    2.13    0.58
   1   1  -6   24.73    1.56
   1   1  -6   23.78    1.65
   0   1  -6   13.86    1.07
  -1   1  -6    4.04    0.76
  -2   1  -6    0.14    0.69
   2  -1   6   -0.53    0.67
   2  -1   6   -0.94    0.81
   3  -1   6    5.22    0.97
   3  -1   6    3.74    0.94
   3  -1   6    6.13    1.94
   3  -1   6    3.74    0.81
   4  -1   6   31.72    2.51
   4  -1   6   30.02    2.00
   4  -1   6   29.95    2.18
   4  -1   6   28.79    1.97
   5  -1   6   13.68    1.25
   5  -1   6   12.65    1.53
   5  -1   6   13.77    1.79
   5  -1   6   13.44    1.20
   6  -1   6    0.85    0.70
   6  -1   6    1.92    0.74
   6  -1   6    1.03    0.65
   7  -1   6    8.40    1.31
   7  -1   6    8.81    1.16
   7  -1   6    7.57    1.24
  -8   1  -6    3.33    0.92
   8  -1   6    3.78    1.02
   9  -1   6    2.44    0.85
   9  -1   6    3.65    0.94
 -12   0   6    0.92    0.46
  11   0  -6    0.90    0.77
 -11   0   6   -0.61    0.55
  10   0  -6    4.92    1.73
 -10   0   6    0.27    0.63
   9   0  -6    4.46    1.80
  -9   0   6    0.49    0.66
   8   0  -6    6.74    2.03
  -8   0   6    3.54    1.20
  -8   0   6    3.89    0.81
  -7   0   6   46.12    2.72
  -7   0   6   42.50    2.87
  -6   0   6   -0.03    0.67
  -6   0   6   -0.05    0.38
  -5   0   6   32.31    1.98
  -4   0   6   42.85    2.53
   3   0  -6   14.95    1.29
   3   0  -6   16.87    1.20
  -3   0   6   15.73    1.10
   2   0  -6  123.32    6.46
   2   0  -6  110.22    6.46
  -2   0   6  105.32    6.38
   1   0  -6   53.89    3.19
   0   0  -6    4.26    0.71
  -1   0  -6   86.02    5.02
  -2   0  -6    3.94    1.38
   2   0   6    2.17    0.85
   2   0   6    2.53    0.59
   2   0   6    2.07    0.52
   3   0   6    3.21    0.78
   3   0   6    2.59    1.21
   3   0   6    5.13    0.87
   3   0   6    2.84    0.87
   4   0   6    3.41    0.98
   4   0   6    3.98    1.23
   4   0   6    2.13    1.03
   5   0   6   10.82    1.11
   5   0   6   10.73    1.37
   5   0   6    9.84    1.80
   5   0   6   10.26    1.20
   6   0   6    2.58    0.73
   6   0   6    3.86    1.20
   6   0   6    4.32    1.46
   7   0   6   17.55    1.87
   7   0   6   19.97    1.55
   7   0   6   18.27    1.59
  -8   0  -6    2.29    0.87
   8   0   6    1.01    0.56
   8   0   6    0.65    0.54
 -12   1   6    0.94    0.43
 -11   1   6   20.93    1.61
 -10   1   6   -0.46    0.52
  -9   1   6   14.37    1.42
  -9   1   6   13.93    1.25
  -8   1   6    4.64    1.05
  -8   1   6    3.62    0.77
  -7   1   6   16.54    1.25
  -7   1   6   17.78    1.47
  -6   1   6   31.08    2.15
  -6   1   6   30.31    1.90
  -5   1   6    1.80    0.47
   4  -1  -6   11.82    1.13
  -4   1   6   11.06    0.85
   3  -1  -6   -0.59    0.40
  -3   1   6    0.27    0.33
   2  -1  -6  241.99   13.17
  -2   1   6  226.11   13.09
   1  -1  -6  101.88    5.86
   0  -1  -6   19.82    1.49
  -1  -1  -6    6.43    1.18
   1   1   6    6.24    0.98
   2   1   6    8.23    1.52
   2   1   6    6.93    0.99
   2   1   6    5.48    1.11
   3   1   6    8.73    1.00
   3   1   6    5.32    1.35
   3   1   6    7.56    1.01
   4   1   6    0.35    0.54
   4   1   6    0.91    0.66
   4   1   6    2.26    1.10
   4   1   6    0.65    0.50
   5   1   6    5.20    0.97
   5   1   6    3.18    0.70
   5   1   6    3.95    1.01
   5   1   6    5.72    1.17
   6   1   6    0.82    0.78
   6   1   6    5.16    1.54
   7   1   6    8.28    1.07
   7   1   6    6.36    1.25
   8   1   6    3.51    0.93
   8   1   6    3.91    1.29
 -12   2   6    2.57    0.68
 -11   2   6   14.87    1.27
 -10   2   6    5.99    1.08
  -9   2   6    4.62    1.01
  -8   2   6   14.22    1.17
  -8   2   6   14.05    1.34
  -7   2   6   10.12    1.78
  -7   2   6   11.07    0.95
  -7   2   6   13.42    1.28
  -6   2   6   21.84    2.08
  -6   2   6   23.75    1.81
  -6   2   6   25.56    1.56
   5  -2  -6   36.07    2.48
  -5   2   6   34.52    2.08
  -5   2   6   32.23    2.26
   4  -2  -6   -0.80    0.56
  -4   2   6    0.21    0.31
   3  -2  -6   14.58    1.22
  -3   2   6   13.18    1.01
   2  -2  -6    2.20    0.76
   1  -2  -6    4.44    0.86
   0  -2  -6    5.91    1.10
   1   2   6   17.70    1.92
   1   2   6   16.34    1.38
   1   2   6   15.30    1.53
   2   2   6    3.45    1.03
   2   2   6    2.05    0.81
   2   2   6    0.70    0.53
   3   2   6   -0.08    0.48
   3   2   6    0.00    0.57
   3   2   6    0.09    0.71
   4   2   6   -0.81    0.67
   4   2   6    0.92    0.60
   4   2   6    0.28    0.52
   5   2   6   20.31    1.59
   5   2   6   17.18    1.58
   5   2   6   17.90    1.44
   7   2   6    6.01    0.94
  -8  -2  -6   -0.46    0.52
   8   2   6   -0.40    0.49
 -12   3   6    0.63    0.35
 -11   3   6    0.84    0.49
 -10   3   6   10.22    1.22
  -9   3   6    1.00    0.71
  -9   3   6    0.69    0.57
  -8   3   6   16.48    1.74
  -8   3   6   16.85    1.43
  -7   3   6    2.59    0.98
  -7   3   6    1.50    0.75
  -7   3   6    0.93    0.39
  -6   3   6   25.54    1.88
  -6   3   6   27.35    1.69
  -6   3   6   25.90    2.01
  -5   3   6    6.26    1.03
  -5   3   6    7.51    1.11
  -5   3   6    8.58    0.72
   4  -3  -6   91.68    4.81
  -4   3   6   68.14    4.67
   3  -3  -6    6.74    1.05
   2  -3  -6   81.58    4.83
   1  -3  -6    0.53    0.41
  -1   3   6    0.45    0.56
  -1   3   6    0.92    0.51
   0   3   6   37.13    2.38
   0   3   6   36.77    2.37
   1   3   6    1.13    0.67
   1   3   6    2.65    0.99
   1   3   6    1.57    0.91
   2   3   6    0.51    0.56
   2   3   6    1.09    0.77
   2   3   6   -0.13    0.54
   3   3   6    7.55    1.39
   3   3   6    8.43    1.13
   3   3   6    9.90    1.12
   4   3   6   14.22    1.48
   4   3   6   14.85    1.37
   4   3   6   15.92    1.47
   5   3   6    1.24    1.00
   5   3   6    2.46    0.96
   6   3   6    0.32    0.47
  -7  -3  -6    0.35    0.56
   7   3   6    0.30    0.43
 -12   4   6   22.79    1.50
  11  -4  -6    0.23    0.71
 -11   4   6    0.77    0.41
  10  -4  -6    3.11    0.81
 -10   4   6    3.07    0.99
  -9   4   6    3.05    1.07
  -9   4   6    2.64    0.94
  -8   4   6    1.06    0.50
  -8   4   6    0.78    0.68
  -7   4   6    0.27    0.48
  -7   4   6    0.88    0.64
  -6   4   6   -0.27    0.47
  -6   4   6   -0.03    0.45
  -5   4   6    6.60    0.97
  -5   4   6    8.94    1.03
  -4   4   6    3.54    0.98
  -4   4   6    4.06    0.89
  -3   4   6    2.40    0.53
  -3   4   6    1.51    0.51
   2  -4  -6    4.47    0.62
  -2   4   6    5.76    1.03
  -2   4   6    4.32    0.90
   1  -4  -6    1.90    0.63
  -1   4   6    1.96    0.52
  -1   4   6    2.47    0.96
   0   4   6   13.27    1.26
   0   4   6   10.18    2.06
   0   4   6   15.33    1.26
   1   4   6    7.96    1.19
   1   4   6    5.86    1.54
   2   4   6   61.27    3.78
   2   4   6   58.51    3.59
   2   4   6   60.43    3.60
   3   4   6    5.37    1.08
   3   4   6    5.64    1.01
   3   4   6    4.52    1.26
   4   4   6   -0.19    0.58
   4   4   6    1.57    0.58
   4   4   6    0.77    0.75
   5   4   6   12.40    1.17
   6   4   6    0.21    0.45
   7   4   6    6.68    0.86
 -12   5   6    0.97    0.31
  11  -5  -6   11.21    1.18
 -11   5   6    9.89    0.98
  10  -5  -6   -0.29    0.49
 -10   5   6    0.23    0.44
 -10   5   6    0.41    0.53
   9  -5  -6   21.02    1.50
  -9   5   6   21.69    1.64
  -9   5   6   21.34    1.60
  -8   5   6   56.14    3.39
  -8   5   6   55.25    3.41
  -7   5   6    0.89    0.54
  -7   5   6    2.11    0.85
  -6   5   6   23.47    1.68
  -6   5   6   23.42    1.68
  -5   5   6    1.93    0.52
  -5   5   6    1.92    0.56
   4  -5  -6    0.74    0.34
  -4   5   6    0.68    0.43
  -4   5   6    0.18    0.51
   3  -5  -6    0.00    0.30
  -3   5   6    0.43    0.46
  -3   5   6   -0.29    0.43
   2  -5  -6    0.20    0.36
  -2   5   6    0.62    0.54
  -2   5   6    1.47    0.48
   1  -5  -6    2.01    0.71
  -1   5   6    2.83    1.01
   0   5   6    2.70    1.03
   0   5   6    3.40    0.96
   0   5   6    2.29    1.04
   1   5   6    0.71    0.64
   1   5   6    1.09    0.64
   1   5   6    0.11    0.77
   2   5   6    3.19    1.08
   2   5   6    2.47    0.82
   2   5   6    1.72    0.62
   3   5   6   -0.50    0.74
   3   5   6    1.31    0.68
   4   5   6   51.88    3.20
   5   5   6    0.49    0.47
   6   5   6    2.76    0.72
 -12   6   6    2.91    0.56
  11  -6  -6    0.93    0.69
 -11   6   6    0.40    0.33
 -11   6   6    0.86    0.46
  10  -6  -6   -0.11    0.48
 -10   6   6    0.52    0.41
 -10   6   6   -0.21    0.46
   9  -6  -6   13.23    1.05
  -9   6   6   14.15    1.23
  -9   6   6   12.59    1.17
   8  -6  -6    2.66    0.62
  -8   6   6    2.62    0.82
  -8   6   6    1.80    0.53
   7  -6  -6    8.94    0.82
  -7   6   6    7.31    0.97
  -7   6   6    8.69    1.00
   6  -6  -6    1.63    0.53
  -6   6   6    1.23    0.44
  -6   6   6    1.28    0.52
   5  -6  -6    8.69    0.74
  -5   6   6    7.61    1.04
  -5   6   6    5.88    0.99
   4  -6  -6    0.77    0.36
  -4   6   6    0.61    0.42
  -4   6   6    0.89    0.53
   3  -6  -6   46.82    2.69
  -3   6   6   44.35    2.83
  -3   6   6   44.22    2.77
   2  -6  -6    7.68    0.77
  -2   6   6    8.67    1.00
  -2   6   6    5.30    1.06
   1  -6  -6   16.96    1.35
  -1   6   6   18.37    1.51
  -1   6   6   18.68    1.44
   0   6   6    1.93    1.01
   0   6   6    3.74    1.01
   0   6   6    3.11    1.22
   1   6   6    0.31    0.62
   1   6   6    1.21    0.61
   1   6   6   -0.68    0.75
   2   6   6   13.92    1.54
   2   6   6   13.62    1.38
   2   6   6   14.54    1.44
   3   6   6    7.55    1.19
   3   6   6    6.58    1.17
   4   6   6    7.82    1.00
   5   6   6    8.33    0.90
 -12   7   6    3.14    0.61
 -11   7   6    6.92    0.94
 -11   7   6    8.91    0.85
  10  -7  -6    0.50    0.47
 -10   7   6    0.89    0.42
 -10   7   6    0.75    0.37
   9  -7  -6    0.46    0.40
  -9   7   6    2.14    0.78
  -9   7   6    0.00    0.42
   8  -7  -6   14.23    1.14
  -8   7   6   17.00    1.26
  -8   7   6   15.74    1.28
  -7   7   6    1.24    0.48
  -7   7   6    0.92    0.44
   6  -7  -6    9.67    0.83
  -6   7   6    8.29    1.04
  -6   7   6    9.94    1.11
   5  -7  -6    7.12    0.71
  -5   7   6    6.18    0.85
  -5   7   6    6.41    1.06
   4  -7  -6    4.00    0.63
  -4   7   6    4.41    0.85
  -4   7   6    4.81    1.10
   3  -7  -6   28.11    1.74
  -3   7   6   26.78    1.90
  -3   7   6   26.07    1.83
   2  -7  -6   56.25    3.25
  -2   7   6   54.90    3.37
  -2   7   6   53.43    3.33
   1  -7  -6   15.89    1.38
  -1   7   6   15.54    1.57
  -1   7   6   16.29    1.37
   0   7   6    5.88    1.64
   0   7   6    5.73    1.20
   1   7   6    0.69    0.76
   1   7   6   -0.09    0.78
   1   7   6    0.29    0.61
   2   7   6   10.30    1.32
   3   7   6    4.29    0.99
   4   7   6   23.22    1.58
   5   7   6    1.95    0.72
 -11   8   6    3.20    0.65
 -11   8   6    2.56    0.72
  10  -8  -6    1.19    0.52
 -10   8   6    1.72    0.59
 -10   8   6    0.49    0.37
  -9   8   6    0.01    0.39
   8  -8  -6    1.60    0.54
  -8   8   6    1.43    0.43
  -8   8   6    1.48    0.50
   7  -8  -6   14.72    1.14
  -7   8   6   16.59    1.26
  -7   8   6   16.83    1.38
   6  -8  -6    0.28    0.32
  -6   8   6    0.68    0.55
  -6   8   6    0.53    0.38
   5  -8  -6    1.54    0.52
  -5   8   6    0.70    0.59
  -5   8   6    1.54    0.46
   4  -8  -6    0.15    0.36
  -4   8   6    0.13    0.61
  -4   8   6    0.16    0.43
   3  -8  -6   17.43    1.25
  -3   8   6   17.25    1.39
  -3   8   6   18.37    1.69
   2  -8  -6    2.04    0.81
  -2   8   6    2.74    0.96
  -2   8   6    2.93    0.83
  -1   8   6   23.41    1.71
   0   8   6   -0.28    0.69
   0   8   6    0.10    0.94
   1   8   6    4.19    1.25
   2   8   6    0.86    0.58
   3   8   6    0.02    0.46
   4   8   6    0.61    0.45
 -11   9   6   -0.10    0.33
 -11   9   6    0.94    0.63
  10  -9  -6   -1.00    0.55
 -10   9   6    0.51    0.33
 -10   9   6   -0.12    0.41
   9  -9  -6   15.53    1.12
  -9   9   6   14.99    1.06
  -9   9   6   12.63    1.18
   8  -9  -6   -0.44    0.38
  -8   9   6    0.19    0.31
  -8   9   6    0.06    0.48
   7  -9  -6    1.71    0.54
  -7   9   6    1.84    0.64
  -7   9   6    1.56    0.53
   6  -9  -6    0.61    0.39
  -6   9   6    0.10    0.39
  -6   9   6    0.28    0.64
   5  -9  -6    0.08    0.36
  -5   9   6    0.60    0.77
  -5   9   6    0.26    0.42
   4  -9  -6   15.35    1.16
  -4   9   6   15.35    1.27
   3  -9  -6    0.46    0.51
  -3   9   6   -0.04    0.48
   2  -9  -6    6.36    0.99
  -1   9   6    0.90    0.61
   0   9   6    0.86    0.87
   1   9   6    0.53    0.65
   2   9   6    0.27    0.51
   3   9   6    0.73    0.53
 -10  10   6    0.91    0.31
   9 -10  -6    0.07    0.47
  -9  10   6   -0.33    0.29
   8 -10  -6    2.05    0.59
  -8  10   6    0.96    0.34
   7 -10  -6    0.97    0.38
  -7  10   6    0.57    0.34
   6 -10  -6    2.06    0.59
  -6  10   6    2.96    0.64
   5 -10  -6    0.55    0.40
  -5  10   6   -0.10    0.35
   4 -10  -6    4.48    0.77
  -4  10   6    5.31    0.84
   3 -10  -6    6.80    0.93
  -3  10   6    7.31    0.91
   2 -10  -6    8.54    1.40
  -2  10   6    8.28    1.04
  -9  11   6    1.73    0.46
   8 -11  -6    5.25    0.75
  -8  11   6    5.14    0.58
   7 -11  -6    9.24    0.85
  -7  11   6    8.41    0.78
   6 -11  -6    4.21    0.68
  -6  11   6    3.45    0.65
   5 -11  -6    0.24    0.48
  -5  11   6    0.28    0.39
   4 -11  -6   -0.28    0.58
  -4  11   6    0.27    0.38
   3 -11  -6    0.22    0.79
  -3  11   6    0.99    0.49
  -8  12   6    2.07    0.51
  -7  12   6    5.55    0.65
   6 -12  -6    2.17    0.78
   5 -12  -6    0.83    0.64
  -5  12   6    1.98    0.67
  -4  12   6   -0.02    0.57
   3  15  -7    0.23    0.36
   2  15  -7   -0.05    0.41
  -2 -15   7   -0.41    0.61
  -1 -15   7    3.01    0.88
  -1 -15   7    2.25    0.80
   0 -15   7    1.14    0.65
   0 -15   7    1.07    0.46
   1 -15   7    1.73    0.79
   1 -15   7    1.71    0.53
   2 -15   7    1.03    1.50
   3 -15   7    8.13    1.15
   4 -15   7    0.74    0.58
   4  14  -7    0.35    0.37
  -4 -14   7    0.42    0.63
  -3 -14   7    1.05    0.55
  -3 -14   7    0.38    0.36
  -2 -14   7    4.34    0.77
  -2 -14   7    3.95    0.80
  -1 -14   7    1.09    0.57
  -1 -14   7    1.72    0.48
   0 -14   7    0.15    0.48
   0 -14   7    0.91    0.60
   1 -14   7    0.06    0.71
   1 -14   7    2.32    0.77
   1 -14   7    0.93    0.46
   2 -14   7    0.57    0.42
   2 -14   7    0.28    0.46
   2 -14   7    1.84    0.91
   3 -14   7    0.66    0.43
   3 -14   7    1.22    0.46
   4 -14   7   18.13    1.35
   4 -14   7   19.24    1.41
   5 -14   7    2.42    0.56
   5 -14   7    2.54    0.47
   6 -14   7    4.46    0.90
   5  13  -7   -0.10    0.42
  -5 -13   7    0.18    0.64
  -4 -13   7    2.56    0.66
  -4 -13   7    1.70    0.53
  -3 -13   7   15.83    1.28
  -3 -13   7   17.66    1.23
  -2 -13   7   -0.24    0.45
  -2 -13   7   -0.37    0.52
  -1 -13   7    2.32    0.65
  -1 -13   7    4.57    0.89
  -1 -13   7    3.08    0.92
   0 -13   7   -0.18    0.48
   0 -13   7    0.27    0.63
   0 -13   7   -0.24    0.47
   1 -13   7    4.66    1.08
   1 -13   7    5.03    0.97
   1 -13   7    6.48    0.99
   2 -13   7    5.62    0.97
   2 -13   7    4.81    1.01
   2 -13   7    3.17    0.91
   3 -13   7    5.78    0.90
   3 -13   7    5.32    0.88
   4 -13   7    0.59    0.42
   4 -13   7    0.42    0.48
  -5  13  -7   13.19    1.38
   5 -13   7   16.24    1.21
   5 -13   7   15.51    1.25
  -6  13  -7    4.25    0.89
   6 -13   7    3.64    0.78
   6 -13   7    3.07    0.68
  -7  13  -7    2.71    0.86
   7 -13   7    3.12    0.81
   7  12  -7    4.41    0.73
   6  12  -7   -0.75    0.46
  -6 -12   7   -1.16    0.63
   5  12  -7    0.82    0.52
  -5 -12   7    0.99    0.53
  -4 -12   7    0.49    0.52
  -4 -12   7    0.03    0.36
  -3 -12   7    0.36    0.50
  -3 -12   7    2.23    0.89
  -2 -12   7   18.69    1.48
  -2 -12   7   19.42    1.49
  -2 -12   7   18.14    1.39
  -1 -12   7    1.21    0.52
  -1 -12   7    1.12    0.55
  -1 -12   7    2.40    0.92
   0 -12   7   11.27    1.17
   0 -12   7   12.84    1.24
   0 -12   7   11.87    1.20
   1 -12   7    0.43    0.49
   1 -12   7    0.89    0.55
   1 -12   7    1.56    0.65
   2 -12   7    4.46    1.26
   2 -12   7    5.83    0.99
   2 -12   7    6.05    1.08
   3 -12   7    0.02    0.54
   3 -12   7    0.05    0.47
  -4  12  -7    3.82    0.80
   4 -12   7    5.44    1.06
   4 -12   7    3.65    0.95
  -5  12  -7    6.31    1.09
   5 -12   7    8.23    0.96
   5 -12   7    7.57    1.08
  -6  12  -7    3.26    0.87
   6 -12   7    1.64    0.61
   6 -12   7    2.47    0.77
  -7  12  -7    7.29    0.86
   7 -12   7    8.21    0.91
  -8  12  -7    0.22    0.36
   8 -12   7    0.00    0.40
   8  11  -7    8.64    0.81
   7  11  -7    2.47    0.74
  -7 -11   7    1.63    0.78
   6  11  -7    3.67    0.97
  -6 -11   7    2.73    0.87
  -5 -11   7    2.84    0.77
  -5 -11   7    3.63    0.79
  -4 -11   7    0.31    0.47
  -4 -11   7    0.25    0.52
  -3 -11   7   15.46    1.31
  -3 -11   7   19.87    1.44
  -2 -11   7   12.91    1.15
  -2 -11   7   14.27    1.31
  -2 -11   7   13.91    1.23
  -1 -11   7   50.48    3.16
  -1 -11   7   53.98    3.18
  -1 -11   7   51.79    3.21
   0 -11   7    3.33    0.89
   0 -11   7    3.54    0.96
   0 -11   7    3.53    1.05
   1 -11   7    0.50    0.55
   1 -11   7    0.37    0.51
   1 -11   7    0.82    0.69
   2 -11   7   17.41    1.40
   2 -11   7   15.78    1.57
   2 -11   7   17.71    1.45
   3 -11   7   11.89    1.25
   3 -11   7   10.59    1.17
   4 -11   7   22.32    1.82
   4 -11   7   25.86    1.73
   5 -11   7    2.58    0.89
   6 -11   7    2.88    0.84
   6 -11   7    2.76    1.07
  -7  11  -7    0.04    0.47
   7 -11   7   -0.45    0.40
   7 -11   7   -0.49    0.62
  -8  11  -7   14.08    1.18
   8 -11   7   19.04    1.22
   7  10  -7   11.21    1.29
  -7 -10   7    9.94    1.10
   6  10  -7    3.01    0.70
  -6 -10   7    2.79    0.83
  -6 -10   7    2.83    0.78
  -5 -10   7    4.05    0.88
  -5 -10   7    2.83    0.77
  -4 -10   7    6.31    1.09
  -4 -10   7    5.52    0.82
  -3 -10   7    3.24    0.72
  -3 -10   7    2.35    0.65
  -3 -10   7    3.23    0.90
  -2 -10   7   97.06    5.71
  -2 -10   7   93.89    5.67
  -2 -10   7  103.77    5.69
  -1 -10   7   18.58    1.42
  -1 -10   7   18.15    1.56
  -1 -10   7   18.74    1.54
   0 -10   7    9.36    1.03
   0 -10   7    6.77    1.08
   0 -10   7    8.31    1.13
   1 -10   7    0.19    0.52
   1 -10   7    0.01    0.47
   1 -10   7    1.46    0.68
   2 -10   7   19.42    1.60
   2 -10   7   22.61    1.72
   3 -10   7    6.71    1.07
   3 -10   7    8.50    1.16
   4 -10   7    1.80    0.59
   4 -10   7    2.43    0.89
   5 -10   7   10.76    1.27
   5 -10   7   10.70    1.15
   6 -10   7   -0.33    0.45
   6 -10   7    0.34    0.56
   7 -10   7    0.96    0.66
   7 -10   7    0.53    0.41
  -8  10  -7    0.38    0.43
   8 -10   7    0.85    0.42
   9   9  -7    0.40    0.35
  -8  -9   7    2.28    0.86
  -7  -9   7    6.81    0.92
   6   9  -7    7.77    1.45
  -6  -9   7    6.82    1.03
  -6  -9   7    6.64    0.91
  -5  -9   7    4.11    0.94
  -5  -9   7    4.42    0.81
  -4  -9   7    7.79    0.91
  -4  -9   7    8.18    1.13
  -3  -9   7   15.03    1.50
  -3  -9   7   14.67    1.17
  -3  -9   7   15.08    1.32
  -2  -9   7    3.82    1.05
  -2  -9   7    3.06    0.75
  -1  -9   7   49.81    3.06
  -1  -9   7   51.30    3.03
  -1  -9   7   48.96    3.10
   0  -9   7    3.27    0.84
   0  -9   7    3.46    1.04
   0  -9   7    3.48    0.92
   1  -9   7    0.03    0.56
   1  -9   7    0.25    0.50
   1  -9   7   -0.07    0.60
   2  -9   7   30.07    2.03
   2  -9   7   30.26    2.14
   3  -9   7    5.27    1.07
   3  -9   7    3.83    1.22
   3  -9   7    4.82    0.97
   4  -9   7   58.28    3.48
   4  -9   7   55.54    3.50
   5  -9   7   18.07    1.53
   5  -9   7   17.49    1.56
   6  -9   7    0.02    0.50
   6  -9   7    0.28    0.60
   7  -9   7    1.54    0.49
   7  -9   7    3.03    1.21
   8  -9   7    7.48    0.87
   8  -9   7    6.44    1.42
  -9   9  -7    1.90    0.63
  10   8  -7    0.62    0.35
   9   8  -7   11.52    1.01
  -8  -8   7    6.91    1.03
  -7  -8   7    2.16    0.75
  -6  -8   7    3.32    0.80
  -6  -8   7    3.48    0.96
  -5  -8   7   12.74    1.32
  -5  -8   7   13.13    1.14
  -4  -8   7   12.14    1.06
  -4  -8   7   11.12    1.57
  -4  -8   7   11.09    1.27
  -3  -8   7    2.61    0.67
  -3  -8   7    3.27    1.03
  -3  -8   7    3.28    1.28
  -2  -8   7    5.27    0.75
  -2  -8   7    3.39    1.12
  -2  -8   7    5.11    1.13
  -1  -8   7    1.00    0.58
  -1  -8   7    0.51    0.47
  -1  -8   7   -0.62    0.46
   0  -8   7   24.50    1.88
   0  -8   7   25.90    1.72
   0  -8   7   25.89    1.80
   1  -8   7    9.52    1.21
   1  -8   7    7.09    1.11
   1  -8   7   10.30    1.08
   2  -8   7    1.64    0.61
   2  -8   7    1.30    0.79
   2  -8   7    1.25    0.54
   3  -8   7    1.86    0.55
   3  -8   7    1.95    0.61
   3  -8   7    0.33    0.67
   4  -8   7    3.04    0.71
   4  -8   7    4.06    0.97
   4  -8   7    5.39    1.30
   5  -8   7   69.58    4.26
   5  -8   7   69.22    4.19
   5  -8   7   71.67    4.22
   6  -8   7    1.05    0.51
   6  -8   7   -0.55    0.63
  -7   8  -7   -0.52    1.03
   7  -8   7    0.35    0.61
   7  -8   7    0.01    0.44
   8  -8   7    3.15    1.28
  -9   8  -7    0.18    0.39
   9  -8   7    1.52    0.61
  10   7  -7    2.68    0.70
  -9  -7   7   10.94    1.60
  -8  -7   7   -0.12    0.53
  -7  -7   7    5.85    0.81
  -6  -7   7    2.31    0.77
  -6  -7   7    1.26    0.53
  -5  -7   7   75.50    4.64
  -5  -7   7   82.15    4.62
  -4  -7   7    0.47    0.48
  -4  -7   7    4.28    1.67
  -3  -7   7    9.75    1.63
  -3  -7   7   11.67    0.96
  -2  -7   7    1.61    0.55
  -2  -7   7    4.47    1.16
  -2  -7   7    2.30    0.66
  -1  -7   7   22.90    1.78
  -1  -7   7   23.31    1.53
  -1  -7   7   21.89    1.66
   0  -7   7   -0.06    0.61
   0  -7   7   -0.85    0.53
   0  -7   7    0.89    0.52
   1  -7   7    5.31    1.49
   1  -7   7    7.20    1.02
   1  -7   7    4.04    1.13
   1  -7   7    4.93    1.11
   2  -7   7   14.93    1.46
   2  -7   7   14.77    1.41
   2  -7   7   14.52    1.34
   3  -7   7    1.42    0.62
   3  -7   7    1.23    0.53
   4  -7   7   23.84    1.71
   4  -7   7   18.99    1.69
   4  -7   7   20.10    1.68
   5  -7   7    3.05    1.08
   5  -7   7    2.51    0.64
  -6   7  -7   14.34    1.89
   6  -7   7   15.65    1.45
   6  -7   7   15.75    1.44
   6  -7   7   14.40    1.59
  -7   7  -7    0.03    0.69
   7  -7   7    0.25    0.50
   7  -7   7    0.43    0.63
  -8   7  -7    8.50    1.24
   8  -7   7   10.29    0.97
   8  -7   7   11.68    1.26
  -9   7  -7    1.21    0.95
  -9   7  -7   -0.05    0.40
   9  -7   7    0.18    0.33
  11   6  -7    0.41    0.39
  10   6  -7    1.12    0.44
  -9  -6   7    9.41    1.25
  -8  -6   7    1.02    0.57
  -7  -6   7    0.42    0.52
  -7  -6   7    0.52    0.51
  -6  -6   7   -0.37    0.54
  -6  -6   7   -0.08    0.53
  -5  -6   7   21.78    1.71
  -5  -6   7   23.18    1.54
  -4  -6   7    2.67    1.11
  -4  -6   7    4.16    1.13
  -4  -6   7    4.22    0.71
  -3  -6   7    1.45    0.67
  -3  -6   7    0.82    1.37
  -3  -6   7    0.00    0.40
  -2  -6   7   11.08    0.92
  -2  -6   7    8.99    1.28
  -1  -6   7    1.12    0.62
  -1  -6   7    0.22    0.44
   0  -6   7    8.44    1.30
   0  -6   7    9.71    0.99
   0  -6   7   10.48    1.27
   1  -6   7   26.89    2.01
   1  -6   7   27.83    1.97
   2  -6   7   50.60    3.21
   2  -6   7   51.64    3.24
   2  -6   7   55.51    3.23
   3  -6   7   -0.11    0.63
   3  -6   7    0.11    0.56
   3  -6   7    0.69    0.60
   4  -6   7   14.14    1.46
   4  -6   7   12.26    1.30
   4  -6   7   12.95    1.37
   5  -6   7   20.69    1.83
   5  -6   7   23.29    1.71
   5  -6   7   20.96    1.76
   6  -6   7    5.72    1.16
   6  -6   7    5.08    1.12
   6  -6   7    6.30    1.22
  -7   6  -7   22.18    1.73
   7  -6   7   18.90    1.50
   7  -6   7   22.11    1.73
   7  -6   7   18.88    1.59
  -8   6  -7   -0.18    0.56
   8  -6   7    0.83    0.61
   8  -6   7    0.89    0.43
  -9   6  -7    0.83    0.58
   9  -6   7   -0.31    0.34
  11   5  -7    0.15    0.41
  10   5  -7    8.67    1.01
  -9  -5   7    6.67    1.19
  -8  -5   7    1.19    0.58
  -7  -5   7   20.03    1.69
  -7  -5   7   24.08    1.59
  -6  -5   7    7.16    0.88
  -5  -5   7   37.34    2.18
  -5  -5   7   31.60    2.34
  -4  -5   7    1.71    0.64
  -4  -5   7    1.85    0.66
  -3  -5   7   22.15    1.49
   2   5  -7    1.31    0.57
   2   5  -7    1.09    0.72
  -2  -5   7    0.67    0.41
   1   5  -7    0.86    0.66
   1   5  -7    0.41    0.53
  -1  -5   7    0.93    0.46
   0  -5   7    1.01    0.62
   1  -5   7    5.56    1.13
   1  -5   7    3.84    1.31
   2  -5   7   -0.04    0.61
   2  -5   7    1.62    0.63
   2  -5   7    0.02    0.53
   3  -5   7    6.40    1.18
   3  -5   7    6.63    1.17
   3  -5   7    4.08    0.97
   4  -5   7    5.88    0.97
   4  -5   7    4.73    1.26
   4  -5   7    5.87    1.20
   4  -5   7    4.65    1.24
   5  -5   7    6.60    1.29
   5  -5   7    6.63    1.25
   5  -5   7    5.43    1.04
   6  -5   7    0.05    0.73
   6  -5   7   -0.57    0.59
   6  -5   7    2.94    1.12
  -7   5  -7   19.21    1.62
   7  -5   7   17.96    1.60
   7  -5   7   16.67    1.44
   7  -5   7   17.60    1.48
  -8   5  -7    3.17    0.92
   8  -5   7    3.27    0.82
  -9   5  -7    0.69    0.46
   9  -5   7    6.51    2.11
   9  -5   7    1.74    0.64
  11   4  -7    0.58    0.47
  -9  -4   7    9.60    1.17
  -8  -4   7   21.74    1.61
  -7  -4   7    3.45    0.71
  -6  -4   7    1.03    0.61
  -6  -4   7    0.24    0.42
  -5  -4   7   17.64    1.56
  -5  -4   7   15.43    1.23
  -4  -4   7    3.92    0.67
  -3  -4   7    0.18    0.31
   2   4  -7   14.74    1.45
   2   4  -7   15.30    1.28
  -2  -4   7   17.58    1.19
   1   4  -7   17.05    1.36
   1   4  -7   20.65    1.52
  -1  -4   7   17.68    1.30
   0   4  -7    0.84    0.50
   0   4  -7    1.70    0.69
  -1   4  -7    7.98    1.07
   2  -4   7    0.74    0.69
   2  -4   7    0.51    0.68
   2  -4   7    0.23    0.52
   2  -4   7    0.76    0.71
   3  -4   7   14.76    1.59
   3  -4   7   16.48    1.51
   3  -4   7   14.87    1.31
   3  -4   7   17.15    1.57
   4  -4   7    4.42    1.07
   4  -4   7    3.26    1.20
   4  -4   7    3.75    0.79
   5  -4   7    0.51    0.65
   5  -4   7    0.25    0.72
   5  -4   7    1.13    0.58
   6  -4   7    0.56    0.64
   6  -4   7   -0.20    0.61
   6  -4   7    0.48    0.56
   7  -4   7    0.71    0.65
   7  -4   7    0.15    0.57
   7  -4   7    0.27    0.62
  -8   4  -7    0.13    0.46
   8  -4   7   -0.36    0.44
   8  -4   7    0.22    0.53
   9  -4   7    3.63    0.67
  11   3  -7    1.65    0.60
  10   3  -7    0.44    0.59
  -8  -3   7    0.50    0.96
  -8  -3   7    0.05    0.56
  -7  -3   7   21.52    2.33
  -7  -3   7   20.14    1.47
  -6  -3   7   -0.11    0.72
  -6  -3   7    2.12    0.65
  -5  -3   7    1.86    0.55
  -4  -3   7   11.31    0.93
  -3  -3   7    0.94    0.43
   2   3  -7   -0.37    0.65
   2   3  -7   -0.05    0.45
  -2  -3   7    0.51    0.44
   1   3  -7   18.12    1.53
   1   3  -7   20.37    1.35
  -1  -3   7   16.51    1.36
   0   3  -7    2.84    0.83
  -1   3  -7   23.65    1.71
   2  -3   7    1.43    0.62
   2  -3   7    2.14    0.71
   2  -3   7    1.63    0.58
   2  -3   7    1.17    0.78
   3  -3   7   55.52    3.44
   3  -3   7   54.78    3.24
   3  -3   7   51.63    3.40
   3  -3   7   51.98    3.25
   4  -3   7   34.41    2.08
   4  -3   7   29.23    2.36
   4  -3   7   31.27    2.14
   4  -3   7   31.50    2.35
   5  -3   7   -0.45    0.53
   5  -3   7    0.13    0.71
   5  -3   7   -0.44    0.52
   5  -3   7    0.42    0.73
   6  -3   7    6.52    1.07
   6  -3   7    6.01    1.37
   7  -3   7   -0.17    0.59
   7  -3   7    0.63    0.56
   7  -3   7   -0.22    0.55
  -8   3  -7   -0.11    0.45
   8  -3   7    0.40    0.53
   8  -3   7    0.31    0.47
  -9   3  -7    1.79    0.69
   9  -3   7    0.70    0.45
  11   2  -7   11.86    1.39
 -11  -2   7   12.54    1.33
  10   2  -7    1.39    0.70
 -10  -2   7    1.04    0.77
 -10  -2   7    0.29    0.65
  -9  -2   7    0.38    0.77
  -9  -2   7   -0.42    0.56
  -8  -2   7  101.37    5.69
  -8  -2   7   93.92    5.84
  -7  -2   7    5.23    1.70
  -7  -2   7    6.67    0.82
  -6  -2   7   12.01    0.97
  -6  -2   7   11.81    2.00
  -5  -2   7   12.19    0.94
  -4  -2   7   10.29    0.85
   3   2  -7  115.69    6.44
  -3  -2   7  107.64    6.31
   2   2  -7    0.69    0.47
   2   2  -7    0.10    0.63
  -2  -2   7    0.21    0.38
   1   2  -7  121.05    6.21
   1   2  -7  110.36    6.27
  -1  -2   7   92.90    6.12
   0   2  -7   14.29    1.23
  -1   2  -7   -0.58    0.63
   1  -2   7    0.49    0.48
  -2   2  -7    8.36    1.94
   2  -2   7   12.45    1.14
   2  -2   7   13.08    1.18
   2  -2   7   13.98    1.79
   2  -2   7   11.23    1.52
   3  -2   7   10.39    1.15
   3  -2   7   11.97    1.71
   3  -2   7   11.26    1.10
   3  -2   7    9.96    1.44
   4  -2   7   23.18    1.60
   4  -2   7   22.51    2.05
   4  -2   7   23.02    1.88
   4  -2   7   22.06    1.62
   5  -2   7   11.69    1.15
   5  -2   7   12.02    1.49
   5  -2   7   11.65    1.15
   5  -2   7   10.01    1.54
   6  -2   7    0.78    0.71
   6  -2   7    3.17    0.97
   6  -2   7    1.62    0.71
   7  -2   7    0.25    0.55
   7  -2   7    0.10    0.58
   7  -2   7    0.93    0.63
  -8   2  -7    4.54    0.82
   8  -2   7    5.50    0.99
 -12  -1   7    0.21    0.45
 -11  -1   7   -0.17    0.55
  10   1  -7    5.01    1.61
 -10  -1   7    0.53    0.66
   9   1  -7    2.75    0.98
  -9  -1   7    1.19    0.56
  -9  -1   7    0.77    0.75
  -8  -1   7   13.84    1.62
  -8  -1   7   13.23    1.20
  -7  -1   7    4.23    0.87
  -7  -1   7    5.18    0.81
  -6  -1   7   17.34    1.82
  -6  -1   7   16.68    1.23
  -5  -1   7   31.55    1.96
  -4  -1   7    1.73    0.41
   3   1  -7   66.89    3.78
  -3  -1   7   58.02    3.59
   2   1  -7   18.93    1.36
  -2  -1   7   15.94    1.22
   1   1  -7    5.60    0.89
   0   1  -7    0.11    0.57
  -1   1  -7   -1.00    0.77
   1  -1   7   -0.58    0.47
   1  -1   7    1.22    0.53
   1  -1   7   -0.20    0.94
   2  -1   7   -0.65    0.73
   2  -1   7   -0.43    0.52
   2  -1   7    0.61    0.45
   3  -1   7    8.24    0.99
   3  -1   7    6.99    1.01
   3  -1   7    4.78    1.85
   3  -1   7    5.35    1.42
   4  -1   7    3.42    1.23
   4  -1   7    3.61    0.86
   4  -1   7    2.47    0.86
   4  -1   7    1.12    0.87
   5  -1   7   24.62    1.73
   5  -1   7   24.64    1.93
   5  -1   7   22.66    2.10
   5  -1   7   25.04    1.72
   6  -1   7    5.26    1.31
   6  -1   7    5.01    1.05
   7  -1   7    8.27    1.14
   7  -1   7   10.09    1.20
   7  -1   7    7.21    1.32
  -8   1  -7    3.74    0.80
   8  -1   7    5.82    0.88
   8  -1   7    4.54    1.08
 -12   0   7    0.49    0.39
 -11   0   7   11.95    1.24
 -10   0   7   -0.22    0.56
 -10   0   7   -0.83    0.57
  -9   0   7    3.31    1.23
  -9   0   7    5.07    0.84
  -8   0   7   19.48    1.73
  -8   0   7   18.34    1.41
  -7   0   7    5.37    1.22
  -7   0   7    5.07    0.76
  -6   0   7   18.37    1.27
  -6   0   7   16.74    1.65
  -5   0   7    6.93    1.20
  -5   0   7    8.87    0.77
   4   0  -7   -0.12    0.60
  -4   0   7    0.22    0.32
   3   0  -7   72.11    4.11
  -3   0   7   64.63    3.93
   2   0  -7   10.64    1.06
  -2   0   7    9.76    0.91
   1   0  -7   -0.27    0.58
   0   0  -7    8.72    1.27
   0   0   7    8.23    1.56
   1   0   7    7.05    1.02
   1   0   7    7.18    1.57
   1   0   7    5.95    0.96
   2   0   7   22.73    1.62
   2   0   7   24.61    1.73
   2   0   7   23.26    1.98
   3   0   7   -0.22    0.49
   3   0   7    0.51    0.46
   3   0   7   -0.59    0.69
   4   0   7   41.91    2.61
   4   0   7   43.35    2.59
   4   0   7   40.50    3.02
   4   0   7   39.48    2.80
   5   0   7    1.24    0.68
   5   0   7    0.90    0.51
   5   0   7    1.25    0.58
   5   0   7    1.54    0.88
   6   0   7   -0.15    0.62
   6   0   7    1.25    0.76
   6   0   7    0.59    0.58
   7   0   7   10.79    1.61
   7   0   7   12.43    1.14
   7   0   7   10.36    1.45
  -8   0  -7    0.95    0.46
   8   0   7   -0.36    0.44
 -12   1   7    9.97    0.94
 -11   1   7    5.89    1.02
 -10   1   7    3.85    1.14
  -9   1   7    9.84    1.01
  -9   1   7   10.33    1.27
  -8   1   7    0.90    0.57
  -8   1   7    0.40    0.43
  -7   1   7    5.70    0.69
  -7   1   7    3.21    1.12
  -6   1   7   25.64    1.80
  -6   1   7   25.16    1.62
  -6   1   7   23.22    1.98
  -5   1   7    0.37    0.32
  -5   1   7    0.12    0.51
   4  -1  -7    0.41    0.71
  -4   1   7    0.35    0.31
   3  -1  -7    9.37    1.23
  -3   1   7    8.87    0.83
   2  -1  -7    0.44    0.58
  -2   1   7    1.14    0.44
  -1   1   7    8.67    1.09
  -1   1   7    7.39    1.16
   0   1   7    2.45    0.92
   1   1   7   11.63    1.71
   1   1   7   11.32    1.16
   1   1   7   14.17    1.18
   2   1   7    7.66    1.08
   2   1   7    8.34    0.95
   2   1   7    8.44    1.47
   3   1   7   21.89    1.58
   3   1   7   19.82    1.80
   3   1   7   21.75    1.56
   4   1   7    9.36    1.38
   4   1   7   10.31    1.08
   5   1   7   19.23    1.55
   5   1   7   18.46    1.49
   5   1   7   20.87    1.70
   6   1   7    3.04    0.76
   7   1   7   -0.64    0.41
 -12   2   7    3.38    0.69
 -11   2   7    0.57    0.45
 -10   2   7    2.73    1.04
  -9   2   7    3.17    1.05
  -8   2   7    5.33    0.79
  -8   2   7    5.18    1.11
  -7   2   7    2.97    0.98
  -7   2   7    1.60    0.81
  -7   2   7    1.02    0.38
  -6   2   7   87.70    5.62
  -6   2   7   96.86    5.57
  -6   2   7  103.36    5.53
  -5   2   7    0.67    0.34
  -5   2   7    0.95    0.47
  -5   2   7    1.35    0.54
  -4   2   7   27.87    1.88
  -4   2   7   26.20    1.96
  -4   2   7   29.86    1.78
  -3   2   7    4.59    0.88
  -3   2   7    4.02    0.95
  -2   2   7    8.48    1.08
  -2   2   7    9.79    1.09
  -1   2   7    5.42    0.91
  -1   2   7    4.75    0.91
   0   2   7    1.26    0.52
   0   2   7   -1.67    1.05
   0   2   7    0.29    0.49
   1   2   7   15.38    1.84
   1   2   7   15.60    1.32
   1   2   7   13.04    1.26
   2   2   7    5.65    1.44
   2   2   7    4.02    0.96
   2   2   7    4.22    0.84
   3   2   7   25.56    1.76
   3   2   7   23.86    1.76
   3   2   7   24.95    1.98
   4   2   7   -0.31    0.62
   4   2   7   -0.31    0.51
   4   2   7    0.22    0.58
   5   2   7    4.35    1.06
   5   2   7    3.68    1.13
   6   2   7    6.86    0.95
  -7  -2  -7    3.39    0.92
   7   2   7    5.77    0.80
 -12   3   7    1.48    0.54
  11  -3  -7   -0.06    0.64
 -11   3   7   -0.33    0.40
 -10   3   7   26.88    1.91
  -9   3   7    3.01    0.97
  -8   3   7   11.55    1.20
  -7   3   7    2.46    0.65
  -7   3   7    2.32    0.87
  -6   3   7   -0.01    0.59
  -6   3   7   -0.12    0.45
  -5   3   7    4.14    0.86
  -5   3   7    6.27    0.93
  -4   3   7    2.25    0.52
  -4   3   7    2.26    0.82
  -3   3   7    4.82    0.89
  -3   3   7    3.94    0.87
   2  -3  -7   17.84    1.25
  -2   3   7   17.55    1.41
  -2   3   7   17.90    1.37
  -1   3   7    8.65    0.96
  -1   3   7    7.33    0.98
   0   3   7    0.99    0.50
   0   3   7    1.22    1.10
   0   3   7    0.90    0.50
   1   3   7   37.93    2.36
   1   3   7   37.25    2.38
   1   3   7   34.86    2.73
   2   3   7    3.58    0.84
   2   3   7    2.98    0.84
   2   3   7    3.62    0.91
   3   3   7   38.87    2.67
   3   3   7   40.30    2.51
   3   3   7   40.17    2.55
   4   3   7    2.84    1.10
   4   3   7    3.64    0.97
   5   3   7    3.92    1.01
   6   3   7    0.31    0.45
 -12   4   7    0.13    0.28
  11  -4  -7   12.60    1.11
 -11   4   7   12.04    1.05
  -9   4   7    3.46    0.87
  -9   4   7    3.08    1.10
  -8   4   7   15.30    1.23
  -8   4   7   11.81    1.43
  -7   4   7    0.34    0.47
  -7   4   7    1.11    0.57
  -6   4   7    4.09    0.84
  -5   4   7   21.92    1.57
  -5   4   7   21.75    1.57
  -4   4   7    0.24    0.44
  -4   4   7   -0.26    0.44
   3  -4  -7    2.95    0.61
  -3   4   7    2.64    0.53
  -3   4   7    4.57    0.83
   2  -4  -7    0.49    0.40
  -2   4   7   -0.66    0.46
  -2   4   7    0.42    0.47
  -1   4   7    9.25    1.12
  -1   4   7    9.30    1.00
   0   4   7   20.06    2.34
   0   4   7   22.39    1.60
   0   4   7   20.46    1.56
   1   4   7   17.08    1.45
   1   4   7   14.96    1.96
   1   4   7   16.89    1.38
   2   4   7   53.16    3.40
   2   4   7   52.53    3.19
   2   4   7   53.23    3.20
   3   4   7   28.36    2.06
   3   4   7   32.78    2.16
   3   4   7   29.12    1.99
   4   4   7    3.33    1.13
   4   4   7    3.09    0.93
   4   4   7    4.22    0.97
   5   4   7   10.01    1.05
  -6  -4  -7    0.97    0.72
 -12   5   7    0.40    0.29
  11  -5  -7    3.40    0.88
 -11   5   7    3.18    0.63
  10  -5  -7    0.95    0.47
 -10   5   7    0.56    0.47
 -10   5   7    0.88    0.38
   9  -5  -7   39.62    2.47
  -9   5   7   40.08    2.54
  -9   5   7   40.06    2.51
  -8   5   7    3.52    0.81
  -8   5   7    4.33    0.98
  -7   5   7   15.52    1.33
  -7   5   7   13.88    1.23
  -6   5   7   -0.50    0.35
  -6   5   7    0.68    0.44
   5  -5  -7   -0.21    0.34
  -5   5   7   -0.04    0.46
  -5   5   7   -0.19    0.40
   4  -5  -7   13.04    0.99
  -4   5   7   12.69    1.21
  -4   5   7   12.50    1.15
   3  -5  -7   79.27    4.53
  -3   5   7   76.46    4.59
  -3   5   7   80.06    4.61
   2  -5  -7    2.14    0.69
  -2   5   7    2.98    0.83
  -2   5   7    1.69    0.51
  -1   5   7    4.74    0.91
  -1   5   7    3.49    0.92
   0   5   7   38.61    2.41
   0   5   7   36.85    2.91
   0   5   7   35.84    2.43
   1   5   7   -0.46    0.50
   1   5   7    0.18    0.56
   1   5   7   -0.40    0.85
   2   5   7   -0.27    0.54
   2   5   7   -0.06    0.70
   3   5   7    0.61    0.53
   3   5   7   -0.21    0.66
   3   5   7    0.68    0.58
   4   5   7    0.17    0.52
   5   5   7   -0.32    0.44
 -12   6   7   -0.33    0.26
  11  -6  -7    2.51    0.86
 -11   6   7    3.46    0.66
 -11   6   7    3.71    0.94
  10  -6  -7    1.07    0.47
 -10   6   7    0.97    0.37
 -10   6   7    0.77    0.41
   9  -6  -7    0.65    0.40
  -9   6   7    0.21    0.40
  -9   6   7    0.25    0.38
   8  -6  -7   14.70    1.14
  -8   6   7   16.38    1.28
  -8   6   7   15.25    1.29
   7  -6  -7   10.88    0.93
  -7   6   7   11.77    1.06
  -7   6   7   12.40    1.10
   6  -6  -7    7.80    0.76
  -6   6   7    6.82    0.91
  -6   6   7    8.08    1.00
   5  -6  -7   21.03    1.39
  -5   6   7   21.50    1.50
  -5   6   7   19.64    1.56
   4  -6  -7   12.47    1.00
  -4   6   7   11.42    1.23
  -4   6   7   13.84    1.13
   3  -6  -7   25.98    1.72
  -3   6   7   27.12    1.83
  -3   6   7   26.78    1.81
   2  -6  -7    3.87    0.82
  -2   6   7    5.22    1.03
  -1   6   7   10.02    1.11
  -1   6   7   11.56    1.19
   0   6   7   33.53    2.21
   0   6   7   30.28    2.71
   0   6   7   32.80    2.23
   1   6   7    2.54    0.82
   1   6   7    4.21    1.07
   2   6   7    3.16    1.03
   2   6   7    3.11    0.96
   2   6   7    4.68    1.15
   3   6   7    8.34    1.05
   4   6   7   24.29    1.67
   5   6   7    0.15    0.43
 -12   7   7    0.18    0.28
  11  -7  -7    0.35    0.66
 -11   7   7    0.12    0.31
 -11   7   7    0.40    0.40
  10  -7  -7    8.94    0.87
 -10   7   7    9.01    0.84
 -10   7   7    7.45    0.89
   9  -7  -7    0.13    0.40
  -9   7   7    0.28    0.35
  -9   7   7    0.01    0.35
   8  -7  -7    0.43    0.36
  -8   7   7    0.46    0.38
  -8   7   7    0.09    0.42
   7  -7  -7   27.84    1.86
  -7   7   7   30.86    1.98
  -7   7   7   29.77    1.92
   6  -7  -7    5.40    0.68
  -6   7   7    7.39    1.01
  -6   7   7    7.15    0.84
   5  -7  -7   10.88    0.93
  -5   7   7   11.79    1.07
  -5   7   7   12.21    1.22
   4  -7  -7    1.25    0.44
  -4   7   7    1.44    0.54
  -4   7   7    1.16    0.44
   3  -7  -7   40.77    2.47
  -3   7   7   39.02    2.55
  -3   7   7   41.32    2.54
   2  -7  -7    3.46    0.92
  -2   7   7    3.68    0.89
  -2   7   7    2.69    1.00
  -1   7   7    2.96    0.89
  -1   7   7    1.42    0.67
   0   7   7    9.40    1.28
   0   7   7    8.94    1.17
   1   7   7    1.70    0.73
   1   7   7    3.97    0.92
   1   7   7    1.87    0.73
   2   7   7   -0.51    0.55
   3   7   7   13.39    1.18
   4   7   7    3.61    0.86
 -11   8   7    6.81    0.77
 -11   8   7    6.46    0.77
  10  -8  -7    2.23    0.70
 -10   8   7    2.37    0.63
 -10   8   7    2.46    0.60
   9  -8  -7    5.86    0.73
  -9   8   7    6.70    0.74
  -9   8   7    6.83    0.76
   8  -8  -7    0.62    0.40
  -8   8   7    0.07    0.34
  -8   8   7    0.02    0.41
   7  -8  -7   37.36    2.34
  -7   8   7   38.01    2.37
  -7   8   7   39.62    2.41
   6  -8  -7   -0.20    0.35
  -6   8   7    0.52    0.54
  -6   8   7   -0.06    0.39
   5  -8  -7    0.65    0.39
  -5   8   7    0.24    0.39
  -5   8   7   -0.81    0.55
   4  -8  -7    0.06    0.41
  -4   8   7   -0.13    0.57
  -4   8   7    0.55    0.45
   3  -8  -7   23.94    1.66
  -3   8   7   22.84    1.83
  -3   8   7   25.56    1.68
   2  -8  -7   27.85    2.26
  -2   8   7   33.60    2.28
  -2   8   7   31.93    2.04
  -1   8   7    1.16    0.62
   0   8   7    0.08    0.52
   2   8   7   -0.14    0.58
   3   8   7    0.79    0.63
  10  -9  -7    2.32    0.81
 -10   9   7    2.83    0.55
 -10   9   7    4.68    0.83
   9  -9  -7    3.29    0.65
  -9   9   7    3.04    0.80
  -9   9   7    2.23    0.57
   8  -9  -7    1.30    0.40
  -8   9   7    1.33    0.33
  -8   9   7    1.52    0.51
   7  -9  -7    1.64    0.56
  -7   9   7    2.03    0.59
  -7   9   7    0.99    0.50
   6  -9  -7    5.23    0.65
  -6   9   7    3.93    0.69
  -6   9   7    5.88    1.04
   5  -9  -7    0.21    0.42
  -5   9   7    0.11    0.41
  -5   9   7   -0.50    0.68
   4  -9  -7    6.72    0.84
  -4   9   7    6.79    0.90
   3  -9  -7    9.05    1.13
  -3   9   7    8.14    0.93
  -2   9   7   -0.62    0.48
  -1   9   7    6.08    0.95
 -10  10   7    2.94    0.51
   9 -10  -7   19.99    1.38
  -9  10   7   19.75    1.28
   8 -10  -7    5.31    0.71
  -8  10   7    4.68    0.60
   7 -10  -7   16.56    1.19
  -7  10   7   16.15    1.14
   6 -10  -7    1.82    0.61
  -6  10   7    2.96    0.59
   5 -10  -7    2.30    0.73
  -5  10   7    2.28    0.70
   4 -10  -7    0.83    0.62
  -4  10   7    0.90    0.37
  -3  10   7    2.93    0.75
  -2  10   7    3.37    0.93
  -8  11   7    4.08    0.55
  -7  11   7    0.14    0.29
   6 -11  -7    1.05    0.55
   5 -11  -7    0.87    0.65
  -5  11   7    0.31    0.36
  -4  11   7    1.37    0.43
  -3  11   7    0.24    0.53
  -6  12   7    2.62    0.61
  -5  12   7   -1.02    0.90
   3  15  -8   -0.15    0.38
  -2 -15   8    3.94    0.70
  -1 -15   8    0.03    0.69
  -1 -15   8    0.29    0.36
   0 -15   8    0.20    0.40
   1 -15   8    0.75    0.42
   2 -15   8    0.48    0.37
   2 -15   8    2.20    0.77
   3 -15   8    2.04    0.45
   3 -15   8    2.01    0.70
   4 -15   8    1.10    0.46
   4 -15   8    1.15    0.48
   4  14  -8    2.80    0.72
  -4 -14   8    1.26    0.64
  -3 -14   8    8.54    0.91
  -3 -14   8    9.47    0.83
  -2 -14   8    0.52    0.37
  -2 -14   8    0.28    0.58
  -1 -14   8    8.16    1.07
  -1 -14   8    9.52    0.97
   0 -14   8   11.19    1.05
   0 -14   8   13.56    1.04
   0 -14   8   11.65    1.28
   1 -14   8    5.38    1.30
   1 -14   8    2.93    0.76
   1 -14   8    2.80    0.78
   2 -14   8    1.90    0.75
   2 -14   8    2.76    0.71
   3 -14   8    0.49    0.42
   3 -14   8    0.90    0.39
   4 -14   8    8.04    0.89
   4 -14   8    8.44    0.93
   5 -14   8    4.12    0.77
   5 -14   8    2.52    0.90
   6 -14   8    1.06    0.66
   5  13  -8   -0.05    0.45
  -5 -13   8    0.05    0.59
  -4 -13   8    0.33    0.49
  -4 -13   8    1.48    0.60
  -3 -13   8   -0.16    0.52
  -3 -13   8   -0.22    0.34
  -2 -13   8    1.30    0.42
  -2 -13   8   -0.33    0.53
  -1 -13   8    0.19    0.39
  -1 -13   8    0.20    0.62
  -1 -13   8    0.50    0.44
   0 -13   8    1.18    0.48
   0 -13   8    0.10    0.68
   0 -13   8    0.15    0.44
   1 -13   8    0.40    0.46
   1 -13   8    0.54    0.42
   1 -13   8    0.02    0.83
   2 -13   8   45.01    2.70
   2 -13   8   43.01    2.67
   3 -13   8    0.62    0.42
   3 -13   8    1.00    0.45
   4 -13   8    7.33    0.92
   4 -13   8    6.71    0.84
  -5  13  -8    1.26    0.64
   5 -13   8    0.39    0.37
   5 -13   8    2.09    0.83
  -6  13  -8    7.77    1.15
   6 -13   8    7.63    1.17
   6 -13   8   10.02    0.87
   6  12  -8   -0.49    0.51
  -6 -12   8   -0.24    0.54
   5  12  -8    2.47    0.60
  -5 -12   8    2.05    0.62
  -5 -12   8    1.05    0.53
  -4 -12   8    0.45    0.52
  -4 -12   8    1.18    0.39
  -3 -12   8    0.18    0.52
  -3 -12   8   -0.17    0.42
  -2 -12   8    0.59    0.44
  -2 -12   8    0.03    0.50
  -2 -12   8    0.97    0.56
  -1 -12   8   13.29    1.21
  -1 -12   8   11.67    1.17
  -1 -12   8   10.00    1.14
   0 -12   8   17.79    1.45
   0 -12   8   15.03    1.45
   0 -12   8   19.52    1.40
   1 -12   8   -0.58    0.78
   1 -12   8   -0.26    0.44
   1 -12   8    0.63    0.53
   2 -12   8    7.24    1.01
   2 -12   8    6.62    0.98
   3 -12   8    3.24    0.88
  -4  12  -8    1.36    0.73
   4 -12   8    1.37    0.44
   4 -12   8    1.34    0.50
  -5  12  -8    9.18    1.16
   5 -12   8    9.89    1.09
   5 -12   8   10.23    0.99
  -6  12  -8    1.45    0.52
   6 -12   8    2.14    0.89
   6 -12   8    2.65    0.72
  -7  12  -8   -0.10    0.39
   7 -12   8   -0.02    0.35
   8  11  -8    0.03    0.33
  -7 -11   8   -0.89    0.60
   6  11  -8    0.23    0.62
  -6 -11   8    0.21    0.56
  -5 -11   8    5.66    0.76
  -5 -11   8    4.16    0.79
  -4 -11   8   12.56    1.13
  -4 -11   8    9.91    1.02
  -3 -11   8    7.72    0.96
  -3 -11   8    8.75    1.06
  -3 -11   8    9.70    1.15
  -2 -11   8   50.14    2.97
  -2 -11   8   47.75    2.99
  -2 -11   8   47.58    3.01
  -1 -11   8    0.22    0.53
  -1 -11   8    0.65    0.59
  -1 -11   8    0.57    0.47
   0 -11   8    4.87    0.95
   0 -11   8    4.51    1.05
   0 -11   8    3.74    1.00
   1 -11   8   17.27    1.43
   1 -11   8   15.92    1.36
   1 -11   8   16.71    1.56
   2 -11   8    8.93    1.14
   2 -11   8   10.26    1.09
   3 -11   8    3.59    0.92
   3 -11   8    2.65    0.63
   4 -11   8    1.39    0.50
   4 -11   8    0.83    0.56
   5 -11   8    0.74    0.44
   5 -11   8   -0.08    0.52
   6 -11   8   -0.12    0.51
   6 -11   8   -0.11    0.39
  -7  11  -8    0.70    0.43
   7 -11   8    2.08    0.69
   7 -11   8    0.73    0.59
  -8 -10   8    0.08    1.11
  -7 -10   8    1.41    0.60
   6  10  -8    4.64    1.25
  -6 -10   8    2.57    0.77
  -6 -10   8    3.17    0.77
  -5 -10   8    0.30    0.44
  -5 -10   8   -0.08    0.46
  -4 -10   8    1.47    0.54
  -4 -10   8    1.82    0.51
  -3 -10   8    3.51    0.88
  -3 -10   8    2.58    0.77
  -3 -10   8    3.96    1.11
  -2 -10   8   10.90    1.13
  -2 -10   8   12.86    1.10
  -2 -10   8    8.53    1.30
  -1 -10   8   19.20    1.45
  -1 -10   8   16.29    1.41
  -1 -10   8   19.27    1.52
   0 -10   8   11.13    1.22
   0 -10   8   11.47    1.18
   0 -10   8   10.85    1.17
   1 -10   8    3.90    1.03
   1 -10   8    1.64    0.83
   1 -10   8    2.20    0.54
   2 -10   8    0.36    0.46
   2 -10   8    1.11    0.57
   3 -10   8   17.30    1.39
   3 -10   8   16.46    1.48
   4 -10   8    7.54    1.14
   4 -10   8    7.11    1.06
   5 -10   8    5.37    0.91
   5 -10   8    6.08    1.11
   6 -10   8    4.49    0.84
   6 -10   8    5.80    1.02
   7 -10   8    6.05    0.86
   7 -10   8    6.31    1.14
  -8  10  -8    2.10    0.62
   8 -10   8    2.43    0.63
   9   9  -8    0.44    0.35
  -8  -9   8    3.37    0.95
  -7  -9   8    0.97    0.53
  -6  -9   8    6.76    0.90
  -6  -9   8    6.63    0.98
  -5  -9   8    3.64    1.00
  -5  -9   8    2.76    0.69
  -4  -9   8   15.97    1.69
  -4  -9   8   19.62    1.37
  -4  -9   8   15.97    1.45
  -3  -9   8   23.90    1.89
  -3  -9   8   24.95    1.71
  -3  -9   8   24.56    1.76
  -2  -9   8    9.72    1.20
  -2  -9   8   11.80    1.04
  -2  -9   8    7.19    1.33
  -1  -9   8    1.47    0.58
  -1  -9   8    2.03    0.50
  -1  -9   8    1.78    0.57
   0  -9   8   48.45    3.02
   0  -9   8   49.14    3.03
   0  -9   8   50.76    3.11
   1  -9   8    5.97    1.11
   1  -9   8    6.78    1.01
   2  -9   8    5.91    0.97
   2  -9   8    3.91    0.73
   2  -9   8    2.21    0.87
   3  -9   8    1.07    0.49
   3  -9   8    0.87    0.56
   3  -9   8   -0.82    0.71
   4  -9   8    0.60    0.64
   4  -9   8   -0.01    0.57
   4  -9   8   -0.41    0.49
   5  -9   8    3.62    1.06
   5  -9   8    4.76    1.06
   6  -9   8   57.84    3.53
   6  -9   8   57.56    3.48
   7  -9   8    1.62    0.44
   7  -9   8    3.15    1.05
   8  -9   8    9.47    0.89
   8  -9   8    6.68    1.33
  10   8  -8    0.62    0.34
  -9  -8   8    0.71    0.93
  -8  -8   8    4.63    0.87
  -7  -8   8   12.59    1.08
  -6  -8   8    5.96    0.97
  -6  -8   8    5.21    0.86
  -5  -8   8    2.00    0.71
  -5  -8   8    4.28    1.02
  -4  -8   8    2.70    0.78
  -4  -8   8    4.56    1.46
  -4  -8   8    2.54    0.94
  -3  -8   8    1.24    0.50
  -3  -8   8    1.66    0.74
  -2  -8   8    7.46    1.20
  -2  -8   8    8.35    1.10
  -2  -8   8    7.73    0.93
  -1  -8   8   44.64    2.82
  -1  -8   8   44.30    2.93
  -1  -8   8   48.17    2.80
   0  -8   8    2.83    0.94
   0  -8   8    2.53    0.95
   1  -8   8    2.74    1.05
   1  -8   8    0.40    0.95
   1  -8   8    1.65    0.52
   2  -8   8    0.73    0.56
   2  -8   8    0.83    0.50
   2  -8   8    1.33    0.88
   3  -8   8   -0.42    0.52
   3  -8   8   -0.34    0.68
   3  -8   8   -0.65    0.56
   4  -8   8    0.49    0.52
   4  -8   8    0.28    0.56
   4  -8   8    0.54    0.67
   5  -8   8   14.69    1.39
   5  -8   8   11.74    1.40
   5  -8   8   15.09    1.37
   6  -8   8    3.89    0.95
   6  -8   8    4.31    1.00
   7  -8   8    6.30    1.02
   7  -8   8    6.25    0.98
   8  -8   8    4.38    1.10
   8  -8   8    4.04    0.71
  10   7  -8   -0.17    0.40
  -9  -7   8    0.13    0.76
  -8  -7   8    2.92    0.82
  -7  -7   8   11.13    1.01
  -7  -7   8   11.07    1.16
  -6  -7   8   10.18    1.15
  -6  -7   8    9.84    1.01
  -5  -7   8    2.02    0.75
  -5  -7   8    4.40    1.08
  -4  -7   8    1.16    0.92
  -4  -7   8    0.96    0.54
  -3  -7   8    0.91    0.60
  -3  -7   8    1.20    0.50
  -3  -7   8    1.34    0.78
  -2  -7   8    0.18    0.51
  -2  -7   8    0.66    0.43
  -2  -7   8    0.24    0.65
  -1  -7   8    0.84    0.60
  -1  -7   8    0.90    0.52
  -1  -7   8    1.26    0.53
   0  -7   8   63.24    3.85
   0  -7   8   63.81    3.91
   0  -7   8   67.37    3.84
   1  -7   8    0.23    0.78
   1  -7   8    0.78    0.51
   1  -7   8    0.40    0.57
   2  -7   8    3.95    1.16
   2  -7   8    5.05    1.05
   3  -7   8    0.99    0.56
   3  -7   8    1.17    0.58
   3  -7   8    1.39    0.62
   4  -7   8   17.05    1.48
   4  -7   8   15.11    1.52
   4  -7   8   18.57    1.52
   5  -7   8    3.97    1.04
   5  -7   8    3.20    0.70
   5  -7   8    5.18    1.16
  -6   7  -8   22.94    2.23
   6  -7   8   29.74    2.00
   6  -7   8   28.61    2.03
   6  -7   8   30.79    1.97
  -7   7  -8    3.33    1.30
   7  -7   8    3.53    0.91
   7  -7   8    5.15    0.98
  -8   7  -8    3.78    1.35
   8  -7   8    5.83    0.98
   8  -7   8    5.73    0.80
  11   6  -8    1.19    0.45
  10   6  -8    4.37    0.85
  -9  -6   8    6.28    1.00
  -8  -6   8    8.74    0.95
  -7  -6   8   11.41    1.20
  -7  -6   8   10.23    1.02
  -6  -6   8   35.54    2.17
  -6  -6   8   31.10    2.23
  -5  -6   8    6.61    1.21
  -5  -6   8    8.66    0.92
  -4  -6   8    3.36    0.68
  -4  -6   8    5.25    1.15
  -3  -6   8    1.64    0.67
  -3  -6   8    0.25    0.91
  -3  -6   8    0.99    0.48
  -2  -6   8   10.98    0.98
  -2  -6   8   10.84    1.29
  -2  -6   8    9.56    1.63
  -1  -6   8   21.34    1.47
  -1  -6   8   20.87    1.76
  -1  -6   8   19.01    1.64
   0  -6   8   35.20    2.40
   0  -6   8   34.43    2.81
   0  -6   8   36.04    2.40
   0  -6   8   34.29    2.32
   1  -6   8    2.78    1.06
   1  -6   8    0.34    0.56
   1  -6   8   -0.38    0.61
   2  -6   8    2.32    0.62
   2  -6   8    2.28    0.62
   2  -6   8    2.08    0.61
   3  -6   8   21.19    1.73
   3  -6   8   23.03    1.62
   3  -6   8   20.08    2.07
   3  -6   8   20.48    1.75
   4  -6   8    0.45    0.63
   4  -6   8    1.05    0.58
   4  -6   8    0.56    0.63
   5  -6   8   27.16    1.92
   5  -6   8   27.30    2.03
   5  -6   8   26.32    2.00
   6  -6   8   11.12    1.30
   6  -6   8   11.84    1.26
   6  -6   8    9.55    1.27
  -7   6  -8    1.29    0.61
   7  -6   8    1.86    0.55
   7  -6   8    2.74    0.83
  -8   6  -8    2.79    0.98
   8  -6   8    1.14    0.47
   8  -6   8    0.83    0.40
  11   5  -8    2.73    0.84
  10   5  -8    3.42    0.90
 -10  -5   8    3.82    1.14
  -9  -5   8    4.10    0.99
  -8  -5   8   -0.21    0.54
  -7  -5   8   34.38    2.13
  -7  -5   8   32.28    2.23
  -6  -5   8   -0.14    0.42
  -5  -5   8   34.58    2.17
  -5  -5   8   33.60    2.41
  -4  -5   8   17.47    1.74
  -4  -5   8   20.33    1.37
   3   5  -8   14.96    1.81
  -3  -5   8   13.36    1.06
  -3  -5   8   12.91    1.77
   2   5  -8   12.32    1.56
  -2  -5   8   10.98    0.95
  -2  -5   8    9.84    1.36
  -1  -5   8    4.23    1.18
  -1  -5   8    2.97    0.82
  -1  -5   8    3.21    0.81
   0  -5   8   21.48    1.66
   0  -5   8   20.06    1.65
   0  -5   8   16.76    1.71
   1  -5   8   17.23    1.63
   1  -5   8   18.83    1.49
   1  -5   8   18.84    1.64
   2  -5   8    7.44    0.99
   2  -5   8    5.76    1.43
   2  -5   8    6.46    1.25
   2  -5   8    7.28    1.32
   3  -5   8    1.16    0.61
   3  -5   8   -0.10    0.64
   3  -5   8    0.69    0.69
   3  -5   8    0.84    0.53
   4  -5   8    3.53    1.13
   4  -5   8    0.21    0.66
   4  -5   8    1.17    0.54
   5  -5   8    3.62    0.94
   5  -5   8    3.30    1.25
   6  -5   8    0.63    0.61
   6  -5   8    0.15    0.57
  -7   5  -8    0.81    0.57
   7  -5   8    1.12    0.52
   7  -5   8    0.83    0.52
   7  -5   8    2.53    0.82
  -8   5  -8    2.02    0.80
   8  -5   8    2.52    0.81
   8  -5   8    1.59    0.52
  11   4  -8   -0.60    0.56
  10   4  -8    0.54    0.56
 -10  -4   8   -0.20    0.60
  -9  -4   8    3.47    0.91
  -8  -4   8    0.15    0.50
  -7  -4   8   -0.09    0.63
  -7  -4   8   -0.15    0.44
  -6  -4   8    0.03    0.65
  -6  -4   8    2.05    0.68
  -5  -4   8    3.77    1.40
  -5  -4   8    6.86    0.72
  -4  -4   8    3.78    0.73
  -4  -4   8    4.77    1.58
   3   4  -8    7.77    1.50
  -3  -4   8   12.22    0.97
   2   4  -8    0.59    0.75
  -2  -4   8    0.86    0.48
   1   4  -8   64.49    3.73
  -1  -4   8   56.76    3.55
   0  -4   8   -0.93    0.76
   0  -4   8    0.30    0.61
   1  -4   8   33.58    2.41
   1  -4   8   33.94    2.39
   1  -4   8   32.50    2.36
   1  -4   8   35.26    2.21
   2  -4   8   10.43    1.07
   2  -4   8   11.17    1.47
   2  -4   8    6.55    1.25
   2  -4   8    8.53    1.26
   3  -4   8   71.18    4.28
   3  -4   8   72.47    4.31
   3  -4   8   69.33    4.18
   3  -4   8   69.00    4.15
   4  -4   8    1.44    0.68
   4  -4   8    0.72    0.52
   4  -4   8   -0.31    0.54
   4  -4   8    0.25    0.70
   5  -4   8    6.51    0.93
   5  -4   8    6.45    1.21
   5  -4   8    3.64    1.31
   6  -4   8    3.20    0.88
   6  -4   8    2.76    1.17
   7  -4   8    0.17    0.53
   7  -4   8   -0.48    0.47
   7  -4   8    0.40    0.51
  -8   4  -8    9.91    0.96
   8  -4   8   10.62    1.04
   8  -4   8    9.36    1.00
  11   3  -8    5.24    1.23
 -10  -3   8    7.36    1.01
  -8  -3   8   19.02    1.40
  -8  -3   8   16.05    2.02
  -7  -3   8   60.80    3.53
  -7  -3   8   56.02    3.82
  -6  -3   8    5.63    0.72
  -6  -3   8    4.94    1.65
  -6  -3   8    5.11    1.59
  -5  -3   8   80.83    4.21
  -5  -3   8   62.21    4.66
  -4  -3   8    4.05    0.65
   3   3  -8    0.86    0.80
  -3  -3   8    0.62    0.41
   2   3  -8    1.95    0.73
  -2  -3   8    1.56    0.43
   1   3  -8  102.19    5.98
   0   3  -8   -0.14    0.83
   0  -3   8    0.00    0.71
   0  -3   8    1.03    0.54
   0  -3   8    0.10    0.72
   1  -3   8    5.23    0.85
   1  -3   8    5.36    1.18
   1  -3   8    6.03    1.76
   1  -3   8    4.01    0.93
   2  -3   8   38.83    2.82
   2  -3   8   40.08    2.53
   2  -3   8   39.08    2.68
   2  -3   8   40.43    2.48
   3  -3   8    9.68    1.09
   3  -3   8    9.23    1.45
   3  -3   8    9.59    1.04
   3  -3   8    7.33    1.60
   4  -3   8    0.27    0.47
   4  -3   8    0.60    0.65
   4  -3   8    0.04    0.81
   4  -3   8   -0.02    0.50
   5  -3   8   -0.22    0.79
   5  -3   8    0.11    0.50
   5  -3   8    0.53    0.67
   6  -3   8   15.42    1.50
   6  -3   8   13.76    1.39
   7  -3   8    4.89    1.01
   7  -3   8    4.21    0.95
   7  -3   8    3.44    0.97
  -8   3  -8    2.85    0.72
   8  -3   8    1.95    0.81
   8  -3   8    1.80    0.55
 -11  -2   8    1.82    0.62
  10   2  -8    0.73    0.87
 -10  -2   8    1.49    0.70
 -10  -2   8    1.65    0.60
   9   2  -8   12.42    1.77
  -9  -2   8   11.94    1.10
  -8  -2   8   47.78    2.89
  -8  -2   8   45.14    3.13
  -7  -2   8   -0.18    0.81
  -7  -2   8    0.15    0.45
  -6  -2   8    4.78    0.90
  -6  -2   8    5.45    0.78
  -5  -2   8    7.02    1.33
  -5  -2   8    7.67    0.75
  -4  -2   8   54.94    3.22
   3   2  -8   46.36    2.99
  -3  -2   8   44.07    2.68
   2   2  -8   55.06    3.36
  -2  -2   8   50.86    3.11
   1   2  -8   43.28    2.87
   0   2  -8   14.53    1.72
   0  -2   8   11.61    1.69
   0  -2   8   12.10    1.20
   0  -2   8   12.73    1.22
   1  -2   8    4.23    0.84
   1  -2   8    3.25    1.03
   1  -2   8    4.74    1.57
   2  -2   8    1.19    0.52
   2  -2   8    2.12    0.76
   2  -2   8    0.72    0.48
   2  -2   8    0.02    0.98
   3  -2   8    4.99    1.34
   3  -2   8    7.77    0.97
   3  -2   8    6.75    1.06
   3  -2   8    7.54    1.73
   4  -2   8    8.29    0.94
   4  -2   8    7.79    1.07
   4  -2   8    7.68    1.43
   4  -2   8    7.44    1.62
   5  -2   8   -0.21    0.52
   5  -2   8    0.21    0.65
   5  -2   8    0.21    0.80
   5  -2   8    0.53    0.55
   6  -2   8    3.43    1.09
   6  -2   8    3.92    0.93
   6  -2   8    3.20    0.73
   7  -2   8    0.46    0.47
   7  -2   8    0.35    0.57
   7  -2   8    0.61    0.55
  -8   2  -8    0.27    0.40
   8  -2   8    0.66    0.42
 -12  -1   8   -0.31    0.48
 -11  -1   8    6.02    0.93
 -10  -1   8    0.74    0.55
 -10  -1   8    0.11    0.60
  -9  -1   8    6.68    0.85
  -8  -1   8   19.34    1.77
  -8  -1   8   19.22    1.44
  -7  -1   8    1.83    0.72
  -7  -1   8    0.90    0.70
  -6  -1   8   -0.61    0.64
  -6  -1   8    0.27    0.40
  -5  -1   8    1.88    0.59
  -5  -1   8    2.74    1.05
  -4  -1   8   15.30    1.06
  -4  -1   8   12.37    1.33
   3   1  -8   23.25    2.04
  -3  -1   8   25.50    1.61
   2   1  -8   38.12    2.62
  -2  -1   8   39.04    2.36
   1   1  -8   19.88    1.74
  -1  -1   8   16.02    1.35
  -1  -1   8   15.03    1.55
   0  -1   8    3.19    0.98
   0  -1   8    3.46    0.87
   1  -1   8   12.54    1.27
   1  -1   8   14.79    1.14
   1  -1   8   14.11    1.69
   2  -1   8    6.49    0.86
   2  -1   8    6.76    1.41
   2  -1   8    4.17    0.91
   3  -1   8   11.78    1.55
   3  -1   8   12.79    2.03
   3  -1   8   14.31    1.27
   3  -1   8   14.29    1.19
   4  -1   8   40.55    2.90
   4  -1   8   40.47    3.09
   4  -1   8   47.50    2.73
   4  -1   8   44.60    2.68
   5  -1   8    6.25    1.63
   5  -1   8    2.68    0.76
   5  -1   8    2.51    0.89
   6  -1   8    0.91    0.56
   6  -1   8   -0.68    0.55
   6  -1   8    0.14    0.75
   7  -1   8   -0.58    0.87
   7  -1   8    0.03    0.60
   7  -1   8   -0.42    0.42
 -12   0   8    8.45    0.86
 -11   0   8    2.77    0.88
 -10   0   8   32.81    2.08
 -10   0   8   25.91    1.93
  -9   0   8    0.49    0.59
  -9   0   8   -0.21    0.47
  -8   0   8    4.26    1.15
  -8   0   8    2.26    0.69
  -7   0   8   46.96    2.88
  -7   0   8   48.24    3.01
  -6   0   8   45.02    2.83
  -6   0   8   44.89    2.71
  -5   0   8    3.76    1.45
  -5   0   8    4.82    0.61
  -5   0   8    2.47    0.93
  -4   0   8    0.18    0.47
  -4   0   8    0.55    0.34
  -4   0   8   -0.20    0.80
  -3   0   8    2.98    0.58
  -3   0   8    3.09    0.64
  -3   0   8    3.71    0.92
  -2   0   8   10.38    1.17
  -2   0   8   11.99    1.18
  -2   0   8   11.65    1.02
  -1   0   8    1.95    0.49
  -1   0   8    3.54    0.93
   0   0   8    6.44    1.82
   0   0   8    7.99    0.95
   0   0   8    7.91    1.06
   1   0   8   14.20    1.17
   1   0   8   12.11    1.80
   1   0   8   14.15    1.27
   2   0   8   -0.53    0.43
   2   0   8    0.28    0.46
   2   0   8   -0.36    0.79
   3   0   8   34.90    2.20
   3   0   8   32.35    2.41
   3   0   8   32.99    2.15
   4   0   8   26.43    1.98
   4   0   8   24.70    1.70
   4   0   8   23.70    1.76
   5   0   8    3.18    1.10
   5   0   8    0.53    0.54
   6   0   8    0.42    0.48
   6   0   8   -0.07    0.57
   7   0   8    2.21    0.69
 -12   1   8   11.55    0.95
 -11   1   8    0.00    0.44
 -10   1   8    2.81    0.96
  -9   1   8    0.96    0.48
  -9   1   8    0.96    0.54
  -8   1   8    1.86    0.58
  -8   1   8    2.29    0.69
  -7   1   8   16.73    1.42
  -7   1   8   16.31    1.23
  -6   1   8   -0.38    0.71
  -6   1   8    0.40    0.46
  -6   1   8   -0.11    0.34
  -5   1   8   80.90    4.61
  -5   1   8   84.06    4.56
  -5   1   8   71.11    4.64
  -4   1   8   13.40    1.17
  -4   1   8   13.29    1.36
  -4   1   8   13.60    1.06
  -3   1   8   17.10    1.27
  -3   1   8   17.16    1.35
  -3   1   8   19.18    1.47
  -2   1   8    7.33    0.95
  -2   1   8    7.86    1.00
  -1   1   8    0.49    0.49
  -1   1   8    0.97    0.41
   0   1   8   20.58    1.52
   0   1   8   22.21    2.31
   0   1   8   20.79    1.55
   1   1   8    7.23    0.87
   1   1   8    5.93    1.02
   2   1   8    4.36    1.45
   2   1   8    4.09    0.82
   3   1   8   -0.89    0.72
   3   1   8   -0.04    0.49
   3   1   8   -0.29    0.49
   4   1   8    1.22    0.70
   4   1   8    1.41    0.52
   4   1   8    2.98    0.87
   5   1   8   -0.49    0.54
   5   1   8    0.03    0.55
   6   1   8    3.48    1.19
   6   1   8    1.56    0.48
  -7  -1  -8    0.52    0.47
   7   1   8    2.23    0.70
 -12   2   8    5.60    0.67
 -11   2   8    0.47    0.37
 -10   2   8   17.30    1.40
  -9   2   8    2.38    0.87
  -8   2   8   -0.84    0.79
  -8   2   8    0.62    0.39
  -8   2   8    0.17    0.49
  -7   2   8    9.43    1.29
  -7   2   8    6.38    0.95
  -7   2   8    8.21    0.84
  -6   2   8   24.41    1.50
  -6   2   8   18.73    1.74
  -6   2   8   22.07    1.59
  -5   2   8   26.88    1.86
  -5   2   8   26.96    1.70
  -5   2   8   24.80    1.77
  -4   2   8    5.30    0.86
  -4   2   8    6.03    0.95
  -3   2   8    1.45    0.48
  -3   2   8    0.17    0.41
  -2   2   8    0.24    0.41
  -2   2   8   -0.15    0.40
  -1   2   8    8.89    0.98
  -1   2   8    9.44    1.01
   0   2   8    1.58    1.02
   0   2   8    0.10    0.44
   0   2   8    0.80    0.51
   1   2   8   17.27    1.25
   1   2   8   13.20    1.88
   1   2   8   15.35    1.34
   2   2   8    2.31    0.80
   2   2   8    3.38    0.81
   2   2   8    2.82    0.87
   3   2   8   23.94    1.73
   3   2   8   26.12    1.74
   3   2   8   24.75    1.98
   4   2   8    0.75    0.48
   4   2   8   -0.35    0.54
   4   2   8   -0.14    0.62
   5   2   8    8.07    1.05
   5   2   8    6.52    1.04
   6   2   8    2.41    0.74
 -12   3   8    0.55    0.32
 -11   3   8    3.47    0.66
 -10   3   8   23.55    1.64
  -9   3   8    0.70    0.68
  -9   3   8    3.11    0.84
  -8   3   8    5.54    0.86
  -8   3   8    5.35    1.19
  -7   3   8    8.49    0.98
  -7   3   8    7.51    1.16
  -6   3   8   10.51    1.22
  -6   3   8   12.16    1.11
  -5   3   8   17.00    1.31
  -5   3   8   16.05    1.35
  -4   3   8    4.51    0.85
  -4   3   8    4.53    0.82
  -3   3   8    0.29    0.45
  -3   3   8    0.33    0.44
   2  -3  -8    6.55    0.85
  -2   3   8    8.35    0.93
  -2   3   8    7.49    0.94
  -1   3   8    2.45    0.80
  -1   3   8    1.34    0.49
   0   3   8    4.75    0.87
   0   3   8    4.82    0.97
   1   3   8    1.39    0.47
   1   3   8    2.97    0.97
   1   3   8    0.94    0.85
   2   3   8    3.77    1.32
   2   3   8    4.07    0.91
   2   3   8    3.92    0.85
   3   3   8    0.56    0.47
   3   3   8    0.56    0.52
   3   3   8    0.40    0.67
   4   3   8    0.63    0.58
   4   3   8    0.52    0.44
   4   3   8   -0.33    0.53
   5   3   8    3.85    0.85
   6   3   8    2.07    0.73
 -12   4   8    4.53    0.58
  11  -4  -8    0.78    0.49
 -11   4   8    2.00    0.56
  10  -4  -8    2.06    0.68
 -10   4   8    2.44    0.66
  -9   4   8    1.85    0.74
  -8   4   8    5.48    1.05
  -8   4   8    6.32    0.85
  -7   4   8    2.55    0.79
  -7   4   8    1.23    0.52
  -6   4   8    2.13    0.50
  -6   4   8    2.19    0.56
  -5   4   8    2.19    0.81
  -5   4   8    2.18    0.78
   4  -4  -8   16.37    1.14
  -4   4   8   13.27    1.20
  -4   4   8   14.93    1.24
   3  -4  -8   60.27    3.53
  -3   4   8   59.08    3.59
  -3   4   8   61.73    3.61
   2  -4  -8   -0.10    0.56
  -2   4   8   -0.71    0.40
  -2   4   8    0.72    0.43
  -1   4   8   59.53    3.53
  -1   4   8   59.08    3.54
   0   4   8   18.22    1.37
   0   4   8   12.47    2.02
   0   4   8   14.17    1.31
   1   4   8   -0.82    0.80
   1   4   8    0.75    0.51
   1   4   8    0.33    0.47
   2   4   8    5.20    0.87
   2   4   8    3.44    0.94
   2   4   8    6.15    1.29
   3   4   8    0.66    0.46
   3   4   8    0.95    0.62
   3   4   8    0.22    0.52
   4   4   8   -0.48    0.51
   5   4   8    0.13    0.48
 -12   5   8    0.26    0.26
  11  -5  -8    0.34    0.52
 -11   5   8    0.54    0.30
  10  -5  -8   18.59    1.30
 -10   5   8   19.43    1.34
 -10   5   8   16.89    1.42
   9  -5  -8    0.39    0.42
  -9   5   8    0.41    0.40
  -9   5   8    0.01    0.48
   8  -5  -8    0.19    0.36
  -8   5   8   -0.39    0.47
  -8   5   8    0.00    0.38
   7  -5  -8   -0.31    0.34
  -7   5   8    0.57    0.42
  -7   5   8   -0.28    0.45
   6  -5  -8   -0.11    0.36
  -6   5   8    0.59    0.44
  -6   5   8    0.02    0.43
   5  -5  -8   34.15    2.12
  -5   5   8   34.84    2.19
  -5   5   8   32.66    2.20
   4  -5  -8  117.14    6.67
  -4   5   8  117.35    6.72
  -4   5   8  116.51    6.72
   3  -5  -8    0.59    0.50
  -3   5   8    0.79    0.46
  -3   5   8    2.40    0.78
   2  -5  -8    1.71    0.83
  -2   5   8    0.16    0.50
  -2   5   8    0.44    0.41
  -1   5   8    2.10    0.81
  -1   5   8    0.02    0.46
   0   5   8    1.18    0.52
   0   5   8    0.57    0.51
   0   5   8   -0.08    0.99
   1   5   8    0.06    0.50
   1   5   8   -0.38    0.77
   1   5   8    0.14    0.45
   2   5   8   12.78    1.22
   2   5   8   14.29    1.21
   2   5   8   16.20    1.49
   3   5   8    8.77    0.95
   3   5   8    5.39    1.07
   3   5   8    7.36    1.14
   4   5   8    5.01    0.90
 -12   6   8    3.80    0.50
  11  -6  -8   -0.11    0.52
 -11   6   8    0.10    0.28
  10  -6  -8   39.23    2.36
 -10   6   8   36.97    2.37
 -10   6   8   39.14    2.35
   9  -6  -8    7.90    0.79
  -9   6   8    8.69    0.84
  -9   6   8    6.37    0.89
   8  -6  -8    0.44    0.34
  -8   6   8    0.71    0.41
  -8   6   8    0.21    0.44
   7  -6  -8    2.52    0.54
  -7   6   8    3.16    0.76
   6  -6  -8    0.21    0.33
  -6   6   8    0.44    0.44
  -6   6   8    0.88    0.43
   5  -6  -8   10.05    0.90
  -5   6   8   11.35    1.02
  -5   6   8   10.23    1.11
   4  -6  -8   13.54    1.12
  -4   6   8   14.29    1.18
  -4   6   8   15.25    1.22
   3  -6  -8   18.69    1.50
  -3   6   8   22.73    1.56
  -3   6   8   22.84    1.52
  -2   6   8    3.15    0.87
  -1   6   8    4.55    0.97
  -1   6   8    4.34    1.04
   0   6   8    3.87    1.00
   0   6   8    3.07    0.88
   1   6   8    0.15    0.75
   1   6   8    1.28    0.47
   1   6   8    0.34    0.51
   2   6   8    2.66    0.98
   2   6   8    0.50    0.53
   2   6   8    0.70    0.64
   3   6   8    9.76    1.10
   4   6   8    1.06    0.52
 -11   7   8    6.09    0.89
 -11   7   8    5.93    0.64
  10  -7  -8    1.75    0.65
 -10   7   8    2.21    0.63
 -10   7   8    1.71    0.54
   9  -7  -8    2.63    0.59
  -9   7   8    1.79    0.59
  -9   7   8    1.99    0.42
   8  -7  -8    0.56    0.35
  -8   7   8    1.10    0.37
  -8   7   8    1.68    0.64
   7  -7  -8   15.78    1.20
  -7   7   8   17.91    1.33
  -7   7   8   18.05    1.29
   6  -7  -8    5.93    0.73
  -6   7   8    7.37    0.83
  -6   7   8    6.82    0.98
   5  -7  -8    1.89    0.60
  -5   7   8    0.86    0.39
  -5   7   8    0.83    0.48
   4  -7  -8   34.93    2.21
  -4   7   8   36.67    2.28
  -4   7   8   34.89    2.26
   3  -7  -8    0.53    0.60
  -3   7   8    0.24    0.44
  -3   7   8   -0.70    0.51
  -2   7   8   31.00    1.95
  -2   7   8   27.91    2.02
  -1   7   8    2.84    0.87
  -1   7   8    1.40    0.61
   0   7   8    2.99    1.03
   1   7   8    0.18    0.77
   1   7   8   -0.72    0.52
   1   7   8    0.79    0.66
   2   7   8    4.09    1.13
   3   7   8    0.40    0.67
 -11   8   8   -0.58    0.39
  10  -8  -8    8.06    0.82
 -10   8   8    4.88    0.69
 -10   8   8    6.59    0.68
   9  -8  -8    0.44    0.35
  -9   8   8    0.63    0.33
   8  -8  -8    1.75    0.56
  -8   8   8    1.94    0.73
  -8   8   8    1.80    0.58
   7  -8  -8    6.33    0.67
  -7   8   8    3.49    0.88
  -7   8   8    5.02    0.68
   6  -8  -8   13.85    1.07
  -6   8   8   13.36    1.18
  -6   8   8   14.82    1.12
   5  -8  -8    2.97    0.67
  -5   8   8    1.62    0.49
  -5   8   8    2.64    0.75
   4  -8  -8    6.85    0.90
  -4   8   8    6.47    0.83
  -4   8   8    7.11    1.05
   3  -8  -8    1.11    0.85
  -3   8   8    3.43    1.06
  -3   8   8    1.51    0.42
  -2   8   8    0.55    0.46
  -2   8   8    1.20    0.70
  -1   8   8    4.14    0.81
   0   8   8   -0.19    0.49
 -10   9   8    0.38    0.30
   9  -9  -8    6.85    0.74
  -9   9   8    5.50    0.62
  -9   9   8    5.43    0.87
   8  -9  -8    2.07    0.59
  -8   9   8    2.35    0.78
  -8   9   8    2.57    0.53
   7  -9  -8    4.95    0.66
  -7   9   8    5.10    0.62
  -7   9   8    3.39    0.87
   6  -9  -8   21.07    1.40
  -6   9   8   19.27    1.57
  -6   9   8   20.48    1.38
   5  -9  -8    2.17    0.75
  -5   9   8    2.95    0.61
   4  -9  -8    5.54    1.07
  -4   9   8    3.41    0.73
  -3   9   8    0.63    0.40
  -2   9   8   -0.48    0.42
  -1   9   8    6.16    0.85
  -9  10   8   -0.03    0.23
   8 -10  -8    2.24    0.72
   7 -10  -8    4.71    0.76
  -7  10   8    4.07    0.52
   6 -10  -8   14.47    1.14
  -6  10   8   12.63    0.98
   5 -10  -8   -1.15    0.70
  -5  10   8    0.13    0.29
  -4  10   8    4.90    0.72
  -3  10   8   -0.50    0.43
  -2  10   8   -0.11    0.48
  -7  11   8   -0.05    0.25
  -6  11   8   -0.11    0.28
  -5  11   8    3.19    0.69
  -4  11   8    4.97    0.79
   3  15  -9    3.74    0.75
  -2 -15   9    0.46    0.33
  -1 -15   9    6.19    0.70
   0 -15   9    5.31    0.76
   1 -15   9    2.51    0.72
   2 -15   9    2.91    0.73
   3 -15   9    2.68    0.73
   3 -15   9    3.25    0.68
   4  14  -9    1.43    0.50
  -3 -14   9    1.57    0.55
  -3 -14   9    1.69    0.61
  -2 -14   9    2.97    0.86
  -2 -14   9    1.89    0.66
  -1 -14   9    2.45    0.69
  -1 -14   9    0.19    0.76
   0 -14   9   18.14    1.79
   0 -14   9   20.17    1.38
   0 -14   9   20.77    1.37
   1 -14   9    0.69    0.39
   1 -14   9    0.81    0.37
   2 -14   9   21.81    1.45
   2 -14   9   22.68    1.50
   3 -14   9    0.71    0.35
   3 -14   9    0.82    0.39
   4 -14   9    3.27    0.63
   4 -14   9    3.65    0.75
   5 -14   9    2.02    0.87
   5 -14   9    3.06    0.67
   5  13  -9    0.39    0.53
  -5 -13   9   -0.57    0.56
  -4 -13   9   12.13    1.14
  -4 -13   9   14.64    1.00
  -3 -13   9    4.00    0.78
  -3 -13   9    4.07    0.73
  -2 -13   9    0.25    0.38
  -2 -13   9   -0.43    0.64
  -1 -13   9   -0.22    0.71
  -1 -13   9    0.86    0.39
  -1 -13   9    0.25    0.42
   0 -13   9    1.03    0.45
   0 -13   9    2.55    0.74
   0 -13   9    0.12    0.85
   1 -13   9    1.94    0.79
   1 -13   9    1.20    0.41
   2 -13   9    3.03    0.76
   2 -13   9    2.10    0.42
   3 -13   9    1.79    0.76
   3 -13   9    2.36    0.68
   4 -13   9    0.30    0.35
   4 -13   9    0.45    0.42
   5 -13   9    6.78    0.87
   5 -13   9    6.42    0.75
   6 -13   9   -0.23    0.33
   6  12  -9    0.71    0.66
  -6 -12   9   -0.64    0.56
  -5 -12   9    0.78    0.34
  -5 -12   9    0.55    0.52
  -4 -12   9    3.11    0.79
  -4 -12   9    4.43    0.70
  -3 -12   9    2.10    0.84
  -3 -12   9    0.41    0.40
  -2 -12   9   10.04    1.06
  -2 -12   9    9.60    1.00
  -2 -12   9    7.73    1.11
  -1 -12   9    0.83    0.50
  -1 -12   9    0.20    0.43
  -1 -12   9    1.21    0.71
   0 -12   9   29.77    1.98
   0 -12   9   29.30    1.94
   1 -12   9   13.47    1.18
   1 -12   9   13.78    1.26
   2 -12   9   47.06    2.89
   2 -12   9   47.72    2.91
   3 -12   9    2.27    0.74
   3 -12   9    1.45    0.49
  -4  12  -9    1.42    0.78
   4 -12   9    1.25    0.40
   4 -12   9    1.19    0.43
  -5  12  -9    0.54    0.59
   5 -12   9    0.18    0.44
   5 -12   9    0.77    0.38
  -6  12  -9    0.29    0.49
   6 -12   9   -0.13    0.33
   6 -12   9    0.43    0.45
  -7 -11   9    0.92    0.49
   6  11  -9   -0.66    0.73
  -6 -11   9   -0.17    0.44
  -6 -11   9   -0.05    0.31
  -5 -11   9    0.18    0.35
  -5 -11   9    0.54    0.53
  -4 -11   9    0.91    0.45
  -4 -11   9    0.25    0.49
  -3 -11   9   21.71    1.64
  -3 -11   9   24.66    1.62
  -3 -11   9   21.44    1.69
  -2 -11   9    4.35    0.99
  -2 -11   9    3.33    0.97
  -2 -11   9    3.35    0.86
  -1 -11   9   27.42    1.77
  -1 -11   9   24.35    1.72
  -1 -11   9   19.85    1.77
   0 -11   9   11.38    1.17
   0 -11   9    8.64    1.37
   0 -11   9   12.48    1.12
   1 -11   9    2.17    0.88
   1 -11   9    1.05    0.47
   2 -11   9    3.08    0.98
   2 -11   9    5.16    0.91
   3 -11   9    8.62    1.11
   3 -11   9    6.99    0.97
   4 -11   9    2.26    0.78
   4 -11   9    2.32    0.91
   5 -11   9    5.74    0.81
   5 -11   9    5.68    0.94
   6 -11   9    1.25    0.46
   6 -11   9    1.00    0.38
  -7  11  -9    2.17    0.70
   7 -11   9    0.70    0.61
   7 -11   9    2.01    0.65
   6  10  -9    0.19    0.94
  -6 -10   9   -0.49    0.39
  -6 -10   9   -0.35    0.51
  -5 -10   9   17.42    1.28
  -5 -10   9   13.26    1.22
  -4 -10   9    1.35    0.55
  -4 -10   9    0.74    0.48
  -3 -10   9    1.19    0.48
  -3 -10   9    2.86    1.12
  -3 -10   9    1.33    0.62
  -2 -10   9    0.21    0.56
  -2 -10   9    0.62    0.48
  -2 -10   9    0.58    0.59
  -1 -10   9   19.32    1.52
  -1 -10   9   16.80    1.52
  -1 -10   9   20.07    1.45
   0 -10   9    9.79    1.33
   0 -10   9   10.41    1.14
   0 -10   9   10.74    1.11
   1 -10   9    2.89    1.04
   2 -10   9   -0.05    0.50
   2 -10   9    0.45    0.49
   3 -10   9   12.66    1.26
   3 -10   9   12.32    1.17
   4 -10   9    2.58    0.90
   4 -10   9    3.41    1.00
   5 -10   9   10.08    1.10
   5 -10   9    9.52    1.03
   6 -10   9    6.16    0.95
   6 -10   9    5.55    0.82
   7 -10   9    0.21    0.51
   7 -10   9    0.66    0.34
   9   9  -9    0.41    0.36
  -8  -9   9    0.27    0.59
  -7  -9   9    0.04    0.50
  -6  -9   9    0.18    0.44
  -6  -9   9    0.44    0.50
  -5  -9   9    0.35    0.50
  -5  -9   9    0.57    0.48
  -4  -9   9    0.39    0.47
  -4  -9   9   -0.75    0.74
  -4  -9   9    0.38    0.51
  -3  -9   9   14.94    1.35
  -3  -9   9   12.72    1.58
  -3  -9   9   18.75    1.35
  -2  -9   9    0.38    0.60
  -2  -9   9   -0.04    0.58
  -2  -9   9    0.54    0.50
  -1  -9   9   85.83    4.93
  -1  -9   9   85.96    4.96
  -1  -9   9   81.92    4.96
   0  -9   9   18.05    1.36
   0  -9   9   14.64    1.51
   0  -9   9   14.75    1.49
   1  -9   9   11.78    1.22
   1  -9   9   13.30    1.31
   2  -9   9    7.07    0.99
   2  -9   9    3.49    1.37
   2  -9   9    6.93    1.15
   3  -9   9    0.18    0.53
   3  -9   9   -0.34    0.69
   3  -9   9   -0.15    0.53
   4  -9   9   -0.57    0.53
   4  -9   9   -0.60    0.47
   4  -9   9   -1.07    0.59
   5  -9   9    2.05    0.89
   5  -9   9    2.26    0.82
   6  -9   9    5.01    1.01
   6  -9   9    4.27    0.81
   7  -9   9    3.02    0.89
   7  -9   9    4.21    0.74
  10   8  -9    0.99    0.38
  -9  -8   9    0.35    0.73
  -8  -8   9   -0.05    0.53
  -7  -8   9   12.03    1.14
  -7  -8   9   11.45    1.04
  -6  -8   9    0.21    0.51
  -6  -8   9    0.10    0.46
  -5  -8   9    3.87    0.79
  -4  -8   9   22.27    1.55
  -4  -8   9   20.49    1.61
  -4  -8   9   22.27    2.01
  -3  -8   9   19.52    1.46
  -3  -8   9   17.85    1.42
  -3  -8   9   17.06    1.77
  -2  -8   9   10.97    1.09
  -2  -8   9   10.00    1.26
  -2  -8   9    9.72    1.16
  -1  -8   9    1.70    0.66
  -1  -8   9    2.81    0.99
  -1  -8   9    1.96    0.52
   0  -8   9   21.97    1.62
   0  -8   9   21.25    1.76
   1  -8   9    7.23    1.03
   1  -8   9    7.07    1.13
   1  -8   9    5.83    1.65
   2  -8   9    1.49    0.57
   2  -8   9    4.79    1.37
   2  -8   9    2.69    0.95
   3  -8   9   39.94    2.62
   3  -8   9   40.94    2.60
   3  -8   9   40.88    2.74
   4  -8   9    1.45    0.67
   4  -8   9    0.26    0.54
   4  -8   9   -0.07    0.55
   5  -8   9   19.02    1.51
   5  -8   9   18.55    1.50
   5  -8   9   16.78    1.54
   6  -8   9    2.45    0.88
   6  -8   9    2.41    0.91
   7  -8   9    1.91    0.73
   7  -8   9    2.39    0.94
  10   7  -9    6.75    0.86
  -9  -7   9    1.17    0.66
  -8  -7   9   10.03    0.98
  -7  -7   9    0.45    0.47
  -7  -7   9   -0.13    0.50
  -6  -7   9    0.03    0.48
  -5  -7   9   11.67    1.12
  -5  -7   9   12.54    1.29
  -4  -7   9    5.83    1.07
  -4  -7   9    8.64    1.78
  -4  -7   9    6.08    0.87
  -3  -7   9    9.05    1.43
  -3  -7   9    8.16    0.90
  -2  -7   9    0.83    0.68
  -2  -7   9    1.10    0.54
  -2  -7   9    1.96    0.63
  -1  -7   9    3.74    1.22
  -1  -7   9    3.62    0.99
  -1  -7   9    3.70    0.90
   0  -7   9    7.11    1.07
   0  -7   9    7.11    1.16
   1  -7   9   15.20    1.47
   1  -7   9   15.92    1.49
   1  -7   9   18.77    1.56
   2  -7   9   49.14    3.05
   2  -7   9   48.09    3.07
   2  -7   9   49.34    3.06
   3  -7   9   -0.25    0.55
   3  -7   9    0.20    0.59
   3  -7   9    0.49    0.57
   4  -7   9    3.65    1.05
   4  -7   9    3.34    1.10
   5  -7   9    8.29    1.15
   5  -7   9    7.58    1.15
   5  -7   9    9.71    1.22
  -6   7  -9    4.69    1.44
   6  -7   9    6.80    1.02
   6  -7   9    7.68    0.94
   6  -7   9    5.84    1.08
  -7   7  -9   14.94    1.72
   7  -7   9   19.39    1.40
   7  -7   9   20.07    1.40
  11   6  -9    0.28    0.83
  10   6  -9    1.64    0.48
 -10  -6   9   -0.21    0.71
  -9  -6   9    2.17    0.87
  -8  -6   9    3.57    0.81
  -7  -6   9   20.02    1.51
  -7  -6   9   18.28    1.37
  -6  -6   9   15.03    1.50
  -6  -6   9   17.54    1.29
  -5  -6   9   24.01    1.60
  -5  -6   9   19.66    1.81
  -4  -6   9    4.46    1.22
  -4  -6   9    7.39    0.89
  -3  -6   9    1.15    0.87
  -3  -6   9   -0.08    0.64
  -3  -6   9    0.14    0.45
  -2  -6   9   21.36    1.95
  -2  -6   9   24.70    1.57
  -2  -6   9   20.69    1.72
  -1  -6   9   14.24    1.36
  -1  -6   9   11.16    1.27
  -1  -6   9   13.27    1.48
   0  -6   9    2.64    1.06
   0  -6   9    2.45    0.71
   0  -6   9    2.57    0.69
   1  -6   9    7.67    1.17
   1  -6   9    5.93    1.13
   1  -6   9    4.65    1.03
   2  -6   9    4.95    1.05
   2  -6   9    7.06    1.21
   2  -6   9    6.47    1.05
   3  -6   9   38.90    2.52
   3  -6   9   34.36    2.66
   3  -6   9   40.07    2.58
   3  -6   9   38.12    2.44
   4  -6   9   17.16    1.44
   4  -6   9   17.34    1.55
   4  -6   9   17.43    1.53
   5  -6   9    4.31    1.02
   5  -6   9    1.42    0.62
   5  -6   9    2.05    0.59
  -6   6  -9    4.27    1.28
   6  -6   9    4.76    0.99
   6  -6   9    5.77    1.00
   6  -6   9    4.95    1.10
  -7   6  -9   -0.53    0.54
   7  -6   9    0.31    0.45
   7  -6   9   -0.11    0.46
  11   5  -9    1.15    0.62
  10   5  -9    0.10    0.53
 -10  -5   9    0.64    0.61
  -9  -5   9    0.82    0.58
  -8  -5   9    0.29    0.49
  -7  -5   9    0.17    0.41
  -7  -5   9    1.01    0.59
  -6  -5   9   10.87    1.44
  -6  -5   9   13.93    1.12
  -5  -5   9   12.93    1.69
  -5  -5   9   17.57    1.24
  -4  -5   9    8.42    0.85
  -4  -5   9    7.70    1.41
  -3  -5   9    0.36    0.76
  -3  -5   9    0.69    0.50
  -2  -5   9    3.82    0.98
  -2  -5   9    5.67    0.81
  -2  -5   9    5.15    1.22
  -1  -5   9    1.83    0.84
  -1  -5   9    4.35    1.28
  -1  -5   9    3.48    1.19
  -1  -5   9    3.97    1.28
   0  -5   9    9.77    1.30
   0  -5   9    9.57    1.19
   0  -5   9    9.12    1.40
   1  -5   9   99.72    5.71
   1  -5   9   99.96    5.64
   1  -5   9   94.34    5.73
   1  -5   9   95.59    5.70
   2  -5   9   30.54    2.12
   2  -5   9   30.64    2.20
   2  -5   9   26.34    2.14
   2  -5   9   29.28    1.95
   3  -5   9    0.19    0.65
   3  -5   9    0.83    0.65
   3  -5   9   -0.57    0.65
   3  -5   9    0.46    0.53
   4  -5   9    3.89    1.32
   4  -5   9    4.39    1.29
   5  -5   9    1.32    0.67
   5  -5   9    1.43    0.55
   5  -5   9    3.16    1.16
   6  -5   9    1.60    0.50
   6  -5   9    2.17    0.88
   6  -5   9    0.82    0.51
  -7   5  -9    1.33    0.51
   7  -5   9    1.92    0.76
   7  -5   9    2.40    0.95
  10   4  -9    0.86    0.65
 -10  -4   9    0.74    0.49
  -9  -4   9    1.12    0.59
  -8  -4   9   24.62    1.70
  -7  -4   9   10.68    1.02
  -6  -4   9   13.25    1.74
  -6  -4   9   19.05    1.26
  -5  -4   9   53.89    2.95
  -5  -4   9   43.41    3.21
  -4  -4   9   27.42    1.66
  -4  -4   9   20.90    2.20
  -3  -4   9    0.08    0.44
  -3  -4   9    0.88    0.99
  -2  -4   9    8.37    1.96
  -2  -4   9    7.69    1.61
  -2  -4   9    9.35    0.90
  -1  -4   9    1.31    0.76
  -1  -4   9    2.68    0.66
  -1  -4   9    1.93    0.78
  -1  -4   9    1.86    0.76
   0  -4   9    1.04    0.68
   0  -4   9    0.50    0.73
   0  -4   9   -0.67    0.75
   0  -4   9    0.48    0.57
   1  -4   9   12.19    1.47
   1  -4   9   10.95    1.72
   1  -4   9   12.45    1.32
   1  -4   9   12.05    1.21
   2  -4   9    8.68    1.04
   2  -4   9    7.73    1.50
   2  -4   9    9.49    1.32
   2  -4   9    9.32    1.24
   3  -4   9    3.70    1.02
   3  -4   9    4.06    1.14
   3  -4   9    3.22    0.82
   4  -4   9   19.11    1.63
   4  -4   9   16.79    1.38
   4  -4   9   15.13    1.42
   4  -4   9   17.95    1.81
   5  -4   9    0.48    0.62
   5  -4   9    2.37    0.85
   5  -4   9    0.31    0.70
   6  -4   9   34.24    2.22
   6  -4   9   32.41    2.20
   6  -4   9   32.76    2.11
  -7   4  -9    0.90    0.49
   7  -4   9    1.93    0.78
   7  -4   9    4.02    1.05
  10   3  -9    3.39    1.14
 -10  -3   9    5.80    0.89
   9   3  -9    3.71    0.94
  -8  -3   9   59.09    3.57
  -7  -3   9   -1.26    0.84
  -7  -3   9    0.45    0.50
  -6  -3   9    9.15    1.57
  -6  -3   9   11.61    1.04
  -5  -3   9   11.81    0.99
  -5  -3   9   10.11    1.53
  -4  -3   9    9.31    0.86
  -4  -3   9    8.58    1.49
  -3  -3   9   13.07    1.64
  -3  -3   9   16.12    1.16
  -2  -3   9    8.22    1.19
  -2  -3   9    8.70    1.27
  -2  -3   9    5.40    0.90
  -1  -3   9   10.88    1.10
  -1  -3   9   10.87    1.39
  -1  -3   9    7.15    1.72
   0  -3   9    7.59    1.13
   0  -3   9    7.75    1.42
   0  -3   9    6.74    1.01
   1  -3   9   10.19    1.83
   1  -3   9    6.04    1.15
   1  -3   9    5.82    1.32
   1  -3   9    7.95    1.00
   2  -3   9    6.18    1.00
   2  -3   9    8.15    1.69
   2  -3   9    5.95    1.04
   2  -3   9    8.66    1.39
   3  -3   9   27.88    2.01
   3  -3   9   22.19    1.74
   3  -3   9   24.39    1.67
   3  -3   9   23.40    2.26
   4  -3   9    5.94    0.96
   4  -3   9    4.67    1.57
   4  -3   9    5.14    1.29
   4  -3   9    6.68    0.91
   5  -3   9    5.70    0.84
   5  -3   9    4.78    1.10
   5  -3   9    4.48    1.43
   6  -3   9    4.80    1.09
   6  -3   9    5.33    1.02
   6  -3   9    5.22    0.89
  -7   3  -9    7.38    0.89
   7  -3   9    6.93    1.32
   7  -3   9    6.02    0.84
 -11  -2   9    5.28    1.22
 -10  -2   9    4.65    0.88
  -9  -2   9    4.67    1.19
  -8  -2   9   -0.35    0.47
  -8  -2   9   -0.37    0.66
  -7  -2   9    1.28    0.72
  -7  -2   9    0.65    0.52
  -6  -2   9    6.79    0.83
  -6  -2   9    7.86    1.22
  -5  -2   9    3.54    1.07
  -5  -2   9    2.33    0.62
  -4  -2   9    0.37    0.60
  -4  -2   9    0.51    0.38
  -3  -2   9    0.60    0.58
  -3  -2   9    0.56    0.83
  -3  -2   9    0.10    0.44
  -2  -2   9   20.61    1.59
  -2  -2   9   20.58    1.54
  -2  -2   9   21.46    1.72
  -1  -2   9   23.72    1.69
  -1  -2   9   22.46    1.67
   0  -2   9   37.36    2.28
   0  -2   9   35.74    2.23
   0  -2   9   32.74    2.60
   1  -2   9    2.61    1.02
   1  -2   9    5.01    1.36
   1  -2   9    2.77    0.83
   2  -2   9   36.99    2.63
   2  -2   9   37.56    2.34
   2  -2   9   36.17    2.34
   3  -2   9    0.67    0.69
   3  -2   9    1.73    0.50
   3  -2   9    1.40    0.49
   3  -2   9    0.32    1.04
   4  -2   9   -1.60    0.90
   4  -2   9    1.15    0.47
   4  -2   9    0.26    0.67
   5  -2   9    4.67    1.54
   5  -2   9    6.40    1.13
   5  -2   9    5.84    0.79
   6  -2   9    1.59    0.51
   6  -2   9    2.63    0.82
  -7   2  -9    3.81    0.78
   7  -2   9    2.49    0.67
 -11  -1   9   11.28    1.16
 -10  -1   9   17.66    1.36
 -10  -1   9   13.78    1.25
  -9  -1   9    0.61    0.59
  -9  -1   9   -0.05    0.46
  -8  -1   9    0.68    0.44
  -8  -1   9    0.61    0.63
  -7  -1   9   29.25    2.13
  -7  -1   9   29.66    1.93
  -6  -1   9   54.69    3.40
  -6  -1   9   56.05    3.31
  -5  -1   9    4.88    0.74
  -5  -1   9    4.93    0.99
  -4  -1   9   -0.01    0.39
  -4  -1   9    1.11    0.51
  -4  -1   9    0.40    0.67
  -3  -1   9    0.64    0.63
  -3  -1   9    0.70    0.45
  -3  -1   9    0.84    0.49
  -2  -1   9    0.81    0.47
  -2  -1   9    0.43    0.60
  -2  -1   9    0.22    0.67
  -1  -1   9    5.20    0.97
  -1  -1   9    7.04    2.76
  -1  -1   9    6.45    0.98
   0  -1   9   34.86    2.19
   0  -1   9   35.02    2.20
   0  -1   9   32.88    2.78
   1  -1   9   10.58    1.00
   1  -1   9   10.37    1.12
   1  -1   9    9.85    1.76
   2  -1   9    0.34    0.46
   2  -1   9   -0.27    0.48
   2  -1   9    0.05    0.76
   3  -1   9   34.12    2.21
   3  -1   9   37.17    2.56
   3  -1   9   32.87    2.21
   4  -1   9   -0.54    0.47
   4  -1   9    0.11    0.72
   4  -1   9    0.10    0.43
   5  -1   9   12.53    1.05
   5  -1   9   12.62    1.33
   6  -1   9   -0.09    0.42
   6  -1   9    0.18    0.49
  -7   1  -9    4.75    0.75
   7  -1   9    4.02    0.69
 -12   0   9    0.56    0.39
 -11   0   9    3.13    0.83
 -10   0   9    7.76    0.97
 -10   0   9    6.80    0.89
  -9   0   9   -0.05    0.52
  -9   0   9   -0.06    0.44
  -8   0   9    0.57    0.54
  -8   0   9    0.44    0.43
  -7   0   9   27.13    1.86
  -7   0   9   24.19    1.69
  -6   0   9   16.35    1.20
  -6   0   9   15.49    1.35
  -5   0   9   23.51    1.51
  -5   0   9   21.61    1.73
  -5   0   9   22.34    1.63
  -4   0   9   31.99    1.93
  -4   0   9   30.21    2.08
  -4   0   9   29.12    2.01
  -3   0   9    7.11    1.00
  -3   0   9    4.85    0.78
  -3   0   9    5.83    0.97
  -2   0   9    0.23    0.50
  -2   0   9    0.14    0.44
  -1   0   9   18.38    1.43
  -1   0   9   18.20    1.45
   0   0   9   24.04    2.33
   0   0   9   24.55    1.67
   0   0   9   24.00    1.65
   1   0   9   20.88    1.47
   1   0   9   21.39    1.59
   1   0   9   21.51    2.04
   2   0   9    0.29    0.42
   2   0   9    0.85    0.44
   2   0   9    0.64    0.78
   3   0   9    6.62    0.94
   3   0   9    7.75    0.97
   3   0   9    8.40    1.39
   4   0   9    0.78    0.45
   4   0   9    0.37    0.66
   5   0   9   -0.14    0.52
   5   0   9    1.20    0.47
   6   0   9   -0.18    0.39
   6   0   9   -0.48    0.69
 -12   1   9   21.99    1.43
 -11   1   9    4.07    0.76
 -10   1   9   17.27    1.34
  -9   1   9    3.48    0.71
  -9   1   9    4.61    0.88
  -8   1   9    8.71    1.07
  -8   1   9    8.67    0.89
  -7   1   9    2.21    1.04
  -7   1   9    2.09    0.53
  -7   1   9    1.97    0.64
  -6   1   9   14.59    1.10
  -6   1   9   12.60    1.52
  -6   1   9   14.09    1.22
  -5   1   9    2.32    0.81
  -5   1   9    2.24    0.61
  -5   1   9    2.78    1.08
  -4   1   9   60.87    3.60
  -4   1   9   57.63    3.61
  -4   1   9   62.99    3.57
  -3   1   9    6.51    0.94
  -3   1   9    6.33    0.90
  -2   1   9    0.05    0.43
  -2   1   9    0.18    0.40
  -1   1   9   36.95    2.37
  -1   1   9   36.72    2.33
   0   1   9   13.69    1.13
   0   1   9   12.33    1.15
   0   1   9   12.83    1.98
   1   1   9   15.32    1.21
   1   1   9   15.49    1.35
   1   1   9   17.85    1.90
   2   1   9    4.58    0.77
   2   1   9    5.68    0.86
   2   1   9    3.32    0.90
   3   1   9   14.07    1.16
   3   1   9   12.16    1.16
   3   1   9   13.75    1.51
   4   1   9   -0.25    0.44
   4   1   9   -0.57    0.41
   4   1   9    0.33    0.64
   5   1   9    4.56    0.91
   5   1   9    6.41    0.94
   6   1   9    0.82    0.37
 -12   2   9    1.54    0.58
 -11   2   9    2.01    0.68
 -10   2   9   -0.12    0.38
  -9   2   9   20.95    1.54
  -8   2   9    0.56    0.70
  -8   2   9    3.28    0.80
  -7   2   9   50.04    3.08
  -7   2   9   47.68    2.99
  -6   2   9    1.77    0.60
  -6   2   9    1.57    0.46
  -5   2   9   21.18    1.64
  -5   2   9   21.52    1.52
  -4   2   9    1.93    0.75
  -4   2   9    0.70    0.51
  -3   2   9   -0.04    0.44
  -3   2   9    0.29    0.41
  -2   2   9   -0.02    0.40
  -2   2   9    0.13    0.43
  -1   2   9    1.08    0.49
  -1   2   9    1.12    0.49
   0   2   9   21.42    2.29
   0   2   9   20.67    1.51
   0   2   9   21.89    1.55
   1   2   9    0.47    0.46
   1   2   9    0.70    0.39
   1   2   9    0.18    0.91
   2   2   9    4.88    0.81
   2   2   9    6.17    0.90
   2   2   9    4.60    1.42
   3   2   9    0.40    0.46
   3   2   9    0.72    0.68
   3   2   9    0.27    0.44
   4   2   9    3.96    0.73
   4   2   9    4.09    1.08
   5   2   9   -0.32    0.79
   5   2   9    2.10    0.84
 -12   3   9    5.30    0.60
  11  -3  -9    2.30    0.75
 -10   3   9    0.09    0.36
  -9   3   9    0.49    0.65
  -9   3   9    0.33    0.41
  -8   3   9   11.07    1.22
  -8   3   9   10.28    1.02
  -7   3   9    8.87    0.94
  -7   3   9    7.94    1.09
  -6   3   9   60.85    3.61
  -6   3   9   58.26    3.57
  -5   3   9   31.77    2.08
  -5   3   9   32.38    2.15
  -4   3   9    6.18    0.96
  -4   3   9    7.20    0.96
   3  -3  -9   -0.30    0.51
  -3   3   9   -0.14    0.43
  -3   3   9   -0.65    0.40
  -2   3   9   13.37    1.16
  -2   3   9   13.01    1.12
  -1   3   9    0.23    0.49
  -1   3   9   -0.13    0.42
   0   3   9    2.95    0.78
   0   3   9    1.15    1.12
   0   3   9    1.29    0.48
   1   3   9    0.48    0.88
   1   3   9    0.93    0.42
   1   3   9    0.83    0.46
   2   3   9    6.38    0.89
   2   3   9    5.38    1.36
   2   3   9    5.80    0.91
   3   3   9    0.90    0.61
   3   3   9    2.98    0.73
   3   3   9    1.51    0.47
   4   3   9    0.40    0.54
   4   3   9    2.38    0.86
   5   3   9    3.04    0.82
 -12   4   9   -0.23    0.25
  11  -4  -9    3.70    0.71
 -11   4   9    2.36    0.59
  10  -4  -9    0.59    0.44
 -10   4   9    0.24    0.32
  -9   4   9    1.71    0.64
  -9   4   9    0.22    0.54
  -8   4   9    0.75    0.40
  -8   4   9    1.26    0.52
  -7   4   9   23.86    1.65
  -7   4   9   23.81    1.71
  -6   4   9    1.04    0.48
  -6   4   9    0.51    0.40
   5  -4  -9   23.92    1.60
  -5   4   9   24.52    1.70
  -5   4   9   23.10    1.66
   4  -4  -9   13.22    1.11
  -4   4   9   12.48    1.18
  -4   4   9   14.03    1.18
   3  -4  -9   20.57    1.44
  -3   4   9   18.74    1.39
  -3   4   9   17.92    1.43
  -2   4   9    7.96    0.96
  -2   4   9    8.70    0.96
  -1   4   9    2.42    0.80
  -1   4   9    2.72    0.88
   0   4   9   -0.71    1.11
   0   4   9    2.52    0.90
   0   4   9    1.78    0.48
   1   4   9   -0.58    0.44
   1   4   9   -0.43    0.88
   1   4   9    0.76    0.46
   2   4   9    8.64    1.35
   2   4   9   10.45    0.98
   2   4   9    9.88    0.97
   3   4   9   -0.07    0.58
   3   4   9   -0.25    0.39
   3   4   9   -0.62    0.47
   4   4   9   -0.26    0.48
 -12   5   9   18.83    1.20
  11  -5  -9    5.57    0.78
 -11   5   9    4.80    0.61
  10  -5  -9    0.22    0.39
 -10   5   9    0.50    0.32
 -10   5   9    1.39    0.48
   9  -5  -9    0.26    0.38
  -9   5   9   -0.24    0.32
  -9   5   9   -0.47    0.45
   8  -5  -9    1.29    0.40
  -8   5   9    1.03    0.39
   7  -5  -9    4.20    0.66
  -7   5   9    4.49    0.76
  -7   5   9    4.91    0.83
   6  -5  -9   -0.09    0.38
  -6   5   9   -0.10    0.35
  -6   5   9    0.70    0.42
   5  -5  -9    0.38    0.41
  -5   5   9    0.08    0.44
  -5   5   9    0.03    0.43
   4  -5  -9    0.83    0.49
  -4   5   9    0.04    0.41
  -4   5   9   -0.07    0.32
   3  -5  -9    0.39    0.62
  -3   5   9    0.20    0.43
  -3   5   9    0.46    0.39
  -2   5   9    0.31    0.45
  -2   5   9    2.10    0.77
  -1   5   9    6.78    0.95
   0   5   9    6.37    0.85
   0   5   9    8.45    1.00
   1   5   9    3.20    0.72
   1   5   9    2.32    0.86
   2   5   9    0.33    0.48
   2   5   9    0.21    0.66
   2   5   9    0.52    0.42
   3   5   9    1.03    0.58
 -11   6   9    0.58    0.27
 -10   6   9    1.45    0.52
 -10   6   9    2.19    0.73
   9  -6  -9   31.86    1.88
  -9   6   9   27.57    1.88
  -9   6   9   29.17    1.84
   8  -6  -9    6.37    0.68
  -8   6   9    4.80    0.79
  -8   6   9    5.29    0.75
   7  -6  -9    1.62    0.55
  -7   6   9    2.98    0.72
  -7   6   9    3.09    0.74
   6  -6  -9    2.82    0.62
  -6   6   9    3.00    0.74
  -6   6   9    1.88    0.50
   5  -6  -9   12.31    1.05
  -5   6   9   12.73    1.13
  -5   6   9   12.23    1.11
   4  -6  -9    0.51    0.53
  -4   6   9    0.66    0.42
  -4   6   9    0.91    0.44
  -3   6   9    1.60    0.43
  -3   6   9    1.21    0.50
  -2   6   9   13.80    1.19
  -2   6   9   13.90    1.22
  -1   6   9   -0.06    0.48
  -1   6   9    0.04    0.41
   0   6   9    0.42    0.35
   0   6   9   -0.62    0.45
   1   6   9   -0.16    0.48
   1   6   9   -0.48    0.44
   2   6   9   11.16    1.48
 -11   7   9    2.52    0.56
  10  -7  -9    0.24    0.42
 -10   7   9   -0.18    0.37
 -10   7   9    0.50    0.27
   9  -7  -9    0.45    0.38
  -9   7   9    0.17    0.28
  -9   7   9    0.06    0.35
   8  -7  -9    1.76    0.55
  -8   7   9    2.60    0.66
  -8   7   9    1.85    0.40
   7  -7  -9   -0.27    0.34
  -7   7   9    1.00    0.36
  -7   7   9    0.51    0.39
   6  -7  -9   37.24    2.32
  -6   7   9   40.17    2.35
  -6   7   9   36.09    2.33
   5  -7  -9    1.37    0.50
  -5   7   9    2.26    0.77
  -5   7   9    2.30    0.62
   4  -7  -9   14.47    1.34
  -4   7   9   16.75    1.21
  -4   7   9   15.69    1.29
  -3   7   9   18.18    1.37
  -3   7   9   17.37    1.30
  -2   7   9    3.98    0.84
  -2   7   9    4.73    0.98
  -1   7   9    0.61    0.50
  -1   7   9   -0.20    0.37
   0   7   9    2.37    0.61
   0   7   9    3.09    0.71
 -10   8   9    0.29    0.34
 -10   8   9    0.54    0.29
   9  -8  -9    9.68    0.84
  -9   8   9    8.48    0.79
  -9   8   9    8.89    0.78
   8  -8  -9    4.80    0.62
  -8   8   9    2.97    0.67
  -8   8   9    4.29    0.61
   7  -8  -9    3.97    0.68
  -7   8   9    5.57    0.67
  -7   8   9    6.06    0.74
   6  -8  -9    0.32    0.44
  -6   8   9    0.61    0.30
  -6   8   9    0.76    0.41
   5  -8  -9    0.50    0.58
  -5   8   9    0.47    0.46
  -5   8   9    0.48    0.31
  -4   8   9    8.97    0.85
  -4   8   9    9.38    1.08
  -3   8   9    3.06    0.70
  -3   8   9    0.50    0.61
  -2   8   9    4.68    0.71
  -2   8   9    4.56    1.31
  -1   8   9    2.30    0.69
  -9   9   9    0.09    0.25
  -8   9   9    2.76    0.91
  -8   9   9    2.55    0.47
   7  -9  -9    5.93    0.85
  -7   9   9    7.11    1.00
  -7   9   9    5.88    0.61
   6  -9  -9   39.79    2.43
  -6   9   9   38.90    2.35
   5  -9  -9    0.66    0.86
  -5   9   9    0.33    0.31
  -4   9   9    2.41    0.64
  -3   9   9    1.04    0.36
  -2   9   9    0.21    0.35
  -7  10   9    5.29    0.56
  -6  10   9    2.11    0.50
  -5  10   9    7.79    0.76
  -4  10   9    0.62    0.35
  -2 -15  10    0.43    0.30
  -1 -15  10   -0.02    0.30
   0 -15  10   19.95    1.31
   1 -15  10    1.95    0.64
   2 -15  10    2.13    0.63
   4  14 -10    2.43    0.95
  -4 -14  10    3.30    0.55
  -3 -14  10    1.28    0.82
  -3 -14  10    0.46    0.28
  -2 -14  10    3.08    1.22
  -1 -14  10    5.92    1.52
  -1 -14  10    3.20    0.65
   0 -14  10    0.60    0.33
   0 -14  10   -0.30    0.36
   1 -14  10    9.41    0.89
   1 -14  10   10.04    0.87
   2 -14  10    2.29    0.58
   2 -14  10    1.67    0.64
   3 -14  10   11.15    0.94
   3 -14  10   11.36    0.90
   4 -14  10    0.55    0.37
   4 -14  10    0.17    0.31
   5  13 -10    2.83    1.10
  -5 -13  10    1.26    0.58
  -4 -13  10   17.74    1.12
  -4 -13  10   14.81    1.33
  -3 -13  10    3.37    0.97
  -3 -13  10    2.26    0.64
  -2 -13  10   15.91    1.09
  -2 -13  10   11.46    1.41
  -1 -13  10    2.56    0.75
  -1 -13  10    4.39    0.74
  -1 -13  10    6.20    1.31
   0 -13  10    3.26    0.77
   0 -13  10    4.68    0.72
   1 -13  10    3.73    0.75
   1 -13  10    2.50    0.72
   2 -13  10    0.32    0.39
   2 -13  10   -0.38    0.35
   3 -13  10    1.33    0.41
   3 -13  10    2.13    0.63
   4 -13  10    1.53    0.60
   4 -13  10    2.44    0.70
   5 -13  10   -0.37    0.40
   5 -13  10    0.03    0.31
  -6 -12  10   -0.56    0.47
  -5 -12  10    1.42    0.57
  -5 -12  10    0.81    0.49
  -4 -12  10    0.85    0.61
  -4 -12  10    0.41    0.35
  -3 -12  10    0.40    0.40
  -3 -12  10   -0.29    0.63
  -2 -12  10    1.88    0.51
  -2 -12  10    3.22    0.72
  -1 -12  10    2.41    0.75
  -1 -12  10    1.90    0.50
  -1 -12  10    3.63    1.17
   0 -12  10   -0.77    0.44
   0 -12  10    0.00    0.38
   1 -12  10    6.20    0.86
   1 -12  10    4.48    0.81
   2 -12  10   -0.11    0.36
   2 -12  10    0.47    0.41
   3 -12  10   34.71    2.15
   3 -12  10   34.14    2.18
  -4  12 -10    0.90    0.88
   4 -12  10    0.26    0.40
   4 -12  10    0.29    0.35
  -5  12 -10   13.89    1.40
   5 -12  10   15.59    1.18
   5 -12  10   16.50    1.12
  -7 -11  10    4.48    0.85
  -6 -11  10    0.48    0.30
  -6 -11  10    0.29    0.50
  -5 -11  10    5.18    0.74
  -4 -11  10    0.20    0.39
  -3 -11  10    7.21    1.05
  -3 -11  10    6.21    0.88
  -3 -11  10    6.54    1.02
  -2 -11  10   16.42    1.48
  -2 -11  10   17.56    1.47
  -2 -11  10   20.25    1.40
  -1 -11  10    3.27    1.03
  -1 -11  10    1.94    0.48
  -1 -11  10    1.47    0.75
   0 -11  10    0.04    0.49
   0 -11  10    0.12    0.42
   1 -11  10   -0.68    0.45
   1 -11  10   -0.26    0.41
   2 -11  10    0.71    0.42
   2 -11  10    0.15    0.48
   3 -11  10    0.52    0.44
   3 -11  10    0.42    0.39
   4 -11  10    9.86    0.96
   4 -11  10    8.65    1.01
   5 -11  10    4.50    0.83
   5 -11  10    4.22    0.74
  -6  11 -10   10.52    1.01
   6 -11  10   10.96    1.00
   6 -11  10   12.14    0.93
  -8 -10  10    1.14    0.59
  -7 -10  10    0.10    0.41
  -6 -10  10    1.09    0.38
  -6 -10  10    0.84    0.52
  -5 -10  10    3.73    0.84
  -5 -10  10    2.26    0.59
  -4 -10  10    6.55    0.95
  -4 -10  10    8.26    1.26
  -4 -10  10    5.67    0.95
  -3 -10  10    0.31    0.62
  -3 -10  10    0.47    0.59
  -3 -10  10    0.54    0.44
  -2 -10  10    2.39    0.92
  -2 -10  10    1.09    0.60
  -1 -10  10    3.21    1.12
  -1 -10  10    3.56    0.85
   0 -10  10    0.71    0.45
   0 -10  10    1.02    0.50
   1 -10  10    2.30    0.88
   1 -10  10    0.03    0.52
   2 -10  10   -0.35    0.42
   2 -10  10    0.55    0.53
   3 -10  10    0.83    0.45
   3 -10  10    0.51    0.48
   4 -10  10    0.72    0.42
   4 -10  10    0.75    0.46
   5 -10  10    4.13    0.76
   5 -10  10    4.04    0.83
   6 -10  10    3.67    0.70
   6 -10  10    2.79    0.87
   9   9 -10    0.71    0.39
  -8  -9  10    0.39    0.50
  -7  -9  10   -0.19    0.46
  -6  -9  10    8.72    0.95
  -6  -9  10    7.66    0.88
  -5  -9  10    0.69    0.47
  -5  -9  10    0.63    0.56
  -4  -9  10    0.86    0.58
  -4  -9  10    0.01    0.47
  -3  -9  10    0.90    0.49
  -3  -9  10   -0.19    0.69
  -3  -9  10   -0.48    0.56
  -2  -9  10   11.60    1.18
  -2  -9  10   11.84    1.24
  -2  -9  10   10.64    1.25
  -1  -9  10   10.99    1.38
  -1  -9  10   14.64    1.32
  -1  -9  10   12.53    1.22
   0  -9  10   27.43    1.98
   0  -9  10   25.70    1.82
   1  -9  10    4.26    0.94
   2  -9  10    2.47    0.63
   2  -9  10    4.96    1.40
   2  -9  10    2.07    0.54
   3  -9  10    5.22    0.95
   3  -9  10    3.53    0.77
   4  -9  10    7.56    1.06
   4  -9  10   10.22    1.10
   4  -9  10    8.48    1.05
   5  -9  10    1.54    0.53
   5  -9  10    2.51    0.83
   6  -9  10    3.31    0.73
   6  -9  10    2.06    0.48
  10   8 -10    1.56    0.45
  -9  -8  10    0.87    0.66
  -8  -8  10    2.33    0.71
  -7  -8  10    0.39    0.46
  -7  -8  10   -0.09    0.41
  -6  -8  10   16.58    1.32
  -6  -8  10   15.25    1.25
  -5  -8  10    1.86    0.57
  -4  -8  10    6.62    1.01
  -4  -8  10    7.41    1.66
  -4  -8  10    5.92    0.93
  -3  -8  10    1.69    0.53
  -3  -8  10    2.22    0.78
  -3  -8  10    1.51    0.60
  -2  -8  10    2.39    0.96
  -2  -8  10   -1.00    0.59
  -2  -8  10   -0.43    0.62
  -1  -8  10   13.85    1.61
  -1  -8  10   19.01    1.43
   0  -8  10    9.52    1.16
   1  -8  10    7.53    1.07
   1  -8  10    8.60    1.51
   1  -8  10    6.86    1.14
   2  -8  10   18.70    1.62
   2  -8  10   23.93    1.80
   2  -8  10   18.74    1.60
   3  -8  10   15.37    1.53
   3  -8  10   16.29    1.43
   3  -8  10   18.71    1.53
   4  -8  10    2.41    0.90
   4  -8  10    1.36    0.52
   5  -8  10    0.40    0.49
   5  -8  10    0.96    0.46
   5  -8  10    0.62    0.54
   6  -8  10    1.30    0.46
   6  -8  10    3.02    0.84
   7  -8  10   14.61    1.12
   7  -8  10   16.05    1.20
  10   7 -10    0.83    0.51
  -9  -7  10    3.51    0.83
  -8  -7  10   -0.56    0.45
  -7  -7  10   14.94    1.22
  -7  -7  10   18.20    1.36
  -6  -7  10    5.12    1.04
  -6  -7  10    5.24    0.82
  -5  -7  10    1.78    0.56
  -5  -7  10    1.23    0.49
  -4  -7  10    2.35    0.84
  -4  -7  10    1.71    0.55
  -3  -7  10    0.90    0.58
  -3  -7  10    0.49    0.77
  -3  -7  10    0.45    0.54
  -2  -7  10    2.56    0.77
  -2  -7  10    4.42    0.99
  -2  -7  10    4.63    1.00
  -1  -7  10    6.79    1.74
   0  -7  10   17.14    1.58
   0  -7  10   20.68    1.73
   0  -7  10   17.01    1.53
   1  -7  10   27.26    1.91
   1  -7  10   26.11    1.91
   1  -7  10   25.34    1.95
   2  -7  10    0.62    0.63
   2  -7  10    3.30    1.04
   2  -7  10    1.67    0.60
   3  -7  10   22.13    1.68
   3  -7  10   21.26    1.74
   3  -7  10   21.27    1.70
   4  -7  10    6.55    1.13
   4  -7  10    3.81    1.16
  -5   7 -10   -0.53    1.02
   5  -7  10   -0.15    0.49
   5  -7  10   -0.52    0.57
   5  -7  10    0.64    0.53
   6  -7  10    8.96    0.97
   6  -7  10   10.93    1.06
   7  -7  10    1.84    0.78
   7  -7  10    0.20    0.41
  10   6 -10    7.81    1.07
 -10  -6  10    6.00    0.91
  -9  -6  10    1.34    0.59
  -8  -6  10    4.22    0.79
  -7  -6  10    9.53    0.99
  -7  -6  10   12.36    1.23
  -6  -6  10    0.34    0.60
  -6  -6  10    0.24    0.42
  -5  -6  10    6.17    0.86
  -5  -6  10    3.62    1.21
  -4  -6  10    9.59    1.31
  -4  -6  10   11.57    1.03
  -3  -6  10    2.11    0.96
  -3  -6  10    2.90    0.73
  -3  -6  10    4.02    0.80
  -2  -6  10    6.73    1.19
  -2  -6  10    7.75    1.47
  -2  -6  10    5.88    1.02
  -1  -6  10    3.66    1.13
  -1  -6  10    4.45    0.81
   0  -6  10   63.81    3.82
   0  -6  10   64.61    3.85
   0  -6  10   63.21    3.89
   1  -6  10   48.29    3.24
   1  -6  10   53.60    3.22
   1  -6  10   52.79    3.16
   2  -6  10    3.16    1.20
   2  -6  10    3.01    0.66
   2  -6  10    1.18    1.02
   2  -6  10    5.40    1.10
   3  -6  10    4.44    1.34
   3  -6  10    3.91    1.09
   4  -6  10    1.01    0.58
   4  -6  10    0.11    0.54
   4  -6  10    1.70    0.66
   5  -6  10   -0.27    0.58
   5  -6  10   -0.15    0.45
   5  -6  10   -0.41    0.47
  -6   6 -10    0.88    0.62
   6  -6  10    0.73    0.44
   6  -6  10    0.64    0.50
   6  -6  10    1.20    0.42
   7  -6  10    7.41    0.80
   7  -6  10    5.34    0.97
  10   5 -10   -0.16    0.69
 -10  -5  10    0.20    0.48
  -9  -5  10   11.90    1.09
  -8  -5  10   -0.33    0.47
  -7  -5  10    9.65    0.98
  -7  -5  10    7.00    1.39
  -6  -5  10    4.73    0.77
  -6  -5  10    3.40    1.28
  -5  -5  10    0.60    0.70
  -5  -5  10    1.33    0.45
  -4  -5  10   10.89    1.48
  -4  -5  10   11.00    0.96
  -3  -5  10    7.64    0.84
  -3  -5  10    7.72    1.76
  -2  -5  10    0.57    0.89
  -2  -5  10    1.48    0.59
  -2  -5  10    1.09    0.70
  -1  -5  10   32.01    2.19
  -1  -5  10   28.95    2.26
  -1  -5  10   30.21    2.23
   0  -5  10   87.53    5.31
   0  -5  10   78.98    5.14
   0  -5  10   93.96    5.22
   0  -5  10   93.43    5.22
   1  -5  10    3.48    1.41
   1  -5  10    3.97    1.31
   2  -5  10    0.56    0.65
   2  -5  10    1.39    0.51
   2  -5  10    4.27    1.38
   3  -5  10   -0.75    0.61
   3  -5  10   -0.65    0.72
   3  -5  10    0.72    0.63
   3  -5  10    0.27    0.53
   4  -5  10   30.18    2.18
   4  -5  10   31.87    2.41
   4  -5  10   31.40    2.05
   5  -5  10   -0.01    0.47
   5  -5  10   -0.54    0.64
   5  -5  10    0.76    0.44
  -6   5 -10   15.67    1.33
   6  -5  10   16.29    1.38
   6  -5  10   14.63    1.20
   6  -5  10   13.41    1.19
  -7   5 -10    0.47    0.52
   7  -5  10    0.17    0.35
 -10  -4  10    3.40    0.77
  -9  -4  10   -0.03    0.45
  -8  -4  10   -0.48    0.49
  -7  -4  10    3.03    0.74
  -6  -4  10   37.46    2.38
  -5  -4  10   18.61    1.37
  -4  -4  10   26.72    1.77
  -3  -4  10   -0.75    0.50
  -2  -4  10   25.11    1.66
  -2  -4  10   21.38    2.04
  -2  -4  10   21.14    1.80
  -1  -4  10    2.80    0.76
  -1  -4  10    2.81    0.71
  -1  -4  10    2.84    1.00
   0  -4  10   56.87    3.58
   0  -4  10   61.20    3.68
   0  -4  10   62.26    3.69
   0  -4  10   57.71    3.77
   1  -4  10    0.54    0.56
   1  -4  10   -0.40    0.60
   1  -4  10   -0.78    0.80
   1  -4  10    0.37    0.54
   2  -4  10    0.80    0.68
   2  -4  10    2.27    0.88
   2  -4  10    0.09    0.55
   2  -4  10    0.61    0.45
   3  -4  10   -0.41    0.52
   3  -4  10   -0.04    0.68
   3  -4  10   -0.17    0.79
   3  -4  10    0.59    0.45
   4  -4  10    1.31    0.68
   4  -4  10    0.96    0.75
   5  -4  10    0.14    0.43
   5  -4  10    0.87    0.74
   5  -4  10    0.08    0.51
   6  -4  10    0.45    0.48
   6  -4  10    0.03    0.63
   6  -4  10    0.38    0.42
 -10  -3  10    2.35    0.78
  -9  -3  10    0.11    0.46
  -7  -3  10    7.92    0.95
  -6  -3  10    0.67    0.46
  -6  -3  10    0.73    0.69
  -5  -3  10    1.27    0.46
  -5  -3  10    2.21    0.68
  -4  -3  10    6.82    1.39
  -4  -3  10    7.73    0.85
  -3  -3  10   78.55    4.61
  -3  -3  10   77.36    4.69
  -3  -3  10   78.79    4.56
  -2  -3  10    3.13    0.68
  -2  -3  10    2.89    0.95
  -1  -3  10    7.04    1.04
  -1  -3  10    6.67    1.01
  -1  -3  10    7.82    1.47
   0  -3  10   12.03    1.71
   0  -3  10   10.43    1.31
   0  -3  10   14.05    1.13
   1  -3  10   14.44    1.23
   1  -3  10   14.55    1.23
   1  -3  10   10.60    1.54
   2  -3  10   81.83    4.76
   2  -3  10   81.16    4.78
   2  -3  10   81.98    4.90
   4  -3  10   15.10    1.25
   4  -3  10   15.27    1.30
   4  -3  10   17.99    1.53
   5  -3  10   -0.72    0.53
   5  -3  10    0.18    0.41
   5  -3  10   -1.27    0.87
   6  -3  10    5.33    0.81
 -10  -2  10    2.08    0.72
 -10  -2  10    0.98    0.57
  -9  -2  10    3.29    1.15
  -8  -2  10    0.98    0.49
  -8  -2  10    0.26    0.61
  -7  -2  10   27.88    2.11
  -7  -2  10   31.16    1.97
  -6  -2  10    5.84    1.09
  -6  -2  10    5.32    0.83
  -5  -2  10    8.60    1.18
  -5  -2  10    8.15    0.93
  -4  -2  10    0.90    1.14
  -4  -2  10    2.56    0.75
  -4  -2  10    4.31    1.11
  -3  -2  10    4.97    0.88
  -3  -2  10    4.73    1.15
  -3  -2  10    3.68    0.96
  -2  -2  10    2.59    0.60
  -2  -2  10    2.30    0.87
  -1  -2  10   78.69    4.38
  -1  -2  10   75.27    4.36
  -1  -2  10   69.43    4.71
   0  -2  10   10.09    1.54
   0  -2  10    7.11    0.98
   0  -2  10    9.78    1.10
   1  -2  10   19.30    1.45
   1  -2  10   17.61    1.80
   1  -2  10   19.56    1.41
   2  -2  10   12.20    1.18
   2  -2  10   15.00    1.22
   2  -2  10   14.16    1.63
   3  -2  10    8.25    0.98
   3  -2  10    7.22    1.37
   3  -2  10    8.32    0.90
   4  -2  10    0.04    0.42
   4  -2  10   -0.24    0.41
   4  -2  10   -0.28    0.53
   5  -2  10    0.12    0.39
   5  -2  10   -0.14    0.49
   6  -2  10   -0.19    0.36
   6  -2  10    0.44    0.51
 -11  -1  10    0.24    0.46
 -10  -1  10   -0.35    0.47
 -10  -1  10   -0.02    0.46
  -9  -1  10    0.51    0.47
  -9  -1  10    0.63    0.54
  -8  -1  10    0.05    0.54
  -8  -1  10    0.35    0.40
  -7  -1  10  115.83    6.68
  -7  -1  10  115.14    6.64
  -6  -1  10    2.10    0.68
  -6  -1  10    1.75    0.56
  -5  -1  10   58.79    4.06
  -5  -1  10   56.03    3.70
  -5  -1  10   70.31    3.68
  -4  -1  10    0.62    0.48
  -4  -1  10    0.08    0.42
  -4  -1  10   -0.45    0.66
  -3  -1  10   66.87    3.95
  -3  -1  10   64.99    4.03
  -3  -1  10   69.64    3.97
  -2  -1  10    0.64    0.42
  -2  -1  10    0.87    0.54
  -1  -1  10    3.22    1.80
  -1  -1  10    4.95    0.81
  -1  -1  10    3.38    0.84
   0  -1  10   11.76    1.13
   0  -1  10   10.17    1.72
   0  -1  10   10.63    1.00
   1  -1  10    1.05    0.44
   1  -1  10    2.01    0.71
   1  -1  10    2.10    0.85
   2  -1  10    9.03    1.01
   2  -1  10    8.20    0.94
   2  -1  10   11.07    1.51
   3  -1  10    3.26    1.33
   3  -1  10    3.05    0.81
   4  -1  10    3.69    0.74
   4  -1  10    5.40    0.77
   4  -1  10    4.51    1.05
   5  -1  10    2.41    0.83
   5  -1  10    2.54    0.72
   6  -1  10   -0.14    0.36
   6  -1  10    0.44    0.56
 -12   0  10   15.18    1.18
 -11   0  10    0.29    0.39
 -10   0  10    0.64    0.43
  -9   0  10    6.19    0.98
  -9   0  10    6.33    0.81
  -8   0  10   17.35    1.36
  -8   0  10   20.12    1.49
  -7   0  10   27.98    1.85
  -7   0  10   28.04    1.94
  -6   0  10   10.93    1.39
  -6   0  10   11.36    1.10
  -6   0  10   10.10    0.97
  -5   0  10   26.62    1.82
  -5   0  10   24.36    1.91
  -5   0  10   27.93    1.75
  -4   0  10    4.76    0.93
  -4   0  10    3.55    1.02
  -4   0  10    5.32    0.83
  -3   0  10    2.15    0.75
  -3   0  10    1.03    0.53
  -2   0  10    0.54    0.50
  -2   0  10    0.18    0.41
  -1   0  10   39.86    2.48
  -1   0  10   40.30    2.50
   0   0  10   31.79    2.08
   0   0  10   34.03    2.14
   0   0  10   31.84    2.64
   1   0  10   47.54    2.88
   1   0  10   50.49    3.42
   1   0  10   46.08    2.91
   2   0  10    0.40    0.45
   2   0  10    1.16    0.45
   2   0  10   -0.90    0.78
   3   0  10    9.52    0.98
   3   0  10    9.03    0.87
   3   0  10    8.03    1.34
   4   0  10    0.27    0.58
   4   0  10   -0.03    0.39
   4   0  10    0.27    0.40
   5   0  10    8.55    0.93
   5   0  10    5.90    0.86
 -12   1  10    3.31    0.58
 -11   1  10    0.04    0.35
 -10   1  10    0.71    0.39
  -9   1  10    4.30    0.84
  -8   1  10   13.53    1.12
  -8   1  10   14.16    1.22
  -7   1  10    1.53    0.46
  -7   1  10    0.72    0.61
  -7   1  10    1.02    0.41
  -6   1  10   32.81    2.07
  -6   1  10   30.52    2.16
  -6   1  10   33.00    2.08
  -5   1  10   76.27    4.59
  -5   1  10   79.25    4.56
  -4   1  10   29.79    2.00
  -4   1  10   29.54    1.99
  -3   1  10    1.34    0.52
  -3   1  10    0.55    0.41
  -2   1  10    0.45    0.44
  -2   1  10   -0.07    0.51
  -1   1  10   10.73    1.02
  -1   1  10   10.04    0.99
   0   1  10    7.55    0.83
   0   1  10    6.85    2.16
   0   1  10    6.32    0.96
   1   1  10   -0.20    0.43
   1   1  10   -0.02    0.42
   1   1  10    1.55    0.91
   2   1  10   -0.19    0.83
   2   1  10    0.39    0.45
   2   1  10    0.01    0.44
   3   1  10    0.78    0.43
   3   1  10    0.48    0.39
   3   1  10    0.39    0.63
   4   1  10    1.39    0.44
   5   1  10    4.22    0.98
 -12   2  10    0.91    0.31
 -11   2  10    6.56    0.71
 -10   2  10    1.77    0.67
  -9   2  10   11.01    1.04
  -8   2  10   24.12    1.66
  -7   2  10    0.74    0.44
  -7   2  10    1.81    0.69
  -6   2  10  105.70    5.89
  -6   2  10   98.07    5.93
  -5   2  10    2.98    0.75
  -5   2  10    1.68    0.46
  -4   2  10    0.37    0.48
  -4   2  10   -0.04    0.42
   3  -2 -10    6.90    1.13
  -3   2  10    8.71    0.98
  -3   2  10    9.28    0.91
  -2   2  10    1.15    0.49
  -2   2  10    1.86    0.75
  -1   2  10   -0.04    0.41
  -1   2  10    0.75    0.41
   0   2  10    2.22    0.68
   0   2  10    2.41    0.84
   1   2  10   44.99    3.30
   1   2  10   51.44    2.89
   1   2  10   45.69    2.85
   2   2  10    1.93    0.65
   2   2  10    1.68    0.77
   2   2  10    1.77    0.71
   3   2  10    0.95    0.41
   3   2  10   -0.27    0.57
   3   2  10    0.08    0.37
   4   2  10    0.31    0.49
   4   2  10   -0.21    0.45
 -12   3  10    2.09    0.51
  11  -3 -10    0.28    0.45
 -11   3  10    0.05    0.27
 -10   3  10    4.86    0.66
  -9   3  10    3.15    0.66
  -8   3  10    2.59    0.70
  -8   3  10    3.90    1.08
  -7   3  10    0.98    0.55
  -7   3  10   -0.30    0.35
  -6   3  10   15.88    1.25
  -6   3  10   15.82    1.38
  -5   3  10   -0.03    0.36
  -5   3  10    0.36    0.40
   4  -3 -10    0.41    0.55
  -4   3  10   -0.02    0.38
  -4   3  10   -0.29    0.41
  -3   3  10    5.29    0.85
  -3   3  10    4.83    0.78
  -2   3  10    4.69    0.86
  -2   3  10    4.77    0.82
  -1   3  10    2.25    0.73
   0   3  10    1.42    0.47
   0   3  10    0.96    0.41
   1   3  10    2.26    0.66
   1   3  10    4.71    1.68
   2   3  10    4.65    1.36
   2   3  10    3.21    0.67
   2   3  10    2.63    0.70
   3   3  10    1.56    0.61
   3   3  10    1.84    0.65
   3   3  10    0.66    0.39
   4   3  10    3.78    0.85
  11  -4 -10    7.61    0.80
 -11   4  10    6.61    0.66
  10  -4 -10    3.66    0.67
 -10   4  10    3.92    0.57
   9  -4 -10    0.50    0.39
  -9   4  10    0.09    0.29
  -9   4  10    0.12    0.54
   8  -4 -10   21.14    1.48
  -8   4  10   19.54    1.60
  -8   4  10   24.85    1.51
   7  -4 -10   10.01    0.88
  -7   4  10    9.27    0.97
  -7   4  10   10.43    1.10
   6  -4 -10    1.27    0.45
  -6   4  10    1.12    0.50
  -6   4  10    0.72    0.39
   5  -4 -10    2.97    0.73
  -5   4  10    4.22    0.82
  -5   4  10    3.55    0.75
   4  -4 -10   17.92    1.44
  -4   4  10   21.07    1.44
  -4   4  10   18.68    1.39
  -3   4  10    0.20    0.44
  -3   4  10    0.14    0.42
  -2   4  10    2.08    0.45
  -1   4  10    0.11    0.37
  -1   4  10    0.24    0.44
   0   4  10    9.18    0.87
   0   4  10   10.15    0.96
   1   4  10    3.95    0.75
   1   4  10    3.70    0.69
   1   4  10    6.48    1.67
   2   4  10    1.38    0.70
   2   4  10    2.26    0.70
   3   4  10    0.04    0.74
   3   4  10    1.01    0.57
 -11   5  10    7.44    0.67
  10  -5 -10    0.32    0.42
 -10   5  10    0.18    0.27
 -10   5  10    1.02    0.48
   9  -5 -10    8.12    0.77
  -9   5  10    8.11    0.78
  -9   5  10    8.04    0.98
   8  -5 -10    1.75    0.53
  -8   5  10    1.82    0.58
  -8   5  10    2.68    0.77
  -7   5  10    5.45    0.86
  -7   5  10    5.38    0.79
   6  -5 -10    1.26    0.45
  -6   5  10    1.72    0.66
   5  -5 -10    2.80    0.76
  -5   5  10    3.12    0.73
   4  -5 -10    3.85    0.99
  -4   5  10    3.51    0.78
  -4   5  10    4.77    0.77
  -3   5  10    5.32    0.82
  -3   5  10    6.03    0.82
  -2   5  10    8.03    0.95
  -2   5  10    8.73    0.93
  -1   5  10    5.78    0.72
  -1   5  10    5.63    0.86
   0   5  10   -0.20    0.40
   0   5  10   -0.07    0.35
   1   5  10    0.14    0.39
   1   5  10    0.21    0.38
   2   5  10    0.46    0.50
 -11   6  10    0.10    0.27
  10  -6 -10    0.22    0.39
 -10   6  10   -0.07    0.27
 -10   6  10    0.91    0.40
   9  -6 -10    0.68    0.37
  -9   6  10    0.19    0.32
  -9   6  10   -0.20    0.28
   8  -6 -10    3.74    0.59
  -8   6  10    2.64    0.66
  -8   6  10    2.15    0.71
   7  -6 -10    3.75    0.66
  -7   6  10    4.08    0.62
  -7   6  10    3.71    0.71
   6  -6 -10    0.92    0.45
  -6   6  10    1.56    0.62
  -6   6  10    0.42    0.33
   5  -6 -10    2.48    0.83
  -5   6  10    2.71    0.64
  -5   6  10    2.60    0.67
  -4   6  10    8.21    0.89
  -4   6  10    9.96    0.93
  -3   6  10    6.46    0.82
  -3   6  10    5.45    0.78
  -2   6  10    9.98    1.06
  -2   6  10   12.17    0.94
  -1   6  10    0.04    0.33
  -1   6  10    0.33    0.43
   0   6  10    2.12    0.81
   0   6  10    1.74    0.60
   1   6  10   -0.18    0.46
   1   6  10    1.03    0.52
 -10   7  10    2.67    0.56
 -10   7  10    4.36    0.68
   9  -7 -10    6.36    0.71
  -9   7  10    5.96    0.66
  -9   7  10    5.88    0.64
   8  -7 -10    1.68    0.61
  -8   7  10    2.25    0.53
  -8   7  10    1.08    0.33
   7  -7 -10    5.40    0.72
  -7   7  10    5.64    0.68
  -7   7  10    4.57    0.65
   6  -7 -10    3.49    0.80
  -6   7  10    3.49    0.60
  -6   7  10    4.60    0.68
   5  -7 -10    0.86    0.71
  -5   7  10    1.97    0.75
  -5   7  10    1.07    0.34
  -4   7  10    0.52    0.41
  -4   7  10   -0.02    0.34
  -3   7  10    8.15    0.80
  -3   7  10    7.27    0.95
  -2   7  10   -0.03    0.32
  -2   7  10   -0.48    0.43
  -1   7  10    3.84    0.96
  -1   7  10    3.78    0.64
   0   7  10    0.18    0.47
  -9   8  10    0.52    0.34
  -9   8  10    0.33    0.27
   8  -8 -10   13.63    1.08
  -8   8  10   12.78    1.02
  -8   8  10   13.45    0.94
  -7   8  10    1.85    0.41
  -7   8  10    1.41    0.51
   6  -8 -10    0.34    0.67
  -6   8  10    0.14    0.40
  -6   8  10    0.05    0.29
  -5   8  10    0.68    0.46
  -5   8  10   -0.25    0.29
  -4   8  10    1.10    0.55
  -3   8  10    0.31    0.31
  -3   8  10    0.28    0.80
  -2   8  10    4.97    0.62
  -7   9  10    6.21    0.58
  -6   9  10    2.82    0.52
  -5   9  10   11.57    0.86
  -4   9  10    0.10    0.29
  -3   9  10    2.49    0.59
  -3 -14  11    2.12    0.50
  -2 -14  11    1.78    0.56
  -1 -14  11    4.11    0.63
   0 -14  11    7.56    0.78
   0 -14  11    8.64    0.75
   1 -14  11    0.76    0.33
   1 -14  11    1.04    0.32
   2 -14  11    3.86    0.65
   2 -14  11    4.59    0.65
   3 -14  11    3.07    0.59
  -4 -13  11    2.23    0.53
  -4 -13  11    0.30    0.68
  -3 -13  11   -0.44    0.75
  -2 -13  11   -1.21    0.96
  -1 -13  11    1.90    0.66
  -1 -13  11    2.63    0.69
   0 -13  11   -0.16    0.37
   0 -13  11   -0.10    0.34
   1 -13  11   23.76    1.57
   1 -13  11   23.26    1.52
   2 -13  11   12.58    1.02
   2 -13  11   15.21    1.05
   3 -13  11    2.05    0.61
   4 -13  11    1.77    0.59
   4 -13  11    1.17    0.36
  -5 -12  11    0.27    0.31
  -5 -12  11    0.89    0.60
  -4 -12  11    0.42    0.60
  -4 -12  11    0.17    0.33
  -3 -12  11    0.73    0.37
  -2 -12  11   -0.04    0.91
  -2 -12  11    1.85    0.78
  -2 -12  11    0.53    0.37
  -1 -12  11    0.01    0.45
  -1 -12  11    0.17    0.37
   0 -12  11    0.06    0.37
   0 -12  11    0.41    0.42
   1 -12  11    0.01    0.36
   1 -12  11    0.28    0.41
   2 -12  11   -0.08    0.37
   2 -12  11    0.24    0.33
   3 -12  11   -0.25    0.37
   3 -12  11    0.07    0.32
   4 -12  11   14.73    1.12
   4 -12  11   15.68    1.11
  -7 -11  11    2.50    0.85
  -6 -11  11    2.08    0.59
  -6 -11  11    1.84    0.73
  -5 -11  11    0.78    0.58
  -5 -11  11   -0.13    0.33
  -4 -11  11    5.01    0.97
  -4 -11  11    5.37    0.82
  -3 -11  11    2.18    0.76
  -3 -11  11    1.26    0.41
  -3 -11  11    2.73    0.95
  -2 -11  11   15.68    1.22
  -2 -11  11   16.11    1.31
  -2 -11  11   13.08    1.53
  -1 -11  11   28.57    1.72
  -1 -11  11   22.57    1.81
   0 -11  11    0.35    0.38
   0 -11  11    0.95    0.45
   1 -11  11    4.13    0.81
   1 -11  11    2.66    0.77
   2 -11  11    0.41    0.41
   2 -11  11    0.26    0.38
   3 -11  11    6.51    0.79
   3 -11  11    5.01    0.84
   4 -11  11    0.83    0.39
   4 -11  11    1.80    0.68
  -5  11 -11    2.65    0.91
   5 -11  11    4.47    0.66
   5 -11  11    3.47    0.69
  -7 -10  11   -0.01    0.50
  -6 -10  11    0.54    0.50
  -6 -10  11    1.09    0.37
  -5 -10  11    9.51    0.98
  -5 -10  11    9.70    1.01
  -4 -10  11   -0.45    0.67
  -4 -10  11    0.79    0.62
  -3 -10  11    5.56    1.14
  -3 -10  11    3.85    0.86
  -3 -10  11    3.22    1.05
  -2 -10  11    8.03    1.40
  -2 -10  11   11.74    1.30
  -2 -10  11   12.15    1.08
  -1 -10  11    0.94    0.52
  -1 -10  11    0.86    0.48
   0 -10  11   -0.09    0.50
   0 -10  11    0.30    0.45
   1 -10  11    5.43    0.91
   1 -10  11    6.86    1.03
   2 -10  11    1.25    0.46
   2 -10  11    2.74    0.92
   3 -10  11   -0.08    0.44
   3 -10  11    0.16    0.43
   4 -10  11   12.68    1.14
   4 -10  11   13.42    1.14
   5 -10  11    0.32    0.38
   5 -10  11    0.28    0.41
   9   9 -11    3.25    0.76
  -8  -9  11    5.89    0.81
  -7  -9  11    1.31    0.49
  -6  -9  11    2.12    0.69
  -6  -9  11    2.23    0.45
  -5  -9  11    0.13    0.55
  -5  -9  11    0.00    0.43
  -4  -9  11    1.90    0.50
  -4  -9  11    0.39    0.79
  -4  -9  11    2.17    0.79
  -3  -9  11    0.15    0.70
  -3  -9  11   -0.66    0.48
  -3  -9  11    0.34    0.65
  -2  -9  11   -0.45    0.76
  -2  -9  11    0.69    0.53
  -2  -9  11    0.58    0.58
  -1  -9  11    6.76    1.03
  -1  -9  11    7.20    1.10
   0  -9  11    0.72    0.49
   0  -9  11    0.60    0.58
   1  -9  11    0.81    0.50
   1  -9  11    0.16    0.51
   2  -9  11    4.47    1.33
   2  -9  11    3.78    0.94
   2  -9  11    3.24    1.00
   3  -9  11    0.46    0.49
   3  -9  11   -0.49    0.65
   3  -9  11    0.94    0.50
   4  -9  11    3.93    0.86
   4  -9  11    4.70    0.91
   5  -9  11    2.64    0.78
   5  -9  11    2.84    0.75
   6  -9  11    1.88    0.74
   6  -9  11    2.58    0.71
  -9  -8  11    3.02    0.83
  -8  -8  11   -0.19    0.47
  -7  -8  11    9.35    0.93
  -6  -8  11    1.24    0.45
  -6  -8  11   -0.02    0.46
  -5  -8  11   10.58    1.05
  -4  -8  11    4.54    0.88
  -4  -8  11    4.78    0.95
  -3  -8  11   11.09    1.13
  -3  -8  11   11.22    1.19
  -3  -8  11    8.55    1.64
  -2  -8  11    6.74    1.21
  -2  -8  11    5.79    1.13
  -1  -8  11    2.28    0.57
  -1  -8  11    2.65    0.70
   0  -8  11  102.35    5.85
   0  -8  11   99.47    5.88
   1  -8  11    5.82    1.41
   1  -8  11    2.78    1.07
   2  -8  11    7.12    1.37
   2  -8  11    6.74    1.07
   2  -8  11    4.91    1.07
   3  -8  11    0.41    0.59
   3  -8  11    0.07    0.50
   3  -8  11    0.86    0.53
   4  -8  11    8.54    1.02
   4  -8  11    8.97    1.15
   4  -8  11    9.65    1.07
   5  -8  11    1.77    0.48
   5  -8  11    2.73    0.79
   6  -8  11    0.15    0.38
   6  -8  11    0.24    0.41
  -9  -7  11   -0.19    0.50
  -8  -7  11    0.72    0.47
  -7  -7  11   10.15    1.02
  -7  -7  11   10.64    1.13
  -6  -7  11    3.95    0.72
  -6  -7  11    2.43    0.58
  -5  -7  11    6.44    1.09
  -5  -7  11    3.83    0.74
  -4  -7  11   -0.05    0.55
  -4  -7  11    0.59    0.56
  -3  -7  11    0.48    0.82
  -3  -7  11    3.49    0.93
  -3  -7  11    1.57    0.58
  -2  -7  11   11.94    1.31
  -2  -7  11   10.36    1.51
  -1  -7  11   54.38    3.30
  -1  -7  11   52.53    3.36
   0  -7  11    1.22    0.80
   0  -7  11    1.20    0.62
   0  -7  11    2.08    0.59
   1  -7  11   -0.39    0.67
   1  -7  11    1.07    0.57
   1  -7  11    1.49    0.59
   2  -7  11   10.02    1.20
   2  -7  11   11.37    1.23
   2  -7  11   11.19    1.31
   3  -7  11    8.19    1.22
   3  -7  11    8.24    1.09
   3  -7  11    7.44    1.09
   4  -7  11    5.60    0.92
   4  -7  11    3.03    1.06
   4  -7  11    5.14    0.89
   5  -7  11    1.96    0.73
   5  -7  11    3.28    0.77
   5  -7  11    0.96    0.51
   6  -7  11    0.73    0.47
   6  -7  11    0.45    0.42
 -10  -6  11    2.34    0.86
  -9  -6  11    6.42    0.85
  -7  -6  11    4.21    0.77
  -6  -6  11    9.50    1.38
  -6  -6  11   10.50    0.99
  -5  -6  11    0.34    0.60
  -5  -6  11    0.63    0.50
  -4  -6  11    7.91    1.28
  -4  -6  11    7.17    0.91
  -3  -6  11    0.17    0.64
  -3  -6  11    0.98    0.58
  -2  -6  11   -0.18    0.74
  -2  -6  11    0.98    0.64
  -1  -6  11    0.97    0.72
  -1  -6  11   -0.46    0.62
  -1  -6  11   -0.98    0.68
   0  -6  11   18.43    1.54
   0  -6  11   18.75    1.64
   0  -6  11   18.88    1.70
   1  -6  11   45.05    2.83
   1  -6  11   46.85    2.93
   1  -6  11   44.05    2.92
   2  -6  11    7.46    1.13
   2  -6  11    6.72    1.35
   2  -6  11    6.57    1.02
   3  -6  11    0.21    0.52
   3  -6  11    0.39    0.56
   3  -6  11    1.12    0.69
   4  -6  11   18.08    1.67
   4  -6  11   18.41    1.43
   4  -6  11   17.75    1.36
   5  -6  11   -0.08    0.56
   5  -6  11    0.47    0.46
   5  -6  11    0.77    0.44
   6  -6  11   20.32    1.40
 -10  -5  11    3.49    0.80
  -9  -5  11   -0.03    0.45
  -8  -5  11    9.52    0.98
  -7  -5  11    2.83    0.74
  -6  -5  11   29.73    1.96
  -5  -5  11    0.33    0.53
  -4  -5  11   16.24    1.33
  -3  -5  11    3.66    0.90
  -2  -5  11   -0.55    1.06
  -2  -5  11    1.51    0.92
  -1  -5  11    0.88    0.77
  -1  -5  11    0.88    0.64
  -1  -5  11   -0.04    0.68
   0  -5  11    0.03    0.53
   0  -5  11   -1.00    0.78
   0  -5  11    1.08    0.66
   0  -5  11    1.24    0.73
   1  -5  11   31.27    2.26
   1  -5  11   32.55    2.23
   1  -5  11   30.01    2.37
   1  -5  11   31.97    2.07
   2  -5  11   12.33    1.61
   2  -5  11    9.63    1.33
   2  -5  11   11.60    1.12
   2  -5  11   10.98    1.31
   3  -5  11    3.66    1.01
   3  -5  11    2.97    0.81
   3  -5  11    3.17    0.80
   3  -5  11    2.63    1.03
   4  -5  11    0.17    0.73
   4  -5  11    0.18    0.51
   4  -5  11    0.44    0.43
   5  -5  11    2.26    0.68
   5  -5  11    3.15    0.77
  -6   5 -11    2.84    0.99
 -10  -4  11    0.05    0.50
  -9  -4  11    0.27    0.45
  -8  -4  11    2.54    0.74
  -7  -4  11   -0.46    0.49
  -6  -4  11   -0.07    0.47
  -5  -4  11   21.39    1.52
  -4  -4  11   45.80    2.81
  -3  -4  11    6.14    1.39
  -3  -4  11    5.96    1.05
  -2  -4  11   11.24    1.24
  -2  -4  11    6.88    1.26
  -1  -4  11    3.67    0.75
  -1  -4  11    6.62    1.44
  -1  -4  11    3.36    0.68
   0  -4  11   29.38    2.02
   0  -4  11   27.89    2.16
   0  -4  11   28.89    1.98
   1  -4  11    7.78    1.13
   1  -4  11    8.40    1.29
   1  -4  11    6.47    0.99
   2  -4  11   14.19    1.46
   2  -4  11   12.57    1.25
   2  -4  11   13.01    1.12
   3  -4  11   -0.01    0.63
   3  -4  11    1.85    0.95
   3  -4  11    0.91    0.46
   4  -4  11    1.04    0.51
   4  -4  11    0.77    0.43
   5  -4  11    0.53    0.41
   5  -4  11    0.56    0.43
  -6   4 -11    0.17    0.46
   6  -4  11    0.80    0.35
 -10  -3  11   -0.09    0.43
  -9  -3  11    0.06    0.40
  -8  -3  11    0.40    0.75
  -8  -3  11    3.86    0.73
  -7  -3  11    1.16    0.48
  -7  -3  11    0.74    0.71
  -6  -3  11   11.38    1.38
  -6  -3  11    8.70    1.00
  -5  -3  11    8.47    1.35
  -5  -3  11   10.10    1.02
  -4  -3  11   34.10    2.34
  -4  -3  11   36.21    2.24
  -3  -3  11    0.42    0.56
  -3  -3  11    0.65    0.67
  -2  -3  11    9.28    1.11
  -2  -3  11   10.04    1.16
  -1  -3  11    9.68    1.69
  -1  -3  11   11.18    1.16
  -1  -3  11   10.38    1.08
   0  -3  11    3.58    1.02
   0  -3  11    3.30    0.94
   1  -3  11    3.51    0.93
   1  -3  11    6.00    0.88
   1  -3  11    4.32    1.29
   2  -3  11    2.44    0.88
   2  -3  11    2.06    0.73
   2  -3  11    5.38    1.37
   3  -3  11   11.26    1.36
   3  -3  11    8.88    0.89
   3  -3  11    7.45    0.97
   4  -3  11    0.91    0.38
   4  -3  11    0.55    0.54
   5  -3  11   12.49    1.03
   5  -3  11   10.58    0.95
 -10  -2  11    0.43    0.47
 -10  -2  11    1.08    0.60
  -9  -2  11   32.64    2.16
  -9  -2  11   35.26    2.22
  -8  -2  11    1.23    0.62
  -8  -2  11    0.40    0.42
  -7  -2  11   31.21    2.07
  -7  -2  11   25.35    1.84
  -6  -2  11    0.73    0.56
  -6  -2  11    2.75    0.70
  -5  -2  11   12.60    1.10
  -5  -2  11   11.79    1.37
  -4  -2  11    6.06    1.36
  -4  -2  11    8.27    0.93
  -4  -2  11    6.98    1.03
  -3  -2  11    0.30    0.46
  -3  -2  11    1.05    0.79
  -3  -2  11    0.73    0.52
  -2  -2  11   39.89    2.49
  -2  -2  11   39.51    2.52
  -1  -2  11   14.09    1.20
  -1  -2  11   13.57    1.22
   0  -2  11    6.32    1.01
   0  -2  11    5.40    0.82
   0  -2  11    3.60    0.97
   1  -2  11    0.91    0.45
   1  -2  11    0.16    0.45
   1  -2  11    1.37    0.79
   2  -2  11    1.43    0.70
   2  -2  11    0.22    0.45
   2  -2  11   -0.61    0.43
   3  -2  11    0.11    0.62
   3  -2  11    0.32    0.38
   3  -2  11   -0.41    0.39
   4  -2  11    0.09    0.37
   4  -2  11    0.57    0.55
   5  -2  11    2.64    0.76
   5  -2  11    3.98    0.70
 -11  -1  11    1.04    0.48
 -10  -1  11    2.35    0.78
  -9  -1  11    1.96    0.70
  -9  -1  11    2.61    0.83
  -8  -1  11    8.14    0.92
  -8  -1  11    9.82    1.05
  -7  -1  11    6.31    1.06
  -7  -1  11    4.46    0.75
  -6  -1  11   10.58    1.10
  -6  -1  11    9.06    0.94
  -5  -1  11   -0.30    0.50
  -5  -1  11   -0.33    0.49
  -5  -1  11    0.37    0.74
  -4  -1  11    0.35    0.45
  -4  -1  11   -0.12    0.62
  -4  -1  11    0.41    0.54
  -3  -1  11    8.02    1.15
  -3  -1  11    9.03    0.95
  -2  -1  11   27.23    1.84
  -2  -1  11   26.21    1.81
  -1  -1  11   11.76    1.13
  -1  -1  11   12.79    1.06
   0  -1  11    1.64    0.89
   0  -1  11    1.36    0.47
   0  -1  11    2.78    0.86
   1  -1  11    1.16    0.44
   1  -1  11    0.41    0.44
   2  -1  11    3.32    0.74
   2  -1  11    3.13    0.78
   2  -1  11    4.29    1.25
   3  -1  11   -0.34    0.37
   3  -1  11   -0.85    0.58
   3  -1  11   -0.31    0.33
   4  -1  11    0.23    0.54
   4  -1  11    0.47    0.35
   5  -1  11    0.72    0.41
   5  -1  11    0.86    0.43
 -11   0  11    4.14    0.81
 -10   0  11   -0.03    0.37
  -9   0  11   -0.10    0.41
  -8   0  11   15.65    1.20
  -8   0  11   15.44    1.26
  -7   0  11   54.03    3.45
  -7   0  11   61.84    3.51
  -6   0  11    8.83    1.36
  -6   0  11    8.49    0.91
  -5   0  11    6.45    0.87
  -5   0  11    5.61    1.00
  -5   0  11    7.26    1.17
  -4   0  11    0.30    0.41
  -4   0  11    0.57    0.57
  -3   0  11    1.23    0.55
  -3   0  11    2.61    0.72
  -2   0  11   14.02    1.24
  -2   0  11   17.20    1.28
  -1   0  11    3.77    0.80
  -1   0  11    2.94    0.76
   0   0  11    6.02    0.90
   0   0  11    4.05    0.77
   0   0  11    2.37    0.99
   1   0  11   24.36    1.71
   1   0  11   26.61    2.09
   1   0  11   25.04    1.69
   2   0  11    4.55    1.22
   2   0  11    6.38    0.78
   2   0  11    5.92    0.76
   3   0  11    1.75    0.61
   3   0  11    2.28    0.65
   3   0  11    1.09    0.36
   4   0  11   11.42    1.14
   4   0  11    8.99    0.85
 -11   1  11    2.15    0.66
 -10   1  11    4.28    0.67
  -9   1  11    2.16    0.69
  -8   1  11    6.48    0.88
  -7   1  11    1.07    0.70
  -7   1  11    4.07    0.79
  -6   1  11    6.07    0.85
  -6   1  11    5.46    1.13
  -5   1  11    6.58    0.93
  -4   1  11    9.12    1.07
  -4   1  11    8.12    0.93
  -3   1  11    4.32    0.92
  -3   1  11    3.43    0.75
  -2   1  11    0.49    0.47
  -2   1  11    0.12    0.37
  -1   1  11    3.59    0.77
  -1   1  11    2.94    0.72
   0   1  11    1.37    0.39
   0   1  11   -0.43    0.97
   0   1  11    3.10    0.81
   1   1  11    2.26    0.72
   1   1  11    3.68    0.75
   2   1  11    0.60    0.36
   2   1  11    0.00    0.34
   2   1  11    0.30    0.62
   3   1  11    7.78    1.16
   3   1  11    7.82    0.75
   3   1  11    8.38    0.78
   4   1  11    1.93    0.82
   4   1  11    0.78    0.46
  11  -2 -11    9.09    0.93
 -11   2  11   10.37    0.86
 -10   2  11    2.30    0.62
  -9   2  11   -0.03    0.34
  -7   2  11   12.02    1.19
  -7   2  11    9.33    0.97
  -6   2  11   21.79    1.64
  -6   2  11   22.10    1.58
  -5   2  11   18.59    1.40
  -5   2  11   19.48    1.49
   4  -2 -11    1.71    0.74
  -4   2  11    3.13    0.69
  -4   2  11    3.44    0.83
  -3   2  11    7.28    0.89
  -3   2  11    8.81    1.02
  -2   2  11    4.81    0.78
  -2   2  11    6.25    0.84
  -1   2  11   17.40    1.35
  -1   2  11   18.42    1.30
   0   2  11   -0.22    0.40
   0   2  11    0.22    0.37
   1   2  11    0.35    0.79
   1   2  11    0.94    0.38
   1   2  11    2.19    0.65
   2   2  11    2.77    0.63
   2   2  11    5.05    1.16
   2   2  11    3.85    0.64
   3   2  11    0.28    0.61
   3   2  11    0.62    0.39
  11  -3 -11    3.66    0.70
 -11   3  11    2.93    0.53
  10  -3 -11    4.95    0.72
 -10   3  11    5.05    0.65
  -9   3  11    4.45    0.67
  -8   3  11    4.50    0.96
  -8   3  11    6.03    0.71
  -7   3  11   17.44    1.44
  -7   3  11   20.58    1.37
   6  -3 -11    6.04    0.81
  -6   3  11    5.23    0.87
  -6   3  11    7.45    0.94
   5  -3 -11   32.79    2.24
  -5   3  11   35.47    2.23
  -5   3  11   38.02    2.29
  -4   3  11    1.08    0.43
  -4   3  11    0.67    0.38
  -3   3  11    0.58    0.40
  -3   3  11   -0.30    0.49
  -2   3  11   11.71    1.03
  -2   3  11   11.50    1.04
  -1   3  11    1.30    0.46
  -1   3  11    2.20    0.61
   0   3  11    2.85    0.68
   1   3  11    8.07    0.79
   1   3  11    7.60    0.76
   2   3  11    5.53    0.70
   2   3  11    5.44    0.68
   2   3  11    4.08    1.37
 -11   4  11    3.63    0.52
  10  -4 -11    3.74    0.65
 -10   4  11    4.69    0.55
   9  -4 -11    0.19    0.38
  -9   4  11    0.20    0.27
  -9   4  11    0.35    0.47
   8  -4 -11    1.18    0.42
  -8   4  11    0.94    0.42
  -8   4  11    1.02    0.35
   7  -4 -11    4.36    0.72
  -7   4  11    6.35    0.74
  -7   4  11    5.07    0.79
   6  -4 -11    0.52    0.45
  -6   4  11    0.19    0.38
  -6   4  11    0.23    0.46
   5  -4 -11   12.94    1.25
  -5   4  11   14.68    1.18
  -5   4  11   14.99    1.12
  -4   4  11    2.22    0.71
  -4   4  11    2.27    0.74
  -3   4  11    1.70    0.44
  -3   4  11    2.91    0.77
  -2   4  11    1.35    0.40
  -2   4  11    2.70    0.63
  -1   4  11   -0.09    0.29
  -1   4  11   -0.07    0.37
   0   4  11   17.11    1.14
   0   4  11   15.99    1.18
   1   4  11    1.83    0.61
   1   4  11    2.91    0.62
   2   4  11    0.72    0.45
 -10   5  11    1.31    0.49
   9  -5 -11   -0.16    0.37
  -9   5  11    0.77    0.42
  -9   5  11    0.02    0.27
   8  -5 -11    4.58    0.67
  -8   5  11    4.31    0.73
  -8   5  11    5.11    0.65
   7  -5 -11    2.03    0.65
  -7   5  11    1.30    0.34
  -7   5  11    2.18    0.66
   6  -5 -11    8.48    0.94
  -6   5  11    8.96    0.85
  -6   5  11    7.43    0.79
   5  -5 -11    6.29    1.11
  -5   5  11    5.22    0.75
  -5   5  11    5.45    0.72
  -4   5  11   37.02    2.30
  -4   5  11   38.41    2.32
  -3   5  11    0.54    0.37
  -3   5  11    0.49    0.36
  -2   5  11    2.74    0.76
  -2   5  11    4.01    0.60
  -1   5  11    0.97    0.37
  -1   5  11    0.86    0.33
   0   5  11    0.66    0.39
   0   5  11    0.51    0.35
 -10   6  11    0.45    0.25
   9  -6 -11    0.21    0.40
  -9   6  11    0.55    0.25
  -9   6  11    0.53    0.38
   8  -6 -11    4.22    0.69
  -8   6  11    3.31    0.55
  -8   6  11    3.19    0.60
   7  -6 -11    3.59    0.75
  -7   6  11    4.03    0.59
  -7   6  11    2.99    0.60
   6  -6 -11    1.38    0.62
  -6   6  11    1.43    0.37
  -6   6  11    1.26    0.36
  -5   6  11    1.55    0.59
  -5   6  11    0.56    0.32
  -4   6  11    0.26    0.35
  -4   6  11    0.05    0.36
  -3   6  11   -0.33    0.29
  -3   6  11    0.16    0.39
  -2   6  11    1.66    0.67
  -2   6  11    2.51    0.50
  -1   6  11    4.45    0.58
  -1   6  11    4.32    0.74
   0   6  11    0.82    0.41
   0   6  11    0.66    0.62
  -9   7  11   13.03    1.02
  -9   7  11   15.70    0.99
  -8   7  11   26.67    1.62
  -8   7  11   25.59    1.61
   7  -7 -11    0.71    1.07
  -7   7  11    2.00    0.58
  -7   7  11    1.33    0.50
  -6   7  11    8.52    0.77
  -6   7  11    7.06    0.69
  -5   7  11    0.53    0.33
  -5   7  11   -0.09    0.35
  -4   7  11   -0.09    0.41
  -4   7  11   -0.29    0.28
  -3   7  11   -0.28    0.42
  -3   7  11    0.23    0.28
  -2   7  11   -0.12    0.29
  -2   7  11    0.63    0.57
  -1   7  11    0.54    0.68
  -7   8  11    4.76    0.57
  -6   8  11    2.30    0.50
  -6   8  11    0.36    0.54
  -5   8  11    4.22    0.54
  -4   8  11    0.59    0.26
  -2 -14  12    0.98    0.30
  -1 -14  12    1.71    0.54
   0 -14  12    0.45    0.30
   0 -14  12    0.36    0.36
   1 -14  12    9.06    0.82
   1 -14  12   10.83    0.81
  -4 -13  12    0.23    0.29
  -3 -13  12    9.33    0.81
  -2 -13  12    1.80    0.63
  -1 -13  12    0.30    0.32
  -1 -13  12    0.56    0.38
   0 -13  12    1.84    0.40
   1 -13  12    3.50    0.65
   1 -13  12    3.22    0.62
   2 -13  12   -0.16    0.34
   2 -13  12    0.26    0.28
  -5 -12  12    0.98    0.81
  -5 -12  12    0.76    0.31
  -4 -12  12    1.75    0.60
  -4 -12  12    1.40    0.76
  -3 -12  12   -0.27    0.84
  -3 -12  12    2.33    0.64
  -2 -12  12    2.72    0.82
  -2 -12  12    3.27    0.67
  -1 -12  12   -0.45    0.42
  -1 -12  12    0.39    0.36
   0 -12  12    4.08    0.66
   0 -12  12    3.44    0.77
   1 -12  12    1.34    0.43
   1 -12  12    0.06    0.35
   2 -12  12    0.09    0.36
   2 -12  12    0.33    0.33
   3 -12  12    1.64    0.60
   3 -12  12    0.80    0.33
  -6 -11  12    0.00    0.63
  -5 -11  12   -0.34    0.32
  -5 -11  12    0.32    0.53
  -4 -11  12    0.13    0.64
  -4 -11  12    0.46    0.36
  -3 -11  12   14.05    1.14
  -3 -11  12   14.65    1.32
  -2 -11  12    4.97    0.78
  -2 -11  12    4.14    0.96
  -1 -11  12    0.40    0.37
  -1 -11  12    0.05    0.48
   0 -11  12    2.30    0.79
   0 -11  12    3.16    0.78
   1 -11  12    3.44    0.76
   1 -11  12    3.70    0.77
   2 -11  12    0.61    0.37
   2 -11  12    0.09    0.37
   3 -11  12    1.79    0.69
   3 -11  12    2.82    0.65
   4 -11  12    3.16    0.67
   4 -11  12    2.95    0.68
  -7 -10  12    0.53    0.52
  -6 -10  12    3.82    0.86
  -6 -10  12    4.73    0.71
  -5 -10  12    2.44    0.82
  -5 -10  12    3.27    0.76
  -4 -10  12   -0.33    0.61
  -4 -10  12   -0.26    0.42
  -3 -10  12    3.72    1.16
  -3 -10  12    2.89    0.77
  -3 -10  12    1.37    0.73
  -2 -10  12    3.33    0.85
  -2 -10  12    5.19    1.09
  -1 -10  12    5.36    0.96
  -1 -10  12    5.09    0.91
   0 -10  12    9.33    1.06
   0 -10  12   11.17    1.06
   1 -10  12    0.32    0.43
   1 -10  12    0.46    0.46
   2 -10  12    8.11    0.95
   2 -10  12    8.14    0.99
   3 -10  12    1.95    0.45
   4 -10  12    8.46    0.89
   4 -10  12    8.06    0.90
  -8  -9  12    4.10    0.84
  -7  -9  12   -0.34    0.48
  -6  -9  12    5.60    0.85
  -5  -9  12    1.50    0.49
  -5  -9  12    0.88    0.52
  -4  -9  12    6.78    0.98
  -4  -9  12    6.50    0.99
  -3  -9  12    0.36    0.48
  -3  -9  12   -0.14    0.78
  -3  -9  12    2.58    0.74
  -2  -9  12    3.62    1.06
  -2  -9  12    1.58    0.50
  -1  -9  12    3.06    0.97
  -1  -9  12    5.35    1.08
   0  -9  12    3.21    0.90
   0  -9  12    2.03    0.58
   1  -9  12    8.42    1.09
   1  -9  12    8.21    1.03
   2  -9  12    2.70    0.92
   2  -9  12    0.87    0.46
   2  -9  12    0.19    0.70
   3  -9  12    0.89    0.43
   3  -9  12    0.05    0.46
   4  -9  12    0.51    0.44
   4  -9  12    0.79    0.40
   5  -9  12    0.48    0.38
   5  -9  12    0.78    0.44
  -8  -8  12    0.56    0.53
  -7  -8  12   -0.08    0.51
  -6  -8  12    0.32    0.48
  -6  -8  12    0.40    0.55
  -5  -8  12    4.30    0.91
  -5  -8  12    6.36    1.02
  -4  -8  12    2.98    0.92
  -3  -8  12    1.78    0.72
  -3  -8  12    1.36    0.58
  -2  -8  12   46.18    2.89
  -2  -8  12   44.17    2.86
  -1  -8  12   19.30    1.56
  -1  -8  12   18.01    1.64
   0  -8  12    8.55    1.18
   0  -8  12   10.06    1.23
   1  -8  12    1.75    0.69
   1  -8  12   -0.31    0.53
   1  -8  12    0.23    0.58
   2  -8  12   18.52    1.53
   2  -8  12   19.23    1.55
   2  -8  12   19.24    1.58
   3  -8  12    0.51    0.51
   3  -8  12    0.25    0.66
   3  -8  12    0.27    0.52
   4  -8  12    5.78    0.88
   4  -8  12    5.67    0.97
   5  -8  12    5.73    0.97
   5  -8  12    3.86    0.70
  -9  -7  12    5.79    0.85
  -8  -7  12   -0.39    0.49
  -7  -7  12    0.48    0.50
  -6  -7  12   -0.09    0.57
  -6  -7  12    2.03    0.76
  -5  -7  12    6.64    1.25
  -4  -7  12    4.14    1.17
  -4  -7  12    1.01    0.64
  -3  -7  12    7.34    1.12
  -2  -7  12   12.04    1.56
  -2  -7  12    9.89    1.52
  -1  -7  12    3.45    1.12
   0  -7  12   21.41    1.66
   0  -7  12   16.34    1.73
   0  -7  12   20.56    1.70
   1  -7  12   19.51    1.62
   1  -7  12   18.21    1.69
   1  -7  12   22.40    1.63
   2  -7  12    0.30    0.56
   2  -7  12    1.18    0.61
   3  -7  12   -0.09    0.54
   3  -7  12    0.48    0.58
   3  -7  12    0.54    0.48
   4  -7  12    5.69    0.98
   4  -7  12    7.57    0.90
   4  -7  12    6.58    1.12
   5  -7  12    4.62    0.76
  -9  -6  12   -0.21    0.49
  -8  -6  12    3.90    0.80
  -7  -6  12    0.39    0.51
  -6  -6  12    4.57    0.81
  -5  -6  12    7.78    0.94
  -4  -6  12    1.13    1.15
  -4  -6  12    0.44    0.57
  -3  -6  12    4.52    1.55
  -2  -6  12    1.40    0.92
  -2  -6  12    0.21    0.84
  -1  -6  12    1.26    0.72
  -1  -6  12    1.47    0.73
   0  -6  12   13.47    1.30
   0  -6  12   12.32    1.53
   1  -6  12   35.72    2.29
   1  -6  12   35.09    2.35
   1  -6  12   34.57    2.47
   2  -6  12   13.53    1.23
   2  -6  12   14.87    1.35
   2  -6  12   12.71    1.56
   3  -6  12   12.67    1.20
   3  -6  12   12.12    1.12
   3  -6  12   10.17    1.40
   4  -6  12    1.48    0.71
   4  -6  12   -0.34    0.41
   4  -6  12    0.29    0.43
   5  -6  12    5.37    0.77
   5  -6  12    4.77    0.67
 -10  -5  12   -0.30    0.46
  -9  -5  12    0.81    0.44
  -8  -5  12    0.15    0.46
  -7  -5  12    3.72    0.82
  -6  -5  12    7.04    0.92
  -5  -5  12   29.71    1.97
  -4  -5  12    0.01    0.62
  -2  -5  12   -0.20    0.77
   0  -5  12    3.93    1.23
   0  -5  12    2.33    0.89
   1  -5  12    0.51    0.66
   1  -5  12   -0.52    0.46
   1  -5  12   -0.95    0.63
   2  -5  12    2.25    0.61
   2  -5  12    2.62    0.78
   2  -5  12    2.71    1.02
   3  -5  12    0.79    0.43
   3  -5  12    0.30    0.52
   4  -5  12    1.14    0.41
   4  -5  12    1.27    0.47
   5  -5  12    1.78    0.64
 -10  -4  12    7.26    0.83
  -9  -4  12   10.30    0.97
  -8  -4  12    1.16    0.48
  -7  -4  12    0.26    0.45
  -6  -4  12    7.05    0.89
  -5  -4  12    2.98    0.80
  -4  -4  12    0.56    0.78
  -4  -4  12    0.73    0.58
  -3  -4  12   42.82    2.77
  -2  -4  12    0.30    0.59
  -2  -4  12   -0.47    0.66
  -1  -4  12    1.20    0.84
  -1  -4  12    0.66    0.62
  -1  -4  12    0.67    0.55
   0  -4  12    6.62    1.02
   0  -4  12    9.68    1.14
   1  -4  12   17.27    1.45
   1  -4  12   18.28    1.35
   1  -4  12   17.40    1.68
   2  -4  12   10.66    0.96
   2  -4  12   11.00    1.26
   2  -4  12    8.41    1.09
   3  -4  12    5.83    1.02
   3  -4  12    5.01    0.72
   4  -4  12   -0.68    0.43
   4  -4  12    0.21    0.35
   5  -4  12   10.22    0.87
   5  -4  12   10.90    0.90
 -10  -3  12    9.33    0.93
  -9  -3  12   21.83    1.52
  -8  -3  12    4.71    1.85
  -7  -3  12    0.57    0.48
  -7  -3  12   -0.79    0.69
  -6  -3  12    3.64    0.79
  -6  -3  12    5.76    1.23
  -5  -3  12   21.77    1.58
  -5  -3  12   24.21    1.77
  -4  -3  12   12.23    1.23
  -4  -3  12   13.31    1.31
  -3  -3  12   55.02    3.38
  -3  -3  12   56.14    3.36
  -2  -3  12    9.75    1.06
  -2  -3  12    8.86    1.12
  -1  -3  12   18.05    1.50
  -1  -3  12   21.57    1.59
   0  -3  12   10.10    1.53
   0  -3  12    7.38    0.96
   0  -3  12    6.97    1.00
   1  -3  12    4.15    0.79
   1  -3  12    3.12    1.22
   1  -3  12    4.18    0.98
   2  -3  12    0.36    0.39
   2  -3  12    0.57    0.61
   2  -3  12    0.94    0.47
   3  -3  12    0.32    0.41
   3  -3  12   -0.15    0.36
   3  -3  12    0.28    0.52
   4  -3  12    4.54    0.83
   4  -3  12    4.72    0.67
  -9  -2  12    8.30    0.87
  -9  -2  12    6.75    1.20
  -8  -2  12    2.09    0.68
  -8  -2  12    1.89    0.61
  -7  -2  12    4.69    0.77
  -7  -2  12    5.13    1.19
  -6  -2  12   23.25    1.75
  -6  -2  12   29.95    1.94
  -5  -2  12    1.24    0.51
  -5  -2  12    1.22    0.54
  -4  -2  12   29.14    2.04
  -4  -2  12   30.49    1.98
  -3  -2  12   11.88    1.15
  -3  -2  12   12.10    1.23
  -2  -2  12   13.96    1.19
  -2  -2  12   11.13    1.12
  -1  -2  12    1.19    0.51
  -1  -2  12    0.79    0.46
   0  -2  12    0.36    0.42
   0  -2  12    1.69    0.84
   0  -2  12   -0.17    0.45
   1  -2  12    9.25    0.90
   1  -2  12    6.25    1.34
   1  -2  12    7.90    0.95
   2  -2  12    1.19    0.62
   2  -2  12    1.17    0.35
   2  -2  12    2.03    0.69
   3  -2  12   13.58    1.01
   3  -2  12   11.73    0.97
   3  -2  12   13.04    1.25
   4  -2  12    0.60    0.34
   4  -2  12    1.13    0.45
 -10  -1  12    6.98    0.98
  -9  -1  12    2.41    0.83
  -8  -1  12    0.46    0.45
  -8  -1  12   -0.06    0.44
  -7  -1  12   -0.44    0.44
  -7  -1  12    0.12    0.49
  -6  -1  12    0.18    0.48
  -6  -1  12   -0.33    0.47
  -5  -1  12    1.17    0.69
  -5  -1  12    1.14    0.49
  -4  -1  12   20.30    1.68
  -4  -1  12   22.90    1.55
  -3  -1  12    5.47    0.91
  -3  -1  12    5.49    0.94
  -2  -1  12    6.55    0.85
  -2  -1  12    5.88    0.84
  -1  -1  12    6.20    0.85
  -1  -1  12    6.09    0.91
   0  -1  12    3.68    0.76
   0  -1  12    3.28    0.76
   1  -1  12    2.91    0.74
   1  -1  12    2.36    0.79
   2  -1  12    2.72    0.69
   2  -1  12    2.96    0.59
   2  -1  12    5.12    1.16
   3  -1  12   13.02    1.23
   3  -1  12   12.55    0.98
   3  -1  12   11.30    0.92
   4  -1  12    3.27    0.61
   4  -1  12    4.40    0.81
 -11   0  12    0.44    0.42
 -10   0  12    0.45    0.37
  -9   0  12    9.48    0.94
  -8   0  12   30.48    1.97
  -7   0  12    8.60    1.04
  -5   0  12    0.50    0.41
  -5   0  12    0.10    0.67
  -4   0  12   22.30    1.57
  -4   0  12   23.16    1.72
  -3   0  12   18.98    1.43
  -3   0  12   19.47    1.44
  -2   0  12    1.39    0.42
  -2   0  12    1.73    0.46
  -1   0  12    3.77    0.83
  -1   0  12    4.57    0.74
   0   0  12    5.17    0.73
   0   0  12    4.45    0.75
   1   0  12   -0.24    0.34
   1   0  12    0.45    0.75
   1   0  12    0.93    0.37
   2   0  12    1.11    0.33
   2   0  12    1.10    0.37
   2   0  12    1.43    0.65
   3   0  12    0.00    0.32
   3   0  12    0.36    0.55
 -11   1  12    2.39    0.61
 -10   1  12    0.40    0.32
  -9   1  12   -0.38    0.33
  -8   1  12    0.78    0.40
  -7   1  12   -0.78    0.67
  -6   1  12   17.28    1.56
  -6   1  12   17.58    1.32
  -5   1  12   13.67    1.13
  -5   1  12   14.53    1.33
  -4   1  12    5.53    0.77
  -4   1  12    5.45    1.09
  -3   1  12    2.69    0.79
  -3   1  12    2.02    0.69
  -2   1  12    1.72    0.66
  -1   1  12   11.95    0.95
  -1   1  12   10.25    1.03
   0   1  12   12.33    1.02
   0   1  12   12.30    0.97
   1   1  12    5.29    0.68
   1   1  12    3.63    0.64
   2   1  12    7.95    1.25
   2   1  12    6.87    0.68
   2   1  12    8.69    0.76
   3   1  12    5.38    0.67
 -11   2  12    9.31    0.80
  10  -2 -12    2.75    0.63
 -10   2  12    1.90    0.58
  -9   2  12    0.26    0.34
  -8   2  12    1.45    0.38
  -7   2  12    1.95    0.66
  -7   2  12    1.48    0.59
   6  -2 -12   -0.67    0.48
  -6   2  12    0.53    0.50
  -6   2  12   -0.25    0.36
  -5   2  12    2.98    0.93
  -5   2  12    2.05    0.68
  -4   2  12   11.56    1.12
  -4   2  12   11.33    1.01
  -3   2  12    1.37    0.40
  -3   2  12    2.85    0.73
  -2   2  12    0.72    0.39
  -2   2  12   -0.35    0.35
  -1   2  12    2.33    0.65
  -1   2  12    1.06    0.37
   0   2  12    2.38    0.60
   0   2  12    1.53    0.38
   1   2  12    0.68    0.33
   1   2  12    0.85    0.33
   2   2  12   11.27    0.86
   2   2  12   12.09    0.89
 -11   3  12    4.94    0.55
  10  -3 -12   10.54    0.85
 -10   3  12    9.39    0.82
   9  -3 -12    0.55    0.40
  -9   3  12    1.01    0.31
   8  -3 -12   10.95    0.97
  -8   3  12   11.88    1.16
  -8   3  12   12.23    0.95
   7  -3 -12    2.01    0.69
  -7   3  12    1.86    0.58
  -7   3  12    1.36    0.49
   6  -3 -12    1.00    0.53
  -6   3  12    0.35    0.43
  -6   3  12    0.87    0.34
  -5   3  12   28.00    1.81
  -5   3  12   25.41    1.70
  -4   3  12    0.55    0.36
  -4   3  12    0.58    0.41
  -3   3  12    1.73    0.62
  -2   3  12    0.87    0.38
  -2   3  12    0.63    0.32
  -1   3  12   -0.13    0.31
  -1   3  12    0.58    0.30
   0   3  12    0.12    0.32
   0   3  12    0.33    0.33
   1   3  12    1.44    0.51
 -10   4  12    0.07    0.24
   9  -4 -12   -0.38    0.41
  -9   4  12    0.32    0.27
   8  -4 -12   -0.07    0.42
  -8   4  12   -0.09    0.44
  -8   4  12   -0.05    0.28
   7  -4 -12   -0.58    0.47
  -7   4  12    0.02    0.28
  -7   4  12    0.57    0.41
   6  -4 -12    5.64    1.01
  -6   4  12    4.49    0.62
  -6   4  12    4.70    0.77
  -5   4  12    3.22    0.74
  -5   4  12    2.48    0.62
  -4   4  12   10.59    0.96
  -4   4  12   11.42    0.90
  -3   4  12   -0.27    0.33
  -3   4  12    0.24    0.29
  -2   4  12    6.81    0.74
  -2   4  12    5.61    0.61
  -1   4  12    0.00    0.32
  -1   4  12    0.18    0.28
   0   4  12    4.98    0.65
   0   4  12    5.60    0.63
  -9   5  12    3.65    0.51
   8  -5 -12    6.35    0.81
  -8   5  12    5.23    0.75
  -8   5  12    5.51    0.58
   7  -5 -12    2.50    0.87
  -7   5  12    1.87    0.62
  -6   5  12    0.19    0.31
  -5   5  12    4.25    0.59
  -5   5  12    4.13    0.66
  -4   5  12   -0.07    0.32
  -4   5  12    0.53    0.29
  -3   5  12    2.74    0.51
  -3   5  12    2.28    0.68
  -2   5  12    0.35    0.28
  -2   5  12    0.62    0.33
  -1   5  12    6.14    0.74
  -1   5  12    5.72    0.61
  -8   6  12    2.46    0.50
  -8   6  12    1.69    0.62
  -7   6  12    0.90    0.30
  -7   6  12    0.69    0.33
  -6   6  12    3.34    0.60
  -6   6  12    4.93    0.60
  -5   6  12    2.17    0.60
  -5   6  12    1.49    0.49
  -4   6  12    7.97    0.63
  -4   6  12    6.47    0.80
  -3   6  12    0.00    0.35
  -3   6  12   -0.16    0.24
  -2   6  12    0.44    0.28
  -2   6  12    0.72    0.43
  -7   7  12   -0.26    0.26
  -7   7  12   -0.28    0.34
  -6   7  12    1.69    0.67
  -5   7  12    2.51    0.45
  -5   7  12    4.23    0.77
  -4   7  12    0.10    0.23
  -3 -13  13    1.86    0.56
  -2 -13  13    0.78    0.31
  -1 -13  13   -0.22    0.42
  -1 -13  13   -0.17    0.33
   0 -13  13    0.21    0.38
   0 -13  13    0.30    0.32
   1 -13  13    1.03    0.35
   1 -13  13    1.35    0.38
  -5 -12  13    3.21    0.63
  -4 -12  13   -0.20    0.31
  -3 -12  13   10.02    0.89
  -2 -12  13    2.41    0.90
  -1 -12  13   14.60    1.18
  -1 -12  13   14.25    1.08
   0 -12  13    2.06    0.67
   0 -12  13    0.77    0.42
   1 -12  13   12.93    0.99
   1 -12  13   10.66    0.99
   2 -12  13    9.90    0.84
   2 -12  13    8.47    0.87
  -5 -11  13   -0.17    0.35
  -4 -11  13    2.20    0.74
  -3 -11  13    0.15    0.39
  -2 -11  13    0.58    0.39
  -2 -11  13    1.36    0.55
  -1 -11  13    2.11    0.73
  -1 -11  13    0.41    0.49
   0 -11  13    1.82    0.70
   1 -11  13    6.11    0.78
   1 -11  13    5.21    0.86
   2 -11  13    4.87    0.81
   2 -11  13    5.60    0.75
   3 -11  13    0.96    0.39
   3 -11  13    1.14    0.36
  -6 -10  13    3.69    1.00
  -5 -10  13    4.71    1.11
  -5 -10  13    6.65    0.83
  -4 -10  13   -0.25    0.78
  -4 -10  13    0.55    0.42
  -2 -10  13   11.96    1.09
  -2 -10  13   12.61    1.34
  -1 -10  13    5.03    0.89
  -1 -10  13    7.09    1.01
   0 -10  13    4.46    0.94
   0 -10  13    3.53    0.83
   1 -10  13    6.00    1.00
   1 -10  13    6.57    0.84
   2 -10  13    0.29    0.39
   2 -10  13   -0.56    0.42
   3 -10  13    0.21    0.42
   3 -10  13    0.09    0.36
  -7  -9  13    1.12    0.63
  -6  -9  13    0.60    0.45
  -6  -9  13    0.09    0.62
  -5  -9  13    1.53    0.68
  -5  -9  13    0.96    0.48
  -4  -9  13    9.52    1.09
  -4  -9  13   10.93    1.32
  -3  -9  13   -0.89    0.49
  -2  -9  13   24.05    1.83
  -2  -9  13   21.33    1.64
  -1  -9  13    2.99    0.92
   0  -9  13    2.36    0.53
   0  -9  13    2.91    1.08
   1  -9  13    6.52    1.05
   1  -9  13    7.52    1.02
   2  -9  13    2.00    0.85
   2  -9  13    1.03    0.49
   3  -9  13    3.10    0.80
  -8  -8  13    3.36    0.79
  -7  -8  13    1.86    0.66
  -6  -8  13   -0.19    0.58
  -6  -8  13   -0.66    0.54
  -5  -8  13    0.35    0.61
  -5  -8  13    0.27    0.64
  -4  -8  13   -0.11    0.59
  -4  -8  13    1.27    0.77
  -3  -8  13    2.95    1.05
  -2  -8  13    9.90    1.28
  -2  -8  13    9.35    1.31
  -1  -8  13    3.76    0.69
  -1  -8  13    4.51    1.09
   0  -8  13    0.27    0.58
   0  -8  13    0.87    0.59
   1  -8  13    5.87    1.14
   1  -8  13    7.66    1.02
   1  -8  13    6.91    0.97
   2  -8  13    7.81    0.96
   2  -8  13    6.45    1.25
   3  -8  13   10.50    1.01
   4  -8  13    4.34    0.78
  -8  -7  13    8.13    0.90
  -7  -7  13   -0.29    0.58
  -6  -7  13   32.93    2.14
  -5  -7  13    5.54    1.00
  -4  -7  13   38.83    2.54
  -3  -7  13    1.35    1.18
  -2  -7  13    1.39    0.76
  -2  -7  13   -0.71    0.71
  -1  -7  13   -1.24    0.74
  -1  -7  13    0.96    0.70
   0  -7  13    0.73    0.71
   0  -7  13   -0.34    0.70
   0  -7  13    0.48    0.56
   1  -7  13    2.67    0.64
   1  -7  13    3.29    1.09
   2  -7  13    0.69    0.77
   2  -7  13    0.70    0.57
   2  -7  13    0.08    0.52
   3  -7  13   -0.68    0.56
   3  -7  13    0.26    0.47
   4  -7  13   -0.22    0.38
  -9  -6  13    0.72    0.47
  -8  -6  13    1.05    0.54
  -7  -6  13    0.40    0.49
  -6  -6  13    4.85    0.87
  -5  -6  13    4.28    0.95
  -4  -6  13   -0.25    0.70
  -1  -6  13    3.57    1.37
   0  -6  13   18.27    1.69
   0  -6  13   19.93    1.54
   1  -6  13    1.09    0.60
   1  -6  13    1.39    0.55
   2  -6  13   11.29    1.16
   2  -6  13    8.68    1.03
   3  -6  13   23.21    1.64
   3  -6  13   22.87    1.54
   4  -6  13    1.98    0.69
   4  -6  13    0.95    0.45
  -9  -5  13    2.67    0.76
  -8  -5  13    0.59    0.43
  -7  -5  13    1.17    0.52
  -6  -5  13    8.68    0.98
  -5  -5  13    1.69    0.63
  -1  -5  13   -0.01    0.87
   0  -5  13    9.57    1.05
   0  -5  13   11.22    1.48
   1  -5  13   14.30    1.13
   1  -5  13   12.29    1.36
   2  -5  13   41.69    2.65
   2  -5  13   46.78    2.76
   3  -5  13    5.42    0.73
   3  -5  13    6.68    0.92
   4  -5  13    0.82    0.40
   4  -5  13    0.92    0.44
  -9  -4  13   15.16    1.16
  -8  -4  13    3.80    0.77
  -7  -4  13   38.41    2.39
  -6  -4  13    7.43    0.89
  -5  -4  13    0.43    0.60
  -3  -4  13    6.34    1.25
  -3  -4  13    1.33    1.05
  -2  -4  13    0.41    0.60
  -2  -4  13   -0.62    0.65
  -1  -4  13    0.80    0.55
  -1  -4  13    0.61    0.55
   0  -4  13    7.92    1.37
   0  -4  13    6.18    0.85
   0  -4  13    6.48    1.13
   1  -4  13    5.30    0.76
   1  -4  13    3.87    0.98
   1  -4  13    5.22    1.19
   2  -4  13   10.36    1.03
   2  -4  13    9.55    1.22
   2  -4  13    9.30    0.87
   3  -4  13    3.27    0.86
   3  -4  13    2.15    0.64
  -9  -3  13    0.58    0.48
  -8  -3  13    6.08    0.79
  -7  -3  13    2.39    0.73
  -6  -3  13    2.73    0.62
  -6  -3  13    2.83    0.80
  -5  -3  13    0.74    0.63
  -5  -3  13    0.55    0.61
  -4  -3  13   32.26    2.12
  -3  -3  13    5.87    1.12
  -3  -3  13    5.21    1.00
  -2  -3  13    0.14    0.55
  -1  -3  13    3.91    0.91
  -1  -3  13    5.79    0.86
   0  -3  13   26.08    1.76
   0  -3  13   27.27    1.78
   1  -3  13    1.98    0.62
   1  -3  13    1.83    0.78
   1  -3  13    0.89    0.43
   2  -3  13   16.26    1.18
   2  -3  13   17.52    1.61
   2  -3  13   17.88    1.23
   3  -3  13    0.29    0.32
   3  -3  13    0.33    0.51
  -9  -2  13   37.66    2.37
  -8  -2  13    0.14    0.52
  -8  -2  13   -0.43    0.42
  -7  -2  13    2.89    0.92
  -7  -2  13    4.01    0.77
  -6  -2  13    3.77    0.85
  -6  -2  13    5.20    0.95
  -5  -2  13    0.96    0.51
  -4  -2  13   15.13    1.41
  -4  -2  13   15.84    1.27
  -3  -2  13    3.89    0.88
  -3  -2  13    5.41    0.89
  -2  -2  13    0.64    0.47
  -2  -2  13    1.57    0.49
  -1  -2  13   26.88    1.72
  -1  -2  13   24.85    1.71
   0  -2  13    0.31    0.40
   0  -2  13   -0.01    0.40
   1  -2  13    3.71    1.36
   1  -2  13    4.03    0.70
   1  -2  13    3.70    0.62
   2  -2  13   12.10    0.91
   2  -2  13   10.76    0.87
   3  -2  13    4.67    1.04
   3  -2  13    3.76    0.60
 -10  -1  13    6.87    0.96
  -9  -1  13    1.31    0.47
  -8  -1  13    1.53    0.47
  -7  -1  13    2.39    0.81
  -6  -1  13    6.64    0.87
  -5  -1  13    0.43    0.42
  -5  -1  13    0.73    0.52
  -4  -1  13    0.67    0.46
  -4  -1  13   -0.24    0.42
  -3  -1  13    0.71    0.42
  -2  -1  13    5.82    0.90
  -2  -1  13    7.19    0.82
  -1  -1  13    2.80    0.73
  -1  -1  13    4.16    0.74
   0  -1  13   -0.30    0.36
   0  -1  13   -0.33    0.35
   1  -1  13    0.93    0.34
   1  -1  13    1.10    1.31
   1  -1  13    0.23    0.31
   2  -1  13    0.98    0.33
   2  -1  13    0.62    0.79
   2  -1  13    1.32    0.49
 -10   0  13   -0.17    0.37
  -9   0  13   -0.28    0.38
  -8   0  13    1.98    0.71
  -7   0  13   15.77    1.21
  -6   0  13    0.14    0.37
  -6   0  13    0.14    0.59
  -5   0  13   13.26    1.25
  -5   0  13   14.94    1.14
  -4   0  13   12.01    1.03
  -4   0  13   11.90    1.10
  -3   0  13   24.66    1.70
  -3   0  13   27.90    1.72
  -2   0  13    7.31    0.80
  -2   0  13    6.39    0.84
  -1   0  13    6.82    0.79
  -1   0  13    7.64    0.77
   0   0  13    0.41    0.33
   0   0  13    0.92    0.34
   1   0  13    3.36    0.54
   1   0  13    3.19    0.59
   2   0  13    0.93    0.32
   2   0  13    0.59    0.32
  10  -1 -13    3.54    0.72
 -10   1  13    4.09    0.62
  -9   1  13    3.04    0.64
  -8   1  13    2.76    0.63
  -7   1  13   -0.15    0.79
   6  -1 -13   -0.45    0.61
  -6   1  13    0.91    0.55
  -6   1  13    0.74    0.35
  -5   1  13   17.01    1.36
  -5   1  13   18.07    1.28
  -4   1  13    3.08    0.73
  -4   1  13    3.00    0.64
  -3   1  13    2.43    0.61
  -2   1  13    9.56    0.91
  -2   1  13    9.48    0.84
  -1   1  13    0.34    0.33
  -1   1  13    0.19    0.32
   0   1  13    4.03    0.62
   0   1  13    3.32    0.59
   1   1  13    0.15    0.27
   1   1  13    0.54    0.30
 -10   2  13    4.61    0.59
  -9   2  13    4.83    0.60
   8  -2 -13    2.19    0.66
  -8   2  13    1.45    0.34
   7  -2 -13   -0.18    0.51
  -7   2  13    2.16    0.55
  -7   2  13    1.06    0.54
  -6   2  13    0.43    0.31
  -6   2  13   -0.43    0.48
  -5   2  13   22.50    1.51
  -5   2  13   23.44    1.57
  -4   2  13   13.72    1.08
  -4   2  13   14.59    1.06
  -3   2  13    3.81    0.57
  -3   2  13    2.65    0.68
  -2   2  13    6.69    0.66
  -2   2  13    5.65    0.70
  -1   2  13    0.12    0.30
  -1   2  13    0.27    0.30
   0   2  13    1.86    0.52
   1   2  13    3.45    0.52
   1   2  13    4.57    0.57
 -10   3  13    1.90    0.48
  -9   3  13    1.89    0.47
   8  -3 -13    2.68    0.77
  -8   3  13    2.39    0.62
  -8   3  13    1.95    0.50
   7  -3 -13    9.19    1.05
  -7   3  13    6.63    0.96
  -7   3  13    7.18    0.68
  -6   3  13   12.04    1.07
  -6   3  13   12.74    0.94
  -5   3  13    5.54    0.62
  -5   3  13    3.74    0.72
  -4   3  13    1.85    0.39
  -4   3  13    2.68    0.57
  -3   3  13   -0.15    0.32
  -3   3  13    0.17    0.28
  -2   3  13    4.76    0.62
  -2   3  13    4.74    0.56
  -1   3  13    3.77    0.52
  -1   3  13    2.65    0.58
   0   3  13    2.08    0.55
  -9   4  13    4.52    0.50
  -8   4  13    0.58    0.27
  -8   4  13    1.02    0.47
  -7   4  13    0.77    0.37
  -7   4  13    0.48    0.28
  -6   4  13    2.04    0.49
  -5   4  13   10.71    0.84
  -5   4  13   10.50    0.84
  -4   4  13    5.92    0.64
  -4   4  13    6.92    0.69
  -3   4  13   -0.11    0.31
  -3   4  13   -0.41    0.25
  -2   4  13    0.32    0.29
  -2   4  13    0.06    0.27
  -1   4  13    2.76    0.58
  -1   4  13    3.26    0.51
  -8   5  13    4.65    0.52
  -7   5  13   17.13    1.12
  -7   5  13   18.00    1.16
  -6   5  13   -0.03    0.27
  -6   5  13   -0.20    0.26
  -5   5  13    4.17    0.58
  -5   5  13    4.17    0.52
  -4   5  13    9.52    0.71
  -4   5  13    9.73    0.80
  -3   5  13    0.18    0.31
  -3   5  13    1.15    0.41
  -3 -12  14    6.83    0.85
  -2 -12  14   -0.27    0.40
  -1 -12  14    0.33    0.42
   0 -12  14    3.29    0.84
   0 -12  14    4.02    0.98
  -4 -11  14    3.79    0.88
  -3 -11  14   25.55    1.69
  -2 -11  14    0.09    0.46
  -1 -11  14    0.43    0.45
  -1 -11  14   -0.39    0.55
   0 -11  14    0.35    0.51
   0 -11  14    0.79    0.46
   1 -11  14    2.64    0.98
  -5 -10  14    0.00    0.54
  -4 -10  14    5.39    1.03
  -3 -10  14   12.63    1.24
  -2 -10  14    2.72    1.00
  -1 -10  14    0.04    0.59
  -1 -10  14    0.80    0.52
   0 -10  14   15.03    1.32
   0 -10  14   13.29    1.29
   1 -10  14    0.08    0.60
   1 -10  14    0.07    0.44
   2 -10  14   13.15    1.05
  -5  -9  14   -0.26    1.25
  -4  -9  14   -0.49    0.79
  -3  -9  14   -0.05    0.57
  -2  -9  14    0.50    0.61
  -1  -9  14    4.04    1.14
  -1  -9  14    3.18    1.16
   0  -9  14    0.59    0.51
   0  -9  14   -0.31    0.64
   1  -9  14    3.11    0.82
   2  -9  14    0.15    0.41
  -7  -8  14    4.87    1.16
  -6  -8  14    9.74    1.26
  -5  -8  14    6.64    1.41
  -1  -8  14    3.37    1.14
   0  -8  14    0.69    0.55
   1  -8  14    0.54    0.53
   2  -8  14    2.41    0.93
  -7  -7  14    0.38    0.54
  -6  -7  14   -0.79    0.68
  -5  -7  14    2.41    0.95
  -1  -7  14    0.47    0.69
   0  -7  14    6.95    1.68
   1  -7  14    6.91    1.20
   1  -7  14    5.57    1.19
   2  -7  14    2.25    0.63
   2  -7  14    4.28    1.02
  -8  -6  14    2.31    0.88
  -7  -6  14    0.24    0.58
  -6  -6  14    1.61    0.66
  -1  -6  14    0.06    0.82
   0  -6  14    7.50    1.11
   0  -6  14   10.78    1.37
   1  -6  14    0.43    0.51
   1  -6  14    0.53    0.59
   2  -6  14    6.33    1.01
   2  -6  14    7.31    0.91
  -8  -5  14    3.11    0.79
  -7  -5  14   -0.90    0.53
  -6  -5  14    2.73    0.96
  -2  -5  14   -0.01    1.07
  -1  -5  14    1.40    0.60
   0  -5  14    4.13    1.36
   1  -5  14    0.59    0.44
   1  -5  14    0.72    0.70
   2  -5  14   -0.11    0.40
  -8  -4  14    2.38    0.81
  -7  -4  14    7.04    0.99
  -6  -4  14    0.66    0.66
  -3  -4  14    0.25    0.62
  -2  -4  14    3.37    0.94
  -1  -4  14    2.12    0.79
  -1  -4  14    1.15    0.56
   0  -4  14    3.18    0.74
   1  -4  14    3.07    0.94
   1  -4  14    2.39    0.68
   1  -4  14    0.81    0.79
   2  -4  14    2.10    0.63
   2  -4  14    3.44    1.27
  -6  -3  14   -0.33    0.55
  -5  -3  14    4.38    0.97
  -4  -3  14    0.34    0.54
  -3  -3  14    0.49    0.54
  -3  -3  14    2.83    1.00
  -2  -3  14    1.42    0.46
  -1  -3  14    2.09    0.70
  -1  -3  14    3.09    0.84
   0  -3  14   -0.21    0.41
   0  -3  14    0.76    0.38
   1  -3  14    7.82    0.85
   1  -3  14    8.34    0.78
   2  -3  14    5.45    0.66
  -8  -2  14    4.11    0.98
  -7  -2  14    3.36    0.99
  -6  -2  14    3.31    0.88
  -5  -2  14    4.14    0.82
  -4  -2  14    0.49    0.43
  -4  -2  14   -0.12    0.59
  -3  -2  14    0.61    0.47
  -3  -2  14    0.83    0.50
  -2  -2  14    2.29    0.80
  -2  -2  14    1.36    0.41
  -1  -2  14    2.33    0.70
   0  -2  14    0.39    0.34
   0  -2  14   -0.18    0.35
   1  -2  14    3.65    0.59
   1  -2  14    3.66    0.63
  -9  -1  14    0.37    0.49
  -8  -1  14    2.29    0.77
  -7  -1  14    0.44    0.43
  -6  -1  14    4.05    0.80
  -5  -1  14   14.51    1.11
  -4  -1  14    2.49    0.70
  -4  -1  14    1.55    0.47
  -3  -1  14   26.03    1.71
  -3  -1  14   26.05    1.73
  -2  -1  14    1.72    0.64
  -2  -1  14    1.29    0.39
  -1  -1  14    4.87    0.70
  -1  -1  14    3.13    0.67
   0  -1  14    1.99    0.58
   0  -1  14    1.87    0.53
   1  -1  14    6.97    0.69
   1  -1  14    5.69    0.63
  -9   0  14    7.45    0.81
  -8   0  14    1.10    0.37
   7   0 -14    5.11    1.00
  -7   0  14    4.31    0.72
  -6   0  14   -0.02    0.36
  -5   0  14    1.63    0.60
  -5   0  14    0.37    0.49
  -4   0  14   -0.07    0.42
  -4   0  14    0.08    0.35
  -3   0  14    4.64    0.69
  -3   0  14    2.85    0.73
  -2   0  14    4.77    0.67
  -2   0  14    5.79    0.69
  -1   0  14    2.86    0.62
  -1   0  14    3.95    0.62
   0   0  14    0.25    0.30
   0   0  14    0.08    0.28
  -9   1  14   -0.24    0.32
  -8   1  14    6.05    0.69
  -7   1  14    7.66    0.76
  -6   1  14    0.09    0.48
  -6   1  14    0.38    0.32
  -5   1  14    3.98    0.75
  -5   1  14    3.88    0.62
  -4   1  14    1.73    0.61
  -4   1  14    1.97    0.66
  -3   1  14    2.97    0.58
  -3   1  14    1.74    0.63
  -2   1  14    2.18    0.57
  -2   1  14    3.61    0.58
  -1   1  14    2.15    0.55
  -1   1  14    2.03    0.53
   0   1  14   -0.19    0.30
   0   1  14    0.45    0.26
  -9   2  14    1.98    0.55
  -8   2  14    2.21    0.54
  -7   2  14    0.54    0.29
  -6   2  14    9.01    0.84
  -6   2  14    8.78    0.74
  -5   2  14   -0.14    0.34
  -5   2  14    0.01    0.28
  -4   2  14   11.41    0.91
  -4   2  14   11.64    0.90
  -3   2  14    0.96    0.31
  -3   2  14    0.89    0.30
  -2   2  14   11.98    0.85
  -2   2  14   11.01    0.84
  -1   2  14    6.32    0.60
  -1   2  14    7.12    0.63
  -8   3  14    2.97    0.48
  -7   3  14   -0.08    0.23
  -6   3  14    5.04    0.64
  -6   3  14    5.26    0.57
  -5   3  14    2.13    0.54
  -5   3  14    1.82    0.51
  -4   3  14   16.38    1.07
  -4   3  14   15.75    1.10
  -3   3  14    0.29    0.26
  -3   3  14   -0.03    0.27
  -6   4  14    0.45    0.25
  -6   4  14   -0.10    0.32
  -5   4  14    0.30    0.27
  -1  -5  15    4.21    1.17
   0  -5  15    6.08    1.02
   1  -5  15   10.95    1.12
  -2  -4  15    4.05    1.07
  -1  -4  15    5.84    0.94
   0  -4  15    2.52    0.78
  -5  -3  15    3.13    0.80
  -4  -3  15    1.09    0.57
  -3  -3  15    1.16    0.52
  -3  -3  15    1.24    0.60
  -2  -3  15    0.74    0.53
  -2  -3  15   -0.14    0.47
  -1  -3  15   -0.17    0.50
  -1  -3  15    0.43    0.43
   0  -3  15    0.57    0.41
  -7  -2  15    0.31    0.70
  -6  -2  15    1.02    0.51
  -5  -2  15    6.02    1.03
  -4  -2  15    1.76    0.48
  -3  -2  15   12.57    1.11
  -3  -2  15   12.66    1.06
  -2  -2  15    3.06    0.79
  -1  -2  15    1.77    0.61
   0  -2  15    3.09    0.63
   0  -2  15    3.24    0.77
  -8  -1  15    6.91    1.03
  -7  -1  15   -0.36    0.42
  -6  -1  15   -0.05    0.40
  -5  -1  15    3.35    0.76
  -4  -1  15   14.95    1.18
  -4  -1  15   16.61    1.31
  -3  -1  15    8.57    0.94
  -3  -1  15    7.89    0.79
  -2  -1  15    2.57    0.63
  -2  -1  15    3.25    0.67
  -1  -1  15    0.26    0.35
  -1  -1  15    0.36    0.32
  -8   0  15   11.99    0.98
  -7   0  15    0.63    0.35
  -6   0  15    0.73    0.35
  -5   0  15    2.13    0.64
  -5   0  15    1.86    0.59
  -4   0  15    0.26    0.47
  -3   0  15    2.20    0.57
  -3   0  15    3.89    0.70
  -2   0  15    0.29    0.33
  -2   0  15    0.57    0.31
  -7   1  15    2.91    0.59
  -6   1  15    2.76    0.59
  -5   1  15    4.74    0.67
  -5   1  15    4.81    0.82
  -4   1  15    8.28    0.77
  -4   1  15    8.64    0.83
  -3   1  15   11.12    0.85
  -3   1  15   11.91    0.92
  -6   2  15    0.70    0.31
  -5   2  15    2.78    0.54
  -5   2  15    3.05    0.97
   0   0   0    0.00    0.00
;
_shelx_hkl_checksum              85048
_shelx_res_file
;
    SKM241_0m.res created by SHELXL-2014/7
TITL SKM241_0m_a.res in P-1
REM Old TITL SKM241_0m in P-1
REM SHELXT solution in P-1
REM R1 0.136,  Rweak 0.010,  Alpha 0.048,  Orientation as input
REM Formula found by SHELXT:  C36 N7 O3 S2
CELL  1.54178  10.5214  13.2896  13.3680  107.331  109.298   99.272
ZERR    4.000   0.0004   0.0006   0.0006    0.003    0.002    0.003
LATT  1
SFAC C H N O S
UNIT 72 60 12 8 4
TEMP -123
SIZE 0.01 0.17 0.234
L.S. 8
BOND $H
LIST 4
FMAP 2
PLAN 5
CONF
EQIV $1 x-1, y+1, z
HTAB N2 O3_$1
EQIV $2 -x+1, -y+2, -z+1
HTAB N2 O2_$2
HTAB N5 O1
EQIV $3 -x+2, -y+1, -z
HTAB N5 O4_$3
OMIT -2 -6 12
OMIT -2 -5 12
OMIT -1 -7 14
OMIT -1 -5 13
ACTA 136
MPLA C11 > C16
MPLA C1 > C4 C7 N1
MPLA S1 C4 > C7
MPLA C29 > C34
MPLA C19 > C22 C25 N4
MPLA S2 C22 > C25
WGHT    0.037100    2.749700
FVAR       0.17648
S1    5    0.236888    0.906613   -0.137177    11.00000    0.02451    0.02868 =
         0.01887    0.01122    0.00800    0.01177
O1    4    0.652228    0.677314    0.149835    11.00000    0.04419    0.03666 =
         0.03944    0.02131    0.02160    0.02664
O2    4    0.727002    1.038200    0.621995    11.00000    0.03973    0.04091 =
         0.01855    0.00726    0.00731    0.01165
N1    3    0.424424    0.795042   -0.100842    11.00000    0.02170    0.02755 =
         0.01930    0.00814    0.00808    0.00959
N2    3    0.306425    1.039010    0.189202    11.00000    0.03282    0.03861 =
         0.02205    0.01099    0.01218    0.02347
H2A   2    0.234521    1.065267    0.189127    11.00000    0.05149
H2B   2    0.357352    1.030008    0.247052    11.00000    0.03594
N3    3    0.049951    1.106156   -0.042654    11.00000    0.03555    0.03249 =
         0.03120    0.01668    0.01433    0.01680
C1    1    0.520593    0.766243   -0.029634    11.00000    0.02199    0.02752 =
         0.02192    0.01039    0.01301    0.00923
C2    1    0.560484    0.809702    0.090095    11.00000    0.01855    0.02218 =
         0.02262    0.00944    0.00848    0.00713
C3    1    0.499538    0.885580    0.140428    11.00000    0.01865    0.02147 =
         0.01889    0.00796    0.00803    0.00724
C4    1    0.395370    0.914082    0.065598    11.00000    0.01933    0.02103 =
         0.02046    0.00863    0.00853    0.00851
C5    1    0.305038    0.983703    0.084676    11.00000    0.02174    0.02156 =
         0.02299    0.00901    0.01086    0.01029
C6    1    0.219940    0.988577   -0.015806    11.00000    0.02380    0.02478 =
         0.02429    0.01140    0.01080    0.01046
C7    1    0.365724    0.867022   -0.051685    11.00000    0.02032    0.02148 =
         0.02004    0.00620    0.00942    0.00576
C8    1    0.585935    0.685805   -0.085298    11.00000    0.03385    0.03545 =
         0.02765    0.00996    0.01549    0.01981
AFIX 137
H8A   2    0.550283    0.613626   -0.083912    11.00000   -1.50000
H8B   2    0.688375    0.712052   -0.043442    11.00000   -1.50000
H8C   2    0.561646    0.679418   -0.164747    11.00000   -1.50000
AFIX   0
C9    1    0.672925    0.774252    0.162521    11.00000    0.02883    0.03627 =
         0.02580    0.01746    0.01881    0.01996
C10   1    0.811132    0.857187    0.244044    11.00000    0.02529    0.05805 =
         0.03376    0.02680    0.01369    0.01911
AFIX 137
H10A  2    0.853828    0.834673    0.307824    11.00000   -1.50000
H10B  2    0.796365    0.929261    0.273518    11.00000   -1.50000
H10C  2    0.873753    0.861963    0.204202    11.00000   -1.50000
AFIX   0
C11   1    0.547302    0.930283    0.266460    11.00000    0.01817    0.02615 =
         0.01977    0.00886    0.00862    0.01060
C12   1    0.544709    0.857870    0.324591    11.00000    0.02454    0.02475 =
         0.02257    0.00994    0.01239    0.01287
H12   2    0.500535    0.778636    0.277736    11.00000    0.01818
C13   1    0.602955    0.896416    0.442418    11.00000    0.02630    0.03062 =
         0.02298    0.01265    0.01204    0.01328
H13   2    0.606723    0.846055    0.482007    11.00000    0.04609
C14   1    0.668598    1.009169    0.505945    11.00000    0.02406    0.03767 =
         0.01719    0.00894    0.00773    0.01496
C15   1    0.670190    1.081946    0.450710    11.00000    0.02229    0.02647 =
         0.02283    0.00471    0.00816    0.00687
H15   2    0.721263    1.157095    0.495261    11.00000    0.03016
C16   1    0.609491    1.042233    0.331543    11.00000    0.02764    0.02510 =
         0.02528    0.01153    0.01374    0.01258
H16   2    0.610888    1.097447    0.296067    11.00000    0.02436
C17   1    0.800774    1.151466    0.690352    11.00000    0.03437    0.04913 =
         0.02247    0.00030    0.00763    0.00147
AFIX 137
H17A  2    0.876062    1.175058    0.667255    11.00000   -1.50000
H17B  2    0.841483    1.161084    0.771135    11.00000   -1.50000
H17C  2    0.735415    1.196002    0.679584    11.00000   -1.50000
AFIX   0
C18   1    0.125971    1.053108   -0.028527    11.00000    0.02525    0.02815 =
         0.02516    0.01566    0.01085    0.01215
S2    5    0.702251    0.412607    0.434300    11.00000    0.02626    0.03348 =
         0.02589    0.01441    0.01452    0.01446
O3    4    1.109117    0.155167    0.257095    11.00000    0.03626    0.02984 =
         0.03765    0.01030    0.01617    0.01935
O4    4    1.192666    0.489651   -0.001540    11.00000    0.03081    0.03409 =
         0.02524    0.01293    0.01644    0.00551
N4    3    0.891659    0.300751    0.450146    11.00000    0.02280    0.02825 =
         0.01910    0.01109    0.00837    0.00850
N5    3    0.824748    0.551295    0.246092    11.00000    0.03965    0.03943 =
         0.03259    0.02563    0.02107    0.02740
H5A   2    0.764598    0.586023    0.220783    11.00000    0.04659
H5B   2    0.879185    0.535752    0.206919    11.00000    0.07324
N6    3    0.533550    0.613386    0.339090    11.00000    0.03696    0.04166 =
         0.04412    0.02042    0.01952    0.02167
C19   1    0.992690    0.268151    0.420344    11.00000    0.02243    0.02387 =
         0.01989    0.01020    0.00498    0.00835
C20   1    1.040937    0.305492    0.346836    11.00000    0.02316    0.02397 =
         0.01602    0.00714    0.00720    0.01018
C21   1    0.987451    0.381108    0.305502    11.00000    0.02000    0.02251 =
         0.01649    0.00888    0.00838    0.00734
C22   1    0.883495    0.417875    0.338519    11.00000    0.01984    0.02129 =
         0.01533    0.00666    0.00633    0.00823
C23   1    0.804664    0.492202    0.309310    11.00000    0.02796    0.02500 =
         0.01618    0.00925    0.00717    0.01339
C24   1    0.705256    0.496999    0.355931    11.00000    0.02268    0.02655 =
         0.02364    0.00855    0.01156    0.01115
C25   1    0.838640    0.370982    0.407084    11.00000    0.02228    0.02362 =
         0.01612    0.00586    0.00568    0.00860
C26   1    1.051730    0.191042    0.471473    11.00000    0.03417    0.04206 =
         0.03583    0.02723    0.01637    0.02007
AFIX 137
H26A  2    1.154365    0.220401    0.509912    11.00000   -1.50000
H26B  2    1.026316    0.118837    0.410800    11.00000   -1.50000
H26C  2    1.013126    0.183454    0.527148    11.00000   -1.50000
AFIX   0
C27   1    1.143690    0.254977    0.308040    11.00000    0.02878    0.03027 =
         0.01931    0.01165    0.01088    0.01414
C28   1    1.286644    0.325284    0.338954    11.00000    0.02913    0.03691 =
         0.03553    0.00799    0.01533    0.01472
AFIX 137
H28A  2    1.343414    0.345626    0.420509    11.00000   -1.50000
H28B  2    1.279212    0.392031    0.323173    11.00000   -1.50000
H28C  2    1.331495    0.284518    0.293549    11.00000   -1.50000
AFIX   0
C29   1    1.036449    0.415237    0.224292    11.00000    0.02175    0.02511 =
         0.01905    0.01155    0.00924    0.01072
C30   1    1.006773    0.336534    0.116244    11.00000    0.02514    0.02587 =
         0.01900    0.00858    0.01079    0.01110
H30   2    0.947876    0.257253    0.090503    11.00000    0.02937
C31   1    1.059207    0.364794    0.043398    11.00000    0.02385    0.02770 =
         0.02058    0.00908    0.01050    0.00972
H31   2    1.043999    0.308608   -0.030831    11.00000    0.02379
C32   1    1.142791    0.470554    0.076004    11.00000    0.02076    0.03023 =
         0.02220    0.01476    0.01162    0.00836
C33   1    1.173448    0.549536    0.182570    11.00000    0.02916    0.02135 =
         0.02580    0.01091    0.01094    0.00643
H33   2    1.231749    0.620374    0.207188    11.00000    0.02373
C34   1    1.117182    0.521546    0.254466    11.00000    0.02953    0.02296 =
         0.02029    0.00835    0.01089    0.00916
H34   2    1.147202    0.577554    0.334040    11.00000    0.02528
C35   1    1.300853    0.589812    0.038641    11.00000    0.03088    0.04200 =
         0.03127    0.01131    0.01382   -0.00292
AFIX 137
H35A  2    1.262055    0.652245    0.054061    11.00000   -1.50000
H35B  2    1.338060    0.589081   -0.019712    11.00000   -1.50000
H35C  2    1.376716    0.596874    0.109160    11.00000   -1.50000
AFIX   0
C36   1    0.610638    0.560837    0.345520    11.00000    0.02771    0.02888 =
         0.02617    0.00988    0.01115    0.01234
HKLF 4
REM  SKM241_0m_a.res in P-1
REM R1 =  0.0657 for    4333 Fo > 4sig(Fo)  and  0.0939 for all    5977 data
REM    487 parameters refined using      0 restraints
END
WGHT      0.0371      2.7498
REM Highest difference peak  0.318,  deepest hole -0.387,  1-sigma level  0.073
Q1    1   0.8065  0.5134  0.4533  11.00000  0.05    0.32
Q2    1   0.6808  0.7373 -0.1125  11.00000  0.05    0.31
Q3    1   0.1876  0.8673 -0.2364  11.00000  0.05    0.31
Q4    1   0.1494  0.9130 -0.2145  11.00000  0.05    0.30
Q5    1   0.8684  0.1541  0.0996  11.00000  0.05    0.30
;
_shelx_res_checksum              54751
loop_
_space_group_symop_operation_xyz
'x, y, z'
'-x, -y, -z'
loop_
_atom_site_type_symbol
_atom_site_label
_atom_site_fract_x
_atom_site_fract_y
_atom_site_fract_z
_atom_site_U_iso_or_equiv
_atom_site_adp_type
_atom_site_calc_flag
_atom_site_occupancy
S S1 0.23689(9) 0.90661(7) -0.13718(7) 0.0231(2) Uani d 1
O O1 0.6522(3) 0.6773(2) 0.1498(2) 0.0351(7) Uani d 1
O O2 0.7270(3) 1.0382(2) 0.6220(2) 0.0353(7) Uani d 1
N N1 0.4244(3) 0.7950(2) -0.1008(2) 0.0227(6) Uani d 1
N N2 0.3064(4) 1.0390(3) 0.1892(3) 0.0292(7) Uani d 1
H H2A 0.235(6) 1.065(4) 0.189(4) 0.051(15) Uiso d 1
H H2B 0.357(5) 1.030(4) 0.247(4) 0.036(12) Uiso d 1
N N3 0.0500(4) 1.1062(3) -0.0427(3) 0.0308(7) Uani d 1
C C1 0.5206(4) 0.7662(3) -0.0296(3) 0.0221(7) Uani d 1
C C2 0.5605(4) 0.8097(3) 0.0901(3) 0.0206(7) Uani d 1
C C3 0.4995(3) 0.8856(3) 0.1404(3) 0.0193(7) Uani d 1
C C4 0.3954(4) 0.9141(3) 0.0656(3) 0.0196(7) Uani d 1
C C5 0.3050(4) 0.9837(3) 0.0847(3) 0.0209(7) Uani d 1
C C6 0.2199(4) 0.9886(3) -0.0158(3) 0.0230(7) Uani d 1
C C7 0.3657(4) 0.8670(3) -0.0517(3) 0.0207(7) Uani d 1
C C8 0.5859(4) 0.6858(3) -0.0853(3) 0.0306(9) Uani d 1
H H8A 0.5503 0.6136 -0.0839 0.046 Uiso calc 1
H H8B 0.6884 0.7121 -0.0434 0.046 Uiso calc 1
H H8C 0.5616 0.6794 -0.1647 0.046 Uiso calc 1
C C9 0.6729(4) 0.7743(3) 0.1625(3) 0.0253(8) Uani d 1
C C10 0.8111(4) 0.8572(4) 0.2440(3) 0.0352(10) Uani d 1
H H10A 0.8538 0.8347 0.3078 0.053 Uiso calc 1
H H10B 0.7964 0.9293 0.2735 0.053 Uiso calc 1
H H10C 0.8738 0.8620 0.2042 0.053 Uiso calc 1
C C11 0.5473(4) 0.9303(3) 0.2665(3) 0.0205(7) Uani d 1
C C12 0.5447(4) 0.8579(3) 0.3246(3) 0.0221(7) Uani d 1
H H12 0.501(4) 0.779(3) 0.278(3) 0.018(9) Uiso d 1
C C13 0.6030(4) 0.8964(3) 0.4424(3) 0.0247(8) Uani d 1
H H13 0.607(5) 0.846(4) 0.482(4) 0.046(13) Uiso d 1
C C14 0.6686(4) 1.0092(3) 0.5059(3) 0.0260(8) Uani d 1
C C15 0.6702(4) 1.0819(3) 0.4507(3) 0.0253(8) Uani d 1
H H15 0.721(4) 1.157(4) 0.495(4) 0.030(11) Uiso d 1
C C16 0.6095(4) 1.0422(3) 0.3315(3) 0.0240(8) Uani d 1
H H16 0.611(4) 1.097(3) 0.296(3) 0.024(10) Uiso d 1
C C17 0.8008(5) 1.1515(4) 0.6904(3) 0.0410(11) Uani d 1
H H17A 0.8761 1.1751 0.6673 0.062 Uiso calc 1
H H17B 0.8415 1.1611 0.7711 0.062 Uiso calc 1
H H17C 0.7354 1.1960 0.6796 0.062 Uiso calc 1
C C18 0.1260(4) 1.0531(3) -0.0285(3) 0.0240(8) Uani d 1
S S2 0.70225(10) 0.41261(8) 0.43430(8) 0.0259(2) Uani d 1
O O3 1.1091(3) 0.1552(2) 0.2571(2) 0.0335(6) Uani d 1
O O4 1.1927(3) 0.4897(2) -0.0015(2) 0.0287(6) Uani d 1
N N4 0.8917(3) 0.3008(2) 0.4501(2) 0.0227(6) Uani d 1
N N5 0.8247(4) 0.5513(3) 0.2461(3) 0.0303(8) Uani d 1
H H5A 0.765(5) 0.586(4) 0.221(4) 0.047(14) Uiso d 1
H H5B 0.879(6) 0.536(5) 0.207(5) 0.073(18) Uiso d 1
N N6 0.5335(4) 0.6134(3) 0.3391(3) 0.0376(8) Uani d 1
C C19 0.9927(4) 0.2682(3) 0.4203(3) 0.0223(7) Uani d 1
C C20 1.0409(4) 0.3055(3) 0.3468(3) 0.0209(7) Uani d 1
C C21 0.9875(4) 0.3811(3) 0.3055(3) 0.0188(7) Uani d 1
C C22 0.8835(4) 0.4179(3) 0.3385(3) 0.0188(7) Uani d 1
C C23 0.8047(4) 0.4922(3) 0.3093(3) 0.0224(7) Uani d 1
C C24 0.7053(4) 0.4970(3) 0.3559(3) 0.0234(7) Uani d 1
C C25 0.8386(4) 0.3710(3) 0.4071(3) 0.0214(7) Uani d 1
C C26 1.0517(4) 0.1910(3) 0.4715(3) 0.0324(9) Uani d 1
H H26A 1.1544 0.2204 0.5099 0.049 Uiso calc 1
H H26B 1.0263 0.1188 0.4108 0.049 Uiso calc 1
H H26C 1.0131 0.1835 0.5271 0.049 Uiso calc 1
C C27 1.1437(4) 0.2550(3) 0.3080(3) 0.0245(8) Uani d 1
C C28 1.2866(4) 0.3253(3) 0.3390(3) 0.0339(9) Uani d 1
H H28A 1.3434 0.3456 0.4205 0.051 Uiso calc 1
H H28B 1.2792 0.3920 0.3232 0.051 Uiso calc 1
H H28C 1.3315 0.2845 0.2935 0.051 Uiso calc 1
C C29 1.0364(4) 0.4152(3) 0.2243(3) 0.0204(7) Uani d 1
C C30 1.0068(4) 0.3365(3) 0.1162(3) 0.0223(7) Uani d 1
H H30 0.948(4) 0.257(3) 0.091(3) 0.029(11) Uiso d 1
C C31 1.0592(4) 0.3648(3) 0.0434(3) 0.0233(7) Uani d 1
H H31 1.044(4) 0.309(3) -0.031(3) 0.024(10) Uiso d 1
C C32 1.1428(4) 0.4706(3) 0.0760(3) 0.0222(7) Uani d 1
C C33 1.1734(4) 0.5495(3) 0.1826(3) 0.0251(8) Uani d 1
H H33 1.232(4) 0.620(3) 0.207(3) 0.024(10) Uiso d 1
C C34 1.1172(4) 0.5215(3) 0.2545(3) 0.0238(8) Uani d 1
H H34 1.147(4) 0.578(3) 0.334(3) 0.025(10) Uiso d 1
C C35 1.3009(4) 0.5898(4) 0.0386(3) 0.0367(10) Uani d 1
H H35A 1.2621 0.6522 0.0541 0.055 Uiso calc 1
H H35B 1.3381 0.5891 -0.0197 0.055 Uiso calc 1
H H35C 1.3767 0.5969 0.1092 0.055 Uiso calc 1
C C36 0.6106(4) 0.5608(3) 0.3455(3) 0.0271(8) Uani d 1
loop_
_atom_site_aniso_label
_atom_site_aniso_U_11
_atom_site_aniso_U_22
_atom_site_aniso_U_33
_atom_site_aniso_U_12
_atom_site_aniso_U_13
_atom_site_aniso_U_23
S1 0.0245(5) 0.0287(5) 0.0189(4) 0.0118(4) 0.0080(3) 0.0112(4)
O1 0.0442(17) 0.0367(17) 0.0394(15) 0.0266(14) 0.0216(13) 0.0213(13)
O2 0.0397(16) 0.0409(17) 0.0186(12) 0.0116(14) 0.0073(12) 0.0073(12)
N1 0.0217(15) 0.0276(16) 0.0193(14) 0.0096(13) 0.0081(12) 0.0081(12)
N2 0.0328(19) 0.039(2) 0.0220(16) 0.0235(16) 0.0122(14) 0.0110(14)
N3 0.0356(19) 0.0325(18) 0.0312(17) 0.0168(16) 0.0143(14) 0.0167(15)
C1 0.0220(18) 0.0275(19) 0.0219(17) 0.0092(15) 0.0130(14) 0.0104(15)
C2 0.0185(17) 0.0222(18) 0.0226(17) 0.0071(14) 0.0085(14) 0.0094(14)
C3 0.0187(17) 0.0215(18) 0.0189(16) 0.0072(14) 0.0080(13) 0.0080(14)
C4 0.0193(17) 0.0210(18) 0.0205(16) 0.0085(14) 0.0085(14) 0.0086(14)
C5 0.0217(18) 0.0216(18) 0.0230(17) 0.0103(15) 0.0109(14) 0.0090(14)
C6 0.0238(18) 0.0248(19) 0.0243(17) 0.0105(15) 0.0108(14) 0.0114(15)
C7 0.0203(17) 0.0215(18) 0.0200(16) 0.0058(14) 0.0094(14) 0.0062(14)
C8 0.034(2) 0.035(2) 0.0276(19) 0.0198(18) 0.0155(17) 0.0100(17)
C9 0.029(2) 0.036(2) 0.0258(18) 0.0200(17) 0.0188(16) 0.0175(16)
C10 0.025(2) 0.058(3) 0.034(2) 0.019(2) 0.0137(17) 0.027(2)
C11 0.0182(17) 0.0262(19) 0.0198(16) 0.0106(15) 0.0086(13) 0.0089(14)
C12 0.0245(18) 0.025(2) 0.0226(17) 0.0129(16) 0.0124(15) 0.0099(15)
C13 0.0263(19) 0.031(2) 0.0230(18) 0.0133(16) 0.0120(15) 0.0126(16)
C14 0.0241(19) 0.038(2) 0.0172(16) 0.0150(17) 0.0077(14) 0.0089(16)
C15 0.0223(19) 0.026(2) 0.0228(17) 0.0069(16) 0.0082(15) 0.0047(16)
C16 0.0276(19) 0.025(2) 0.0253(18) 0.0126(16) 0.0137(15) 0.0115(16)
C17 0.034(2) 0.049(3) 0.0225(19) 0.001(2) 0.0076(17) 0.0003(19)
C18 0.0252(19) 0.028(2) 0.0252(18) 0.0122(16) 0.0108(15) 0.0157(15)
S2 0.0263(5) 0.0335(5) 0.0259(4) 0.0145(4) 0.0145(4) 0.0144(4)
O3 0.0363(16) 0.0298(16) 0.0377(15) 0.0193(13) 0.0162(13) 0.0103(13)
O4 0.0308(15) 0.0341(15) 0.0252(13) 0.0055(12) 0.0164(11) 0.0129(11)
N4 0.0228(15) 0.0283(17) 0.0191(14) 0.0085(13) 0.0084(12) 0.0111(12)
N5 0.040(2) 0.039(2) 0.0326(17) 0.0274(17) 0.0211(16) 0.0256(16)
N6 0.037(2) 0.042(2) 0.044(2) 0.0217(17) 0.0195(16) 0.0204(17)
C19 0.0224(18) 0.0239(19) 0.0199(16) 0.0083(15) 0.0050(14) 0.0102(14)
C20 0.0232(18) 0.0240(18) 0.0160(15) 0.0102(15) 0.0072(13) 0.0071(14)
C21 0.0200(17) 0.0225(18) 0.0165(15) 0.0073(14) 0.0084(13) 0.0089(14)
C22 0.0198(17) 0.0213(17) 0.0153(15) 0.0082(14) 0.0063(13) 0.0067(13)
C23 0.0280(19) 0.0250(19) 0.0162(15) 0.0134(16) 0.0072(14) 0.0092(14)
C24 0.0227(18) 0.0266(19) 0.0236(17) 0.0112(15) 0.0116(14) 0.0086(15)
C25 0.0223(18) 0.0236(18) 0.0161(16) 0.0086(15) 0.0057(14) 0.0059(14)
C26 0.034(2) 0.042(2) 0.036(2) 0.0201(19) 0.0164(18) 0.0272(19)
C27 0.0288(19) 0.030(2) 0.0193(16) 0.0141(16) 0.0109(15) 0.0116(15)
C28 0.029(2) 0.037(2) 0.036(2) 0.0147(18) 0.0153(17) 0.0080(18)
C29 0.0218(18) 0.0251(19) 0.0191(16) 0.0107(15) 0.0092(14) 0.0115(14)
C30 0.0251(18) 0.026(2) 0.0190(16) 0.0111(16) 0.0108(14) 0.0086(15)
C31 0.0238(18) 0.028(2) 0.0206(17) 0.0097(15) 0.0105(14) 0.0091(15)
C32 0.0208(18) 0.030(2) 0.0222(17) 0.0084(15) 0.0116(14) 0.0148(15)
C33 0.029(2) 0.021(2) 0.0258(18) 0.0064(16) 0.0109(15) 0.0109(15)
C34 0.030(2) 0.0230(19) 0.0203(17) 0.0092(16) 0.0109(15) 0.0084(15)
C35 0.031(2) 0.042(2) 0.031(2) -0.0029(19) 0.0138(17) 0.0113(19)
C36 0.028(2) 0.029(2) 0.0262(18) 0.0123(17) 0.0112(16) 0.0099(16)
loop_
_atom_type_symbol
_atom_type_description
_atom_type_scat_dispersion_real
_atom_type_scat_dispersion_imag
_atom_type_scat_source
C C 0.0181 0.0091 'International Tables Vol C Tables 4.2.6.8 and 6.1.1.4'
H H 0.0000 0.0000 'International Tables Vol C Tables 4.2.6.8 and 6.1.1.4'
N N 0.0311 0.0180 'International Tables Vol C Tables 4.2.6.8 and 6.1.1.4'
O O 0.0492 0.0322 'International Tables Vol C Tables 4.2.6.8 and 6.1.1.4'
S S 0.3331 0.5567 'International Tables Vol C Tables 4.2.6.8 and 6.1.1.4'
loop_
_geom_angle_atom_site_label_1
_geom_angle_atom_site_label_2
_geom_angle_atom_site_label_3
_geom_angle
C7 S1 C6 89.80(16)
C14 O2 C17 117.2(3)
C1 N1 C7 115.8(3)
C5 N2 H2A 116(3)
C5 N2 H2B 120(3)
H2A N2 H2B 121(4)
N1 C1 C2 122.4(3)
N1 C1 C8 115.4(3)
C2 C1 C8 122.2(3)
C3 C2 C1 121.3(3)
C3 C2 C9 120.8(3)
C1 C2 C9 117.9(3)
C2 C3 C4 116.6(3)
C2 C3 C11 119.1(3)
C4 C3 C11 124.3(3)
C7 C4 C3 117.1(3)
C7 C4 C5 110.5(3)
C3 C4 C5 132.4(3)
N2 C5 C6 124.0(3)
N2 C5 C4 124.6(3)
C6 C5 C4 111.4(3)
C5 C6 C18 126.8(3)
C5 C6 S1 114.2(3)
C18 C6 S1 119.0(3)
N1 C7 C4 126.8(3)
N1 C7 S1 119.2(3)
C4 C7 S1 114.0(2)
C1 C8 H8A 109.5
C1 C8 H8B 109.5
H8A C8 H8B 109.5
C1 C8 H8C 109.5
H8A C8 H8C 109.5
H8B C8 H8C 109.5
O1 C9 C10 121.2(3)
O1 C9 C2 119.3(4)
C10 C9 C2 119.3(3)
C9 C10 H10A 109.5
C9 C10 H10B 109.5
H10A C10 H10B 109.5
C9 C10 H10C 109.5
H10A C10 H10C 109.5
H10B C10 H10C 109.5
C16 C11 C12 118.0(3)
C16 C11 C3 121.8(3)
C12 C11 C3 119.8(3)
C13 C12 C11 121.1(3)
C13 C12 H12 121(2)
C11 C12 H12 117(2)
C12 C13 C14 119.8(3)
C12 C13 H13 121(3)
C14 C13 H13 119(3)
O2 C14 C15 124.8(3)
O2 C14 C13 115.1(3)
C15 C14 C13 120.1(3)
C14 C15 C16 119.6(4)
C14 C15 H15 118(3)
C16 C15 H15 122(3)
C11 C16 C15 121.4(3)
C11 C16 H16 122(2)
C15 C16 H16 117(2)
O2 C17 H17A 109.5
O2 C17 H17B 109.5
H17A C17 H17B 109.5
O2 C17 H17C 109.5
H17A C17 H17C 109.5
H17B C17 H17C 109.5
N3 C18 C6 177.3(4)
C25 S2 C24 90.02(17)
C32 O4 C35 116.9(3)
C25 N4 C19 116.5(3)
C23 N5 H5A 121(3)
C23 N5 H5B 119(4)
H5A N5 H5B 115(5)
N4 C19 C20 122.1(3)
N4 C19 C26 115.3(3)
C20 C19 C26 122.6(3)
C21 C20 C19 120.6(3)
C21 C20 C27 121.1(3)
C19 C20 C27 118.2(3)
C20 C21 C22 117.7(3)
C20 C21 C29 119.2(3)
C22 C21 C29 123.0(3)
C25 C22 C21 116.7(3)
C25 C22 C23 111.3(3)
C21 C22 C23 131.9(3)
N5 C23 C24 123.4(3)
N5 C23 C22 125.4(3)
C24 C23 C22 111.1(3)
C23 C24 C36 126.7(3)
C23 C24 S2 113.9(3)
C36 C24 S2 119.4(3)
N4 C25 C22 126.2(3)
N4 C25 S2 120.2(3)
C22 C25 S2 113.6(3)
C19 C26 H26A 109.5
C19 C26 H26B 109.5
H26A C26 H26B 109.5
C19 C26 H26C 109.5
H26A C26 H26C 109.5
H26B C26 H26C 109.5
O3 C27 C28 121.5(3)
O3 C27 C20 118.5(3)
C28 C27 C20 119.9(3)
C27 C28 H28A 109.5
C27 C28 H28B 109.5
H28A C28 H28B 109.5
C27 C28 H28C 109.5
H28A C28 H28C 109.5
H28B C28 H28C 109.5
C34 C29 C30 118.5(3)
C34 C29 C21 122.0(3)
C30 C29 C21 119.4(3)
C31 C30 C29 120.2(4)
C31 C30 H30 119(2)
C29 C30 H30 121(2)
C30 C31 C32 120.6(3)
C30 C31 H31 121(2)
C32 C31 H31 119(2)
O4 C32 C31 116.1(3)
O4 C32 C33 123.8(3)
C31 C32 C33 120.0(3)
C34 C33 C32 119.2(4)
C34 C33 H33 119(2)
C32 C33 H33 121(2)
C29 C34 C33 121.4(3)
C29 C34 H34 120(2)
C33 C34 H34 118(2)
O4 C35 H35A 109.5
O4 C35 H35B 109.5
H35A C35 H35B 109.5
O4 C35 H35C 109.5
H35A C35 H35C 109.5
H35B C35 H35C 109.5
N6 C36 C24 178.7(4)
loop_
_geom_bond_atom_site_label_1
_geom_bond_atom_site_label_2
_geom_bond_distance
S1 C7 1.728(4)
S1 C6 1.747(3)
O1 C9 1.221(5)
O2 C14 1.368(4)
O2 C17 1.428(5)
N1 C1 1.335(4)
N1 C7 1.346(4)
N2 C5 1.365(4)
N2 H2A 0.88(5)
N2 H2B 0.84(5)
N3 C18 1.155(5)
C1 C2 1.414(5)
C1 C8 1.507(4)
C2 C3 1.404(4)
C2 C9 1.501(5)
C3 C4 1.407(5)
C3 C11 1.480(4)
C4 C7 1.406(5)
C4 C5 1.459(4)
C5 C6 1.373(5)
C6 C18 1.411(5)
C8 H8A 0.9800
C8 H8B 0.9800
C8 H8C 0.9800
C9 C10 1.496(6)
C10 H10A 0.9800
C10 H10B 0.9800
C10 H10C 0.9800
C11 C16 1.392(5)
C11 C12 1.408(5)
C12 C13 1.378(5)
C12 H12 0.99(4)
C13 C14 1.402(5)
C13 H13 0.97(5)
C14 C15 1.382(5)
C15 C16 1.394(5)
C15 H15 0.95(4)
C16 H16 0.99(4)
C17 H17A 0.9800
C17 H17B 0.9800
C17 H17C 0.9800
S2 C25 1.726(3)
S2 C24 1.751(4)
O3 C27 1.224(4)
O4 C32 1.374(4)
O4 C35 1.427(5)
N4 C25 1.338(4)
N4 C19 1.342(4)
N5 C23 1.355(5)
N5 H5A 0.88(5)
N5 H5B 0.90(6)
N6 C36 1.151(5)
C19 C20 1.417(5)
C19 C26 1.498(5)
C20 C21 1.393(5)
C20 C27 1.512(5)
C21 C22 1.412(4)
C21 C29 1.496(5)
C22 C25 1.408(5)
C22 C23 1.448(5)
C23 C24 1.384(5)
C24 C36 1.408(5)
C26 H26A 0.9800
C26 H26B 0.9800
C26 H26C 0.9800
C27 C28 1.487(5)
C28 H28A 0.9800
C28 H28B 0.9800
C28 H28C 0.9800
C29 C34 1.388(5)
C29 C30 1.405(5)
C30 C31 1.378(5)
C30 H30 1.02(4)
C31 C32 1.386(5)
C31 H31 0.99(4)
C32 C33 1.390(5)
C33 C34 1.389(5)
C33 H33 0.93(4)
C34 H34 1.01(4)
C35 H35A 0.9800
C35 H35B 0.9800
C35 H35C 0.9800
loop_
_geom_hbond_atom_site_label_D
_geom_hbond_atom_site_label_H
_geom_hbond_atom_site_label_A
_geom_hbond_site_symmetry_A
_geom_hbond_distance_DH
_geom_hbond_distance_HA
_geom_hbond_distance_DA
_geom_hbond_angle_DHA
N2 H2A O3 1_465 0.88(5) 2.16(5) 2.993(4) 158(4)
N2 H2B O2 2_676 0.84(5) 2.53(5) 3.092(4) 126(4)
N5 H5A O1 . 0.88(5) 2.04(5) 2.911(4) 169(4)
N5 H5B O4 2_765 0.90(6) 2.49(6) 3.087(4) 124(5)
loop_
_geom_torsion_atom_site_label_1
_geom_torsion_atom_site_label_2
_geom_torsion_atom_site_label_3
_geom_torsion_atom_site_label_4
_geom_torsion
C7 N1 C1 C2 -1.0(5)
C7 N1 C1 C8 -179.9(3)
N1 C1 C2 C3 0.4(6)
C8 C1 C2 C3 179.2(3)
N1 C1 C2 C9 -178.2(3)
C8 C1 C2 C9 0.6(5)
C1 C2 C3 C4 1.2(5)
C9 C2 C3 C4 179.8(3)
C1 C2 C3 C11 -178.7(3)
C9 C2 C3 C11 -0.2(5)
C2 C3 C4 C7 -2.1(5)
C11 C3 C4 C7 177.8(3)
C2 C3 C4 C5 176.2(4)
C11 C3 C4 C5 -3.8(6)
C7 C4 C5 N2 178.6(3)
C3 C4 C5 N2 0.2(6)
C7 C4 C5 C6 -2.7(4)
C3 C4 C5 C6 178.9(4)
N2 C5 C6 C18 2.9(6)
C4 C5 C6 C18 -175.9(4)
N2 C5 C6 S1 -178.4(3)
C4 C5 C6 S1 2.8(4)
C7 S1 C6 C5 -1.8(3)
C7 S1 C6 C18 177.1(3)
C1 N1 C7 C4 0.0(5)
C1 N1 C7 S1 -178.4(3)
C3 C4 C7 N1 1.7(6)
C5 C4 C7 N1 -177.0(3)
C3 C4 C7 S1 -179.9(3)
C5 C4 C7 S1 1.4(4)
C6 S1 C7 N1 178.7(3)
C6 S1 C7 C4 0.1(3)
C3 C2 C9 O1 118.9(4)
C1 C2 C9 O1 -62.5(5)
C3 C2 C9 C10 -64.6(5)
C1 C2 C9 C10 114.0(4)
C2 C3 C11 C16 118.5(4)
C4 C3 C11 C16 -61.5(5)
C2 C3 C11 C12 -54.4(5)
C4 C3 C11 C12 125.6(4)
C16 C11 C12 C13 -0.5(5)
C3 C11 C12 C13 172.6(3)
C11 C12 C13 C14 -1.3(5)
C17 O2 C14 C15 -3.2(5)
C17 O2 C14 C13 177.2(3)
C12 C13 C14 O2 -177.9(3)
C12 C13 C14 C15 2.5(5)
O2 C14 C15 C16 178.7(3)
C13 C14 C15 C16 -1.7(5)
C12 C11 C16 C15 1.3(5)
C3 C11 C16 C15 -171.7(3)
C14 C15 C16 C11 -0.2(5)
C25 N4 C19 C20 -0.2(5)
C25 N4 C19 C26 179.0(3)
N4 C19 C20 C21 2.1(5)
C26 C19 C20 C21 -177.0(3)
N4 C19 C20 C27 -173.6(3)
C26 C19 C20 C27 7.3(5)
C19 C20 C21 C22 -0.6(5)
C27 C20 C21 C22 175.0(3)
C19 C20 C21 C29 -177.5(3)
C27 C20 C21 C29 -2.0(5)
C20 C21 C22 C25 -2.5(5)
C29 C21 C22 C25 174.3(3)
C20 C21 C22 C23 -178.1(3)
C29 C21 C22 C23 -1.3(6)
C25 C22 C23 N5 178.8(3)
C21 C22 C23 N5 -5.4(6)
C25 C22 C23 C24 -0.4(4)
C21 C22 C23 C24 175.4(4)
N5 C23 C24 C36 0.5(6)
C22 C23 C24 C36 179.7(3)
N5 C23 C24 S2 -179.7(3)
C22 C23 C24 S2 -0.5(4)
C25 S2 C24 C23 1.0(3)
C25 S2 C24 C36 -179.3(3)
C19 N4 C25 C22 -3.4(5)
C19 N4 C25 S2 176.8(3)
C21 C22 C25 N4 4.8(5)
C23 C22 C25 N4 -178.7(3)
C21 C22 C25 S2 -175.3(2)
C23 C22 C25 S2 1.2(4)
C24 S2 C25 N4 178.7(3)
C24 S2 C25 C22 -1.2(3)
C21 C20 C27 O3 -117.9(4)
C19 C20 C27 O3 57.7(5)
C21 C20 C27 C28 66.2(5)
C19 C20 C27 C28 -118.1(4)
C20 C21 C29 C34 -112.7(4)
C22 C21 C29 C34 70.5(5)
C20 C21 C29 C30 63.9(4)
C22 C21 C29 C30 -112.9(4)
C34 C29 C30 C31 1.1(5)
C21 C29 C30 C31 -175.6(3)
C29 C30 C31 C32 0.6(5)
C35 O4 C32 C31 -167.6(3)
C35 O4 C32 C33 11.4(5)
C30 C31 C32 O4 178.4(3)
C30 C31 C32 C33 -0.6(5)
O4 C32 C33 C34 179.9(3)
C31 C32 C33 C34 -1.2(5)
C30 C29 C34 C33 -2.9(5)
C21 C29 C34 C33 173.7(3)
C32 C33 C34 C29 3.0(5)

_cod_database_fobs_code 1548789
