#------------------------------------------------------------------------------
#$Date: 2018-01-20 08:16:53 +0200 (Sat, 20 Jan 2018) $
#$Revision: 205436 $
#$URL: file:///home/coder/svn-repositories/cod/cif/1/54/87/1548729.cif $
#------------------------------------------------------------------------------
#
# This file is available in the Crystallography Open Database (COD),
# http://www.crystallography.net/. The original data for this entry
# were provided by IUCr Journals, http://journals.iucr.org/.
#
# The file may be used within the scientific community so long as
# proper attribution is given to the journal article from which the
# data were obtained.
#
data_1548729
loop_
_publ_author_name
'El-Hiti, Gamal A.'
'Abdel-Wahab, Bakr F.'
'Alotaibi, Mohammad Hayal'
'Hegazy, Amany S.'
'Kariuki, Benson M.'
_publ_section_title
;
 2-({6-[5-Methyl-1-(4-methylphenyl)-1<i>H</i>-1,2,3-triazol-4-yl]imidazo[2,1-<i>b</i>]thiazol-5-yl}methylidene)hydrazinecarbothioamide
 dimethylformamide 0.25-solvate
;
_journal_coeditor_code           HB4203
_journal_issue                   1
_journal_name_full               IUCrData
_journal_page_first              x180087
_journal_paper_doi               10.1107/S2414314618000871
_journal_volume                  3
_journal_year                    2018
_chemical_formula_iupac          '4C17 H16 N8 S2, C3 H7 N O'
_chemical_formula_moiety         '4(C17 H16 N8 S2), C3 H7 N O'
_chemical_formula_sum            'C71 H71 N33 O S8'
_chemical_formula_weight         1659.08
_chemical_name_systematic
;2-({6-[5-Methyl-1-(4-methylphenyl)-1<i>H</i>-1,2,3-triazol-4-yl]imidazo[2,1-<i>b</i>]thiazol-5-yl}methylidene)hydrazinecarbothioamide
dimethylformamide 0.25-solvate
;
_space_group_crystal_system      monoclinic
_space_group_IT_number           14
_space_group_name_Hall           '-P 2ybc'
_space_group_name_H-M_alt        'P 1 21/c 1'
_symmetry_space_group_name_Hall  '-P 2ybc'
_symmetry_space_group_name_H-M   'P 1 21/c 1'
_atom_sites_solution_hydrogens   geom
_audit_creation_method           SHELXL-2013
_cell_angle_alpha                90
_cell_angle_beta                 110.393(9)
_cell_angle_gamma                90
_cell_formula_units_Z            2
_cell_length_a                   18.3427(14)
_cell_length_b                   13.5855(10)
_cell_length_c                   16.9385(12)
_cell_measurement_reflns_used    4302
_cell_measurement_temperature    296(2)
_cell_measurement_theta_max      25.9420
_cell_measurement_theta_min      3.8290
_cell_volume                     3956.4(6)
_computing_cell_refinement
;
CrysAlis PRO (Agilent, 2014)
;
_computing_data_collection
;
CrysAlis PRO (Agilent, 2014)
;
_computing_data_reduction
;
CrysAlis PRO (Agilent, 2014)
;
_computing_molecular_graphics
;
ORTEP-3 for Windows (Farrugia, 2012)
;
_computing_publication_material
;
WinGX (Farrugia, 2012) and <i>CHEMDRAW Ultra</i> (Cambridge Soft,
2001)
;
_computing_structure_refinement
;
SHELXL2013 (Sheldrick, 2015)
;
_computing_structure_solution
;
SHELXS2013 (Sheldrick, 2008)
;
_diffrn_ambient_temperature      296(2)
_diffrn_measured_fraction_theta_full 0.998
_diffrn_measured_fraction_theta_max 0.841
_diffrn_measurement_device_type  'Agilent SuperNova, Dual, Cu at zero, Atlas'
_diffrn_measurement_method       '\w scans'
_diffrn_radiation_type           MoK\a
_diffrn_radiation_wavelength     0.71073
_diffrn_reflns_av_R_equivalents  0.0488
_diffrn_reflns_limit_h_max       23
_diffrn_reflns_limit_h_min       -24
_diffrn_reflns_limit_k_max       14
_diffrn_reflns_limit_k_min       -18
_diffrn_reflns_limit_l_max       22
_diffrn_reflns_limit_l_min       -23
_diffrn_reflns_number            22546
_diffrn_reflns_theta_full        25.000
_diffrn_reflns_theta_max         29.946
_diffrn_reflns_theta_min         2.422
_diffrn_standards_decay_%        0
_diffrn_standards_interval_count 0
_diffrn_standards_interval_time  0
_diffrn_standards_number         0
_exptl_absorpt_coefficient_mu    0.293
_exptl_absorpt_correction_T_max  0.998
_exptl_absorpt_correction_T_min  0.996
_exptl_absorpt_correction_type   gaussian
_exptl_absorpt_process_details
;
(CrysAlisPro; Agilent, 2014)
;
_exptl_crystal_colour            yellow
_exptl_crystal_density_diffrn    1.393
_exptl_crystal_description       plate
_exptl_crystal_F_000             1728
_exptl_crystal_size_max          0.375
_exptl_crystal_size_mid          0.209
_exptl_crystal_size_min          0.186
_refine_diff_density_max         0.452
_refine_diff_density_min         -0.288
_refine_ls_extinction_method     none
_refine_ls_goodness_of_fit_ref   1.042
_refine_ls_hydrogen_treatment    constr
_refine_ls_matrix_type           full
_refine_ls_number_parameters     533
_refine_ls_number_reflns         9646
_refine_ls_number_restraints     61
_refine_ls_restrained_S_all      1.687
_refine_ls_R_factor_all          0.1240
_refine_ls_R_factor_gt           0.0639
_refine_ls_shift/su_max          0.001
_refine_ls_shift/su_mean         0.000
_refine_ls_structure_factor_coef Fsqd
_refine_ls_weighting_details
'w=1/[\s^2^(Fo^2^)+(0.0600P)^2^+2.4742P] where P=(Fo^2^+2Fc^2^)/3'
_refine_ls_weighting_scheme      calc
_refine_ls_wR_factor_gt          0.1459
_refine_ls_wR_factor_ref         0.1810
_reflns_number_gt                5318
_reflns_number_total             9646
_reflns_threshold_expression     'I > 2\s(I)'
_cod_data_source_file            hb4203sup1.cif
_cod_data_source_block           I
_cod_original_cell_volume        3956.4(5)
_cod_database_code               1548729
_shelx_space_group_comment
;
The symmetry employed for this shelxl refinement is uniquely defined
by the following loop, which should always be used as a source of
symmetry information in preference to the above space-group names.
They are only intended as comments.
;
_shelx_estimated_absorpt_t_min   0.898
_shelx_estimated_absorpt_t_max   0.948
_shelx_hkl_file
;
   3   0   0 5133.47 95.5646   3
   3   0   0 5005.32 111.923   2
   4   0   0 59831.9 446.648   2
   4   0   0 61034.7 378.376   3
   5   0   0 18377.6 230.703   3
   5   0   0 18102.9 274.945   2
  -6   0   0 427.069 53.4504   2
   6   0   0 264.054 33.5649   3
   6   0   0 412.324 50.9298   2
   7   0   0 626.754 63.8792   2
  -7   0   0 464.253 61.4219   2
   7   0   0 415.856 42.4228   3
   8   0   0 3691.30 155.011   2
  -8   0   0 3649.68 171.385   2
   8   0   0 3300.71 122.564   3
   9   0   0 77.4293 28.8367   2
  -9   0   0 137.815 38.9991   2
   9   0   0 64.5626 20.5609   3
  10   0   0 1790.93 122.211   2
  10   0   0 1493.25 91.7881   3
  11   0   0 1835.20 106.247   3
  11   0   0 2226.63 143.160   2
 -12   0   0 515.083 86.2831   2
  12   0   0 642.358 83.2816   2
  12   0   0 368.295 50.8292   3
 -13   0   0 4719.94 265.757   2
  13   0   0 4428.81 176.015   3
  13   0   0 5020.48 231.901   2
  14   0   0 390.068 55.3306   3
  14   0   0 606.235 88.9854   2
 -14   0   0 444.220 89.3985   2
  15   0   0 1310.53 128.393   2
 -15   0   0 1099.51 141.907   2
  15   0   0 1001.42 90.3526   3
  16   0   0 473.611 64.4080   3
  16   0   0 704.883 96.7549   2
  17   0   0 1457.83 145.346   2
  18   0   0 158.131 54.8973   2
  19   0   0 163.976 57.7376   2
  20   0   0 346.023 80.1597   2
  21   0   0 371.128 86.5965   2
  22   0   0-66.2702 39.8290   2
  23   0   0 395.889 90.1410   2
   3  -1   0 45420.7 407.212   2
   3   1   0 45240.7 316.445   2
   4  -1   0 5891.17 159.552   2
  -4  -1   0 5612.28 99.7961   3
   4   1   0 5681.92 128.434   2
   5   1   0 7403.28 162.511   2
  -5  -1   0 7204.63 131.237   3
   5  -1   0 7444.56 194.992   2
   5   1   0 6993.21 119.483   3
  -6  -1   0 662.231 46.0990   3
   6   1   0 696.899 55.5419   2
   6  -1   0 624.276 62.8931   2
   6  -1   0 579.074 52.8332   3
  -6  -1   0 658.898 58.9837   2
   6   1   0 609.771 39.7390   3
   7   1   0 409.199 35.4661   3
   7  -1   0 419.059 48.1584   3
  -7  -1   0 394.222 40.2779   3
   7   1   0 469.029 49.9269   2
   7  -1   0 440.707 55.3022   2
  -7   1   0 397.078 56.2985   2
  -7  -1   0 446.025 54.8027   2
   8   1   0 680.864 64.8257   2
   8   1   0 638.923 47.9812   3
  -8  -1   0 599.660 69.5399   2
  -8   1   0 664.855 78.0996   2
   8  -1   0 631.824 70.0789   2
   8  -1   0 636.747 60.9871   3
   9   1   0 404.306 53.1357   2
   9  -1   0 431.222 60.9110   2
   9  -1   0 444.200 54.1530   3
   9   1   0 309.253 35.6534   3
  -9   1   0 404.727 65.1309   2
  -9  -1   0 356.965 57.4904   2
  10  -1   0 3.82210 14.4454   3
  10  -1   0-35.6627 31.4736   2
  10   1   0 4.15334 9.91559   3
  10   1   0 3.05754 14.1392   2
  11  -1   0 3353.33 153.124   3
  11   1   0 3293.85 128.246   3
  11  -1   0 3529.73 187.282   2
  11   1   0 3744.52 177.263   2
 -12  -1   0 194.213 51.6436   2
  12  -1   0 204.317 39.1251   3
  12   1   0 198.416 34.0289   3
  12  -1   0 252.091 54.1647   2
 -12   1   0 227.648 56.0249   2
  12   1   0 237.543 47.1481   2
  13  -1   0 118.557 37.8425   2
 -13  -1   0 72.4479 32.6237   2
  13   1   0 122.647 37.4621   2
  13  -1   0 197.375 41.7393   3
 -13   1   0 149.762 50.4441   2
  14   1   0 1876.38 143.772   2
  14  -1   0 1693.18 122.122   3
 -14   1   0 1851.40 181.615   2
  14  -1   0 1943.14 156.831   2
 -14  -1   0 1891.93 172.684   2
  15  -1   0 191.629 43.8557   3
 -15  -1   0 218.743 62.2934   2
  15   1   0 211.858 53.9178   2
  15  -1   0 142.034 46.1770   2
  16  -1   0 379.417 74.7422   2
  16  -1   0 296.568 55.0257   3
  16   1   0 500.469 81.3882   2
  17  -1   0 315.276 71.7832   2
  17   1   0 368.192 74.4586   2
  17  -1   0 255.183 52.6546   3
  18   1   0-35.0648 38.7218   2
  18  -1   0 42.4034 32.3089   2
  19  -1   0 68.9180 38.5204   2
  19   1   0 67.4284 40.7022   2
  20   1   0 676.258 110.712   2
  20  -1   0 766.748 117.480   2
  21  -1   0 41.9617 32.9897   2
  21   1   0-13.3505 17.2893   2
  22  -1   0 81.6920 43.8259   2
  23  -1   0-0.56658 16.0587   2
  -2  -2   0 26068.0 233.883   1
   3  -2   0 20363.9 319.917   2
   4  -2   0 56636.1 568.650   2
  -5  -2   0 2263.65 97.3391   2
   5  -2   0 2623.12 131.516   2
  -5  -2   0 2420.96 70.0991   3
  -6  -2   0 18.8677 12.7021   2
   6  -2   0 30.2534 21.7300   2
  -6  -2   0 28.3401 11.5902   3
  -7  -2   0 429.027 53.5067   2
  -7   2   0 468.800 66.7632   2
  -7  -2   0 478.335 39.6970   3
   7   2   0 531.042 53.6420   2
   7  -2   0 505.949 64.6953   2
   8  -2   0 2269.61 142.357   2
  -8  -2   0 2343.29 94.1999   3
  -8  -2   0 2337.67 129.667   2
   8   2   0 2477.89 119.909   2
  -8   2   0 2363.80 155.914   2
   8  -2   0 2227.90 124.090   3
  -9  -2   0 0.94949 12.8531   3
   9  -2   0 9.17845 20.6794   2
   9  -2   0-3.31550 17.4098   3
  -9   2   0-3.02395 16.9114   2
   9   2   0-1.30246 16.6597   2
  -9  -2   0-9.44528 17.4292   2
  10   2   0 34.1798 21.5663   2
  10  -2   0 19.7741 13.5820   3
  10  -2   0 19.0683 17.9777   2
 -11   2   0 61.4094 31.7726   2
  11  -2   0 78.2813 31.4933   2
  11   2   0 126.538 33.9598   2
  11  -2   0 97.8320 30.4389   3
 -12  -2   0 564.947 85.6028   2
  12  -2   0 568.823 71.7482   3
  12  -2   0 590.316 84.1294   2
  12   2   0 625.269 76.0124   2
 -12   2   0 592.250 98.2216   2
  13  -2   0 1787.23 152.619   2
  13   2   0 1881.28 135.665   2
 -13  -2   0 1831.56 160.398   2
 -13   2   0 2005.15 184.889   2
  13  -2   0 1691.31 126.078   3
  14   2   0 933.037 101.986   2
 -14  -2   0 703.811 104.176   2
  14  -2   0 799.434 104.376   2
 -14   2   0 885.579 129.681   2
  14  -2   0 730.598 85.4787   3
  15  -2   0 25.0877 17.5966   3
  15  -2   0 55.1691 30.7648   2
 -15  -2   0 81.8389 41.3930   2
  15   2   0 20.6899 18.1691   2
  16  -2   0 699.005 87.7181   3
  16  -2   0 812.354 112.133   2
  16   2   0 957.947 109.731   2
  17   2   0 488.750 79.8925   2
  17  -2   0 645.825 104.385   2
  17  -2   0 397.125 68.5984   3
  18  -2   0 174.973 60.7339   2
  19  -2   0 162.790 56.3225   2
  20  -2   0 160.090 57.7445   2
  21  -2   0 261.585 72.7019   2
  22  -2   0-42.8290 35.1755   2
  23  -2   0 123.558 53.9317   2
   0  -3   0 0.48625 12.2925   1
   1  -3   0 69731.3 450.840   1
  -1  -3   0 67399.8 463.196   1
  -2  -3   0 47448.8 397.059   1
  -3  -3   0 53446.1 422.759   1
  -4  -3   0 644.482 48.0843   1
   4  -3   0 751.585 76.1204   2
   5  -3   0 1081.01 94.2425   2
  -5  -3   0 853.487 63.1062   2
  -5  -3   0 894.265 59.1301   1
  -6  -3   0 7167.22 197.110   2
   6  -3   0 7545.75 254.806   2
  -7  -3   0 4065.81 107.997   3
   7  -3   0 3789.40 189.138   2
  -7  -3   0 3969.74 157.681   2
   8  -3   0 84.4666 37.9359   2
  -8  -3   0 56.3801 14.6036   3
  -8   3   0 83.6744 33.2952   2
  -8  -3   0 34.2063 19.7303   2
  -9  -3   0 460.912 637.206   2
   9  -3   0 616.933 871.867   2
  -9  -3   0 551.262 485.392   3
 -10  -3   0 128.026 27.1036   3
  10  -3   0 121.622 34.3836   3
  10  -3   0 104.888 39.1585   2
  11  -3   0 1827.22 150.829   2
 -11  -3   0 1839.20 101.089   3
  11  -3   0 1589.69 122.587   3
 -11   3   0 1811.10 169.410   2
 -12   3   0-22.6344 30.8930   2
  12  -3   0 16.0672 28.8554   2
  12  -3   0 24.2305 21.2807   3
 -12  -3   0 65.0315 30.0357   2
 -13  -3   0 2505.89 183.682   2
  13  -3   0 2556.76 163.001   3
 -13   3   0 2718.01 223.582   2
  13  -3   0 2853.84 199.412   2
  14  -3   0 241.329 55.6050   3
 -14  -3   0 338.591 71.8623   2
 -14   3   0 362.859 89.3949   2
  14  -3   0 410.006 81.8218   2
  15  -3   0 71.4151 33.5592   3
 -15  -3   0 54.6324 38.1402   2
  15  -3   0 28.8842 24.8626   2
  16  -3   0 2056.53 185.034   2
  16  -3   0 1470.45 133.195   3
  17  -3   0 181.159 57.1498   2
  18  -3   0 132.393 52.4205   2
  19  -3   0 33.5073 48.6330   2
  20  -3   0-3.83038 24.9785   2
  21  -3   0 24.4842 25.1319   2
  22  -3   0 127.520 53.4428   2
  23  -3   0 9.22713 32.0532   2
   0  -4   0 37544.2 388.090   1
   0   4   0 35929.4 388.330   1
   1   4   0 2616.83 102.716   1
  -1  -4   0 2669.59 106.950   1
  -1   4   0 2600.80 105.117   1
   1  -4   0 2586.66 100.229   1
  -2   4   0 64796.7 533.231   1
   2   4   0 61978.4 494.284   1
  -2  -4   0 62127.2 515.646   1
   2  -4   0 64299.6 496.229   1
  -3  -4   0 18987.3 295.122   1
  -3   4   0 19957.6 305.370   1
  -4  -4   0 2742.66 114.131   1
  -4   4   0 3000.51 122.032   1
   4  -4   0 3206.82 166.476   2
   5  -4   0 10.8655 23.6397   2
  -5  -4   0 23.2289 22.2274   1
   6  -4   0 9358.41 305.728   2
  -6  -4   0 8420.30 206.846   1
   7  -4   0 62.1707 32.0277   2
  -7  -4   0 133.148 31.9112   2
  -7  -4   0 131.420 28.9577   1
  -8  -4   0 446.588 39.9111   3
  -8  -4   0 498.328 55.3908   1
  -8  -4   0 443.052 58.9966   2
   8  -4   0 431.004 67.6119   2
   9  -4   0-7.82050 41.5952   2
  -9  -4   0 17.1830 13.3720   3
 -10  -4   0 358.958 40.1116   3
  10  -4   0 400.253 73.7333   2
 -10   4   0 412.146 81.2921   2
  11  -4   0 1084.05 123.719   2
  11  -4   0 890.383 97.7117   3
 -11  -4   0 954.520 70.1061   3
 -11  -4   0 957.577 102.031   2
 -11   4   0 1113.80 139.909   2
 -12  -4   0 337.573 66.9868   2
  12  -4   0 335.471 71.2750   2
 -12   4   0 307.230 79.6263   2
 -12  -4   0 323.317 45.2089   3
  12  -4   0 295.673 60.9374   3
  13  -4   0 1698.36 161.477   2
 -13  -4   0 1541.97 144.697   2
  13  -4   0 1326.62 124.607   3
 -13   4   0 1495.54 176.024   2
  14  -4   0 374.672 79.9341   2
 -14  -4   0 306.726 68.9533   2
  14  -4   0 308.763 63.2323   3
  15  -4   0 3011.38 227.783   2
  16  -4   0 129.101 55.8127   2
  17  -4   0-41.3231 41.4377   2
  18  -4   0-62.5499 46.9751   2
  19  -4   0 104.388 45.5523   2
  20  -4   0 2.51746 18.2804   2
  21  -4   0-24.0199 30.8771   2
  22  -4   0 32.8084 35.6889   2
   0   5   0 10.3755 13.9306   1
   0  -5   0-20.4788 20.7646   1
   1  -5   0 1204.58 77.0235   1
   1   5   0 1229.33 80.5021   1
  -1   5   0 1281.48 82.6577   1
  -1  -5   0 1174.30 77.8966   1
  -2  -5   0 334.898 43.3642   1
  -2   5   0 338.284 44.5214   1
   2   5   0 270.790 37.1643   1
   2  -5   0 336.015 42.1598   1
  -3  -5   0 402.017 51.2543   1
   3   5   0 335.888 41.0189   1
  -3   5   0 320.374 44.7755   1
  -4  -5   0 390.103 49.5482   1
   4   5   0 486.059 47.9045   1
  -4   5   0 455.387 54.1915   1
  -5  -5   0 3170.83 140.452   1
  -5   5   0 3455.36 153.325   1
   5  -5   0 3368.66 190.713   2
   6  -5   0 19344.1 471.728   2
  -6  -5   0 17764.6 338.357   1
  -7  -5   0 37.2753 20.0245   1
   7  -5   0 11.9793 27.1952   2
   8  -5   0-12.9757 33.0529   2
  -8  -5   0 2.48950 19.8789   1
  -9  -5   0 168.325 39.8482   1
   9  -5   0 137.609 47.4785   2
  10  -5   0 635.154 94.6018   2
 -10  -5   0 526.487 72.9137   2
 -10  -5   0 565.810 50.2239   3
 -10  -5   0 601.740 71.9618   1
 -11  -5   0 392.551 66.7560   2
 -11  -5   0 421.457 45.6299   3
  11  -5   0 330.654 71.9610   2
 -11  -5   0 406.202 63.0111   1
 -12  -5   0 3061.21 165.108   1
 -12  -5   0 3070.52 128.421   3
 -12  -5   0 2700.08 183.049   2
  12  -5   0 2838.70 212.619   2
  12  -5   0 2625.38 181.078   3
 -13  -5   0 2684.26 161.127   1
  13  -5   0 2438.27 177.150   3
 -13  -5   0 2832.03 131.500   3
 -13  -5   0 2558.36 185.579   2
  13  -5   0 2897.20 220.617   2
  14  -5   0 265.758 71.0013   2
 -14  -5   0 214.843 57.4652   2
 -14  -5   0 389.840 69.7309   1
  15  -5   0 113.495 48.0857   2
 -15  -5   0 123.345 45.3904   1
 -16  -5   0 238.588 56.1825   1
  16  -5   0 212.859 65.8505   2
 -17  -5   0 46.7068 30.2064   1
  17  -5   0-34.2284 34.9040   2
  18  -5   0 20.4633 21.4518   2
 -18  -5   0 48.1352 36.4430   1
 -19  -5   0 177.218 55.1054   1
  19  -5   0 119.416 49.5599   2
 -20  -5   0 74.3069 43.3075   1
  20  -5   0-27.4343 29.1257   2
  21  -5   0-3.83949 40.8828   2
  22  -5   0 31.9520 40.1710   2
   0   6   0 378.189 50.5005   1
   0  -6   0 406.441 51.5603   1
  -1   6   0 110.623 28.4359   1
  -1  -6   0 135.428 31.3841   1
   1   6   0 108.506 29.2059   1
   1  -6   0 101.702 24.9441   1
  -2  -6   0 1124.93 86.6807   1
  -2   6   0 1043.58 84.6569   1
   2  -6   0 1224.15 84.7631   1
   2   6   0 1074.41 81.4361   1
  -3   6   0 122.778 31.9868   1
  -3  -6   0 179.665 41.0389   1
   3   6   0 108.787 29.2944   1
  -4   6   0 107.106 32.8717   1
  -4  -6   0 221.843 47.7961   1
   4   6   0 131.348 32.6700   1
  -5  -6   0 5850.99 207.597   1
  -5   6   0 6036.64 219.254   1
   6  -6   0 2531.86 183.345   2
  -6   6   0 2439.32 144.562   1
  -6  -6   0 2320.22 135.077   1
  -7  -6   0 4489.21 191.247   1
   7  -6   0 4893.69 257.860   2
  -8  -6   0 1679.28 119.477   1
   8  -6   0 1791.86 161.817   2
  -9  -6   0 2204.26 141.094   1
  -9  -6   0 2333.95 149.594   2
   9  -6   0 2305.71 188.622   2
 -10  -6   0 1253.61 109.115   1
 -10  -6   0 1257.76 115.068   2
  10  -6   0 1357.18 149.173   2
 -11  -6   0 4227.56 220.482   2
 -11  -6   0 4261.83 143.391   3
 -11  -6   0 4041.04 199.357   1
  11  -6   0 4352.90 272.670   2
  12  -6   0 831.344 1213.70   2
 -12  -6   0 568.494 861.296   2
 -12  -6   0 674.147 874.524   1
 -12  -6   0 690.059 612.382   3
 -13  -6   0 192.295 53.9198   1
  13  -6   0 73.4785 43.3681   2
 -13  -6   0 63.1417 30.2488   2
 -13  -6   0 52.0473 18.1852   3
  14  -6   0 532.746 102.130   2
 -14  -6   0 347.699 49.1489   3
 -14  -6   0 342.058 65.1896   1
  15  -6   0 164.329 59.3402   2
 -15  -6   0 250.535 59.0488   1
  16  -6   0-12.8826 35.2033   2
 -16  -6   0-10.4630 21.7711   1
  17  -6   0 137.404 57.6883   2
 -17  -6   0 201.854 52.9544   1
 -18  -6   0-5.36907 21.9901   1
  18  -6   0 19.2699 25.6257   2
  19  -6   0 34.1522 34.3304   2
 -19  -6   0 26.4145 30.3196   1
 -20  -6   0 82.7532 42.6982   1
  20  -6   0 65.6812 41.2621   2
  21  -6   0 7.64896 24.2194   2
   0  -7   0-16.5172 17.1805   1
   0   7   0-9.54304 13.8718   1
   1   7   0 17.1455 17.8965   1
  -1  -7   0-3.11117 19.0318   1
   1  -7   0 26.5979 19.6038   1
  -1   7   0 23.8238 15.8054   1
  -2  -7   0 970.580 87.4169   1
  -2   7   0 988.972 91.5989   1
   2   7   0 892.453 80.3926   1
   2  -7   0 997.309 83.9947   1
   3  -7   0 3650.42 157.382   1
   3   7   0 3337.26 149.232   1
  -3   7   0 3562.47 172.048   1
  -3  -7   0 3305.04 164.126   1
  -4   7   0 8270.02 268.143   1
   4   7   0 7517.91 217.922   1
  -4  -7   0 7668.44 249.300   1
  -5  -7   0 10122.8 292.872   1
  -5   7   0 11796.1 331.004   1
   6  -7   0 133.548 53.1187   2
  -6  -7   0 106.649 37.7181   1
   7  -7   0 1410.47 146.929   2
  -7  -7   0 1348.93 115.406   1
  -8  -7   0 550.551 76.4192   1
   8  -7   0 438.482 87.4846   2
  -8   7   0 559.979 78.9685   1
   9  -7   0 1448.96 157.475   2
  -9  -7   0 1408.66 121.201   2
  -9   7   0 1317.75 126.774   1
  -9  -7   0 1250.35 115.392   1
  10  -7   0 3338.72 242.634   2
 -10  -7   0 3004.83 181.271   1
 -10  -7   0 3396.49 194.548   2
 -10   7   0 3356.60 207.676   1
 -11  -7   0 183.863 48.4889   2
 -11  -7   0 237.795 57.0616   1
 -11  -7   0 198.526 34.0563   3
  11  -7   0 217.980 68.2394   2
 -12  -7   0 567.985 55.2619   3
 -12  -7   0 576.482 89.3606   2
  12  -7   0 665.146 116.476   2
 -12  -7   0 668.302 90.5696   1
  13  -7   0 959.558 138.894   2
 -13  -7   0 1023.78 76.8585   3
 -13  -7   0 1062.82 116.154   1
 -14  -7   0 394.187 51.5392   3
 -14  -7   0 333.297 67.3262   1
  14  -7   0 292.924 82.5668   2
 -15  -7   0 2.88811 29.5344   1
 -15  -7   0 6.69875 17.8736   3
  15  -7   0-27.2090 34.5199   2
 -16  -7   0-21.2714 26.6463   1
  16  -7   0-20.1933 25.6437   2
  17  -7   0 82.9067 58.3356   2
 -17  -7   0 103.178 52.8322   1
 -18  -7   0 0.43614 24.7909   1
  18  -7   0-33.3704 35.8539   2
  19  -7   0-8.71316 31.1143   2
 -19  -7   0 55.8324 38.2633   1
  20  -7   0 61.7234 47.6192   2
  21  -7   0 65.1107 44.0158   2
   0   8   0 419.378 60.8186   1
   0  -8   0 412.806 59.4869   1
   1  -8   0 1054.23 93.8874   1
  -1  -8   0 968.927 93.4865   1
  -1   8   0 936.082 93.5133   1
   1   8   0 882.633 87.3021   1
  -2   8   0 144.495 36.5393   1
   2   8   0 68.5206 19.7083   1
  -2  -8   0 173.898 43.8246   1
   2  -8   0 181.102 41.6940   1
  -3  -8   0 3233.34 172.469   1
   3  -8   0 3257.32 160.388   1
  -3   8   0 3418.28 183.188   1
  -4  -8   0 59.7969 32.7356   1
  -5  -8   0 4474.99 209.106   1
  -6  -8   0 240.508 54.7399   1
   6  -8   0 223.235 64.0266   2
  -7  -8   0 2027.52 149.016   1
  -7   8   0 2423.37 167.872   1
   7  -8   0 2295.23 199.169   2
  -8  -8   0 157.815 46.7973   1
  -8   8   0 221.140 58.8135   1
   8  -8   0 198.331 71.7009   2
  -9   8   0 2128.24 168.536   1
   9  -8   0 2080.66 194.530   2
  -9  -8   0 2058.16 158.430   1
 -10   8   0 2462.97 188.077   1
  10  -8   0 2480.19 220.465   2
 -10  -8   0 2308.74 166.239   2
 -10  -8   0 2193.40 168.279   1
 -11  -8   0-25.6508 25.6495   2
 -11  -8   0-11.9722 33.7705   1
  11  -8   0 33.0948 43.1615   2
 -12  -8   0 315.817 42.0212   3
 -12  -8   0 376.068 76.3784   1
  12  -8   0 312.970 86.6156   2
  13  -8   0 400.966 95.3153   2
 -13  -8   0 298.829 66.7606   1
 -13  -8   0 327.160 43.0431   3
  14  -8   0 33.0826 27.3228   2
 -14  -8   0 28.7320 30.3942   1
 -14  -8   0 2.65576 14.7988   3
 -15  -8   0 135.284 49.0819   1
  15  -8   0 64.4401 44.3421   2
 -15  -8   0 163.633 33.7811   3
 -16  -8   0 71.6742 37.6280   1
  16  -8   0 85.1582 46.1344   2
 -17  -8   0 50.3248 35.2770   1
  17  -8   0-41.5603 41.5835   2
 -18  -8   0 36.0059 37.6990   1
  18  -8   0 79.6195 56.0431   2
 -19  -8   0-20.2877 32.4988   1
  19  -8   0 10.2076 26.8175   2
  20  -8   0 98.3383 57.4176   2
   0  -9   0-19.9378 26.4666   1
  -1  -9   0 1748.67 132.780   1
   1  -9   0 1707.89 126.572   1
  -2  -9   0 1842.33 137.471   1
   2  -9   0 1858.18 132.768   1
   3  -9   0 536.772 749.546   1
  -3  -9   0 484.343 774.445   1
   4   9   0 253.682 47.1006   1
  -4  -9   0 209.909 48.3719   1
  -5  -9   0 798.281 95.8567   1
   5   9   0 834.956 81.5388   1
  -5   9   0 776.583 98.3483   1
  -6   9   0 1681.47 146.082   1
  -6  -9   0 1487.56 131.646   1
  -7   9   0 925.444 111.106   1
  -7  -9   0 785.401 99.3999   1
   7  -9   0 792.363 124.931   2
  -8   9   0 53.7705 28.9044   1
  -8  -9   0 28.5002 33.7001   1
   8  -9   0 8.84022 40.5690   2
  -9   9   0 343.392 76.2439   1
  -9  -9   0 343.959 76.9717   1
   9  -9   0 349.719 93.8271   2
 -10   9   0 156.427 54.7400   1
  10  -9   0 204.881 73.0005   2
 -10  -9   0 98.7663 35.5217   1
 -11  -9   0 24.4679 26.9099   1
  11  -9   0 1.94412 36.0995   2
 -12  -9   0 504.091 90.4850   1
  12  -9   0 611.174 118.530   2
  13  -9   0 164.991 66.3880   2
 -13  -9   0 155.636 56.7884   1
 -13  -9   0 190.161 34.8820   3
 -14  -9   0-16.4261 34.0335   1
 -14  -9   0 23.0463 13.8741   3
  14  -9   0 29.0141 30.6063   2
 -15  -9   0 251.034 70.9289   1
  15  -9   0 212.887 74.0057   2
 -16  -9   0 10.2425 26.1294   1
  16  -9   0-99.2719 55.6897   2
 -17  -9   0 77.4373 43.7971   1
  17  -9   0 71.1907 50.7491   2
 -18  -9   0-41.5359 42.8660   1
  18  -9   0 61.7389 51.6340   2
  19  -9   0 8.54970 22.2353   2
   0  10   0 1617.31 134.535   1
   0 -10   0 1699.44 135.366   1
  -1 -10   0 105.872 40.2278   1
   1  10   0 25.4404 17.4922   1
  -1  10   0 49.2528 21.4316   1
   1 -10   0 15.4535 24.9457   1
   2 -10   0 138.428 41.4814   1
  -2 -10   0 204.232 51.3304   1
  -2  10   0 192.525 52.0766   1
   2  10   0 203.271 49.3485   1
  -3 -10   0 606.510 85.8123   1
   3  10   0 666.237 82.4111   1
   3 -10   0 664.418 83.7882   1
  -3  10   0 772.898 99.5242   1
  -4  10   0 29.8614 20.6675   1
   4  10   0 81.7848 32.3937   1
  -4 -10   0 31.1493 26.3771   1
  -5  10   0 72.6999 34.1295   1
  -5 -10   0 28.3187 29.1070   1
   5  10   0 115.725 36.1039   1
  -6  10   0 81.6603 36.3494   1
  -6 -10   0 17.6980 27.4637   1
  -7 -10   0 1635.69 148.816   1
   7 -10   0 1785.08 194.153   2
  -7  10   0 1938.40 169.284   1
   8 -10   0 684.305 124.214   2
  -8  10   0 788.321 112.820   1
  -8 -10   0 757.608 104.572   1
   9 -10   0 6164.22 365.800   2
  -9  10   0 5846.76 310.771   1
  -9 -10   0 6030.52 297.529   1
 -10 -10   0 443.705 87.2992   1
  10 -10   0 483.634 110.999   2
 -11 -10   0 555.400 98.2373   1
  11 -10   0 401.213 104.413   2
 -12 -10   0 38.5901 39.5689   1
  12 -10   0 18.0844 42.4292   2
 -13 -10   0 88.4374 45.6233   1
  13 -10   0 117.792 50.2143   2
 -14 -10   0 290.952 80.6862   1
  14 -10   0 259.856 83.0575   2
 -15 -10   0-78.7633 47.7321   1
  15 -10   0 36.7934 32.5335   2
  16 -10   0 3.16612 38.5640   2
 -16 -10   0-84.3991 48.5205   1
  17 -10   0 201.453 80.5174   2
 -17 -10   0 109.563 55.3673   1
  18 -10   0 114.512 61.6641   2
 -18 -10   0 37.2691 33.1371   1
   0 -11   0 96.2846 41.2473   1
   0  11   0 92.3729 40.3120   1
  -1 -11   0 438.045 72.2117   1
   1 -11   0 497.823 77.3445   1
   1  11   0 397.360 71.9299   1
  -1  11   0 508.225 82.9298   1
   2  11   0 899.878 102.825   1
  -2 -11   0 967.614 112.642   1
  -2  11   0 1078.83 122.131   1
   2 -11   0 1059.72 111.685   1
  -3 -11   0-26.5764 33.8766   1
  -3  11   0-37.0905 31.0563   1
   3  11   0-18.0219 24.4108   1
   3 -11   0-15.0055 25.2940   1
   4  11   0 8.26297 24.8404   1
  -4 -11   0 23.6272 35.3265   1
  -4  11   0-16.2882 30.7221   1
  -5 -11   0 197.389 56.3537   1
   5  11   0 257.010 52.6709   1
  -5  11   0 183.323 53.7511   1
  -6  11   0 91.0392 27.7332   1
  -6 -11   0 97.9308 45.2740   1
   7 -11   0 3093.55 263.518   2
  -7 -11   0 3018.13 213.473   1
  -7  11   0 3219.16 230.855   1
  -8 -11   0-15.3592 24.5128   1
   8 -11   0 11.3295 48.4606   2
   9 -11   0 142.586 64.5507   2
  -9 -11   0 71.7938 49.9967   1
 -10 -11   0 74.2050 48.1964   1
  10 -11   0-2.62969 33.0349   2
 -11 -11   0 259.115 73.0790   1
  11 -11   0 237.139 87.4514   2
  12 -11   0 164.743 80.9351   2
 -12 -11   0 347.295 83.3942   1
 -13 -11   0 44.1525 37.7390   1
  13 -11   0 91.3343 54.8428   2
 -14 -11   0 112.219 54.8830   1
  14 -11   0 18.3732 38.9981   2
 -15 -11   0 174.436 67.9362   1
  15 -11   0 68.3222 38.1136   2
 -16 -11   0 100.209 43.2380   1
  16 -11   0 42.6281 47.7927   2
  17 -11   0-18.9702 32.6832   2
 -17 -11   0 23.8199 38.6542   1
   0  12   0 152.469 43.3829   1
   0 -12   0 165.041 51.5364   1
  -1  12   0-20.4652 29.1443   1
  -1 -12   0-30.1062 36.8879   1
   1 -12   0 20.1744 26.9478   1
   1  12   0-10.8800 25.5962   1
   2 -12   0 15.6576 27.4018   1
   2  12   0 0.46750 19.2990   1
  -2  12   0 51.4383 35.4783   1
  -2 -12   0 33.7002 37.1537   1
  -3 -12   0 186.586 52.3584   1
  -3  12   0 123.235 47.8969   1
   3  12   0 141.435 43.1998   1
   3 -12   0 223.365 54.5781   1
  -4  12   0 138.295 51.2923   1
  -4 -12   0 94.1937 42.4498   1
   4  12   0 133.552 42.8686   1
  -5  12   0 113.862 43.1210   1
  -5 -12   0 224.105 65.7418   1
  -6  12   0 475.660 93.1610   1
  -6 -12   0 337.599 76.3749   1
  -7 -12   0-14.2925 25.5608   1
   7 -12   0-48.7676 67.2996   2
  -8 -12   0 63.2711 40.7575   1
   8 -12   0 115.398 48.5335   2
   9 -12   0 87.1435 67.4558   2
  -9 -12   0 106.151 46.9758   1
  10 -12   0 78.0777 52.6320   2
 -10 -12   0 123.517 57.9715   1
 -11 -12   0 2.48624 23.8775   1
  11 -12   0-33.6413 37.9833   2
  12 -12   0 448.201 115.437   2
 -12 -12   0 434.223 97.3321   1
 -13 -12   0 24.4158 36.8472   1
  13 -12   0 45.9875 46.2735   2
  14 -12   0 56.1674 47.9181   2
 -14 -12   0-11.5458 27.6802   1
  15 -12   0-4.09345 28.9744   2
 -15 -12   0 42.3608 47.4983   1
 -16 -12   0 58.0229 49.0922   1
   0  13   0 56.3549 34.2898   1
   0 -13   0 36.0061 21.8407   1
  -1 -13   0 12.9443 20.9069   1
   1 -13   0 25.5111 28.8707   1
   1  13   0 10.2737 19.3448   1
  -1  13   0 30.8900 29.0268   1
  -2 -13   0 25.7976 27.0693   1
  -2  13   0 43.3326 28.5681   1
   2 -13   0 83.9697 36.3225   1
  -3  13   0 10.4136 31.5123   1
  -3 -13   0-19.4415 25.7786   1
  -4 -13   0 107.872 46.1441   1
  -5 -13   0 46.0288 34.8607   1
  -6 -13   0 1018.70 137.115   1
  -7 -13   0 110.612 47.9515   1
   7 -13   0 297.195 97.7957   2
   8 -13   0 81.1084 50.7058   2
  -8 -13   0 27.0500 28.9099   1
  -9 -13   0 28.8305 27.9192   1
   9 -13   0 3.22773 40.3639   2
 -10 -13   0 150.313 64.9874   1
  10 -13   0 140.615 72.5098   2
 -11 -13   0 79.1983 60.7289   1
  11 -13   0 93.8982 65.5900   2
  12 -13   0 74.8877 58.1493   2
 -12 -13   0 21.5748 39.1669   1
  13 -13   0 93.6999 61.6431   2
 -13 -13   0 83.5997 54.9914   1
  14 -13   0 7.12134 27.8426   2
 -14 -13   0 5.13808 40.7206   1
 -15 -13   0 122.203 59.9398   1
   0 -14   0 81.3473 44.1174   1
   1 -14   0 10.0723 27.6920   1
  -1 -14   0-19.0599 23.0748   1
   2 -14   0 584.443 93.3465   1
  -2 -14   0 553.305 96.6826   1
  -3 -14   0-28.0234 30.0803   1
  -4 -14   0 92.9354 47.0351   1
  -5 -14   0 77.4520 43.0484   1
  -6 -14   0 392.151 91.8470   1
   7 -14   0 92.5487 51.8791   2
  -7 -14   0 104.490 47.5749   1
  -8 -14   0 2.92970 32.9313   1
   8 -14   0 16.2085 37.5984   2
   9 -14   0 44.9505 45.6419   2
  -9 -14   0 64.6646 39.7976   1
 -10 -14   0-18.1386 31.2749   1
  10 -14   0-17.5631 37.7079   2
 -11 -14   0 27.6997 31.1993   1
  11 -14   0-52.3065 45.4570   2
 -12 -14   0 145.584 67.5286   1
  12 -14   0 222.031 88.5356   2
 -13 -14   0 7.92427 31.5349   1
 -14 -14   0 0.24441 58.9941   1
   0 -15   0 68.5470 40.3650   1
   1 -15   0-2.06599 16.8828   1
  -1 -15   0-41.1122 34.7546   1
   2 -15   0 17.0102 18.4921   1
  -2 -15   0 37.2264 31.4553   1
  -3 -15   0 59.8835 36.2658   1
  -4 -15   0-5.31635 21.8500   1
  -5 -15   0-7.44667 24.9228   1
  -6 -15   0 5.84467 26.7191   1
  -7 -15   0-8.57791 34.5866   1
   7 -15   0 51.9519 50.5020   2
  -8 -15   0 117.699 57.2378   1
   8 -15   0 60.2599 52.5190   2
   9 -15   0 61.2916 60.5408   2
  -9 -15   0 70.7824 46.0896   1
 -10 -15   0 41.2923 39.2753   1
  10 -15   0 70.6927 56.9873   2
 -11 -15   0 13.5050 27.4348   1
 -12 -15   0 71.5055 54.4410   1
 -13 -15   0-11.2714 28.7763   1
   0 -16   0-5.50421 19.5447   1
  -1 -16   0 0.83538 19.8421   1
   1 -16   0-21.7599 23.1056   1
  -2 -16   0-9.30635 22.7727   1
  -3 -16   0-14.3902 28.6675   1
  -4 -16   0 19.7167 31.3091   1
  -5 -16   0-25.9406 31.8909   1
  -6 -16   0 107.398 50.3316   1
   6 -16   0 36.6435 51.2249   2
   7 -16   0 115.305 76.9001   2
  -7 -16   0 14.2116 38.7127   1
  -8 -16   0 3.81861 29.1703   1
  -9 -16   0 98.0569 47.9609   1
 -10 -16   0 83.3874 49.6126   1
 -11 -16   0-22.9519 33.5009   1
 -12 -16   0-56.7726 45.0705   1
   0 -17   0 63.0206 35.0791   1
  -1 -17   0 23.2370 26.4170   1
   1 -17   0 64.8563 28.2332   1
  -2 -17   0 6.55530 20.1708   1
  -3 -17   0-21.9713 28.5954   1
  -4 -17   0 94.1054 50.5541   1
  -5 -17   0 35.0211 30.4880   1
  -6 -17   0 51.6546 39.3778   1
  -7 -17   0 10.6374 27.7520   1
  -8 -17   0-3.59836 21.0095   1
  -9 -17   0-133.911 61.6574   1
  23   0  -1 0.51070 18.3107   2
  22   0  -1 16.2548 24.7389   2
  21   0  -1 33.2183 26.5923   2
  20   0  -1 8.24921 28.1361   2
  19   0  -1-12.3142 25.8692   2
  18   0  -1 7.51561 23.9229   2
  17   0  -1-27.4474 23.7544   2
  17   0  -1-2.93305 10.6222   3
  16   0  -1-18.4079 21.8301   2
 -16   0   1 6.70686 24.3770   2
  16   0  -1 9.54253 14.5284   3
  15   0  -1 3.22486 11.4625   3
 -15   0   1-15.9215 29.0164   2
  15   0  -1-0.10484 22.2600   2
 -14   0   1 6.63849 22.9788   2
  14   0  -1 5.56853 12.0512   3
  14   0  -1-18.6352 19.3767   2
 -13   0   1 24.6409 24.2263   2
  13   0  -1-7.84771 19.7353   2
  13   0  -1-4.23322 12.1599   3
  12   0  -1-19.4472 18.4563   3
  12   0  -1-0.98131 16.6028   2
  11   0  -1-6.37537 17.4901   2
  11   0  -1-9.23900 16.5063   3
  10   0  -1-11.0975 13.8934   2
  10   0  -1-19.6973 16.0397   3
 -10   0   1-33.8031 22.0715   2
   9   0  -1-7.15455 14.3336   2
   9   0  -1 3.20261 10.4966   3
  -9   0   1 5.78969 15.9351   2
  -8   0   1 11.2660 13.1421   2
   8   0  -1 8.97864 13.3374   2
   8   0  -1-2.65915 13.5409   3
   7   0  -1-3.30472 9.98798   3
  -7   0   1-7.59488 13.8855   2
   7   0  -1-0.35384 11.8499   2
  -6   0   1-16.0047 14.4195   2
   6   0  -1 16.4660 13.1982   3
   6   0  -1 0.67035 14.2266   2
  -5   0   1-3.16984 13.6707   2
   5   0  -1-6.16906 10.6254   2
   4   0  -1-2.10340 9.72852   2
   3   0   1-9.11341 10.3608   2
   3   0   1 4.65787 8.59009   3
   4   0   1-11.8081 17.5336   2
   4   0   1 2.26506 9.37350   3
   5   0   1 0.60411 16.0471   2
  -5   0  -1 18.5997 16.7633   3
   5   0   1 6.25755 8.95331   3
   6   0   1 4.10774 9.30832   3
   6   0   1-8.33170 19.3486   2
  -6   0  -1-2.89758 16.1117   3
   7   0   1-8.67096 11.7170   3
  -7   0  -1 3.65199 15.5202   2
   7   0   1-24.6810 24.7967   2
  -8   0  -1-16.6770 22.3211   2
   8   0   1 5.10345 15.9530   2
   8   0   1-10.0828 13.4256   3
   9   0   1-7.66841 17.3078   2
   9   0   1-5.82082 12.1860   3
  10   0   1-105.123 35.0354   2
  10   0   1-6.31489 10.0726   3
  11   0   1-5.17429 11.0384   3
 -11   0  -1 16.0407 19.2488   2
  11   0   1 25.2398 25.1220   2
  12   0   1 0.98350 12.2143   3
  12   0   1 17.5331 17.9081   2
 -12   0  -1-4.03508 18.0420   2
 -13   0  -1-24.6961 19.6440   2
  13   0   1-25.0660 29.0965   2
  13   0   1 16.7656 14.8720   3
  14   0   1-4.33704 13.6493   3
  14   0   1 25.0877 26.2054   2
 -14   0  -1-27.8406 27.3910   2
  15   0   1 19.9170 18.3044   3
  15   0   1-12.9438 20.9633   2
  16   0   1-9.19079 31.8110   2
  17   0   1-89.9088 41.3504   2
  18   0   1 28.1696 32.0487   2
  19   0   1 4.89488 30.9296   2
  20   0   1 10.9915 26.0625   2
  21   0   1 8.99596 24.5029   2
  22   0   1-68.6343 41.7503   2
  23   0   1 8.06323 24.4371   2
  23  -1  -1 2.48400 17.7767   2
  22  -1  -1 4.59347 19.5401   2
  21  -1  -1 32.2748 24.8057   2
  21   1  -1-6.98191 21.4083   2
  20   1  -1 493.405 89.1351   2
  20  -1  -1 634.277 104.859   2
  19  -1  -1 888.194 118.712   2
  19   1  -1 745.805 105.481   2
  18  -1  -1 51.1193 27.3967   3
  18   1  -1 8.50416 17.2966   2
  18  -1  -1 66.1097 39.7419   2
  17  -1  -1 222.227 47.6614   3
  17  -1  -1 380.667 74.3944   2
  17   1  -1 412.061 76.7518   2
  16   1  -1 181.728 49.1567   2
  16  -1  -1 157.165 38.7111   3
  16  -1  -1 208.685 56.4335   2
 -16  -1   1 224.820 70.3448   2
  15  -1  -1 439.674 75.9860   2
 -15   1   1 440.467 93.4664   2
  15   1  -1 411.036 67.2874   2
  15  -1  -1 427.251 61.4653   3
 -15  -1   1 336.463 75.7881   2
  14  -1  -1 189.584 47.4125   2
 -14   1   1 229.197 66.0728   2
  14   1  -1 263.528 52.7992   2
 -14  -1   1 229.061 59.5615   2
  14  -1  -1 256.460 46.2687   3
  13  -1  -1 526.194 63.4833   3
 -13   1   1 605.345 98.7098   2
  13   1  -1 518.219 52.9393   3
  13   1  -1 550.397 71.4340   2
 -13  -1   1 491.649 83.7587   2
  13  -1  -1 640.922 84.4215   2
  12  -1  -1 614.124 78.5053   2
  12   1  -1 499.627 49.3570   3
  12   1  -1 602.741 71.4858   2
  12  -1  -1 546.050 63.6331   3
  11   1  -1 379.224 40.8820   3
  11   1  -1 532.000 64.7499   2
  11  -1  -1 429.372 54.9977   3
  11  -1  -1 493.194 70.2291   2
  10   1  -1 1300.83 94.3929   2
  10   1  -1 1172.50 67.4082   3
 -10   1   1 1217.43 114.892   2
  10  -1  -1 1258.12 103.577   2
 -10  -1   1 1236.95 104.265   2
  10  -1  -1 1226.65 88.3236   3
   9  -1  -1 790.337 68.8108   3
  -9   1   1 942.598 96.9873   2
  -9  -1   1 1023.93 90.2684   2
   9   1  -1 809.542 53.2003   3
   9  -1  -1 883.326 86.2761   2
   9   1  -1 1056.31 80.3019   2
   8   1  -1 535.566 54.8699   2
  -8   1   1 562.813 70.6856   2
   8   1  -1 419.880 35.7398   3
   8  -1  -1 479.275 53.0877   3
  -8  -1   1 521.305 60.1376   2
   8  -1  -1 572.926 67.5536   2
   7   1  -1 5069.45 110.991   3
  -7  -1   1 5015.69 163.275   2
   7   1  -1 5335.87 151.961   2
  -7   1   1 5123.75 194.437   2
   7  -1  -1 5390.87 179.177   2
  -6  -1   1 523.383 52.1423   2
  -6   1   1 787.480 72.5165   2
   6  -1  -1 552.619 55.4065   2
   6   1  -1 598.364 34.8228   3
   6   1  -1 740.857 55.6401   2
   5   1  -1 4889.32 118.183   2
   5   1  -1 4647.30 80.0102   3
  -5  -1   1 4532.92 122.886   2
   5  -1  -1 4774.19 146.461   2
   4  -1  -1 23551.8 298.233   2
   4   1  -1 23517.3 222.434   2
   3  -1  -1 3.66256 10.2698   2
   2  -1   1 2398.34 80.8614   3
   3  -1   1 28251.3 343.823   2
   3   1   1 27362.8 285.908   2
   3  -1   1 28418.5 305.126   3
   4  -1   1 5370.63 165.864   2
   4  -1   1 5687.65 148.322   3
  -4  -1  -1 5558.81 121.786   3
   4   1   1 5455.00 142.812   2
   5  -1   1 9091.89 200.301   3
  -5  -1  -1 9260.60 172.487   3
   5  -1   1 9414.14 232.074   2
   5   1   1 9255.54 202.591   2
   6   1   1 2086.04 105.218   2
   6  -1   1 1906.20 99.0108   3
  -6  -1  -1 1878.12 86.3007   3
   6  -1   1 1884.78 113.391   2
  -7  -1  -1 4231.66 139.393   3
  -7  -1  -1 4508.29 179.382   2
   7  -1   1 4642.59 182.680   2
   7   1   1 4573.25 164.710   2
   7  -1   1 4408.26 156.481   3
  -8   1  -1 9147.73 300.839   2
  -8  -1  -1 9625.60 282.742   2
   8  -1   1 9202.71 236.645   3
   8  -1   1 9676.34 279.912   2
   8   1   1 10107.8 261.044   2
  -8  -1  -1 9567.26 226.246   3
   9  -1   1 65.7207 37.4368   2
   9   1   1 70.3038 34.4538   2
   9  -1   1 24.4337 17.7687   3
  -9  -1  -1 16.8725 18.2984   3
  10  -1   1 4803.62 185.481   3
  10  -1   1 5415.07 230.401   2
  10   1   1 5405.04 210.901   2
  11  -1   1 41.3200 20.3720   3
  11  -1   1 46.2039 28.3746   2
  11   1   1 48.5005 26.6626   2
 -11  -1  -1 46.4496 29.0874   2
 -11   1  -1 25.7625 18.0029   2
 -12  -1  -1 65.8577 36.0953   2
  12  -1   1 6.59872 21.3016   2
 -12   1  -1 50.5704 30.6957   2
  12  -1   1 37.7040 20.9974   3
  12   1   1 69.8456 28.2612   2
  13   1   1 68.9656 32.1202   2
  13  -1   1-3.06107 13.5794   3
  13  -1   1 68.7716 32.9287   2
 -13   1  -1-11.1972 25.8836   2
 -13  -1  -1 12.2598 22.5798   2
  14  -1   1-55.5491 32.0179   2
  14   1   1 29.9747 26.3797   2
  14  -1   1 0.76828 15.8359   3
 -14   1  -1 34.9070 39.3865   2
 -14  -1  -1-31.9553 33.0605   2
  15   1   1 1305.81 131.197   2
  15  -1   1 970.385 97.2435   3
  15  -1   1 1061.08 125.050   2
  16  -1   1 651.881 101.993   2
  16  -1   1 467.359 70.6712   3
  16   1   1 572.742 91.2746   2
  17  -1   1 263.981 55.1618   3
  17  -1   1 294.127 72.1063   2
  17   1   1 315.452 69.0147   2
  18  -1   1 8.49476 28.3223   2
  18   1   1 40.0951 31.9231   2
  19   1   1 145.726 51.0814   2
  19  -1   1 142.990 55.1950   2
  20   1   1-12.2315 24.1357   2
  20  -1   1 98.5383 46.6005   2
  21   1   1 64.0399 37.1208   2
  21  -1   1-24.6500 32.8115   2
  22  -1   1 55.9912 47.7020   2
  23  -1   1-30.5109 31.4829   2
  23  -2  -1 82.2427 54.8577   2
  22  -2  -1 44.7644 34.5521   2
  21  -2  -1 61.6171 37.6317   2
  20  -2  -1-3.88001 30.8219   2
  19  -2  -1 47.4340 31.9687   2
  18  -2  -1 207.563 60.4136   2
  17  -2  -1 270.712 66.2029   2
  17  -2  -1 197.314 46.5000   3
  17   2  -1 210.208 55.1327   2
 -16  -2   1 155.077 56.8521   2
  16  -2  -1 177.814 48.9652   2
  16   2  -1 226.698 52.4224   2
  16  -2  -1 160.267 41.6148   3
 -15   2   1 2049.43 197.950   2
 -15  -2   1 1687.91 162.906   2
  15  -2  -1 1989.71 165.507   2
  15   2  -1 2180.36 154.444   2
  15  -2  -1 1697.95 130.042   3
  14   2  -1 48.1143 31.3803   2
  14  -2  -1 16.0263 13.2465   3
 -14  -2   1 29.7956 28.5574   2
  14  -2  -1-15.7563 28.1181   2
  13   2  -1-15.8571 24.0216   2
 -13  -2   1 22.9849 20.2399   2
  13  -2  -1-17.3075 27.9817   2
  13  -2  -1-9.91346 16.3207   3
 -13   2   1 4.97336 22.4114   2
 -12   2   1 1227.92 136.223   2
  12   2  -1 1192.26 98.9875   2
  12  -2  -1 1239.52 116.837   2
  12  -2  -1 1009.11 92.1243   3
  11  -2  -1 294.886 50.3316   3
  11  -2  -1 434.630 70.0866   2
  11   2  -1 351.915 53.6275   2
 -10  -2   1 240.032 47.1558   2
  10  -2  -1 300.435 53.9876   2
  10  -2  -1 262.127 45.0396   3
  10   2  -1 292.530 44.1810   2
   9   2  -1 254.656 39.4698   2
  -9   2   1 252.640 55.4389   2
  -9  -2   1 250.151 44.1790   2
   9  -2  -1 220.531 49.8573   2
   8  -2  -1 10767.6 296.893   2
  -8  -2   1 10357.7 254.199   2
   8   2  -1 11544.6 238.456   2
  -8   2   1 10676.5 321.074   2
  -7   2   1 1054.94 96.3614   2
  -7  -2   1 1030.40 73.6313   2
  -7  -2   1 1091.14 50.2824   3
   7  -2  -1 1210.15 92.7501   2
  -6   2   1 865.150 82.0702   2
   6  -2  -1 990.771 86.2586   2
  -6  -2   1 956.009 63.4251   2
  -6  -2   1 928.305 39.4907   3
  -5  -2   1 27653.0 175.647   3
   5  -2  -1 28151.1 409.791   2
  -5  -2   1 28452.1 308.710   2
  -4  -2   1 4912.23 121.134   1
   4  -2  -1 4969.12 162.698   2
  -3  -2   1 18318.1 229.660   1
  -2  -2   1 659.863 44.2896   1
  -1  -2  -1 128.641 14.6654   1
   1  -2   1 131.549 19.6839   1
   2  -2   1 554.943 52.7344   2
   3  -2   1 316.984 44.0435   2
   4  -2   1 547.052 59.9974   2
   5  -2   1 11495.3 282.608   2
   5  -2   1 11992.9 256.295   3
  -5  -2  -1 12349.3 190.408   3
   6   2   1 165.888 32.8216   2
  -6  -2  -1 147.373 31.2932   2
   6  -2   1 152.891 38.3877   2
  -6  -2  -1 169.154 26.6309   3
   6  -2   1 96.3373 25.5807   3
  -7  -2  -1 1299.50 74.6156   3
   7   2   1 1411.07 92.3613   2
   7  -2   1 1179.14 92.0876   3
  -7  -2  -1 1080.84 89.3519   2
   7  -2   1 1361.11 118.709   2
   8  -2   1 958.170 83.2913   3
  -8  -2  -1 982.570 88.6528   2
  -8  -2  -1 985.730 68.5037   3
   8  -2   1 1145.62 104.039   2
   8   2   1 946.218 80.7477   2
  -8   2  -1 868.922 99.6932   2
   9  -2   1 9.99611 13.7094   3
   9   2   1 20.0421 19.7959   2
  -9  -2  -1-28.2953 21.7661   3
   9  -2   1 1.96945 21.6906   2
  10  -2   1 4949.30 232.091   2
 -10   2  -1 4787.10 256.258   2
 -10  -2  -1 4946.43 176.685   3
  10   2   1 5031.72 201.383   2
  10  -2   1 4627.56 194.115   3
 -11  -2  -1 457.746 75.3280   2
  11  -2   1 500.622 80.0388   2
  11  -2   1 459.387 63.6494   3
 -11  -2  -1 540.768 64.5893   3
 -11   2  -1 457.026 84.0619   2
  11   2   1 470.499 66.4881   2
  12  -2   1 261.281 57.0728   2
  12   2   1 353.467 60.3730   2
 -12  -2  -1 305.331 66.3574   2
 -12   2  -1 282.862 75.7710   2
  12  -2   1 328.544 57.3238   3
  13   2   1 3876.00 205.970   2
 -13  -2  -1 3591.05 235.523   2
 -13   2  -1 3868.68 263.623   2
  13  -2   1 3765.82 192.010   3
  13  -2   1 3936.42 231.221   2
  14   2   1 109.037 43.4278   2
  14  -2   1 23.6670 19.5234   3
  14  -2   1 107.869 47.5469   2
 -14  -2  -1 51.2500 38.1604   2
  15   2   1 125.693 44.3113   2
  15  -2   1 157.766 43.2134   3
  15  -2   1 132.911 44.1424   2
  16  -2   1 471.040 89.5572   2
  16   2   1 522.354 83.3148   2
  16  -2   1 326.473 63.1869   3
  17   2   1 34.2731 33.1606   2
  17  -2   1-1.70726 22.7556   2
  18  -2   1 152.654 55.6722   2
  19  -2   1 25.2979 30.5268   2
  20  -2   1 40.1016 28.0035   2
  21  -2   1-131.657 55.6845   2
  22  -2   1 186.727 67.9717   2
  23  -3  -1-63.7489 41.3492   2
  22  -3  -1-2.81029 28.7332   2
  21  -3  -1 64.3058 42.3669   2
  20  -3  -1 81.9066 33.9683   2
  19  -3  -1 65.7193 32.1914   2
  18  -3  -1 28.0498 30.1157   2
  17  -3  -1 33.3934 30.9381   2
  17  -3  -1 20.9160 23.0507   3
  16  -3  -1-13.1273 21.7115   3
 -16  -3   1 5.11394 22.5078   2
  15  -3  -1 1826.44 165.892   2
 -15  -3   1 1523.00 152.866   2
  15  -3  -1 1505.42 129.175   3
  14  -3  -1 216.576 49.1207   3
  14  -3  -1 266.649 64.1232   2
 -14  -3   1 268.463 61.7475   2
 -14   3   1 309.593 79.3231   2
  13  -3  -1 66.3353 35.4290   2
  13  -3  -1 42.6973 27.3415   3
 -13  -3   1 29.6173 24.1731   2
 -13   3   1 62.7082 47.3445   2
 -12   3   1 107.512 48.9896   2
  12  -3  -1 41.9429 28.3113   2
  12  -3  -1 88.9860 30.2834   3
 -11   3   1 772.164 110.999   2
  11  -3  -1 759.969 97.8994   2
 -10  -3   1 2.28801 12.5208   2
  10  -3  -1 22.9867 18.6716   2
   9  -3  -1 137.157 44.2236   2
  -9   3   1 168.929 50.8745   2
  -9  -3   1 131.448 21.6795   3
  -9  -3   1 87.1867 27.3479   2
  -8   3   1 1027.57 108.979   2
   8  -3  -1 958.693 100.363   2
  -8  -3   1 893.728 46.9381   3
  -8  -3   1 895.377 75.9941   2
  -7  -3   1 1529.54 91.2334   2
   7  -3  -1 1409.14 115.337   2
  -7  -3   1 1723.73 92.2710   1
  -7  -3   1 1444.74 52.9390   3
  -6  -3   1 8727.49 196.067   1
  -6  -3   1 8424.86 196.501   2
   6  -3  -1 8382.37 262.309   2
   5  -3  -1 272.069 47.5354   2
  -5  -3   1 295.351 38.2123   1
  -4  -3   1 65497.0 518.662   1
  -3  -3   1 63515.1 509.810   1
  -2   3   1 106747. 534.590   1
  -2  -3   1 109346. 646.762   1
  -1   3   1 181.562 22.4453   1
   1  -3  -1 193.422 22.6731   1
  -1  -3   1 175.418 27.7502   1
   0  -3   1 209.113 29.7424   1
   0  -3  -1 217.020 22.5665   1
   0   3   1 296.526 28.2557   1
  -1  -3  -1 29807.3 274.357   1
   1  -3   1 30848.5 332.505   1
   1   3   1 29297.3 249.673   1
  -2  -3  -1 15837.5 203.040   1
   2  -3   1 15652.6 311.678   2
  -3  -3  -1 24587.3 258.860   1
   3  -3   1 24102.2 407.058   2
   4  -3   1 126.016 37.6344   2
   5  -3   1 1249.23 103.917   2
   6  -3   1 1932.49 133.403   2
  -6  -3  -1 1997.27 112.745   2
  -7  -3  -1 1189.28 92.7258   2
  -7  -3  -1 1192.03 68.8398   3
   7  -3   1 1135.25 105.331   2
   7  -3   1 1148.47 94.7081   3
   8  -3   1 769.855 79.6138   3
  -8  -3  -1 702.793 76.3941   2
   8  -3   1 639.224 81.7958   2
  -8  -3  -1 692.538 57.1270   3
   9  -3   1 1513.29 132.953   2
   9  -3   1 1467.21 112.797   3
  -9  -3  -1 1689.01 91.3169   3
 -10  -3  -1 831.301 93.7002   2
 -10   3  -1 778.723 110.316   2
  10  -3   1 860.429 104.137   2
 -10  -3  -1 765.081 67.8327   3
  10  -3   1 795.785 85.2370   3
 -11  -3  -1 6.97795 20.6794   3
 -11  -3  -1 52.9981 31.6386   2
  11  -3   1 28.9078 20.5488   3
  11  -3   1 19.2586 22.8189   2
 -11   3  -1-0.14875 22.6333   2
 -12  -3  -1 3801.00 168.621   3
  12  -3   1 3622.00 195.662   3
 -12  -3  -1 4104.71 231.962   2
 -12   3  -1 3516.57 253.741   2
  12  -3   1 3835.31 230.946   2
 -13  -3  -1 287.074 66.5137   2
  13  -3   1 249.117 55.1502   3
 -13   3  -1 239.251 70.3211   2
  13  -3   1 271.657 64.2222   2
  14  -3   1 106.113 43.4284   2
  14  -3   1 79.1351 33.7358   3
 -14  -3  -1 10.6767 25.7749   2
  15  -3   1 126.221 44.5040   2
  15  -3   1 164.956 45.8319   3
  16  -3   1-79.1512 44.2738   2
  17  -3   1 41.3013 33.7465   2
  18  -3   1-24.0082 29.8351   2
  19  -3   1 592.650 110.946   2
  20  -3   1 13.2050 25.7207   2
  21  -3   1 2.99525 21.3249   2
  22  -3   1 10.3937 24.4246   2
  23  -4  -1 11.7185 24.0411   2
  22  -4  -1-69.1729 44.1655   2
 -21  -4   1 127.529 52.4064   1
  21  -4  -1 53.9760 25.3514   2
 -20  -4   1 67.4792 38.4441   1
  20  -4  -1-12.4935 23.5929   2
  19  -4  -1-3.68576 25.2766   2
 -19  -4   1 109.582 45.5434   1
  18  -4  -1 76.5343 35.7766   2
  17  -4  -1 138.363 51.5693   2
  16  -4  -1 117.725 51.3246   2
  15  -4  -1 201.124 50.1746   3
  15  -4  -1 298.579 73.0166   2
 -15  -4   1 165.350 53.6184   2
  14  -4  -1-7.32279 20.4390   2
  14  -4  -1 28.1901 24.3787   3
 -14  -4   1 48.6277 29.9317   2
 -13  -4   1 565.266 85.0183   2
  13  -4  -1 460.939 74.1747   3
  13  -4  -1 531.536 88.0195   2
  12  -4  -1 447.808 82.7703   2
 -12  -4   1 488.674 74.9460   2
 -11  -4   1 2400.43 136.292   1
 -11  -4   1 2195.58 92.3251   3
  11  -4  -1 2215.59 169.931   2
 -10  -4   1 241.154 45.7107   1
 -10  -4   1 221.296 28.1571   3
  10  -4  -1 224.653 52.5587   2
  -9  -4   1 680.754 43.8964   3
   9  -4  -1 600.440 83.7260   2
  -9  -4   1 700.902 72.7758   2
  -9  -4   1 753.619 71.1581   1
   8  -4  -1 10703.7 341.677   2
  -8  -4   1 10298.4 260.340   2
  -8  -4   1 10939.8 261.247   1
  -8  -4   1 10863.8 158.463   3
  -7  -4   1 11325.7 256.688   2
  -7  -4   1 11629.1 263.793   1
   7  -4  -1 11748.7 347.432   2
   6  -4  -1 434.097 69.1963   2
  -6  -4   1 512.667 58.0187   1
   5  -4  -1 2490.12 148.556   2
  -5  -4   1 2347.33 114.755   1
  -4   4   1 13848.6 242.974   1
  -4  -4   1 14427.3 279.749   1
  -3   4   1 89402.6 595.961   1
  -3  -4   1 90110.8 672.547   1
  -2   4   1-5.65736 12.5894   1
   2  -4  -1 56.8965 19.9074   1
  -2  -4   1 34.1293 22.3804   1
  -1   4   1 11928.1 203.829   1
  -1  -4   1 12068.7 241.674   1
   1  -4  -1 12060.8 197.823   1
   0  -4  -1 3362.39 107.664   1
   0   4   1 3338.09 106.245   1
   0  -4   1 3345.15 126.348   1
   1  -4   1 9083.53 202.173   1
  -1  -4  -1 9017.08 179.225   1
   1   4   1 9145.35 171.910   1
   2  -4   1 15661.0 267.123   1
   2   4   1 15915.6 215.755   1
  -2  -4  -1 16097.3 246.598   1
   3  -4   1 4980.92 203.750   2
  -3  -4  -1 4813.58 136.367   1
   4  -4   1 19.0518 34.2519   2
  -4  -4  -1 10.4214 14.1300   1
  -5  -4  -1 18569.4 281.738   1
   5  -4   1 18390.5 421.506   2
   6  -4   1 843.593 116.624   2
  -6  -4  -1 888.032 76.8235   2
  -7  -4  -1 63.3785 39.2546   2
   7  -4   1 209.376 75.2557   2
   8  -4   1 125.150 29.4135   2
  -8  -4  -1 162.493 27.7225   3
  -9   4  -1 225.009 59.0472   2
   9  -4   1 182.199 43.7511   3
   9  -4   1 227.651 57.0374   2
  -9  -4  -1 181.718 31.6980   3
  10  -4   1-11.7303 18.2672   3
 -10   4  -1-10.8176 27.2240   2
  10  -4   1-2.51705 34.8250   2
 -10  -4  -1 2.81488 20.5118   2
 -10  -4  -1 23.2847 19.7290   3
  11  -4   1 1360.45 140.919   2
 -11   4  -1 1562.28 167.489   2
 -11  -4  -1 1357.02 128.182   2
 -11  -4  -1 1387.03 92.6999   3
  11  -4   1 1244.75 116.833   3
  12  -4   1 44.4818 27.5868   2
 -12  -4  -1-23.4428 17.4223   3
 -12  -4  -1-43.2547 36.6853   2
 -12   4  -1 22.7190 38.2882   2
  12  -4   1-7.51765 16.0712   3
 -13  -4  -1 370.582 76.1118   2
 -13  -4  -1 427.604 59.6345   3
  13  -4   1 354.221 67.7528   3
  13  -4   1 366.570 75.8191   2
  14  -4   1 47.7544 38.2967   2
  15  -4   1 124.913 49.1582   2
  16  -4   1 183.960 56.6141   2
  17  -4   1 1317.88 160.899   2
  18  -4   1-15.7493 39.7204   2
  19  -4   1 149.757 56.5820   2
  20  -4   1 171.055 65.0432   2
  21  -4   1 25.0284 42.1058   2
  22  -4   1 18.3943 32.5237   2
  23  -5  -1 17.4721 24.4451   2
  22  -5  -1 139.297 60.7405   2
  21  -5  -1 20.8688 39.9860   2
  20  -5  -1 138.643 57.8641   2
 -20  -5   1 227.191 61.5425   1
  19  -5  -1-2.26804 22.3479   2
 -19  -5   1 55.3096 40.5477   1
  18  -5  -1 89.5753 46.0217   2
 -18  -5   1 97.6329 42.0646   1
  17  -5  -1 72.9388 44.7160   2
 -17  -5   1 117.491 46.7213   1
  16  -5  -1 141.901 52.8599   2
 -16  -5   1 187.920 49.8373   1
  15  -5  -1 274.065 72.5646   2
 -15  -5   1 331.620 72.7690   2
 -15  -5   1 386.102 67.5153   1
 -14  -5   1-13.3487 24.1713   2
 -14  -5   1 40.7175 36.7442   1
  14  -5  -1-16.2416 27.3071   3
  14  -5  -1 3.64149 33.3986   2
 -13  -5   1 166.001 46.7473   2
  13  -5  -1 154.218 54.1554   2
 -13  -5   1 328.001 61.6465   1
 -12  -5   1 51.6497 34.7269   2
 -12  -5   1 63.1603 17.5084   3
 -12  -5   1 39.9767 28.7935   1
  12  -5  -1 77.1137 36.9355   2
  11  -5  -1-9.23604 29.9378   2
 -11  -5   1 21.7102 12.5093   3
 -11  -5   1 54.1553 26.6289   1
 -11  -5   1 38.6068 25.5294   2
  10  -5  -1 2554.35 189.910   2
 -10  -5   1 2311.82 139.277   1
 -10  -5   1 2168.48 82.7915   3
   9  -5  -1 134.694 45.6015   2
  -9  -5   1 143.245 35.9846   1
  -9  -5   1 155.014 21.7733   3
  -8  -5   1 6801.04 221.882   2
   8  -5  -1 6535.28 288.606   2
  -8  -5   1 6976.84 228.664   1
  -7  -5   1 3089.93 149.506   1
   7  -5  -1 2820.75 187.229   2
   6  -5  -1-31.3340 33.1324   2
  -6  -5   1 8.98972 19.8684   1
  -5  -5   1 2891.65 138.561   1
  -5   5   1 2962.40 132.678   1
  -4   5   1 3450.36 137.810   1
  -4  -5   1 3397.51 147.438   1
  -3  -5   1 10486.3 253.162   1
   3   5  -1 10713.6 245.763   1
  -3   5   1 10138.0 228.087   1
  -2   5   1 10017.8 219.043   1
   2  -5  -1 9861.69 204.216   1
  -2  -5   1 9970.53 243.679   1
   2   5  -1 9995.29 240.867   1
  -1   5   1 13.6566 10.9939   1
   1   5  -1 51.3869 20.1591   1
  -1  -5   1 11.2826 13.2266   1
   1  -5  -1 9.80313 12.5146   1
   0   5   1 3511.40 124.701   1
   0  -5  -1 3689.84 129.349   1
   0  -5   1 3732.66 147.353   1
   0   5  -1 3734.00 150.787   1
  -1  -5  -1 4911.13 152.804   1
   1  -5   1 4769.83 165.768   1
   1   5   1 4898.47 145.277   1
  -1   5  -1 4801.66 171.586   1
   2   5   1 4115.81 125.624   1
  -2   5  -1 4151.90 163.233   1
   2  -5   1 3971.59 148.989   1
  -2  -5  -1 4109.97 141.239   1
  -3   5  -1 1198.24 90.4865   1
  -3  -5  -1 1105.00 75.4883   1
  -4  -5  -1 1382.20 86.9726   1
  -4   5  -1 1438.38 101.831   1
   4  -5   1 1446.61 125.709   2
   5  -5   1 1690.81 140.670   2
  -5   5  -1 1638.20 111.498   1
  -5  -5  -1 1767.59 100.111   1
  -6   5  -1 740.971 76.9468   1
   6  -5   1 739.551 108.238   2
  -6  -5  -1 657.869 63.1370   1
  -7  -5  -1-30.3305 25.1234   1
   7  -5   1 32.6615 28.8973   2
   8  -5   1 118.379 44.0390   2
  -8  -5  -1 166.934 36.7938   1
  -9  -5  -1 3649.81 160.770   1
   9  -5   1 3728.50 232.097   2
  -9  -5  -1 3295.05 180.677   2
  10  -5   1 67.8488 39.5733   2
 -10  -5  -1 46.9369 19.3832   3
  10  -5   1 56.0807 34.2609   3
 -10  -5  -1 76.7551 31.6391   2
 -11  -5  -1 3127.22 197.380   2
  11  -5   1 3056.31 192.499   3
  11  -5   1 3081.03 221.236   2
 -11  -5  -1 3090.79 136.127   3
  12  -5   1 499.368 82.3560   3
 -12  -5  -1 528.940 85.3155   2
 -12  -5  -1 562.192 63.0134   3
  12  -5   1 504.807 93.3963   2
 -13  -5  -1-15.0919 31.8031   2
 -13  -5  -1 15.9611 16.6010   3
  13  -5   1 34.3608 38.4820   2
 -14  -5  -1 941.244 90.7334   3
  14  -5   1 875.546 127.853   2
  15  -5   1-15.0581 21.5873   2
  16  -5   1 172.140 59.7189   2
  17  -5   1 73.5979 36.9837   2
  18  -5   1-56.9639 43.4129   2
  19  -5   1-95.2949 51.9020   2
 -19  -5  -1 96.5586 43.4514   1
 -20  -5  -1 133.903 51.4915   1
  20  -5   1 161.067 64.5808   2
  21  -5   1 182.079 76.5872   2
  22  -6  -1-25.7516 35.3045   2
  21  -6  -1-46.5136 39.6374   2
 -20  -6   1 23.0835 25.3580   1
  20  -6  -1-5.67936 29.3942   2
 -19  -6   1 28.2235 19.5974   1
  19  -6  -1 117.536 56.3123   2
 -18  -6   1 54.6890 30.0591   1
  18  -6  -1-18.8260 35.4604   2
  17  -6  -1 22.9899 32.8073   2
 -17  -6   1 16.6293 23.0476   1
 -16  -6   1 503.671 82.1063   1
  16  -6  -1 644.315 115.681   2
  15  -6  -1 109.859 47.2789   2
 -15  -6   1 228.618 54.7530   1
  14  -6  -1 375.766 82.2104   2
 -14  -6   1 298.199 67.7297   2
 -14  -6   1 426.794 76.4494   1
 -13  -6   1 33.8918 31.5098   1
 -13  -6   1 3.79166 11.5977   3
 -13  -6   1 11.8423 16.5712   2
  13  -6  -1-14.9260 30.0138   2
 -12  -6   1 807.627 57.0472   3
  12  -6  -1 1149.84 141.530   2
 -12  -6   1 813.558 98.4567   2
 -12  -6   1 872.468 98.8271   1
  11  -6  -1 55.4741 40.2146   2
 -11  -6   1 8.34247 8.40529   3
 -11  -6   1-4.13454 16.5124   2
 -11  -6   1 50.2169 33.3174   1
  10  -6  -1-6.23899 35.7090   2
 -10  -6   1 24.7405 26.5819   1
 -10  -6   1 37.2282 21.7411   2
   9  -6  -1 18.7235 31.2620   2
  -9  -6   1-8.66199 22.5532   1
   8  -6  -1 212.364 58.4093   2
  -8  -6   1 242.657 47.8013   1
   7  -6  -1 284.274 73.8970   2
  -7  -6   1 175.557 42.1657   1
  -7   6   1 192.283 42.6340   1
  -6   6   1 1463.14 107.524   1
  -6  -6   1 1291.19 106.093   1
  -5  -6   1 1200.62 99.1582   1
  -5   6   1 1057.77 90.8149   1
   5   6  -1 1150.20 84.8113   1
  -4   6   1 1601.25 103.474   1
  -4  -6   1 1503.99 106.768   1
   4   6  -1 1623.74 101.665   1
  -3   6   1 340.472 47.7512   1
  -3  -6   1 373.792 52.5991   1
   3   6  -1 362.328 48.7304   1
   2  -6  -1 1783.46 95.3329   1
  -2  -6   1 1838.82 113.507   1
  -2   6   1 1866.56 107.441   1
   2   6  -1 1699.91 108.875   1
   1  -6  -1 913.267 70.3058   1
  -1   6   1 1077.11 78.5664   1
   1   6  -1 882.566 80.6337   1
  -1  -6   1 935.349 82.5195   1
   0   6   1 856.319 68.8374   1
   0  -6   1 799.136 74.1486   1
   0  -6  -1 886.940 70.7046   1
   0   6  -1 800.512 77.4445   1
  -1  -6  -1 840.457 71.8159   1
   1   6   1 824.349 67.6632   1
   1  -6   1 858.763 76.8081   1
  -1   6  -1 805.371 77.7043   1
   2  -6   1 73.6902 25.1310   1
  -2   6  -1 66.0389 25.6654   1
  -2  -6  -1 47.3591 21.5259   1
   2   6   1 63.0069 19.7658   1
   3   6   1 838.022 62.5744   1
  -3   6  -1 781.902 79.3319   1
  -3  -6  -1 858.485 75.5097   1
   4  -6   1 13785.1 408.304   2
  -4  -6  -1 14021.0 303.729   1
  -4   6  -1 14173.5 341.017   1
  -5  -6  -1 4222.38 173.028   1
   5  -6   1 4512.08 239.546   2
  -5   6  -1 4365.71 194.739   1
  -6  -6  -1 6010.52 210.874   1
   6  -6   1 5673.05 275.077   2
   7  -6   1 309.418 76.3800   2
  -7  -6  -1 250.927 45.9651   1
  -8  -6  -1 363.546 56.1497   1
  -8   6  -1 299.633 57.7875   1
  -8  -6  -1 352.918 60.0729   2
   8  -6   1 288.838 67.7395   2
  -9  -6  -1 21.7136 19.0662   2
   9  -6   1 50.0101 43.5757   2
  -9  -6  -1 71.9124 33.1201   1
 -10  -6  -1 96.8646 38.9930   1
  10  -6   1 85.7577 49.9512   2
 -10  -6  -1 95.5627 34.8270   2
  11  -6   1 3133.74 206.843   3
  11  -6   1 3349.13 240.414   2
 -11  -6  -1 3444.54 207.400   2
 -11  -6  -1 3404.46 142.004   3
 -11  -6  -1 3181.68 172.390   1
  12  -6   1 740.577 118.467   2
 -12  -6  -1 734.229 86.7473   1
 -12  -6  -1 702.119 68.4636   3
 -12  -6  -1 586.867 89.5345   2
 -13  -6  -1 1732.91 136.391   1
  13  -6   1 1881.38 189.585   2
 -13  -6  -1 1752.53 111.706   3
 -14  -6  -1 539.494 81.0504   1
  14  -6   1 392.476 87.3513   2
 -14  -6  -1 449.420 61.8721   3
 -15  -6  -1 4.30160 20.9546   3
 -15  -6  -1 77.7945 39.9224   1
  16  -6   1 58.6496 40.2116   2
 -16  -6  -1 126.083 45.6973   1
 -17  -6  -1 170.368 47.6389   1
  17  -6   1 63.5000 43.4688   2
  18  -6   1 90.4066 51.6123   2
 -18  -6  -1 153.315 51.3807   1
 -19  -6  -1 57.9794 34.7108   1
  19  -6   1-35.8698 37.3493   2
  20  -6   1 472.116 112.264   2
 -20  -6  -1 457.984 86.3388   1
  21  -6   1 11.6863 36.9106   2
  21  -7  -1 128.463 59.2051   2
  20  -7  -1 197.782 72.3000   2
 -20  -7   1 153.376 57.7251   1
 -19  -7   1-39.3181 33.9638   1
  19  -7  -1 41.9543 37.8902   2
  18  -7  -1 44.9662 29.7016   2
 -18  -7   1 49.0348 40.2085   1
 -17  -7   1 24.0245 27.6431   1
  17  -7  -1 56.6736 38.7954   2
 -16  -7   1-11.1104 27.1741   1
  16  -7  -1 23.1515 34.9975   2
 -15  -7   1 102.206 39.9075   1
  15  -7  -1 23.2751 39.9964   2
 -14  -7   1 710.383 100.338   1
  14  -7  -1 773.382 123.009   2
 -14  -7   1 561.498 52.2607   3
 -13  -7   1 54.0075 16.6433   3
 -13  -7   1 72.7863 30.1800   1
  13  -7  -1 54.5147 47.9177   2
 -13  -7   1 49.2891 36.4305   2
  12  -7  -1 10.7718 31.8963   2
 -12  -7   1-35.7222 28.0741   1
 -12  -7   1 5.18346 9.28485   3
 -12  -7   1 16.5404 21.5711   2
 -11  -7   1 1804.60 82.8260   3
  11  -7  -1 2031.42 192.936   2
 -11  -7   1 2076.12 159.021   1
 -11  -7   1 2013.90 150.267   2
 -10  -7   1 2102.66 146.736   2
  10  -7  -1 1925.89 188.258   2
 -10  -7   1 2101.37 155.435   1
  -9  -7   1 1020.30 108.772   1
   9  -7  -1 987.870 129.919   2
  -9   7   1 1150.45 112.477   1
  -8  -7   1-8.59255 30.3395   1
   8  -7  -1 9.77353 29.1784   2
  -7  -7   1 1920.90 137.186   1
   7  -7  -1 1864.60 168.090   2
  -6  -7   1 2609.95 158.951   1
  -6   7   1 2520.91 150.526   1
  -5  -7   1 1883.07 130.329   1
  -5   7   1 1715.72 120.675   1
  -4   7   1 127.792 37.4157   1
  -4  -7   1 150.266 41.7718   1
  -3   7   1 60.1815 23.5233   1
   3  -7  -1 94.7681 28.3345   1
   3   7  -1 29.7383 20.0103   1
  -3  -7   1 38.2077 20.6122   1
   2   7  -1 564.461 69.2549   1
   2  -7  -1 703.048 68.1205   1
  -2   7   1 588.248 65.8680   1
  -2  -7   1 607.090 72.6768   1
   1   7  -1 1672.34 117.838   1
   1  -7  -1 1539.24 99.8188   1
  -1  -7   1 1541.21 111.494   1
  -1   7   1 1495.00 101.605   1
   0   7  -1 1010.27 92.1878   1
   0  -7  -1 1070.24 85.1113   1
   0   7   1 965.240 79.6632   1
   0  -7   1 971.401 87.7220   1
   1   7   1 337.004 48.3723   1
   1  -7   1 409.457 57.1595   1
  -1   7  -1 254.351 47.8205   1
  -1  -7  -1 383.816 54.6369   1
   2   7   1 12.3833 16.9770   1
  -2  -7  -1 12.1172 18.5532   1
  -2   7  -1-26.2535 29.9287   1
   2  -7   1 4.00142 17.5378   1
  -3   7  -1 760.410 84.2523   1
   3   7   1 822.728 67.8641   1
   3  -7   1 810.882 79.2702   1
  -3  -7  -1 775.418 76.8298   1
  -4  -7  -1 1144.43 95.4969   1
   5  -7   1 7854.47 332.986   2
  -5  -7  -1 8021.76 254.987   1
   6  -7   1 29.6354 31.7972   2
  -6  -7  -1 9.50557 21.3007   1
  -7   7  -1 4.40108 19.2562   1
   7  -7   1-31.8606 35.6257   2
  -7  -7  -1 0.57588 19.2794   1
   8  -7   1 103.177 38.7762   2
  -8   7  -1 139.913 44.0558   1
  -8  -7  -1 154.346 41.5610   1
   9  -7   1 2145.87 195.520   2
  -9  -7  -1 2364.24 164.231   2
  -9  -7  -1 2053.17 144.648   1
  -9   7  -1 2433.04 178.183   1
 -10  -7  -1 2391.81 170.487   2
  10  -7   1 2411.52 210.396   2
 -10   7  -1 2509.85 185.950   1
 -10  -7  -1 2224.98 153.418   1
 -11  -7  -1 411.626 51.5293   3
  11  -7   1 430.452 90.6647   2
 -11  -7  -1 392.338 72.0749   2
 -11  -7  -1 415.097 69.0729   1
  12  -7   1 1965.65 196.917   2
 -12  -7  -1 1996.43 114.162   3
 -12  -7  -1 2150.84 156.751   1
 -13  -7  -1-5.04599 21.6167   1
  13  -7   1 36.1950 33.6802   2
 -13  -7  -1-6.57243 19.0852   3
 -14  -7  -1 19.1492 13.6396   3
  14  -7   1-20.5348 32.7420   2
 -14  -7  -1 45.9243 30.6841   1
 -15  -7  -1 737.547 101.439   1
  15  -7   1 746.405 132.523   2
 -15  -7  -1 738.125 81.0639   3
 -16  -7  -1 18.5564 24.5430   1
  16  -7   1-1.66470 37.9610   2
  17  -7   1 154.527 61.4174   2
 -17  -7  -1 98.9188 46.9572   1
 -18  -7  -1 50.6477 35.2251   1
  18  -7   1-40.6122 38.2175   2
 -19  -7  -1 22.8976 34.0703   1
  19  -7   1-8.33031 23.0913   2
  20  -7   1 23.0538 34.0947   2
  21  -8  -1 178.596 76.2022   2
  20  -8  -1 41.6609 31.7602   2
  19  -8  -1 222.019 77.4090   2
 -19  -8   1 186.476 66.0539   1
  18  -8  -1 46.9160 43.8908   2
 -18  -8   1-26.1575 41.5691   1
  17  -8  -1 44.0598 46.3820   2
 -17  -8   1-14.9757 32.6482   1
 -16  -8   1 58.0714 45.6951   1
  16  -8  -1-113.717 56.8579   2
 -15  -8   1 372.184 79.1693   1
  15  -8  -1 216.559 65.4799   2
  14  -8  -1 523.571 108.965   2
 -14  -8   1 319.540 39.5616   3
 -14  -8   1 389.873 82.3755   1
 -13  -8   1 0.40593 26.7406   1
  13  -8  -1 25.6496 31.3057   2
 -13  -8   1-0.69680 12.8934   3
 -12  -8   1 111.761 22.4064   3
 -12  -8   1 120.411 41.0986   2
  12  -8  -1 265.609 81.5220   2
 -12  -8   1 114.003 38.9785   1
 -11  -8   1 677.563 89.7483   2
 -11  -8   1 565.185 87.0371   1
  11  -8  -1 631.505 111.230   2
 -11   8   1 612.801 95.4033   1
  10  -8  -1 997.049 138.733   2
 -10   8   1 1061.58 118.415   1
 -10  -8   1 1080.51 120.314   1
  -9   8   1 54.8698 36.7603   1
   9  -8  -1 6.90198 43.4025   2
  -9  -8   1-27.7549 48.1661   1
   8  -8  -1-23.3071 34.1188   2
  -8  -8   1 85.0450 43.2405   1
  -8   8   1 56.0130 32.2025   1
  -7  -8   1 877.230 99.6286   1
   7  -8  -1 878.943 120.713   2
  -6  -8   1 1337.38 121.157   1
   6   8  -1 1780.98 117.087   1
  -5  -8   1 534.438 75.3724   1
   5   8  -1 532.241 66.0839   1
  -5   8   1 517.362 71.1838   1
  -4   8   1-3.49863 22.6327   1
  -4  -8   1-25.2679 27.3177   1
   3  -8  -1 2334.79 129.144   1
  -3   8   1 2351.05 142.638   1
  -3  -8   1 2293.52 149.784   1
  -2  -8   1 279.668 52.7188   1
  -2   8   1 294.840 50.9635   1
   2  -8  -1 272.261 47.2540   1
  -1   8   1 136.916 34.3704   1
   1  -8  -1 125.268 33.1059   1
  -1  -8   1 74.3171 27.9532   1
   0  -8   1 559.966 70.6877   1
   0   8   1 583.599 68.2393   1
   0  -8  -1 577.017 68.3418   1
   1   8   1-8.26086 20.2849   1
  -1  -8  -1 12.5264 21.5054   1
   1  -8   1-5.92431 20.8069   1
   2   8   1 153.198 35.7720   1
  -2  -8  -1 111.660 27.9046   1
   2  -8   1 136.431 36.8689   1
   3  -8   1 12454.6 322.011   1
  -3  -8  -1 12216.9 328.707   1
   3   8   1 12077.9 281.463   1
  -4  -8  -1 1342.31 110.140   1
   5  -8   1 333.737 76.0588   2
  -5  -8  -1 556.270 72.3614   1
  -5   8  -1 453.913 72.7959   1
   6  -8   1 149.967 50.9142   2
  -6  -8  -1 166.188 45.6916   1
  -6   8  -1 259.804 57.7688   1
  -7   8  -1 1197.74 124.721   1
  -7  -8  -1 1055.64 106.323   1
   7  -8   1 986.589 135.487   2
   8  -8   1 1029.36 137.110   2
  -8   8  -1 1233.03 129.907   1
  -8  -8  -1 1189.84 117.315   1
  -9  -8  -1 119.811 39.9595   2
   9  -8   1 147.966 51.7234   2
  -9   8  -1 122.995 45.9257   1
  -9  -8  -1 86.6057 37.9402   1
 -10  -8  -1 110.858 42.3330   1
  10  -8   1 96.0224 47.0024   2
 -11  -8  -1 0.58105 27.1085   1
  11  -8   1 87.1948 57.8387   2
 -12  -8  -1 1326.98 136.620   1
  12  -8   1 1107.94 153.353   2
 -12  -8  -1 1199.32 88.9832   3
 -13  -8  -1 286.169 69.4434   1
  13  -8   1 222.548 73.1095   2
 -13  -8  -1 225.023 40.4140   3
  14  -8   1 223.455 74.8224   2
 -14  -8  -1 294.460 68.4594   1
 -14  -8  -1 177.756 38.2889   3
 -15  -8  -1 23.5527 21.1065   3
 -15  -8  -1 6.69711 24.3903   1
  16  -8   1-28.8651 38.2842   2
 -16  -8  -1-11.7431 26.7085   1
  17  -8   1 108.765 57.6996   2
 -17  -8  -1-9.72837 30.3412   1
  18  -8   1 36.2901 39.3994   2
 -18  -8  -1-21.7132 23.4485   1
 -19  -8  -1-3.06293 21.8651   1
  19  -8   1-64.9641 46.3805   2
  20  -9  -1 78.3761 50.8316   2
 -19  -9   1 48.3563 36.6162   1
  19  -9  -1 11.5754 32.6215   2
  18  -9  -1 63.1836 37.5543   2
 -18  -9   1 62.6226 41.2825   1
 -17  -9   1 122.760 58.9781   1
  17  -9  -1 66.2667 50.1206   2
  16  -9  -1 490.542 113.192   2
 -16  -9   1 572.812 106.867   1
  15  -9  -1-19.4774 33.2051   2
 -15  -9   1 96.7128 50.7990   1
 -14  -9   1 139.452 25.8560   3
 -14  -9   1 127.105 53.0265   1
  14  -9  -1 205.257 70.7092   2
 -13  -9   1 673.890 108.399   1
  13  -9  -1 500.601 110.006   2
 -13  -9   1 541.226 51.3983   3
  12  -9  -1-57.7952 47.7416   2
 -12  -9   1 3.49446 33.6965   1
 -11  -9   1 54.6088 33.3561   1
 -11   9   1 109.792 42.5819   1
  11  -9  -1 134.885 60.2129   2
  10  -9  -1 58.7857 50.1187   2
 -10  -9   1 65.7406 44.5209   1
 -10   9   1-3.61794 24.7863   1
  -9  -9   1 675.943 100.770   1
   9  -9  -1 705.521 119.740   2
  -9   9   1 688.897 98.9410   1
  -8  -9   1 838.749 107.061   1
   8  -9  -1 886.786 134.273   2
  -8   9   1 927.103 112.373   1
  -7  -9   1 392.389 72.4693   1
  -7   9   1 384.138 70.9950   1
  -6  -9   1 382.329 71.5875   1
   6   9  -1 448.380 62.5245   1
   5   9  -1 468.083 67.6467   1
  -5  -9   1 444.211 71.4148   1
   4   9  -1 1105.63 102.211   1
  -4  -9   1 1061.46 109.805   1
   3   9  -1 464.170 70.3700   1
   3  -9  -1 516.583 65.6636   1
  -3   9   1 495.753 73.3607   1
  -3  -9   1 468.414 74.2423   1
  -2   9   1 1503.11 122.040   1
  -2  -9   1 1600.16 131.412   1
   2  -9  -1 1549.20 114.674   1
  -1  -9   1 681.191 85.7883   1
  -1   9   1 576.521 74.1194   1
   1  -9  -1 585.390 73.8935   1
   0   9   1 63.3219 21.3180   1
   0  -9   1 63.6423 25.2518   1
   0  -9  -1 67.4340 27.4579   1
  -1  -9  -1 15.3731 21.5909   1
   1  -9   1-22.1862 31.9062   1
  -2  -9  -1 579.413 76.9820   1
   2  -9   1 515.408 74.3442   1
  -3   9  -1 1961.05 154.967   1
   3  -9   1 1849.50 136.532   1
  -3  -9  -1 1974.90 140.615   1
  -4  -9  -1 1493.75 124.775   1
  -4   9  -1 1551.24 139.423   1
  -5   9  -1 137.720 46.0160   1
  -5  -9  -1 206.492 52.0633   1
   6  -9   1 602.121 109.842   2
  -6  -9  -1 614.391 84.0196   1
  -6   9  -1 532.630 87.5194   1
  -7   9  -1 876.637 112.862   1
  -7  -9  -1 810.854 102.015   1
   7  -9   1 666.846 119.911   2
  -8  -9  -1 395.659 75.2503   1
  -8   9  -1 323.134 72.5857   1
   8  -9   1 294.449 79.6415   2
  -9  -9  -1 1402.32 138.469   1
  -9   9  -1 1422.15 151.394   1
   9  -9   1 1318.91 165.186   2
  10  -9   1 340.053 81.3705   2
 -10  -9  -1 342.321 74.6822   1
  11  -9   1 326.984 86.0946   2
 -11  -9  -1 334.127 72.2224   1
  12  -9   1 44.0379 46.8234   2
 -12  -9  -1-22.2577 36.3448   1
 -13  -9  -1 75.9631 25.3588   3
 -13  -9  -1-21.9555 38.8637   1
  13  -9   1 138.117 66.6501   2
  14  -9   1 118.519 59.1222   2
 -14  -9  -1 10.5250 14.3808   3
 -14  -9  -1 27.9420 28.0800   1
  15  -9   1-39.4172 38.2766   2
 -15  -9  -1-8.67388 34.0631   1
 -16  -9  -1 1.49514 22.7161   1
  16  -9   1 50.5983 37.9032   2
  17  -9   1 278.569 93.0032   2
 -17  -9  -1 314.543 82.5786   1
  18  -9   1 19.6543 54.2747   2
 -18  -9  -1 68.6006 49.7352   1
  19 -10  -1 17.3008 32.3963   2
  18 -10  -1 146.736 71.5837   2
 -18 -10   1 61.2808 43.1674   1
 -17 -10   1 17.8722 27.1503   1
  17 -10  -1 71.9247 49.7631   2
  16 -10  -1 266.848 87.8634   2
 -16 -10   1 135.931 56.8896   1
  15 -10  -1 403.248 99.1145   2
 -15 -10   1 217.256 70.4615   1
  14 -10  -1 40.5170 42.3872   2
 -14 -10   1 8.09612 31.7275   1
  13 -10  -1 45.3216 29.2709   2
 -13 -10   1 57.8252 19.4552   3
 -12 -10   1 159.667 55.6909   1
  12 -10  -1 229.029 76.9135   2
  11 -10  -1 752.437 134.766   2
 -11 -10   1 714.474 110.382   1
 -10 -10   1 138.644 51.3597   1
  10 -10  -1 161.564 62.7024   2
 -10  10   1 128.446 49.6037   1
  -9  10   1 86.0867 43.2158   1
  -9 -10   1 64.6690 27.9154   1
   9 -10  -1 103.856 59.6957   2
  -8  10   1 66.2557 32.7833   1
  -8 -10   1 80.5512 41.9729   1
   8 -10  -1 43.2035 58.9449   2
  -7 -10   1 1231.47 134.971   1
  -7  10   1 1493.12 144.581   1
  -6 -10   1 152.699 49.3171   1
  -6  10   1 213.782 55.9192   1
   6  10  -1 214.608 46.5423   1
   5  10  -1 62.9972 29.5195   1
  -5 -10   1-37.8305 37.2781   1
  -5  10   1 51.4160 29.1058   1
   4  10  -1 276.252 57.8227   1
  -4 -10   1 350.136 72.4843   1
  -3 -10   1 74.9440 36.2444   1
   3  10  -1 63.4469 27.0602   1
   3 -10  -1 58.7856 24.8631   1
  -2 -10   1 452.684 76.4182   1
   2  10  -1 349.272 64.2804   1
   2 -10  -1 362.611 58.8726   1
  -1 -10   1-13.0562 24.1951   1
   1  10  -1 35.5254 27.2417   1
   1 -10  -1-30.4845 28.4340   1
   0 -10   1 660.179 89.6881   1
   0 -10  -1 541.998 75.2291   1
   0  10  -1 627.116 89.0554   1
   1 -10   1 770.730 95.3904   1
  -1  10  -1 760.077 100.738   1
  -1 -10  -1 776.896 90.7968   1
   2 -10   1 130.183 40.3253   1
  -2  10  -1 167.554 47.9314   1
  -2 -10  -1 161.081 44.1760   1
   3 -10   1 3019.94 179.051   1
   3  10   1 2810.21 153.922   1
  -3 -10  -1 3029.29 185.119   1
  -3  10  -1 3024.09 204.541   1
  -4 -10  -1 18.9911 26.7926   1
   4  10   1 76.8668 29.7498   1
  -4  10  -1-19.4352 27.6595   1
  -5 -10  -1 222.567 57.6261   1
  -5  10  -1 121.355 40.7054   1
  -6 -10  -1 1647.19 143.531   1
  -6  10  -1 1639.23 159.693   1
   6 -10   1 1723.15 186.081   2
   7 -10   1 1503.55 180.567   2
  -7 -10  -1 1677.50 149.925   1
  -7  10  -1 1757.06 166.650   1
   8 -10   1 816.399 136.181   2
  -8 -10  -1 862.966 112.848   1
  -9 -10  -1-40.3959 38.6948   1
   9 -10   1 46.8792 39.5044   2
 -10 -10  -1 747.417 110.733   1
  10 -10   1 706.913 132.655   2
  11 -10   1 29.6371 31.8256   2
 -11 -10  -1-19.6220 27.3961   1
  12 -10   1 219.548 84.8986   2
 -12 -10  -1 118.545 43.7717   1
  13 -10   1 4.11144 43.2573   2
 -13 -10  -1-43.5959 35.0154   1
  14 -10   1 12.9292 39.8762   2
 -14 -10  -1 11.9351 34.2324   1
 -15 -10  -1 1.09361 35.2988   1
  15 -10   1 24.9100 52.5629   2
  16 -10   1 124.234 55.9669   2
 -16 -10  -1 28.8904 29.4061   1
  17 -10   1-2.33051 36.5796   2
 -17 -10  -1 55.0406 35.6530   1
 -18 -10  -1-46.2800 40.5641   1
 -17 -11   1 58.6722 44.8838   1
  17 -11  -1 81.3764 61.9701   2
 -16 -11   1-9.42095 31.0663   1
  16 -11  -1-130.713 64.8522   2
 -15 -11   1 83.6837 53.3156   1
  15 -11  -1 29.9223 48.5549   2
 -14 -11   1 126.812 64.9297   1
  14 -11  -1 337.295 104.609   2
 -13 -11   1 49.3802 35.6649   1
  13 -11  -1 15.1376 33.2961   2
  12 -11  -1 5.27609 28.4757   2
 -12 -11   1 64.7405 40.3925   1
  11 -11  -1-41.7698 46.4324   2
 -11 -11   1 7.99882 32.0378   1
 -10 -11   1 653.886 109.668   1
  10 -11  -1 539.702 114.289   2
   9 -11  -1 75.6254 52.6475   2
  -9  11   1 147.165 55.6336   1
  -9 -11   1 160.842 53.7184   1
   8 -11  -1 57.1587 45.7389   2
  -8 -11   1 5.05236 26.7159   1
  -8  11   1 39.0076 44.7369   1
  -7  11   1 108.493 40.7809   1
  -7 -11   1 23.0483 31.8213   1
  -6 -11   1-40.7586 41.0845   1
  -6  11   1 6.55724 22.7774   1
  -5  11   1 73.4831 34.2263   1
   5  11  -1 38.5341 28.6104   1
  -5 -11   1-46.5845 38.2059   1
  -4 -11   1 76.5430 40.6182   1
   4  11  -1 17.3575 23.3733   1
  -4  11   1 19.1874 23.9068   1
  -3 -11   1 88.3771 43.3855   1
   3 -11  -1 131.514 38.1811   1
  -3  11   1 106.556 38.2902   1
   3  11  -1 160.373 45.3244   1
  -2  11   1 105.242 40.2950   1
  -2 -11   1 28.1844 23.1917   1
   2 -11  -1 66.3345 32.4296   1
   2  11  -1 118.102 41.5805   1
   1  11  -1-23.4801 27.6221   1
   1 -11  -1-7.55567 20.8560   1
  -1  11   1 26.1320 23.1482   1
  -1 -11   1 55.9599 31.7912   1
   0  11  -1 25.8292 28.1031   1
   0  11   1-23.4118 25.8157   1
   0 -11   1 18.4334 22.9173   1
   0 -11  -1-44.1473 35.8205   1
   1  11   1 604.123 81.8751   1
  -1 -11  -1 546.232 80.8751   1
   1 -11   1 491.172 79.8481   1
  -1  11  -1 557.831 91.2678   1
  -2  11  -1 104.593 43.4803   1
  -2 -11  -1 76.6844 36.0597   1
   2 -11   1 103.828 43.1937   1
   2  11   1 107.007 33.8382   1
  -3 -11  -1-2.37765 22.8740   1
  -3  11  -1-1.81261 19.1398   1
   3  11   1 21.2473 21.4872   1
   3 -11   1 12.3019 23.3187   1
  -4  11  -1 359.263 75.6998   1
  -4 -11  -1 267.454 62.7537   1
   4  11   1 501.434 67.4204   1
  -5 -11  -1 1168.06 127.079   1
  -5  11  -1 1316.67 146.511   1
  -6 -11  -1 41.5560 23.0268   1
  -6  11  -1 26.5008 25.4224   1
   6 -11   1 34.3334 43.0318   2
   7 -11   1 1352.16 177.986   2
  -7 -11  -1 1311.02 139.534   1
   8 -11   1 136.850 63.2523   2
  -8 -11  -1 247.900 67.0669   1
  -9 -11  -1 89.1040 50.4952   1
   9 -11   1-1.29700 39.7418   2
 -10 -11  -1 14.8500 29.0845   1
  10 -11   1-40.8540 56.1714   2
 -11 -11  -1-2.59128 25.2217   1
  11 -11   1-28.7810 44.8328   2
  12 -11   1-11.5515 36.5392   2
 -12 -11  -1 19.0284 31.8012   1
  13 -11   1-14.3581 45.5469   2
 -13 -11  -1-29.8788 23.7786   1
  14 -11   1 3.52533 26.6887   2
 -14 -11  -1-8.95914 45.6637   1
 -15 -11  -1 136.853 60.7153   1
  15 -11   1 227.653 82.7952   2
  16 -11   1-94.3092 57.0693   2
 -16 -11  -1-18.4400 39.6085   1
 -17 -11  -1 101.014 54.3897   1
 -16 -12   1 22.8927 34.8677   1
  16 -12  -1-64.9069 50.2840   2
  15 -12  -1 4.57905 31.3051   2
 -15 -12   1 82.8715 57.0728   1
 -14 -12   1 112.380 60.5888   1
  14 -12  -1 208.060 82.6273   2
  13 -12  -1-12.9535 34.9827   2
 -13 -12   1-22.3678 34.4427   1
  12 -12  -1 140.988 64.6152   2
 -12 -12   1 253.651 75.4042   1
  11 -12  -1-38.5889 32.4530   2
 -11 -12   1 43.0848 39.7143   1
  10 -12  -1 9.31861 30.8473   2
 -10 -12   1-34.1720 26.4627   1
  -9 -12   1 71.9535 44.9126   1
   9 -12  -1 35.3569 34.8756   2
  -8 -12   1 41.1151 34.7908   1
   8 -12  -1-37.5753 41.7475   2
  -7 -12   1 58.9725 36.5441   1
  -7  12   1 23.8792 25.3285   1
  -6  12   1 10.5262 21.2981   1
  -6 -12   1-43.3742 41.0154   1
  -5 -12   1 101.949 47.3127   1
  -5  12   1 96.1282 40.9416   1
  -4 -12   1 338.000 74.1409   1
  -4  12   1 276.353 64.4870   1
  -3 -12   1 534.648 92.1145   1
   3 -12  -1 577.498 79.6682   1
  -3  12   1 604.826 92.3957   1
   3  12  -1 569.605 89.1503   1
   2 -12  -1 48.7918 33.6813   1
   2  12  -1 54.3579 32.5756   1
  -2 -12   1 43.5436 34.7047   1
  -2  12   1 29.7535 26.9147   1
   1 -12  -1 193.812 50.7582   1
  -1 -12   1 218.736 54.9471   1
  -1  12   1 170.330 50.9833   1
   1  12  -1 113.481 49.1414   1
   0 -12  -1 42.5618 30.6971   1
   0 -12   1 85.2769 35.5391   1
   0  12   1 22.6370 20.2702   1
   0  12  -1 65.4804 36.0149   1
  -1 -12  -1 1231.86 127.172   1
   1 -12   1 1071.38 122.587   1
   1  12   1 905.383 104.987   1
  -1  12  -1 935.249 123.533   1
   2  12   1 460.284 75.0365   1
  -2 -12  -1 450.596 79.5505   1
  -2  12  -1 445.381 86.7498   1
   2 -12   1 424.249 77.2139   1
   3 -12   1 623.836 91.7634   1
  -3  12  -1 511.194 93.0272   1
   3  12   1 540.435 75.7957   1
  -3 -12  -1 680.240 98.0881   1
  -4  12  -1 1209.75 146.981   1
  -4 -12  -1 1211.72 133.086   1
   4  12   1 1131.11 107.695   1
  -5 -12  -1 66.2707 39.6124   1
  -6 -12  -1 66.8606 39.0427   1
   6 -12   1 24.5803 38.7222   2
  -7 -12  -1 48.2749 36.5330   1
   7 -12   1 15.6667 35.3221   2
  -8 -12  -1 336.405 77.7461   1
   8 -12   1 338.154 95.4411   2
  -9 -12  -1-21.1443 30.8196   1
   9 -12   1 16.8187 31.5326   2
 -10 -12  -1 226.615 65.0340   1
  10 -12   1 290.797 90.7080   2
 -11 -12  -1 29.3849 30.6006   1
  11 -12   1-63.6632 51.7574   2
  12 -12   1-71.1754 52.3098   2
 -12 -12  -1-17.1133 26.3818   1
 -13 -12  -1 55.2157 42.3112   1
  13 -12   1 36.0403 39.6491   2
  14 -12   1-2.96781 28.0331   2
 -14 -12  -1 53.3406 36.6149   1
 -15 -12  -1 35.1082 37.3800   1
  15 -12   1 27.8578 40.8224   2
 -16 -12  -1 125.583 63.1573   1
 -15 -13   1 55.6366 51.0844   1
 -14 -13   1 62.8108 45.6510   1
  14 -13  -1-70.6719 52.9592   2
 -13 -13   1 130.846 67.0028   1
  13 -13  -1 141.150 77.0949   2
  12 -13  -1 91.6230 67.2967   2
 -12 -13   1-14.4706 30.5844   1
  11 -13  -1 47.7121 56.8588   2
 -11 -13   1-33.1699 40.4257   1
  10 -13  -1 1.00578 35.5424   2
 -10 -13   1 12.0175 28.3578   1
  -9 -13   1 178.083 60.2542   1
   9 -13  -1 164.327 74.1511   2
   8 -13  -1 55.5183 28.4564   2
  -8 -13   1-4.47766 33.0326   1
  -7 -13   1 36.6027 33.3166   1
  -6  13   1 566.721 102.860   1
  -6 -13   1 585.537 104.170   1
  -5  13   1 65.7678 37.6449   1
  -5 -13   1 230.940 65.8713   1
  -4  13   1 47.4399 33.5350   1
  -4 -13   1 7.40988 28.2858   1
  -3  13   1-54.8839 33.1629   1
  -3 -13   1-21.1391 30.5371   1
  -2  13   1 578.767 96.2891   1
  -2 -13   1 626.465 103.683   1
   2 -13  -1 680.713 94.5541   1
  -1  13   1-50.7939 38.3729   1
   1 -13  -1-16.0581 31.1746   1
  -1 -13   1-13.8295 29.9767   1
   0 -13   1-18.8401 33.6454   1
   0 -13  -1-18.4797 28.0614   1
   0  13   1-14.9705 23.7648   1
   1 -13   1 646.920 98.3183   1
   1  13   1 499.589 80.1023   1
  -1 -13  -1 555.228 88.2110   1
   2  13   1 460.948 75.1518   1
  -2 -13  -1 467.337 85.2544   1
   2 -13   1 507.725 87.8943   1
  -3 -13  -1 796.074 111.138   1
   3  13   1 639.693 84.8839   1
  -4 -13  -1 38.8051 32.5600   1
  -5 -13  -1 39.2356 51.3722   1
   6 -13   1 25.0591 39.9686   2
  -6 -13  -1 38.6680 34.8414   1
  -7 -13  -1 14.1203 33.4060   1
   7 -13   1 22.9448 33.6281   2
  -8 -13  -1 5.49574 31.9981   1
   8 -13   1-89.0124 56.7199   2
   9 -13   1-16.1392 37.6822   2
  -9 -13  -1-25.5881 31.1152   1
  10 -13   1 32.3978 28.7758   2
 -10 -13  -1-15.4913 37.3117   1
  11 -13   1 70.5580 55.1443   2
 -11 -13  -1 72.0233 48.9452   1
 -12 -13  -1 30.1285 36.7967   1
  12 -13   1 100.860 60.8741   2
 -13 -13  -1 65.6048 50.2868   1
  13 -13   1 107.729 62.6869   2
 -14 -13  -1 97.5306 58.4925   1
 -15 -13  -1 7.28926 33.3706   1
 -14 -14   1 61.9044 47.3470   1
  13 -14  -1 5.82531 38.0079   2
 -13 -14   1 14.8637 30.0620   1
 -12 -14   1-100.273 56.4154   1
  12 -14  -1-30.1601 43.6167   2
  11 -14  -1 195.119 112.506   2
 -11 -14   1-38.3380 38.8925   1
  10 -14  -1-67.9915 53.0255   2
 -10 -14   1 8.74936 28.9342   1
  -9 -14   1-7.37014 35.1551   1
   9 -14  -1 96.9055 56.9663   2
   8 -14  -1 67.4988 46.1000   2
  -8 -14   1 123.764 57.8761   1
  -7 -14   1 8.22857 32.3367   1
  -6 -14   1 15.5023 49.5224   1
  -5 -14   1 10.1093 24.0824   1
  -4 -14   1 39.7056 33.5945   1
  -3 -14   1-48.7137 35.5963   1
  -2 -14   1-0.46953 20.6940   1
   2 -14  -1-11.5554 21.6520   1
   1 -14  -1-23.4981 29.3985   1
  -1 -14   1-24.2984 29.2566   1
   0 -14   1 67.3437 39.4310   1
   0 -14  -1 1.20889 23.6240   1
   1 -14   1 126.241 43.1249   1
  -1 -14  -1 64.3017 30.5604   1
  -2 -14  -1-34.2779 30.9460   1
   2 -14   1 14.5222 28.9655   1
  -3 -14  -1 71.3584 40.2789   1
  -4 -14  -1 12.0019 25.5375   1
  -5 -14  -1 37.7726 28.7000   1
   6 -14   1 412.192 115.142   2
  -6 -14  -1 423.573 89.7212   1
   7 -14   1 30.2048 31.0223   2
  -7 -14  -1 75.9646 45.9947   1
   8 -14   1 309.822 95.9011   2
  -8 -14  -1 319.477 84.6581   1
  -9 -14  -1 196.212 69.2443   1
   9 -14   1 161.648 69.9261   2
  10 -14   1 72.2876 52.8263   2
 -10 -14  -1-41.8901 35.5371   1
 -11 -14  -1 8.47648 30.3347   1
  11 -14   1 27.9093 40.3103   2
  12 -14   1 44.2013 47.6474   2
 -12 -14  -1 21.4402 40.2453   1
 -13 -14  -1-18.8726 35.0768   1
 -14 -14  -1 131.786 59.5909   1
 -13 -15   1-60.2625 48.9359   1
 -12 -15   1 153.577 68.3248   1
 -11 -15   1-49.5754 42.6664   1
 -10 -15   1 42.8567 35.4568   1
  10 -15  -1 47.4782 47.3636   2
   9 -15  -1 15.6837 51.3320   2
  -9 -15   1 16.8236 29.5456   1
   8 -15  -1-7.52015 32.7809   2
  -8 -15   1-0.20079 27.3728   1
  -7 -15   1 119.816 59.0832   1
  -6 -15   1-3.37089 26.1173   1
  -5 -15   1 191.468 66.5014   1
  -4 -15   1 11.3102 24.7269   1
  -3 -15   1-36.3270 32.6512   1
  -2 -15   1 125.411 53.2033   1
   2 -15  -1 145.186 46.8526   1
  -1 -15   1 97.6569 39.0204   1
   1 -15  -1 63.2310 35.0289   1
   0 -15  -1 35.3214 30.2946   1
   0 -15   1 25.8562 34.0500   1
   1 -15   1 72.5920 36.9163   1
  -1 -15  -1-11.6441 22.4013   1
  -2 -15  -1 95.7779 45.4133   1
   2 -15   1 96.2186 48.1921   1
  -3 -15  -1 6.83489 21.6584   1
  -4 -15  -1 113.886 54.0190   1
  -5 -15  -1 123.129 52.4129   1
   5 -15   1 77.7363 56.2477   2
  -6 -15  -1 179.977 60.6752   1
   6 -15   1 213.643 84.0621   2
   7 -15   1-3.89403 37.3757   2
  -7 -15  -1 67.5363 42.4134   1
  -8 -15  -1 34.0585 44.9025   1
   8 -15   1 24.4543 44.8135   2
  -9 -15  -1 45.2502 49.8343   1
   9 -15   1 54.7444 61.4481   2
 -10 -15  -1 70.3951 52.3892   1
 -11 -15  -1 39.8097 40.5228   1
 -12 -15  -1 33.8463 46.0565   1
 -13 -15  -1 14.3645 36.6492   1
 -12 -16   1-13.7718 30.4000   1
 -11 -16   1-57.5613 44.3815   1
 -10 -16   1 38.3938 34.3594   1
  -9 -16   1-2.24779 20.2781   1
  -8 -16   1-27.5345 36.8315   1
  -7 -16   1-12.4636 37.4304   1
   7 -16  -1 43.9267 35.8532   2
  -6 -16   1-21.9774 36.7931   1
  -5 -16   1 1.94559 35.6501   1
  -4 -16   1 45.3214 25.9168   1
  -3 -16   1-26.2861 30.3424   1
  -2 -16   1-104.395 49.6103   1
  -1 -16   1 131.021 55.0168   1
   1 -16  -1 45.4647 30.6031   1
   0 -16   1-92.3042 45.3706   1
   0 -16  -1-42.5926 38.7205   1
   1 -16   1 24.2308 27.2053   1
  -1 -16  -1 6.63044 22.3128   1
  -2 -16  -1 50.9272 38.1242   1
  -3 -16  -1 7.65159 22.1158   1
  -4 -16  -1 42.5783 38.1297   1
  -5 -16  -1 109.756 47.9757   1
   5 -16   1 121.146 66.5155   2
   6 -16   1 58.3991 60.2362   2
  -6 -16  -1 10.1192 21.5757   1
  -7 -16  -1 37.3032 40.4235   1
  -8 -16  -1 23.7980 21.6285   1
  -9 -16  -1 87.3597 49.8233   1
 -10 -16  -1 49.2781 38.8847   1
 -11 -16  -1-8.66274 28.8498   1
 -10 -17   1-75.2083 48.2530   1
  -9 -17   1 18.5568 24.8146   1
  -8 -17   1 95.3298 51.6891   1
  -7 -17   1 53.0756 45.8690   1
  -6 -17   1-14.5222 33.0724   1
  -5 -17   1 17.1452 31.1561   1
  -4 -17   1 50.4650 28.9228   1
  -3 -17   1 1.96195 21.3415   1
  -2 -17   1 63.8357 46.2552   1
  -1 -17   1 57.5458 39.0831   1
   0 -17   1 29.1533 27.9547   1
   1 -17   1 28.0242 18.1244   1
  -2 -17  -1 6.89321 22.1413   1
  -3 -17  -1-42.9589 33.9173   1
  -4 -17  -1 114.100 51.2842   1
  -5 -18   1-17.9833 27.5753   1
  -4 -18   1-53.7574 37.1346   1
  -3 -18   1 29.9348 26.2446   1
  -2 -18   1-38.8561 31.7131   1
  23   0  -2 19.5500 24.1812   2
  22   0  -2 517.745 94.8789   2
  21   0  -2 79.1823 40.6324   2
  20   0  -2 108.835 44.2117   2
  19   0  -2 461.032 81.4558   2
  18   0  -2 112.165 44.0487   2
  17   0  -2 37.8777 24.1487   2
  17   0  -2 71.9235 28.9158   3
 -17   0   2 50.7440 38.1404   2
  16   0  -2 74.4234 27.7121   2
  16   0  -2 22.9730 15.1441   3
 -16   0   2 48.7764 43.6403   2
  15   0  -2 1650.02 133.048   2
  15   0  -2 1557.63 103.288   3
 -15   0   2 1480.86 154.420   2
  14   0  -2 1937.75 138.977   2
  14   0  -2 1980.09 111.703   3
 -14   0   2 1864.01 164.318   2
  13   0  -2 436.730 50.7188   3
  13   0  -2 437.629 65.6360   2
  12   0  -2 7925.16 208.329   3
  12   0  -2 9278.53 276.032   2
 -11   0   2 101.537 36.9362   2
  11   0  -2 173.541 31.1826   3
  11   0  -2 179.392 39.3292   2
  10   0  -2 6786.54 174.504   3
 -10   0   2 6946.89 248.891   2
  10   0  -2 7223.70 218.964   2
  -9   0   2 188.070 40.7777   2
   9   0  -2 181.812 36.0874   2
   9   0  -2 155.375 27.7611   3
   8   0  -2 10149.4 225.264   2
  -8   0   2 9477.32 247.052   2
  -7   0   2 366.699 44.3619   2
   7   0  -2 335.878 39.7025   2
   6   0  -2 10263.0 186.366   2
  -6   0   2 9909.86 204.063   2
  -5   0   2 85946.5 525.522   2
   5   0  -2 86193.0 473.348   2
   4   0  -2 39833.9 275.711   2
  -4   0   2 40692.6 299.711   2
   2   0   2 473.384 42.4563   2
   2   0   2 459.931 35.6693   3
   3   0   2 2122.99 82.4347   3
   3   0   2 2449.08 102.644   2
   4   0   2 14733.3 232.237   3
   4   0   2 15187.0 267.535   2
   5   0   2 6029.68 159.516   3
  -5   0  -2 6083.26 168.642   3
   5   0   2 5793.65 181.569   2
   6   0   2 258.234 36.6708   3
  -6   0  -2 239.433 39.4654   3
   6   0   2 262.961 45.0624   2
   7   0   2 11794.2 291.215   2
   7   0   2 11040.4 241.929   3
  -7   0  -2 11848.3 269.185   3
   8   0   2 249.411 47.6252   2
  -8   0  -2 319.922 52.7251   3
   8   0   2 277.902 42.5170   3
   9   0   2 1340.42 109.790   2
   9   0   2 1283.67 90.6608   3
 -10   0  -2 3942.84 221.478   2
  10   0   2 4450.71 208.560   2
  10   0   2 4009.40 165.456   3
  11   0   2 168.106 37.4106   3
  11   0   2 159.173 41.7733   2
 -11   0  -2 182.889 53.6703   2
  12   0   2 803.790 99.0466   2
  12   0   2 792.655 79.2321   3
 -12   0  -2 835.006 115.405   2
  13   0   2 2138.92 162.778   2
 -13   0  -2 2184.34 194.278   2
  13   0   2 1863.14 125.755   3
  14   0   2 2181.24 171.616   2
  15   0   2 4755.70 261.767   2
  16   0   2 325.221 73.1599   2
  17   0   2 63.2624 43.2693   2
  18   0   2 262.186 64.9903   2
  19   0   2 338.937 77.5833   2
  20   0   2 61.8917 40.3543   2
  21   0   2 274.364 80.8364   2
  22   0   2-23.5428 31.7869   2
  23  -1  -2-9.30011 19.4458   2
  22  -1  -2 10.3479 20.2469   2
  21   1  -2-19.7645 27.1301   2
  21  -1  -2-11.7735 23.7031   2
  20   1  -2 52.4881 26.9108   2
  20  -1  -2 82.0705 37.9480   2
  19  -1  -2 176.769 50.9796   2
  19   1  -2 118.902 41.6627   2
  18  -1  -2-12.8395 15.3749   3
  18   1  -2-24.6616 23.3381   2
  18  -1  -2-5.23409 22.4765   2
 -17  -1   2 863.615 127.559   2
  17  -1  -2 728.310 81.2188   3
  17  -1  -2 976.894 114.860   2
  17   1  -2 1001.37 110.199   2
 -16   1   2 54.0239 37.9598   2
  16   1  -2 34.0575 21.3949   2
 -16  -1   2 73.3721 35.7325   2
  16  -1  -2 63.7929 27.5620   3
  16  -1  -2 39.1365 21.4548   2
  15   1  -2-2.18385 12.2630   3
 -15  -1   2 21.9261 24.8485   2
  15   1  -2 38.8531 27.7224   2
 -15   1   2 17.2671 21.0211   2
  15  -1  -2 23.5019 24.7204   2
  15  -1  -2 43.4649 19.3845   3
  14   1  -2 586.364 54.2883   3
  14   1  -2 509.497 69.1207   2
  14  -1  -2 455.176 60.1459   3
 -14   1   2 485.728 84.8256   2
 -14  -1   2 484.885 83.6049   2
  14  -1  -2 450.761 70.4316   2
  13   1  -2 483.344 65.2904   2
  13  -1  -2 405.564 55.9297   3
  13  -1  -2 449.720 67.3335   2
  13   1  -2 424.872 44.7288   3
  12  -1  -2 2051.80 138.001   2
  12   1  -2 1962.24 90.5649   3
  12  -1  -2 1819.53 111.513   3
  12   1  -2 2144.68 127.338   2
  11   1  -2 4353.23 170.407   2
 -11   1   2 4047.29 212.142   2
  11  -1  -2 3891.33 156.666   3
 -11  -1   2 3793.27 186.465   2
  11  -1  -2 4472.44 192.145   2
  11   1  -2 4073.18 123.839   3
 -10  -1   2 3867.59 175.970   2
  10   1  -2 4192.55 157.267   2
 -10   1   2 4001.04 199.140   2
  10   1  -2 3969.18 114.197   3
  10  -1  -2 4089.00 175.550   2
  -9   1   2 9878.46 296.555   2
  -9  -1   2 10087.4 261.138   2
   9   1  -2 10185.7 168.915   3
   9  -1  -2 10934.6 269.774   2
   9   1  -2 10601.3 233.084   2
   8   1  -2 228.326 33.3691   2
  -8   1   2 209.234 45.3307   2
   8   1  -2 188.751 21.8457   3
   8  -1  -2 267.054 43.4828   2
  -8  -1   2 217.366 35.9592   2
   7  -1  -2 11295.0 246.493   2
   7   1  -2 11294.0 146.200   3
   7   1  -2 11767.7 204.593   2
  -7   1   2 10971.5 268.044   2
  -7  -1   2 11296.7 223.302   2
   6   1  -2-2.11224 8.50320   2
   6  -1  -2 0.45306 16.8449   2
  -6   1   2-18.8172 20.0483   2
  -6  -1   2-0.52282 9.56669   2
   6   1  -2 3.18682 5.92648   3
   5  -1  -2 224.981 31.9256   2
   5   1  -2 242.449 23.4878   2
  -5  -1   2 221.447 24.4707   2
  -5   1   2 160.141 29.3119   2
  -4  -1   2 16061.0 159.673   2
  -4  -1   2 15381.5 200.248   1
   4  -1  -2 16350.5 232.059   2
  -3  -1   2 2373.53 78.0704   1
   1  -1   2 3131.53 100.498   2
   2  -1   2 6072.56 157.005   2
   2   1   2 6022.80 136.219   2
   2  -1   2 6154.85 140.974   3
   3  -1   2 14248.7 262.076   2
   3  -1   2 14104.4 231.120   3
   3   1   2 13619.8 227.940   2
   4   1   2 24132.0 324.228   2
   4  -1   2 24430.1 326.505   3
   4  -1   2 23647.8 365.372   2
  -4  -1  -2 24723.7 297.131   3
  -5  -1  -2 6921.39 169.259   3
   5  -1   2 6816.13 183.273   3
   5   1   2 6616.84 185.514   2
   5  -1   2 6972.13 210.793   2
   6  -1   2 3065.88 147.223   2
   6  -1   2 2816.26 125.043   3
   6   1   2 2980.82 133.490   2
  -6   1  -2 2978.56 139.016   3
  -6  -1  -2 2912.12 117.987   3
   7  -1   2 27.5141 29.2663   2
   7   1   2 17.0183 19.1697   2
   7  -1   2 8.79733 12.1855   3
  -7  -1  -2 11.4543 16.1345   3
   8   1   2 5288.88 200.502   2
   8  -1   2 5021.34 183.466   3
   8  -1   2 5375.98 218.832   2
  -8  -1  -2 5301.85 181.556   3
   9  -1   2 541.321 65.2808   3
  -9  -1  -2 513.917 63.4933   3
   9   1   2 577.090 72.5119   2
   9  -1   2 579.347 77.4118   2
 -10  -1  -2 3516.15 166.179   3
  10  -1   2 3446.56 190.376   2
  10   1   2 3210.08 172.371   2
 -10   1  -2 3389.24 213.625   2
 -10  -1  -2 3280.98 201.378   2
  10  -1   2 3261.85 161.051   3
  11   1   2 105.716 35.7424   2
 -11   1  -2 71.8669 36.3921   2
 -11  -1  -2 75.5220 37.2745   2
  11  -1   2 106.406 39.3058   2
  11  -1   2 54.7494 26.7108   3
  12  -1   2 1605.61 142.618   2
  12  -1   2 1805.68 126.871   3
 -12  -1  -2 1665.12 160.620   2
 -12   1  -2 1622.36 165.052   2
  12   1   2 1850.83 141.596   2
  13  -1   2 322.144 70.3725   2
  13  -1   2 363.754 58.1512   3
 -13   1  -2 359.648 83.8174   2
 -13  -1  -2 268.633 69.5387   2
  13   1   2 368.211 68.9532   2
  14  -1   2 321.997 58.3396   3
  14  -1   2 254.156 65.8585   2
  14   1   2 411.823 76.6762   2
  15  -1   2 76.4875 30.8121   3
  15  -1   2 149.838 50.7354   2
  15   1   2 174.463 52.6033   2
  16   1   2 493.326 87.3093   2
  16  -1   2 304.125 60.8163   3
  16  -1   2 367.641 80.2447   2
  17   1   2 8.17789 24.8320   2
  17  -1   2 87.3041 45.7337   2
  18   1   2-13.0574 22.7066   2
  18  -1   2-17.9690 21.4906   2
  19   1   2 42.5217 37.6114   2
  19  -1   2-11.9414 22.8412   2
  20  -1   2 52.0154 35.1494   2
  20   1   2 73.6048 45.0877   2
  21  -1   2 133.307 58.6983   2
  22  -1   2-4.85527 22.9159   2
  23  -2  -2 267.979 75.4316   2
  22  -2  -2 122.984 52.9116   2
  21  -2  -2 27.4377 24.9307   2
  20  -2  -2 148.717 52.5960   2
  19  -2  -2 151.594 48.2305   2
  18  -2  -2 40.9878 23.0556   3
  18  -2  -2 46.5681 33.4141   2
  17  -2  -2-8.67128 13.5269   3
  17  -2  -2-8.82298 31.0941   2
 -16  -2   2 2029.44 181.089   2
  16   2  -2 2357.33 157.670   2
  16  -2  -2 2578.95 186.459   2
  16  -2  -2 1970.03 139.319   3
 -16   2   2 2274.67 213.848   2
  15  -2  -2 56.2756 33.3996   2
 -15  -2   2 21.5447 20.1967   2
  15  -2  -2 30.0046 21.4763   3
  15   2  -2 61.4819 28.4395   2
 -15   2   2 35.7894 28.6689   2
  14  -2  -2 53.3619 19.5394   2
 -14  -2   2 39.3244 25.9244   2
  14   2  -2 51.0818 25.7131   2
 -14   2   2 139.517 53.0707   2
  14  -2  -2 56.7045 25.8354   3
  13  -2  -2 35.6300 19.4955   3
  13   2  -2 58.3559 26.4192   2
 -13   2   2 1.38553 25.6006   2
  13  -2  -2 35.1747 35.6627   2
  12  -2  -2 131.079 35.0616   3
  12  -2  -2 134.300 44.6465   2
  12   2  -2 145.234 34.5543   2
  11   2  -2 1703.73 105.051   2
  11  -2  -2 1600.30 128.324   2
 -11  -2   2 1479.60 114.133   2
 -10   2   2 7442.04 290.282   2
 -10  -2   2 7291.78 234.797   2
  10  -2  -2 7934.13 263.568   2
  10   2  -2 8362.67 216.256   2
   9  -2  -2 9702.45 278.045   2
  -9  -2   2 8666.05 234.882   2
  -9   2   2 9249.73 305.816   2
   9   2  -2 9746.50 217.250   2
  -8   2   2 23677.9 460.206   2
  -8  -2   2 22649.2 348.492   2
   8  -2  -2 24606.1 426.272   2
  -7  -2   2 220.112 31.8307   2
   7  -2  -2 225.001 42.1778   2
  -6  -2   2 4511.86 123.204   2
  -6  -2   2 4704.93 137.198   1
   6  -2  -2 4636.87 170.605   2
  -5  -2   2 16211.8 247.823   1
   5  -2  -2 15859.8 296.276   2
  -5  -2   2 16504.9 208.186   2
  -4  -2   2 7277.19 164.623   1
  -3  -2   2 21888.0 282.692   1
  -2  -2   2 17516.4 174.992   3
  -2  -2   2 17036.4 244.259   1
  -1  -2   2 1695.57 64.4234   3
  -1  -2   2 1741.88 77.1306   1
   0  -2   2 1730.88 73.5039   3
   0  -2   2 1728.72 81.5521   2
   0  -2   2 1738.32 75.6783   1
   1  -2   2 45929.3 391.975   1
   1  -2   2 46845.6 460.714   2
   1  -2   2 47091.3 412.199   3
   2  -2   2 1447.92 88.1023   2
   2  -2   2 1528.81 79.8492   3
   3  -2   2 6696.38 177.987   3
   3  -2   2 6680.28 200.402   2
   4  -2   2 401.504 51.4895   2
   4  -2   2 433.739 49.6912   3
   5  -2   2 752.346 68.6245   3
   5   2   2 789.199 65.2198   2
   5  -2   2 813.162 78.7430   2
  -5  -2  -2 803.924 56.3260   3
   6   2   2 5972.31 187.835   2
   6  -2   2 5857.66 220.106   2
  -6  -2  -2 5952.42 162.715   3
   6  -2   2 5617.28 192.388   3
  -7  -2  -2 13826.1 264.579   3
   7  -2   2 14133.0 357.685   2
   7  -2   2 13573.5 309.159   3
   7   2   2 14437.4 310.179   2
   8   2   2 11867.3 298.096   2
   8  -2   2 11458.0 335.500   2
  -8  -2  -2 11595.3 254.698   3
   8  -2   2 11177.9 293.176   3
  -9   2  -2 14014.1 432.216   2
   9  -2   2 13585.7 331.463   3
  -9  -2  -2 14432.5 302.888   3
   9   2   2 14125.2 337.337   2
   9  -2   2 14129.1 387.579   2
 -10  -2  -2 587.005 84.9184   2
 -10   2  -2 546.883 91.9756   2
 -10  -2  -2 633.046 69.8692   3
  10  -2   2 498.565 66.5652   3
  10   2   2 609.813 75.0479   2
  10  -2   2 698.910 89.5827   2
 -11  -2  -2 2041.77 164.904   2
  11  -2   2 1945.35 135.064   3
  11   2   2 2021.63 140.480   2
 -11   2  -2 1930.33 176.319   2
 -11  -2  -2 1973.91 129.359   3
  11  -2   2 2265.71 166.554   2
  12  -2   2 181.201 49.3292   2
  12   2   2 289.599 57.4534   2
  12  -2   2 233.190 49.3700   3
 -12   2  -2 219.920 61.3816   2
 -12  -2  -2 270.712 64.6583   2
  13  -2   2 25.6737 22.2666   3
  13  -2   2-24.1688 33.3500   2
  13   2   2 66.4661 37.2866   2
 -13  -2  -2-6.11164 28.2655   2
  14  -2   2 89.7079 31.9011   3
  14  -2   2 42.2126 35.7762   2
  14   2   2 78.2930 35.4317   2
  15  -2   2 177.094 46.7274   3
  15   2   2 212.930 54.4879   2
  15  -2   2 170.890 52.8667   2
  16   2   2 41.2784 37.5989   2
  16  -2   2-31.5068 29.9453   2
  17  -2   2 41.6232 37.7279   2
  17   2   2 69.6698 40.2164   2
  18  -2   2 2.23993 24.0440   2
  19  -2   2 116.106 57.2468   2
  20  -2   2-36.5287 38.1771   2
  21  -2   2-115.197 54.3572   2
  22  -2   2 175.346 68.9603   2
  23  -3  -2 148.843 58.5169   2
  22  -3  -2 6.90735 20.7017   2
 -21  -3   2 193.006 59.0092   1
  21  -3  -2 127.746 54.5019   2
  20  -3  -2 109.733 48.4890   2
  19  -3  -2 91.5163 46.3305   2
  18  -3  -2 123.050 47.9080   2
 -17  -3   2 257.934 67.0967   2
  17  -3  -2 377.847 78.6388   2
  17  -3  -2 260.836 56.8795   3
  16  -3  -2-35.2455 34.6708   2
  16  -3  -2 24.0470 21.8862   3
 -16  -3   2-18.7834 30.6611   2
 -15   3   2 520.197 101.376   2
  15  -3  -2 454.779 80.8612   2
  15  -3  -2 499.621 74.3688   3
 -15  -3   2 590.692 92.6193   2
  14  -3  -2 134.770 43.7572   2
 -14  -3   2 180.150 48.1053   2
 -14   3   2 120.598 48.5361   2
  14  -3  -2 130.687 38.6890   3
  13  -3  -2 711.912 95.0540   2
 -13   3   2 702.813 110.327   2
  13  -3  -2 608.952 79.0395   3
 -12   3   2 2976.88 216.035   2
  12  -3  -2 2710.14 180.599   2
  11  -3  -2 329.814 63.3249   2
 -11  -3   2 224.605 43.8551   2
 -10  -3   2 2030.50 122.028   2
  10  -3  -2 2234.34 153.399   2
  -9  -3   2 460.569 55.8334   1
   9  -3  -2 397.764 64.6221   2
  -9  -3   2 321.979 45.1844   2
  -8  -3   2 28.7563 25.0192   1
  -8  -3   2-16.6500 14.9783   2
   8  -3  -2 9.13844 18.3321   2
  -7  -3   2 110.131 29.9936   1
  -7  -3   2 92.2465 19.2237   2
   7  -3  -2 165.066 42.6648   2
  -6  -3   2 1020.31 73.4350   1
  -6  -3   2 1009.44 61.8795   2
   6  -3  -2 1012.47 88.5309   2
  -5  -3   2 2642.35 115.565   1
  -4  -3   2 40572.3 444.328   1
  -3  -3   2 38308.2 419.444   1
  -2  -3   2 143.197 28.4522   1
  -2   3   2 140.142 17.6357   1
  -1   3   2 4354.06 82.5718   1
  -1  -3   2 4582.59 141.593   1
   1  -3  -2 4154.54 81.5837   1
   0  -3  -2 18.9564 10.1252   1
   0  -3   2 3.60414 13.5940   1
   0   3   2 15.0254 7.98871   1
  -1  -3  -2 1709.53 57.7959   1
   1  -3   2 1835.26 105.553   2
   1  -3   2 1761.17 87.5381   1
   2  -3   2 12339.7 287.202   2
   3  -3   2-6.10277 19.8845   2
   4  -3   2 489.839 64.8770   2
   4  -3   2 526.724 59.1496   3
   5  -3   2 1106.99 99.9528   2
   5  -3   2 1103.62 88.4732   3
   6  -3   2 6833.56 253.482   2
   6  -3   2 6422.86 218.899   3
  -7  -3  -2 1066.97 72.0586   3
   7  -3   2 994.416 104.620   2
   7  -3   2 1104.66 94.5524   3
  -7  -3  -2 1053.77 94.5126   2
   8  -3   2 10055.4 335.044   2
  -8  -3  -2 10684.0 242.099   3
   8  -3   2 9800.61 290.422   3
  -9   3  -2 918.125 116.130   2
  -9  -3  -2 989.878 101.269   2
   9  -3   2 981.825 95.7286   3
  -9  -3  -2 1019.91 78.8504   3
   9  -3   2 1018.38 112.981   2
  10  -3   2 2776.71 164.925   3
 -10   3  -2 2726.06 208.588   2
 -10  -3  -2 2575.45 134.177   3
  10  -3   2 3088.51 196.833   2
 -10  -3  -2 2869.84 184.330   2
  11  -3   2 114.553 38.5132   3
 -11  -3  -2 163.670 47.7903   2
 -11  -3  -2 147.731 38.0263   3
  11  -3   2 195.767 53.8683   2
 -11   3  -2 144.687 54.7165   2
 -12   3  -2 283.309 73.8917   2
  12  -3   2 233.819 51.7178   3
  12  -3   2 343.496 69.9241   2
 -12  -3  -2 424.360 61.2697   3
 -12  -3  -2 317.294 71.0518   2
  13  -3   2 221.882 52.8972   3
  13  -3   2 232.352 63.5578   2
  14  -3   2 549.275 96.7726   2
  14  -3   2 493.903 78.4124   3
  15  -3   2 216.003 69.5876   2
  16  -3   2 157.338 51.7967   2
  17  -3   2 642.967 113.522   2
  18  -3   2 123.158 56.6287   2
  19  -3   2 443.599 99.7043   2
  20  -3   2 40.7537 26.4762   2
  21  -3   2 33.1362 34.6962   2
  23  -4  -2 32.0103 23.7355   2
  22  -4  -2-3.78003 18.0822   2
  21  -4  -2 88.3966 43.5514   2
 -21  -4   2 138.646 52.3827   1
 -20  -4   2 2.96968 20.3199   1
  20  -4  -2 1.90906 31.6145   2
 -19  -4   2 690.851 99.3677   1
  19  -4  -2 828.067 125.106   2
 -18  -4   2 30.4102 27.8008   1
  18  -4  -2-35.4380 34.6362   2
 -17  -4   2 112.316 42.1235   1
  17  -4  -2 48.8117 37.8586   2
  16  -4  -2 6.69243 29.5764   2
  16  -4  -2-15.5171 18.5974   3
 -16  -4   2-18.3367 24.3770   2
  15  -4  -2 106.601 42.3080   3
 -15  -4   2 143.836 48.2454   2
 -15  -4   2 185.255 48.5807   1
  15  -4  -2 148.569 55.6023   2
 -14  -4   2 1989.76 140.556   1
  14  -4  -2 1580.67 137.201   3
  14  -4  -2 1748.32 165.257   2
 -14  -4   2 1841.04 153.627   2
 -13  -4   2 190.971 46.5527   2
 -13  -4   2 230.679 51.9473   1
  13  -4  -2 204.260 58.9317   2
 -12  -4   2 1135.96 99.4433   1
  12  -4  -2 1117.92 123.213   2
  11  -4  -2 39.3535 29.5538   2
 -11  -4   2 81.8817 32.2609   1
 -10  -4   2 3893.27 171.689   2
 -10  -4   2 3818.38 170.117   1
  10  -4  -2 3720.78 210.641   2
  -9  -4   2 7335.97 228.877   1
   9  -4  -2 7255.93 288.409   2
  -9  -4   2 6997.29 213.435   2
  -8  -4   2 1003.89 76.9975   2
   8  -4  -2 1060.61 108.186   2
  -8  -4   2 1030.75 84.8661   1
   7  -4  -2 811.761 92.8585   2
  -7  -4   2 776.123 73.0674   1
  -6  -4   2 258.710 42.7924   1
   6  -4  -2 265.582 51.5381   2
  -5  -4   2 986.915 80.7178   1
  -4  -4   2 3915.17 152.170   1
  -4   4   2 3952.80 118.553   1
  -3   4   2 685.218 48.2839   1
  -3  -4   2 695.630 66.6273   1
  -2  -4   2 1593.62 92.8171   1
   2  -4  -2 1473.05 61.5329   1
  -2   4   2 1533.99 66.7411   1
  -1  -4   2 2517.97 117.920   1
   1  -4  -2 2385.87 79.9770   1
  -1   4   2 2565.89 81.9795   1
   0   4   2 3876.38 97.8526   1
   0  -4  -2 3963.33 107.342   1
   0  -4   2 3777.20 142.095   1
   1  -4   2 1827.23 98.5819   1
  -1  -4  -2 1795.12 74.7158   1
   1   4   2 2002.01 66.6648   1
  -2  -4  -2 3157.67 100.777   1
   2  -4   2 3079.39 127.279   1
   2  -4   2 3288.68 163.691   2
  -3  -4  -2 282.273 31.7232   1
   3  -4   2 275.931 54.5563   2
  -4  -4  -2 670.133 50.7324   1
   4  -4   2 655.591 81.4234   2
   5  -4   2 4443.67 213.864   2
   6  -4   2 1083.52 97.6238   3
   6  -4   2 1148.60 111.188   2
   7  -4   2 1561.85 121.194   3
   7  -4   2 1479.64 132.731   2
   8  -4   2 852.534 102.952   2
   8  -4   2 891.041 94.1875   3
  -8  -4  -2 937.459 70.9421   3
   9  -4   2 52.5950 28.6866   2
  -9  -4  -2 49.7872 22.4342   3
  -9   4  -2 89.0003 42.8849   2
   9  -4   2 81.4710 31.4285   3
  -9  -4  -2 94.2336 32.7706   2
  10  -4   2 122.255 39.4569   3
  10  -4   2 90.7394 45.7796   2
 -10  -4  -2 95.4932 35.1219   2
 -10  -4  -2 73.3749 25.6611   3
 -10   4  -2 87.5907 38.7117   2
 -11   4  -2 872.079 126.748   2
  11  -4   2 815.413 110.955   2
  11  -4   2 772.071 95.3999   3
 -11  -4  -2 959.137 111.753   2
 -11  -4  -2 891.390 80.3787   3
 -12  -4  -2 214.384 58.5920   2
 -12  -4  -2 212.955 46.4990   3
  12  -4   2 161.425 45.5703   3
  12  -4   2 187.563 61.6411   2
  13  -4   2 73.7333 33.5090   2
  14  -4   2 349.705 82.6561   2
  15  -4   2-3.32735 22.5794   2
  16  -4   2 331.810 76.3969   2
  17  -4   2 345.571 86.9376   2
  18  -4   2 65.0804 44.2202   2
  19  -4   2 197.127 73.1218   2
  20  -4   2 121.870 52.5278   2
  21  -4   2 16.3401 30.5279   2
  23  -5  -2-3.11226 24.0976   2
  22  -5  -2 89.8542 53.2872   2
  21  -5  -2-66.3240 43.0918   2
 -21  -5   2-9.63655 21.2721   1
  20  -5  -2 62.8751 36.6869   2
 -20  -5   2 108.941 46.2795   1
  19  -5  -2-12.8554 31.4719   2
 -19  -5   2 10.8854 24.7914   1
 -18  -5   2 294.917 65.5841   1
  18  -5  -2 360.523 84.0093   2
 -17  -5   2 0.11805 20.9250   1
  17  -5  -2 2.98525 25.5793   2
  16  -5  -2 1088.57 140.410   2
 -16  -5   2 970.884 110.630   1
 -16  -5   2 823.960 113.607   2
 -15  -5   2 12.2441 27.7766   1
  15  -5  -2 34.1585 37.7081   2
 -15  -5   2-8.17847 18.0765   2
  14  -5  -2 1623.43 162.136   2
 -14  -5   2 1475.34 136.251   2
 -14  -5   2 1758.47 139.918   1
 -13  -5   2 282.277 59.7619   1
  13  -5  -2 257.152 66.9221   2
 -13  -5   2 150.064 42.3077   2
  12  -5  -2 272.214 60.9607   2
 -12  -5   2 242.921 51.6514   1
 -11  -5   2 13.0758 24.9589   1
  11  -5  -2 52.4177 38.5566   2
  10  -5  -2 234.734 60.0932   2
 -10  -5   2 264.854 53.0766   1
 -10  -5   2 177.915 17.9219   3
 -10  -5   2 295.377 49.7408   2
  -9  -5   2 3505.28 157.707   2
   9  -5  -2 3627.60 212.972   2
  -9  -5   2 3052.72 73.3992   3
  -9  -5   2 3480.61 172.858   1
  -8  -5   2 1868.88 124.651   1
   8  -5  -2 1845.63 150.597   2
  -7  -5   2 16256.3 359.401   1
   7  -5  -2 15897.1 422.923   2
  -6  -5   2-12.4123 32.1718   1
  -5  -5   2 1370.47 101.513   1
  -5   5   2 1277.88 80.8977   1
  -4  -5   2 1001.64 85.1040   1
  -4   5   2 988.040 68.3241   1
  -3   5   2 808.723 59.2724   1
  -3  -5   2 733.658 71.9295   1
   2  -5  -2 4113.32 118.787   1
  -2   5   2 4291.26 129.854   1
  -2  -5   2 4296.09 168.875   1
  -1   5   2 23.0266 12.2787   1
  -1  -5   2-3.28167 17.8043   1
   1  -5  -2 7.94565 10.9780   1
   0  -5   2 2430.43 123.717   1
   0   5   2 2339.22 90.9814   1
   0  -5  -2 2493.23 98.9442   1
   1   5   2 5138.67 126.283   1
   1  -5   2 5222.92 181.693   1
  -1  -5  -2 5369.39 148.823   1
  -2  -5  -2-18.4575 19.5551   1
   2  -5   2 43.1827 24.3285   1
   3  -5   2 1438.51 121.097   2
  -3  -5  -2 1525.00 85.3395   1
  -4  -5  -2 501.912 50.9009   1
   4  -5   2 538.039 78.0739   2
   5  -5   2 2173.75 160.377   2
  -5  -5  -2 2287.61 107.997   1
  -5   5  -2 2233.78 137.295   1
  -6  -5  -2 1440.64 89.2179   1
   6  -5   2 1235.17 124.297   2
   7  -5   2 747.122 101.400   2
  -7  -5  -2 814.903 70.5685   1
   7  -5   2 637.129 82.1819   3
   8  -5   2 2.73833 16.7732   3
  -8  -5  -2 0.36130 15.3814   2
   8  -5   2-20.8146 35.4750   2
  -9  -5  -2 57.2950 28.5478   2
   9  -5   2 22.9213 24.8572   2
  -9  -5  -2 23.2924 12.8731   3
   9  -5   2 30.4205 21.2080   3
 -10  -5  -2 49.7097 28.1161   2
 -10  -5  -2 11.4524 14.5023   3
 -10   5  -2 3.81912 25.0964   2
  10  -5   2 29.1737 24.0181   3
  10  -5   2 35.3560 27.3118   2
 -11  -5  -2 507.297 83.1585   2
  11  -5   2 520.835 93.9729   2
 -11  -5  -2 552.328 63.3634   3
  11  -5   2 494.506 79.4718   3
 -12  -5  -2 244.501 45.3215   3
  12  -5   2 222.707 66.3845   2
 -12  -5  -2 274.406 64.0980   2
  13  -5   2 1990.96 190.132   2
  14  -5   2 354.591 83.2560   2
  15  -5   2 56.9645 41.8480   2
  16  -5   2-38.4781 47.3348   2
  17  -5   2-81.9876 47.7281   2
  18  -5   2 69.0559 40.2768   2
  19  -5   2 34.2341 38.0085   2
  20  -5   2 8.72378 28.2626   2
  23  -6  -2-27.0428 34.1610   2
  22  -6  -2 32.1635 34.2765   2
  21  -6  -2 106.086 54.6679   2
  20  -6  -2 88.4701 53.6963   2
 -20  -6   2 109.809 46.7123   1
  19  -6  -2 403.866 97.1618   2
 -19  -6   2 493.570 90.3732   1
  18  -6  -2 52.0394 36.4731   2
 -18  -6   2 24.1422 26.5869   1
 -17  -6   2 78.2895 38.8071   1
  17  -6  -2 8.89654 28.2052   2
  16  -6  -2 27.9064 23.6423   2
 -16  -6   2 30.0103 27.6039   1
 -15  -6   2 336.661 68.9127   1
 -15  -6   2 269.265 64.3499   2
  15  -6  -2 338.825 87.3729   2
 -14  -6   2 269.819 60.0671   2
  14  -6  -2 303.896 71.7677   2
 -14  -6   2 338.166 65.9023   1
 -13  -6   2-17.7944 19.6519   2
  13  -6  -2 54.1058 42.1759   2
 -13  -6   2 44.5875 28.9267   1
  12  -6  -2 593.441 99.7633   2
 -12  -6   2 478.960 76.3370   1
 -12  -6   2 522.860 74.9785   2
  11  -6  -2 65.5204 30.9167   2
 -11  -6   2 141.930 41.3556   1
 -11  -6   2 78.6999 13.5276   3
  10  -6  -2 3397.95 224.877   2
 -10  -6   2 3426.56 190.278   1
 -10  -6   2 3035.66 82.4275   3
  -9  -6   2-4.95126 28.5590   1
   9  -6  -2 30.9478 30.4537   2
   8  -6  -2 1635.94 151.729   2
  -8  -6   2 1936.65 138.097   1
  -7   6   2 13034.2 308.335   1
  -7  -6   2 13053.2 342.468   1
  -6   6   2 678.508 69.1367   1
  -6  -6   2 817.930 88.9769   1
  -5  -6   2 6272.43 227.619   1
  -5   6   2 6328.60 199.851   1
  -4  -6   2 13.0285 19.3474   1
  -4   6   2 20.0569 12.2154   1
   4   6  -2 7.85976 13.3752   1
   3   6  -2 6111.43 214.991   1
  -3  -6   2 6241.79 221.840   1
  -3   6   2 6198.12 183.013   1
   2   6  -2 1358.36 103.768   1
   2  -6  -2 1301.71 76.8861   1
  -2  -6   2 1372.71 104.084   1
  -2   6   2 1342.90 83.8502   1
   1  -6  -2 678.390 57.4079   1
  -1  -6   2 699.062 75.0390   1
  -1   6   2 675.463 58.4274   1
   1   6  -2 685.933 74.4409   1
   0   6  -2 228.266 41.5374   1
   0  -6   2 231.479 41.3301   1
   0   6   2 231.466 34.0820   1
   0  -6  -2 227.370 35.1375   1
  -1   6  -2 361.394 54.8478   1
   1   6   2 359.774 39.9149   1
  -1  -6  -2 269.626 37.9086   1
   1  -6   2 340.581 50.6143   1
  -2   6  -2 3280.50 166.329   1
   2   6   2 3140.48 109.982   1
  -2  -6  -2 3264.24 135.175   1
   2  -6   2 3040.93 147.504   1
  -3   6  -2 11.4712 13.8339   1
  -3  -6  -2-31.4485 21.1549   1
   3  -6   2 53.6387 33.9938   2
   4  -6   2 2297.75 170.315   2
  -4  -6  -2 2204.34 118.203   1
  -5  -6  -2 350.910 49.4278   1
   5  -6   2 367.503 71.9918   2
   6  -6   2 4126.18 238.246   2
  -6  -6  -2 4562.90 175.217   1
  -7  -6  -2 109.211 32.2341   1
  -7   6  -2 64.8436 24.3672   1
   7  -6   2 134.783 45.2352   2
  -7  -6  -2 154.447 42.6219   2
   8  -6   2 469.096 87.7605   2
  -8   6  -2 412.512 71.4416   1
  -8  -6  -2 476.687 60.8792   1
  -8  -6  -2 429.906 69.6822   2
  -9  -6  -2 72.9534 34.0415   2
   9  -6   2 38.8729 27.5205   3
   9  -6   2 25.5875 34.2156   2
  -9  -6  -2 83.9693 33.7833   1
 -10  -6  -2 880.590 77.5333   3
  10  -6   2 887.561 108.598   3
 -10  -6  -2 909.550 107.668   2
 -10  -6  -2 961.308 90.0636   1
  10  -6   2 838.140 121.486   2
 -11  -6  -2 10.0222 18.6902   2
  11  -6   2-4.26335 30.7882   2
 -11  -6  -2 41.9792 29.5635   1
 -11  -6  -2 23.5811 15.4782   3
 -12  -6  -2 3534.95 165.238   3
 -12  -6  -2 3760.23 189.406   1
  12  -6   2 3565.44 257.688   2
 -13  -6  -2 117.580 44.6086   1
  13  -6   2 14.8685 37.9836   2
  14  -6   2 128.755 59.8008   2
 -14  -6  -2 146.652 44.4318   1
  15  -6   2 30.2860 39.5643   2
 -15  -6  -2 147.852 47.2792   1
 -16  -6  -2 94.3420 43.6325   1
  16  -6   2-10.1737 34.1084   2
 -17  -6  -2 16.2711 25.4821   1
  17  -6   2-24.7302 26.7592   2
  18  -6   2 25.9871 37.9554   2
 -18  -6  -2 9.39553 25.6303   1
 -19  -6  -2 30.9593 28.5988   1
  19  -6   2-29.8012 39.5130   2
  20  -6   2 40.1467 38.1179   2
  22  -7  -2-84.0686 49.5711   2
  21  -7  -2-5.31490 22.1635   2
 -20  -7   2 50.6230 38.8899   1
  20  -7  -2 47.9209 47.1299   2
  19  -7  -2 51.1952 39.0833   2
 -19  -7   2 25.8105 22.3163   1
  18  -7  -2 879.353 140.921   2
 -18  -7   2 877.108 124.487   1
 -17  -7   2 23.6422 49.3269   1
  17  -7  -2-40.9290 43.9273   2
 -16  -7   2 43.8723 34.1854   1
  16  -7  -2-12.3844 28.1037   2
  15  -7  -2 66.0569 43.7425   2
 -15  -7   2 69.4149 33.1195   1
 -14  -7   2 133.885 44.3889   2
 -14  -7   2 179.427 52.6941   1
  14  -7  -2 172.448 59.6722   2
 -13  -7   2-14.7852 32.6063   1
 -13  -7   2 13.0131 19.4844   2
  13  -7  -2 13.7766 37.5071   2
 -12  -7   2 314.698 28.1988   3
  12  -7  -2 429.613 92.6296   2
 -12  -7   2 461.812 71.7936   2
 -12  -7   2 467.955 80.1595   1
  11  -7  -2 277.579 74.1021   2
 -11  -7   2 198.855 23.7362   3
 -11  -7   2 191.997 50.8974   1
 -11  -7   2 269.171 53.6464   2
 -10  -7   2 188.701 42.9288   2
  10  -7  -2 165.769 54.8816   2
 -10  -7   2 107.103 37.4159   1
   9  -7  -2 59.2339 38.2310   2
  -9  -7   2 70.7715 25.8539   1
  -8  -7   2 93.2544 33.9563   1
   8  -7  -2 53.8980 34.7731   2
   7   7  -2 4518.12 184.476   1
  -7  -7   2 4058.83 204.713   1
  -7   7   2 4041.26 187.006   1
  -6  -7   2 4265.45 204.319   1
   6   7  -2 4313.84 181.531   1
  -6   7   2 4390.61 188.368   1
  -5   7   2 3000.17 150.816   1
  -5  -7   2 3208.98 175.470   1
  -4  -7   2 848.733 89.1202   1
  -4   7   2 824.864 77.4065   1
  -3   7   2 8438.74 236.294   1
  -3  -7   2 8017.99 271.031   1
   3  -7  -2 8232.60 207.690   1
  -2   7   2 1738.95 105.211   1
   2  -7  -2 1694.19 97.8176   1
  -2  -7   2 1614.67 120.590   1
   2   7  -2 1728.83 126.033   1
  -1  -7   2-45.8600 34.5388   1
  -1   7   2 10.8391 12.3538   1
   1  -7  -2 23.9825 19.6061   1
   1   7  -2-6.08623 20.0911   1
   0   7  -2 989.602 97.6963   1
   0   7   2 1022.11 75.7463   1
   0  -7   2 981.670 91.8136   1
   0  -7  -2 1040.01 80.5165   1
   1  -7   2 6448.42 232.572   1
  -1  -7  -2 6634.81 205.629   1
   1   7   2 6204.23 178.370   1
  -1   7  -2 6491.98 249.488   1
   2   7   2 4.25357 11.4322   1
  -2  -7  -2 12.9364 16.4832   1
   2  -7   2-16.2863 21.9564   1
   3  -7   2 329.118 54.3160   1
  -3  -7  -2 518.718 60.6734   1
  -4  -7  -2 714.860 72.4948   1
   4  -7   2 787.748 105.601   2
  -5   7  -2 2593.60 169.424   1
   5  -7   2 2464.21 191.656   2
  -5  -7  -2 2578.59 143.455   1
  -6   7  -2 1134.45 115.248   1
  -6  -7  -2 1236.80 102.985   1
   6  -7   2 1218.87 137.770   2
  -7  -7  -2 121.304 35.1910   1
  -7   7  -2 111.718 43.0920   1
   7  -7   2 106.984 46.8288   2
  -8  -7  -2 432.142 63.6608   1
  -8   7  -2 436.568 76.8678   1
   8  -7   2 334.570 83.1604   2
  -8  -7  -2 454.135 72.4443   2
  -9  -7  -2 1813.11 149.239   2
  -9  -7  -2 1661.62 126.615   1
  -9   7  -2 1855.36 160.271   1
   9  -7   2 1675.69 176.582   2
 -10  -7  -2 413.808 75.0127   2
  10  -7   2 410.708 88.5086   2
 -10  -7  -2 384.082 64.1325   1
  11  -7   2 442.942 91.7848   2
 -11  -7  -2 431.719 69.5913   1
 -12  -7  -2 44.5907 37.9666   1
  12  -7   2 3.75917 25.4701   2
 -13  -7  -2 290.860 60.8692   1
  13  -7   2 305.981 84.9509   2
  14  -7   2 46.9389 44.9944   2
 -14  -7  -2 16.4225 19.7271   1
  15  -7   2 269.035 79.0799   2
 -15  -7  -2 235.111 58.9939   1
 -16  -7  -2 191.045 56.8222   1
  16  -7   2 259.009 80.2837   2
 -17  -7  -2 148.875 49.9283   1
  17  -7   2 176.809 65.2142   2
 -18  -7  -2 138.894 48.2798   1
  18  -7   2 38.4148 44.8738   2
 -19  -7  -2 127.906 46.5141   1
  19  -7   2 193.473 77.1044   2
  21  -8  -2-37.1083 38.7708   2
  20  -8  -2 20.6579 33.3440   2
  19  -8  -2 61.1194 46.1432   2
 -19  -8   2 20.0118 34.6205   1
  18  -8  -2-79.1249 49.3597   2
 -18  -8   2-15.7386 28.1050   1
  17  -8  -2 337.135 90.1637   2
 -17  -8   2 363.054 85.3787   1
  16  -8  -2 80.9364 46.5846   2
 -16  -8   2 27.9995 28.1753   1
 -15  -8   2 350.044 77.8171   1
  15  -8  -2 298.509 73.8711   2
 -14  -8   2 260.620 67.7626   1
  14  -8  -2 214.910 69.6691   2
 -13  -8   2 27.5803 23.9886   2
 -13  -8   2-41.7065 42.3381   1
  13  -8  -2-33.6533 43.9572   2
 -13  -8   2-2.13286 5.77451   3
  12  -8  -2 151.885 58.9436   2
 -12   8   2 172.503 52.0772   1
 -12  -8   2 213.723 51.4386   2
 -12  -8   2 117.015 19.6634   3
 -12  -8   2 58.1138 29.3413   1
 -11   8   2 1219.72 128.097   1
  11  -8  -2 1261.55 155.050   2
 -11  -8   2 1170.64 112.006   2
 -11  -8   2 1020.88 121.937   1
 -10  -8   2 1.31553 42.2224   1
 -10   8   2 35.6915 18.0495   1
  10  -8  -2 40.1917 33.0448   2
  -9  -8   2 49.6825 39.7024   1
  -9   8   2 16.6895 21.1979   1
   9  -8  -2 56.0877 28.1485   2
  -8  -8   2 2146.58 161.164   1
   8  -8  -2 1802.79 176.281   2
  -7  -8   2 219.765 55.2605   1
   7   8  -2 279.496 49.1305   1
  -6  -8   2 65.4214 38.5316   1
   6   8  -2 85.2267 29.6024   1
  -6   8   2 48.7872 23.4073   1
  -5  -8   2 4455.71 219.834   1
   5   8  -2 4561.19 203.449   1
  -5   8   2 4673.90 204.182   1
  -4   8   2 233.979 44.7406   1
  -4  -8   2 238.082 49.2350   1
   4   8  -2 228.982 51.6194   1
  -3   8   2-5.96763 14.6514   1
  -3  -8   2-25.7702 27.8023   1
   3  -8  -2-0.11281 18.7081   1
  -2   8   2 5455.26 203.079   1
   2  -8  -2 5749.95 194.876   1
  -2  -8   2 5501.86 234.863   1
  -1  -8   2 209.506 45.1266   1
   1  -8  -2 222.606 40.6350   1
  -1   8   2 219.255 39.3634   1
   0  -8   2 416.987 64.9395   1
   0   8   2 397.663 53.6657   1
   0  -8  -2 416.622 56.6759   1
   1   8   2 70.5847 25.1885   1
   1  -8   2 36.9062 21.6209   1
  -1  -8  -2 60.7090 25.3992   1
   2   8   2 302.263 44.3387   1
  -2  -8  -2 256.615 46.3294   1
   2  -8   2 274.781 53.3830   1
  -3  -8  -2 730.437 78.9012   1
   3  -8   2 666.678 81.5985   1
   4  -8   2 60.8713 42.8883   2
  -4   8  -2 34.8495 22.7053   1
  -4  -8  -2 45.6191 28.7102   1
   5  -8   2 92.8915 45.9892   2
  -5   8  -2 55.7457 35.9181   1
  -5  -8  -2 95.6509 31.4902   1
  -6  -8  -2-14.0808 28.4011   1
  -6   8  -2-19.9058 21.5404   1
   6  -8   2 12.0194 33.7662   2
  -7   8  -2 86.7727 30.9831   1
   7  -8   2 159.081 61.3636   2
  -7  -8  -2 81.9759 31.5219   1
  -8  -8  -2 1618.13 133.743   1
   8  -8   2 1502.96 168.642   2
  -8   8  -2 1615.09 153.433   1
  -9  -8  -2 35.1247 34.0330   1
   9  -8   2 24.7069 40.2381   2
 -10  -8  -2 485.506 76.9131   1
  10  -8   2 401.165 90.5667   2
  11  -8   2-7.90709 46.8570   2
 -11  -8  -2 4.85764 28.9493   1
  12  -8   2-16.4376 48.1946   2
 -12  -8  -2-9.10707 28.6372   1
 -13  -8  -2 114.623 42.6962   1
  13  -8   2 20.1408 45.9830   2
 -14  -8  -2 100.610 41.9302   1
  14  -8   2 176.430 66.0846   2
  15  -8   2 11.1764 36.7226   2
 -15  -8  -2 249.234 62.4314   1
  16  -8   2 125.295 59.1719   2
 -16  -8  -2 47.0035 33.4051   1
 -17  -8  -2-17.0681 29.3880   1
  17  -8   2-20.1936 32.2425   2
 -18  -8  -2 511.086 95.5685   1
  18  -8   2 458.686 112.479   2
  19  -8   2 132.613 69.6260   2
  20  -9  -2 33.9900 34.8996   2
 -19  -9   2-11.6714 37.7412   1
  19  -9  -2-42.2123 41.4095   2
  18  -9  -2-12.7497 28.3105   2
 -18  -9   2-2.93653 36.7493   1
  17  -9  -2 68.0204 47.6935   2
 -17  -9   2-9.90808 43.4451   1
 -16  -9   2-130.382 56.2745   1
  16  -9  -2-21.9320 33.8838   2
 -15  -9   2-15.6694 39.6386   1
  15  -9  -2 58.7507 43.7183   2
  14  -9  -2 393.388 99.2721   2
 -14  -9   2 534.542 100.409   1
 -13  -9   2-4.73843 10.1571   3
 -13  -9   2 11.1564 34.2028   1
  13  -9  -2-28.7606 45.0892   2
 -12  -9   2 184.590 61.1293   1
  12  -9  -2 189.162 65.8050   2
 -12  -9   2 146.429 44.5357   2
 -11  -9   2 273.588 68.8213   1
  11  -9  -2 333.798 85.5026   2
 -11   9   2 392.556 77.6515   1
  10  -9  -2 61.5027 41.2117   2
 -10   9   2 117.378 45.1021   1
 -10  -9   2 81.0846 37.9591   1
  -9   9   2 236.475 55.7082   1
   9  -9  -2 87.0065 40.3336   2
  -9  -9   2 199.096 54.7550   1
  -8  -9   2 115.233 41.8538   1
  -8   9   2 173.005 47.4433   1
  -7  -9   2 628.932 90.8679   1
   7   9  -2 559.815 73.4231   1
   6   9  -2 939.922 94.9888   1
  -6  -9   2 845.955 104.492   1
  -5  -9   2 98.7614 37.3108   1
  -5   9   2 195.338 45.1487   1
   5   9  -2 173.158 45.6661   1
  -4  -9   2 4033.28 217.492   1
   4   9  -2 3910.46 206.134   1
  -4   9   2 3831.68 191.587   1
  -3   9   2 88.2509 31.1087   1
   3  -9  -2 156.535 36.3283   1
   3   9  -2 96.2203 27.5182   1
  -3  -9   2 182.848 49.7497   1
   2   9  -2 357.115 64.9240   1
  -2  -9   2 335.750 62.7662   1
   2  -9  -2 311.591 51.1647   1
  -2   9   2 299.816 51.6115   1
   1   9  -2 1106.87 115.416   1
   1  -9  -2 1087.49 94.9770   1
  -1  -9   2 1076.90 108.208   1
  -1   9   2 1180.54 97.5084   1
   0   9   2 17.7473 17.7321   1
   0   9  -2 11.9342 22.0138   1
   0  -9   2 14.6750 25.3562   1
   0  -9  -2 27.2380 21.1969   1
   1   9   2 576.548 65.5411   1
  -1   9  -2 671.484 91.1807   1
   1  -9   2 560.562 79.1241   1
  -1  -9  -2 622.152 73.9304   1
  -2   9  -2 4.45333 19.6823   1
   2  -9   2 12.1151 23.8835   1
   2   9   2 40.3869 23.1510   1
  -2  -9  -2-27.4101 17.4083   1
   3  -9   2-15.9313 17.7600   1
  -3  -9  -2 13.7815 18.4470   1
  -3   9  -2 13.8176 27.1671   1
   4  -9   2 1662.62 170.116   2
  -4  -9  -2 1701.98 129.637   1
  -4   9  -2 1665.63 148.930   1
   5  -9   2 19.1832 29.2539   2
  -5   9  -2 26.7364 26.7058   1
  -5  -9  -2-25.9900 27.2861   1
  -6   9  -2 1902.91 164.557   1
   6  -9   2 2189.75 204.072   2
  -6  -9  -2 2228.63 156.648   1
  -7  -9  -2 4.36008 25.3572   1
  -7   9  -2-43.9154 31.2670   1
   7  -9   2-39.8378 36.3331   2
  -8  -9  -2-41.7045 36.8697   1
   8  -9   2-4.52877 40.1663   2
  -9  -9  -2 547.555 88.4092   1
   9  -9   2 418.623 93.1450   2
 -10  -9  -2 148.475 44.3474   1
  10  -9   2 95.1886 54.0521   2
  11  -9   2 146.937 64.6124   2
 -11  -9  -2 203.782 54.7999   1
 -12  -9  -2-7.13065 35.6888   1
  12  -9   2 8.38879 53.7277   2
  13  -9   2 43.1151 29.4553   2
 -13  -9  -2 84.2237 37.9983   1
  14  -9   2 61.4543 46.2521   2
 -14  -9  -2 127.055 44.5131   1
 -15  -9  -2 283.701 74.8892   1
  15  -9   2 391.742 106.422   2
 -16  -9  -2 24.0829 33.2380   1
  16  -9   2-25.5206 38.4018   2
  17  -9   2 137.406 67.3978   2
 -17  -9  -2 44.0835 34.9524   1
 -18  -9  -2 35.7016 33.1544   1
  18  -9   2 30.7447 30.2974   2
  19 -10  -2 44.9869 44.4650   2
 -18 -10   2-35.1511 44.6600   1
  18 -10  -2-44.8945 42.3333   2
  17 -10  -2 66.4551 49.6074   2
 -17 -10   2 0.81639 41.4472   1
 -16 -10   2 62.5462 47.5052   1
  16 -10  -2 68.6185 37.3341   2
  15 -10  -2-9.69239 29.1433   2
 -15 -10   2-27.8250 30.2679   1
  14 -10  -2 59.5939 34.5110   2
 -14 -10   2 122.887 57.7827   1
 -13 -10   2-10.0451 8.95631   3
 -13 -10   2-16.4574 38.6216   1
  13 -10  -2 26.0268 31.6384   2
 -12 -10   2 28.9612 32.9812   1
  12 -10  -2 33.5773 30.5944   2
 -11  10   2 198.824 58.0953   1
 -11 -10   2 206.021 61.1233   1
  11 -10  -2 87.6343 48.1308   2
 -10  10   2 6.07045 27.4031   1
  10 -10  -2 66.7340 52.1213   2
 -10 -10   2 22.7992 35.6783   1
  -9  10   2 140.704 47.6335   1
   9 -10  -2 187.279 64.8582   2
  -9 -10   2 73.5623 41.9908   1
  -8  10   2 11.3341 24.8759   1
  -8 -10   2 44.7396 34.1528   1
  -7  10   2-14.8662 22.9697   1
  -7 -10   2-32.3122 41.1960   1
   7  10  -2 16.1479 24.0404   1
   6  10  -2-6.41648 18.4684   1
  -6 -10   2 13.8076 27.3586   1
  -5 -10   2 202.692 52.9294   1
   5  10  -2 169.206 43.1798   1
  -4 -10   2 712.205 99.6182   1
   4  10  -2 671.083 90.7480   1
  -3 -10   2 113.699 39.8727   1
   3 -10  -2 115.453 34.6057   1
   3  10  -2 147.257 45.0716   1
  -2 -10   2 25.7052 23.2566   1
   2  10  -2-7.47325 16.3212   1
   2 -10  -2-4.25851 24.0700   1
   1  10  -2 1626.85 146.479   1
   1 -10  -2 1698.78 125.814   1
  -1 -10   2 1720.98 144.521   1
   0  10  -2 19.9288 21.3518   1
   0 -10  -2-0.51188 20.0668   1
   0 -10   2-4.66659 24.4323   1
  -1  10  -2-48.8543 30.9990   1
  -1 -10  -2-0.71593 19.1171   1
   1 -10   2 19.2878 20.5037   1
  -2 -10  -2 118.217 39.7742   1
   2 -10   2 123.656 41.1766   1
  -2  10  -2 97.3329 39.9075   1
  -3  10  -2 496.382 86.7114   1
   3 -10   2 401.094 70.2543   1
  -3 -10  -2 416.177 68.8252   1
  -4  10  -2 431.576 81.2270   1
  -4 -10  -2 542.695 79.4161   1
  -5  10  -2 675.551 102.667   1
   5 -10   2 917.027 138.885   2
  -5 -10  -2 820.546 101.182   1
  -6 -10  -2 2073.04 159.945   1
   6 -10   2 2144.79 211.204   2
  -6  10  -2 2012.04 179.628   1
  -7 -10  -2 187.782 51.9994   1
   7 -10   2 170.280 65.3035   2
  -8 -10  -2-34.7645 35.5908   1
   8 -10   2 44.4409 45.0825   2
  -9 -10  -2 29.9817 23.4364   1
   9 -10   2-50.9481 52.9949   2
  10 -10   2 1817.18 210.750   2
 -10 -10  -2 1861.63 172.403   1
 -11 -10  -2 44.7536 40.1018   1
  11 -10   2 110.567 71.2568   2
  12 -10   2 51.2352 37.6932   2
 -12 -10  -2 67.7766 37.5201   1
 -13 -10  -2 6.11301 29.1777   1
 -13 -10  -2 16.6937 15.6477   3
  13 -10   2-19.7162 48.9491   2
 -14 -10  -2 44.5929 38.7780   1
  14 -10   2 101.474 60.5485   2
 -15 -10  -2 1.60975 29.7102   1
  15 -10   2 33.0944 42.1108   2
  16 -10   2 15.1785 34.5674   2
 -16 -10  -2-30.1381 33.4496   1
  17 -10   2 64.2388 50.8697   2
 -17 -10  -2 57.8490 44.0991   1
  18 -11  -2-32.7143 38.6632   2
  17 -11  -2-44.1249 40.8959   2
 -17 -11   2-70.7440 48.6447   1
  16 -11  -2 33.4931 28.2939   2
 -16 -11   2 64.7344 51.2889   1
  15 -11  -2 69.1939 48.9864   2
 -15 -11   2 221.169 78.2864   1
 -14 -11   2 24.1297 27.6800   1
  14 -11  -2 54.3365 29.8855   2
  13 -11  -2 21.3037 44.2096   2
 -13 -11   2 61.8956 48.2250   1
 -12 -11   2 154.393 59.8344   1
  12 -11  -2 135.843 63.9333   2
 -11 -11   2-1.82183 34.1018   1
  11 -11  -2 0.65436 29.2213   2
  10 -11  -2 29.0668 40.9463   2
 -10 -11   2 11.0851 30.8578   1
 -10  11   2 35.6205 26.9503   1
  -9 -11   2 7.78216 30.2154   1
  -9  11   2 48.1814 30.6764   1
   9 -11  -2 12.4953 36.6023   2
  -8 -11   2 38.2979 31.7681   1
  -8  11   2 62.5622 34.2893   1
  -7  11   2-1.03780 32.3642   1
  -7 -11   2-19.8243 36.7327   1
  -6  11   2 895.849 110.434   1
  -6 -11   2 891.636 117.457   1
   5  11  -2 22.0063 24.8284   1
  -5 -11   2 19.5130 28.6009   1
  -5  11   2-4.71097 20.5533   1
  -4 -11   2-20.4887 31.7695   1
   4  11  -2 11.5707 20.9957   1
   3  11  -2-45.9095 37.8539   1
   3 -11  -2 5.15568 21.3017   1
  -3 -11   2-26.7379 29.9052   1
   2 -11  -2 47.4822 29.7118   1
   2  11  -2 44.1861 28.1403   1
  -2 -11   2 78.9461 34.3293   1
   1  11  -2 33.2212 31.1664   1
   1 -11  -2 3.05057 18.5325   1
  -1 -11   2-27.2774 32.1127   1
   0 -11   2 126.462 49.2440   1
   0  11  -2 117.762 50.5436   1
   0 -11  -2 60.5686 28.2582   1
   1 -11   2 212.559 55.8349   1
  -1  11  -2 220.449 60.5009   1
  -1 -11  -2 174.029 45.0397   1
   2  11   2 1145.20 99.0581   1
  -2  11  -2 1253.28 140.364   1
   2 -11   2 1328.84 131.208   1
  -2 -11  -2 1132.75 115.416   1
   3 -11   2 573.473 86.8818   1
  -3 -11  -2 582.279 86.5280   1
   3  11   2 641.371 72.3156   1
  -3  11  -2 593.523 98.0764   1
  -4 -11  -2 361.230 67.3806   1
  -4  11  -2 446.540 85.8916   1
   5 -11   2 190.162 69.3363   2
  -5 -11  -2 159.616 49.5193   1
  -6 -11  -2 129.314 50.0030   1
   6 -11   2 148.641 66.9110   2
  -7 -11  -2-28.2362 34.4142   1
   7 -11   2 4.95277 38.6719   2
   8 -11   2 546.674 114.816   2
  -8 -11  -2 578.068 93.6679   1
  -9 -11  -2 499.734 92.8803   1
   9 -11   2 385.354 95.5874   2
 -10 -11  -2-24.7235 34.6293   1
  10 -11   2-15.0735 33.9720   2
 -11 -11  -2 97.8304 42.1729   1
  11 -11   2 20.9069 38.5791   2
  12 -11   2 15.8880 30.4513   2
 -12 -11  -2-19.3952 39.0222   1
  13 -11   2 103.465 45.0081   2
 -13 -11  -2 75.2974 45.9227   1
 -14 -11  -2 16.0950 35.3702   1
  14 -11   2-44.9974 48.5422   2
  15 -11   2-30.8227 39.1725   2
 -15 -11  -2-21.3147 41.1353   1
 -16 -11  -2-24.8193 33.8934   1
  16 -11   2 20.0950 36.7156   2
 -17 -11  -2 83.0194 59.0268   1
  17 -12  -2-101.248 60.5876   2
 -16 -12   2-71.0191 47.7863   1
  16 -12  -2-8.36322 28.6662   2
  15 -12  -2-0.79360 40.2251   2
 -15 -12   2-29.7435 38.5058   1
 -14 -12   2 90.0498 45.0593   1
  14 -12  -2 9.98318 30.2254   2
 -13 -12   2 40.2559 33.8330   1
  13 -12  -2 32.1620 44.1389   2
  12 -12  -2 271.572 87.1504   2
 -12 -12   2 148.384 66.9990   1
  11 -12  -2 115.009 49.3342   2
 -11 -12   2 46.4977 36.9562   1
 -10 -12   2 336.230 82.5408   1
  10 -12  -2 555.623 121.194   2
  -9 -12   2 73.6485 27.5032   1
  -9  12   2 121.305 55.2189   1
   9 -12  -2 116.272 59.4473   2
  -8  12   2 6.49050 21.8495   1
  -8 -12   2-8.39934 27.9561   1
  -7 -12   2 6.66263 27.1993   1
  -7  12   2-38.7298 29.4303   1
  -6  12   2 420.222 80.9181   1
  -6 -12   2 500.588 93.2870   1
  -5 -12   2 55.5556 38.7363   1
  -5  12   2 76.4023 34.9724   1
  -4 -12   2 179.093 60.9360   1
  -4  12   2 130.482 48.4451   1
  -3 -12   2 4.20832 27.5294   1
  -3  12   2 11.0298 18.0861   1
  -2 -12   2 60.4385 45.8056   1
   2 -12  -2-17.0804 29.7053   1
  -2  12   2 42.6746 26.4920   1
  -1  12   2 682.705 90.9132   1
  -1 -12   2 701.607 103.309   1
   1 -12  -2 748.300 94.2980   1
   0  12   2 8.35459 20.6589   1
   0 -12  -2-3.30316 29.3296   1
   0 -12   2 19.5932 25.3253   1
   1 -12   2 1105.72 126.966   1
  -1 -12  -2 995.534 111.384   1
   1  12   2 839.266 92.7206   1
  -2 -12  -2 143.318 46.3580   1
   2 -12   2 76.0193 38.3176   1
   2  12   2 93.6110 33.6804   1
  -3 -12  -2 215.421 55.4081   1
   3  12   2 254.359 47.8254   1
  -4 -12  -2 440.792 80.8472   1
   5 -12   2 41.5594 34.3039   2
  -5 -12  -2 41.1584 31.9098   1
   6 -12   2 135.710 72.7944   2
  -6 -12  -2 136.070 50.1931   1
  -7 -12  -2 310.527 71.1122   1
   7 -12   2 290.586 86.7791   2
   8 -12   2 130.798 59.3108   2
  -8 -12  -2 180.415 64.0162   1
  -9 -12  -2 37.5138 34.3002   1
   9 -12   2 21.6379 31.4628   2
 -10 -12  -2-7.79624 31.1764   1
  10 -12   2-71.4616 51.9645   2
  11 -12   2-23.8666 34.1732   2
 -11 -12  -2 3.34609 25.4202   1
  12 -12   2 70.1917 33.7655   2
 -12 -12  -2 33.0727 37.0129   1
 -13 -12  -2-33.0477 37.4389   1
  13 -12   2-34.9432 42.7073   2
  14 -12   2-46.1075 46.7948   2
 -14 -12  -2 48.5554 41.2374   1
 -15 -12  -2 88.3524 59.2329   1
 -16 -12  -2-8.64625 28.1616   1
 -15 -13   2 12.5060 33.6845   1
  15 -13  -2-4.53419 28.5214   2
 -14 -13   2 124.504 65.8891   1
  14 -13  -2 79.3980 51.1008   2
  13 -13  -2 40.4817 39.2605   2
 -13 -13   2 5.01425 27.1680   1
 -12 -13   2 11.6553 29.1256   1
  12 -13  -2 24.8109 44.6862   2
 -11 -13   2-0.79541 29.6979   1
  11 -13  -2-72.3278 53.5376   2
 -10 -13   2 126.418 58.2778   1
  10 -13  -2 65.0999 42.2589   2
  -9 -13   2-37.0041 37.0441   1
   9 -13  -2 19.8012 39.7338   2
  -8 -13   2-26.8765 40.9204   1
  -7  13   2 81.1370 40.3759   1
  -7 -13   2 76.1131 47.2082   1
  -6 -13   2 33.4364 32.3238   1
  -6  13   2-24.8289 23.9473   1
  -5 -13   2-3.50813 30.6219   1
  -5  13   2 46.9992 24.6875   1
  -4 -13   2 19.2724 29.2220   1
  -4  13   2 29.8834 28.5272   1
  -3 -13   2-51.8658 43.3408   1
  -3  13   2 9.10582 16.5995   1
   2 -13  -2 81.8384 35.3583   1
  -2 -13   2 2.83452 34.8527   1
  -2  13   2 14.5470 23.1711   1
   1 -13  -2 18.0948 24.8679   1
  -1  13   2-1.04603 22.9027   1
  -1 -13   2 33.0288 33.8895   1
   0 -13  -2 5.82002 22.4293   1
   0  13   2-14.1781 22.0074   1
   0 -13   2-14.4304 24.3327   1
   1 -13   2 556.160 94.5369   1
  -1 -13  -2 568.653 87.9473   1
   1  13   2 515.772 75.7641   1
  -2 -13  -2-19.9600 28.8651   1
   2  13   2 22.9979 18.0000   1
   3  13   2 48.0884 28.4540   1
  -3 -13  -2 35.9149 36.8739   1
  -4 -13  -2 135.227 49.8993   1
   5 -13   2 10.9979 31.8237   2
  -5 -13  -2 20.0283 26.7554   1
  -6 -13  -2 12.5474 29.9636   1
   6 -13   2-42.7383 40.7585   2
  -7 -13  -2-37.4625 31.0365   1
   7 -13   2 60.0832 46.4541   2
  -8 -13  -2 1141.19 143.228   1
   8 -13   2 1149.10 180.165   2
  -9 -13  -2 91.7734 38.0899   1
   9 -13   2 187.786 74.1750   2
 -10 -13  -2-11.9425 24.9834   1
  10 -13   2 45.0144 48.8325   2
 -11 -13  -2 13.4857 41.1341   1
  11 -13   2-10.2997 46.9967   2
 -12 -13  -2-4.45442 32.4886   1
  12 -13   2 59.7323 52.1190   2
 -13 -13  -2 11.9624 36.6895   1
  13 -13   2-58.3254 50.1772   2
 -14 -13  -2 0.90222 27.6391   1
 -15 -13  -2 10.1620 31.8108   1
 -14 -14   2-45.3605 43.2341   1
 -13 -14   2 15.9994 32.0740   1
  13 -14  -2-13.2111 32.0479   2
 -12 -14   2 101.086 63.2211   1
  12 -14  -2-4.48938 28.7728   2
 -11 -14   2 87.7800 50.5002   1
  11 -14  -2 88.6011 66.0502   2
  10 -14  -2 268.467 96.4538   2
 -10 -14   2 218.347 67.6248   1
   9 -14  -2-28.4570 41.1428   2
  -9 -14   2 87.8136 51.1874   1
  -8 -14   2 3.01644 33.6780   1
  -7 -14   2 102.335 49.7030   1
  -6 -14   2 45.2844 44.1871   1
  -5 -14   2-11.4636 26.2525   1
  -4 -14   2 176.650 58.5797   1
  -4  14   2 224.414 61.5275   1
  -3  14   2 17.3665 26.1072   1
  -3 -14   2-5.45184 25.3406   1
  -2  14   2 45.1838 22.9234   1
   2 -14  -2 10.6850 18.8686   1
  -2 -14   2 20.1690 33.2128   1
   1 -14  -2-26.4618 23.9565   1
  -1 -14   2-23.0099 36.2352   1
  -1  14   2-38.5577 27.9914   1
   0  14   2-9.62391 17.6778   1
   0 -14   2 6.39704 24.1024   1
   0 -14  -2-26.0871 18.6101   1
  -1 -14  -2 188.195 53.2613   1
   1 -14   2 158.194 57.4813   1
   1  14   2 199.517 50.7948   1
   2 -14   2 192.496 60.6291   1
   2  14   2 196.439 49.0344   1
  -2 -14  -2 222.100 61.7673   1
  -3 -14  -2 531.835 92.7348   1
  -4 -14  -2 104.368 45.8501   1
  -5 -14  -2 151.132 52.8805   1
   5 -14   2 198.608 75.1721   2
   6 -14   2 23.9852 41.6609   2
  -6 -14  -2 67.1980 59.7514   1
  -7 -14  -2 43.9031 41.6484   1
   7 -14   2 85.4502 53.8803   2
  -8 -14  -2-16.7352 32.4626   1
   8 -14   2 34.3209 47.4579   2
   9 -14   2 21.9965 27.7283   2
  -9 -14  -2 97.2922 51.5807   1
  10 -14   2 167.068 82.0093   2
 -10 -14  -2 10.3892 34.7600   1
 -11 -14  -2 23.2273 31.4816   1
  11 -14   2 30.7046 29.5408   2
 -12 -14  -2-53.9840 42.6062   1
 -13 -14  -2-50.4321 42.0549   1
 -14 -14  -2-56.2326 46.7925   1
 -13 -15   2 1.77099 25.4838   1
 -12 -15   2-29.9684 39.4062   1
  11 -15  -2-11.2083 35.0107   2
 -11 -15   2 0.68821 33.3015   1
 -10 -15   2 40.5867 39.9641   1
  10 -15  -2 32.1131 46.7110   2
   9 -15  -2 71.9791 41.9604   2
  -9 -15   2 119.892 65.7195   1
   8 -15  -2 229.774 87.6753   2
  -8 -15   2 114.213 56.3227   1
  -7 -15   2-36.4997 30.9740   1
  -6 -15   2-13.8491 24.4572   1
  -5 -15   2 17.0616 36.7192   1
  -4 -15   2 61.2708 44.2206   1
  -3 -15   2-3.04142 32.4051   1
   2 -15  -2 77.1832 37.7145   1
  -2 -15   2 29.3881 26.0203   1
   1 -15  -2-36.8522 30.4716   1
  -1 -15   2-55.3228 38.8137   1
   0 -15  -2 55.0041 28.7641   1
   0 -15   2-21.6842 40.9236   1
   1 -15   2 199.200 64.2790   1
  -1 -15  -2 143.257 48.8449   1
  -2 -15  -2 63.2261 35.0828   1
   2 -15   2 57.4841 36.7316   1
  -3 -15  -2 6.69207 29.2011   1
  -4 -15  -2 73.9244 46.3729   1
   4 -15   2 147.921 67.9680   2
   5 -15   2 17.6989 31.5142   2
  -5 -15  -2-5.97749 25.0743   1
  -6 -15  -2 20.0557 26.0772   1
   6 -15   2-53.3408 49.7837   2
  -7 -15  -2 73.9752 51.0965   1
   7 -15   2 96.4442 58.5854   2
   8 -15   2 87.8370 66.6153   2
  -8 -15  -2 102.998 46.2884   1
   9 -15   2 3.53578 28.1769   2
  -9 -15  -2-0.20216 34.3038   1
 -10 -15  -2 21.0025 33.5980   1
 -11 -15  -2-87.3190 50.9571   1
 -12 -15  -2 1.43361 26.6799   1
 -13 -15  -2-65.4626 47.3026   1
 -12 -16   2-99.3046 56.6269   1
 -11 -16   2 142.408 78.2521   1
 -10 -16   2 11.5576 36.7873   1
  -9 -16   2-81.7037 49.9759   1
  -8 -16   2 31.0514 35.6797   1
  -7 -16   2-3.40082 24.0907   1
  -6 -16   2 29.7347 32.9689   1
  -5 -16   2 7.00612 29.9776   1
  -4 -16   2-41.0563 36.3717   1
  -3 -16   2 82.6245 47.6959   1
  -2 -16   2 3.95882 23.9493   1
   1 -16  -2 52.3536 31.3411   1
  -1 -16   2-69.0744 42.0646   1
   0 -16   2 140.169 54.5970   1
   0 -16  -2 4.81199 27.3275   1
   1 -16   2 109.516 53.6125   1
  -1 -16  -2 23.2733 22.7724   1
  -2 -16  -2 22.8378 25.6665   1
  -3 -16  -2 89.5187 43.1383   1
   4 -16   2-13.3175 40.6558   2
  -4 -16  -2-20.5365 25.9420   1
  -5 -16  -2 14.5337 35.2397   1
   5 -16   2 115.393 72.1899   2
  -6 -16  -2-3.51522 27.1067   1
   6 -16   2 110.383 76.5263   2
  -7 -16  -2-91.1733 47.1108   1
  -8 -16  -2 43.2559 33.1039   1
  -9 -16  -2-36.6177 33.1966   1
 -10 -16  -2 79.2131 47.4569   1
 -10 -17   2 28.6321 43.5578   1
  -9 -17   2 85.0950 61.7059   1
  -8 -17   2 79.5446 58.5950   1
  -7 -17   2 6.35337 27.4886   1
  -6 -17   2 0.43843 27.3470   1
  -5 -17   2-15.3641 26.6074   1
  -4 -17   2 47.6779 43.9867   1
  -3 -17   2-101.358 51.7280   1
  -2 -17   2 24.6864 27.4669   1
  -1 -17   2-6.22459 24.3304   1
   0 -17   2 107.812 56.2246   1
   1 -17   2 44.3807 38.2761   1
  -7 -18   2 21.3086 28.7421   1
  -6 -18   2-49.2385 39.7114   1
  -5 -18   2 44.2338 39.6437   1
  -4 -18   2-27.6276 31.8589   1
  -3 -18   2-4.29621 22.2811   1
  -2 -18   2 33.5215 28.2669   1
  -1 -18   2-54.5631 37.3562   1
   0 -18   2 57.5167 38.4740   1
  23   0  -3-12.1096 21.0417   2
  22   0  -3 5.69106 15.6682   2
  21   0  -3 22.6967 23.8187   2
  20   0  -3 11.9549 19.7547   2
  19   0  -3-14.2926 24.8938   2
  18   0  -3 24.8211 19.0575   3
 -18   0   3-38.5284 31.8092   2
  18   0  -3-5.55560 19.8706   2
 -17   0   3-10.8359 25.2515   2
  17   0  -3-1.54191 14.1664   3
  17   0  -3-30.3385 25.3180   2
  16   0  -3-6.99428 14.3225   3
 -16   0   3-0.89530 24.8065   2
  16   0  -3-16.0937 24.6867   2
  15   0  -3-1.12897 14.9309   3
 -15   0   3-11.6858 23.2823   2
  15   0  -3 39.3987 30.6350   2
  14   0  -3 1.54505 14.4219   2
  14   0  -3-0.10554 10.4056   3
  13   0  -3 6.00309 12.0712   3
  13   0  -3 0.07396 17.2156   2
 -12   0   3 1.52551 15.1329   2
  12   0  -3-8.68887 16.8820   3
  12   0  -3-0.06649 14.3574   2
 -11   0   3-12.6966 21.8080   2
  11   0  -3-14.2144 21.1382   2
  11   0  -3-9.94657 14.1679   3
  10   0  -3 8.56340 14.2406   2
 -10   0   3-19.2214 20.8631   2
   9   0  -3-0.13330 12.6508   2
  -9   0   3 15.2604 19.5337   2
  -8   0   3 6.08681 12.4114   2
   8   0  -3 2.79758 9.91864   2
  -7   0   3 0.04063 9.53810   2
   7   0  -3-6.63199 11.4198   2
   6   0  -3 50.0520 16.7159   2
  -6   0   3-4.51462 10.9476   2
   5   0  -3 6.19217 9.49577   2
  -5   0   3 2.83062 8.23627   2
  -4   0   3 9.62345 12.2247   1
  -3   0   3-21.1739 14.2556   1
  -2   0   3-16.7316 11.2144   1
  -1   0   3 3.36552 7.77308   1
  -1   0   3 3.50191 7.12364   2
   0   0   3 4.83192 7.54428   2
   1   0   3 5.79919 10.5285   2
   2   0   3 8.00519 12.5396   2
   3   0   3-10.9555 16.3196   2
   4   0   3 1.74414 13.1318   3
   4   0   3-15.2550 22.1617   2
   5   0   3-9.18019 15.8139   3
  -5   0  -3 5.71093 17.3482   3
   5   0   3 1.25127 14.1126   2
   6   0   3-28.9646 26.0320   2
   6   0   3-21.5207 16.7152   3
  -6   0  -3 9.39033 16.4048   3
   7   0   3-21.8861 28.6028   2
  -7   0  -3 68.6306 29.2153   3
   7   0   3-27.2241 18.6222   3
  -8   0  -3-8.28703 17.6546   3
   8   0   3-7.62832 20.7286   2
   8   0   3-5.95800 12.4023   3
   9   0   3-17.8864 20.4151   2
  -9   0  -3-8.01124 24.1818   2
   9   0   3-17.8060 18.8070   3
  10   0   3-1.32862 19.6321   2
 -10   0  -3-28.2759 21.5576   2
  10   0   3 4.49340 16.7325   3
 -11   0  -3-8.69213 20.2821   2
  11   0   3-17.1303 16.9839   3
  11   0   3-20.2726 22.6217   2
 -12   0  -3 28.6682 34.6113   2
  12   0   3-20.5751 27.9073   2
  13   0   3-43.0172 37.8711   2
  14   0   3-18.3223 35.5821   2
  15   0   3-37.0771 33.5099   2
  16   0   3 29.8488 26.1041   2
  17   0   3 6.28504 26.5032   2
  18   0   3-33.8340 31.8310   2
  19   0   3 97.2217 50.2617   2
  20   0   3 0.18762 24.9315   2
  21   0   3 46.4796 41.8073   2
  23  -1  -3 20.2745 31.2113   2
  22  -1  -3 33.8144 26.1759   2
  21  -1  -3 107.376 44.8429   2
  20  -1  -3 332.394 71.2065   2
  20   1  -3 291.241 63.0839   2
  19  -1  -3 247.176 61.3853   2
  19   1  -3 192.787 49.3839   2
  18  -1  -3 897.211 109.143   2
 -18  -1   3 604.109 106.968   2
  18   1  -3 872.269 102.721   2
  18  -1  -3 723.052 80.5939   3
  17   1  -3 108.416 39.3885   2
  17  -1  -3 110.341 36.5061   2
 -17  -1   3 11.5709 24.3008   2
 -17   1   3 26.8550 20.4885   2
  17  -1  -3 36.3536 20.8205   3
  16   1  -3 1336.18 82.5469   3
 -16   1   3 1224.73 146.325   2
 -16  -1   3 1222.53 139.081   2
  16  -1  -3 1396.25 127.734   2
  16  -1  -3 1270.93 102.382   3
  16   1  -3 1486.69 123.498   2
  15   1  -3 7.65895 19.7467   2
  15  -1  -3 13.3079 16.3555   3
  15   1  -3 21.1347 13.9044   3
 -15  -1   3 23.1676 22.7596   2
 -15   1   3 23.3149 31.5118   2
  15  -1  -3-8.43667 23.8538   2
  14  -1  -3 207.196 47.2666   2
 -14   1   3 118.953 43.6900   2
  14   1  -3 155.159 27.4486   3
  14   1  -3 126.938 36.0820   2
  14  -1  -3 119.817 31.0150   3
  13  -1  -3 263.099 51.4126   2
  13   1  -3 250.354 45.4318   2
  13  -1  -3 282.953 45.5584   3
  13   1  -3 265.715 32.8784   3
 -13  -1   3 256.132 51.8360   2
 -12  -1   3 1734.46 129.683   2
 -12   1   3 1679.12 139.475   2
  12   1  -3 1747.14 79.9262   3
  12   1  -3 2044.16 117.690   2
  12  -1  -3 1601.80 104.471   3
  12  -1  -3 1838.74 124.084   2
  11   1  -3 409.434 50.2418   2
 -11   1   3 359.583 63.2057   2
  11  -1  -3 379.588 54.9990   2
  11   1  -3 366.106 34.4719   3
 -11  -1   3 358.615 55.4558   2
  10  -1  -3 2168.27 125.525   2
 -10  -1   3 2053.26 120.225   2
  10   1  -3 2175.64 78.8371   3
 -10   1   3 2197.65 142.793   2
  10   1  -3 2251.82 107.004   2
  -9   1   3 142.392 45.9150   2
  -9  -1   3 80.5459 29.5676   2
   9   1  -3 7.26294 15.6848   3
   9   1  -3 198.341 36.3639   2
   9  -1  -3 119.823 47.6093   2
   8  -1  -3 894.134 70.6132   2
  -8  -1   3 837.199 62.7771   2
  -8   1   3 825.689 75.9288   2
   8   1  -3 934.031 57.6573   2
   7   1  -3 370.050 32.3651   2
  -7   1   3 259.436 41.3110   2
  -7  -1   3 336.535 36.6698   2
   7  -1  -3 316.140 40.7000   2
   6  -1  -3 12105.2 226.154   2
  -6  -1   3 13073.0 214.688   1
   6   1  -3 13398.2 161.514   2
  -6  -1   3 12406.2 180.298   2
  -5  -1   3 360.960 37.5232   1
   5  -1  -3 409.006 38.9222   2
  -5  -1   3 407.346 27.5795   2
  -4  -1   3 4724.37 127.075   1
  -3   1   3 1206.99 39.2665   1
  -3  -1   3 1250.05 65.2784   1
  -2  -1   3 17472.2 234.636   1
  -1  -1   3 2519.96 74.4839   2
  -1  -1   3 2581.15 77.3975   3
  -1  -1   3 2516.40 87.0604   1
   0  -1   3 15727.3 217.141   1
   0  -1   3 16264.2 214.328   3
   0  -1   3 16113.2 221.398   2
   1  -1   3 184.007 32.2674   2
   1   1   3 138.698 22.5109   2
   1  -1   3 146.780 24.1160   3
   2  -1   3 22292.2 322.058   2
   2   1   3 22263.9 291.215   2
   2  -1   3 23171.1 303.725   3
   3  -1   3 9066.93 220.522   2
   3   1   3 8834.67 200.291   2
   3  -1   3 8944.00 202.293   3
   4  -1   3 14537.5 302.753   2
  -4  -1  -3 15190.0 260.139   3
   4  -1   3 14619.3 273.658   3
   4   1   3 14310.4 274.479   2
  -5  -1  -3 1961.23 100.985   3
   5  -1   3 1866.37 103.584   3
   5   1   3 1903.22 107.440   2
   5  -1   3 1865.50 116.627   2
   6  -1   3 19.8839 18.0911   3
  -6   1  -3-0.37721 18.9384   3
  -6  -1  -3 2.61881 17.4362   3
   6  -1   3-3.83011 21.1659   2
   6   1   3 17.0277 19.0371   2
  -7   1  -3 9061.90 267.976   3
  -7  -1  -3 9220.49 240.881   3
   7  -1   3 8465.85 241.290   3
   7   1   3 8811.61 260.036   2
   7  -1   3 8820.32 278.000   2
   8  -1   3 852.649 93.2535   2
  -8  -1  -3 945.333 83.3027   3
   8   1   3 868.459 87.1835   2
   8  -1   3 948.282 84.2566   3
  -9  -1  -3 360.281 66.2245   2
   9  -1   3 455.359 68.7772   2
  -9   1  -3 378.144 71.1855   2
  -9  -1  -3 425.770 59.7016   3
   9   1   3 410.905 63.9659   2
   9  -1   3 423.337 57.2928   3
 -10  -1  -3 3242.91 207.897   2
  10  -1   3 3135.99 188.699   2
  10  -1   3 2823.11 155.594   3
  10   1   3 2982.10 173.190   2
 -10   1  -3 3054.30 210.212   2
 -11  -1  -3 24.8589 31.3551   2
  11  -1   3 11.4386 20.1561   2
 -11   1  -3 3.95965 26.6478   2
  11  -1   3 42.2646 24.8921   3
  11   1   3 57.0846 32.2818   2
 -12  -1  -3 350.560 77.3705   2
  12  -1   3 382.763 72.8587   2
  12  -1   3 398.827 63.5401   3
  12   1   3 359.818 66.6136   2
 -12   1  -3 375.998 87.6631   2
  13   1   3 438.397 78.0522   2
  13  -1   3 290.005 56.2667   3
  13  -1   3 323.875 66.9588   2
  14  -1   3 449.686 70.3475   3
  14  -1   3 512.116 90.3912   2
  14   1   3 499.115 85.6334   2
  15  -1   3 484.174 75.3767   3
  15  -1   3 614.555 100.137   2
  15   1   3 495.572 89.1214   2
  16   1   3 1010.74 127.509   2
  16  -1   3 846.427 121.094   2
  17   1   3 213.819 59.2547   2
  17  -1   3 349.040 81.3040   2
  18   1   3 260.471 70.0373   2
  18  -1   3 289.589 77.9371   2
  19   1   3 28.9500 32.1610   2
  19  -1   3 59.3198 41.2908   2
  20  -1   3-48.0396 37.2721   2
  20   1   3 15.3479 23.5242   2
  21  -1   3-17.1834 28.0448   2
  23  -2  -3 74.8015 46.2302   2
 -22  -2   3 124.233 53.4171   1
  22  -2  -3-53.3788 33.7321   2
  21  -2  -3 91.4283 40.2073   2
  20  -2  -3 49.2252 36.2400   2
  19  -2  -3 63.2963 33.3713   2
 -18  -2   3 417.407 89.5290   2
  18  -2  -3 491.639 72.8309   3
  18  -2  -3 562.135 93.5100   2
 -17   2   3 97.4310 48.7522   2
  17  -2  -3 105.348 33.3154   3
  17  -2  -3 92.9883 37.8718   2
 -17  -2   3 108.558 49.1319   2
  16  -2  -3-33.5657 26.1033   2
 -16  -2   3 54.3499 38.6133   2
  16  -2  -3 3.36755 20.2951   3
 -16   2   3 34.4444 34.8259   2
  15  -2  -3 115.626 39.8480   2
  15  -2  -3 72.8405 29.0702   3
 -15  -2   3 127.073 41.7459   2
 -15   2   3 109.361 44.3873   2
 -14   2   3 237.482 62.4955   2
  14  -2  -3 245.498 48.1088   3
  14   2  -3 235.492 44.8493   2
  14  -2  -3 236.543 52.6864   2
  13   2  -3 2264.32 126.591   2
  13  -2  -3 2081.77 146.811   2
  12   2  -3 349.434 47.6478   2
  12  -2  -3 332.695 58.2949   2
 -12  -2   3 324.318 54.0096   2
  11  -2  -3-14.6759 17.3354   2
 -11   2   3-18.3675 34.2640   2
 -11  -2   3 5.31707 12.3794   2
  10  -2  -3 74.2419 31.9533   2
 -10  -2   3 45.8918 22.3341   2
 -10   2   3 54.3491 32.1723   2
   9  -2  -3 468.068 60.5232   2
  -9  -2   3 399.580 48.5266   2
  -9  -2   3 594.694 60.4563   1
   8  -2  -3 309.592 48.8577   2
  -8  -2   3 273.590 35.7121   2
  -8  -2   3 303.741 44.4003   1
  -7  -2   3 2178.70 103.094   1
  -7  -2   3 2111.44 84.9973   2
   7  -2  -3 2148.80 116.606   2
  -6  -2   3 170.995 31.1970   1
  -6  -2   3 206.412 23.0205   2
   6  -2  -3 205.468 37.5205   2
  -5  -2   3 4.12674 17.0005   1
  -4  -2   3 13564.2 243.952   1
   4   2  -3 12648.5 127.927   3
  -3  -2   3 31.7065 19.5896   1
   3   2  -3 76.5947 18.4514   3
  -3  -2   3 5.56572 6.23862   3
  -2  -2   3 18609.2 278.158   1
  -2  -2   3 18459.3 204.860   3
   2   2  -3 18248.0 208.901   3
  -1  -2   3 621.072 50.5933   1
  -1  -2   3 610.504 44.3894   3
  -1  -2   3 673.037 48.8255   2
   0  -2   3 116.376 25.2268   1
   0  -2   3 225.552 32.9013   3
   0  -2   3 103.732 24.0103   2
   1  -2   3 2655.53 117.044   2
   1  -2   3 2820.12 107.716   3
   1  -2   3 2478.10 98.9934   1
   2  -2   3 2068.14 115.795   2
   2  -2   3 2170.40 102.135   3
   3  -2   3 6672.62 188.802   3
   3  -2   3 7044.25 214.762   2
   4  -2   3 287.298 48.0591   2
   4  -2   3 284.743 43.3930   3
   5  -2   3 1399.72 109.610   2
   5  -2   3 1198.08 90.0249   3
   5   2   3 1347.12 90.4499   2
  -5  -2  -3 1357.67 82.3026   3
   6  -2   3 6750.89 245.778   2
   6  -2   3 6244.16 209.909   3
   6   2   3 6567.01 207.731   2
  -6  -2  -3 6543.19 188.466   3
   7   2   3 1319.03 100.315   2
  -7  -2  -3 1385.45 93.0609   3
   7  -2   3 1325.60 100.607   3
   7  -2   3 1382.71 115.549   2
   8  -2   3 851.848 84.4418   3
  -8  -2  -3 895.069 78.9853   3
   8   2   3 1060.72 95.4238   2
   8  -2   3 930.109 100.212   2
   9  -2   3 283.947 52.7056   3
  -9  -2  -3 221.829 43.2300   3
   9   2   3 327.763 56.4910   2
   9  -2   3 240.452 57.4585   2
  -9  -2  -3 253.079 56.8959   2
  -9   2  -3 245.984 63.4519   2
  10  -2   3 184.528 39.1707   3
 -10  -2  -3 203.359 52.4512   2
  10   2   3 183.749 43.7665   2
 -10   2  -3 207.904 55.7796   2
  10  -2   3 116.049 38.5181   2
 -11   2  -3 766.744 117.478   2
  11  -2   3 673.759 83.0824   3
  11  -2   3 660.331 95.5793   2
 -11  -2  -3 705.221 104.784   2
  11   2   3 818.083 95.9479   2
  12  -2   3-12.9666 26.0449   2
 -12  -2  -3 22.9680 28.4732   2
  12  -2   3 29.3802 21.9078   3
  12   2   3 31.4029 24.5230   2
  13  -2   3 464.671 73.1358   3
 -13  -2  -3 679.351 89.9883   3
  13  -2   3 522.793 88.1444   2
  13   2   3 510.893 82.5850   2
  14  -2   3 42.5502 32.2703   2
  14   2   3 56.0243 35.4337   2
  14  -2   3 61.3208 26.3023   3
  15  -2   3 556.790 99.5627   2
  15   2   3 653.213 97.0000   2
  16  -2   3-60.0412 45.6326   2
  16   2   3-13.1341 25.0446   2
  17  -2   3-21.8519 24.8757   2
  17   2   3 6.35224 18.7726   2
  18  -2   3 127.782 61.1072   2
  19  -2   3-24.7825 29.1362   2
  20  -2   3-30.6350 33.8125   2
  21  -2   3 113.613 60.7827   2
  23  -3  -3-57.8041 36.4219   2
 -22  -3   3 72.4780 38.8552   1
  22  -3  -3 11.8076 24.6338   2
 -21  -3   3 161.380 53.4444   1
  21  -3  -3 73.9720 40.1525   2
 -20  -3   3 71.3937 44.2897   1
  20  -3  -3-43.8000 33.2970   2
  19  -3  -3 46.6959 30.0423   2
 -19  -3   3 155.552 54.6005   1
  18  -3  -3 853.711 116.824   2
  18  -3  -3 716.131 94.0605   3
 -18  -3   3 968.061 111.450   1
 -18  -3   3 739.571 115.643   2
 -17  -3   3 1058.25 129.636   2
  17  -3  -3 889.634 101.800   3
  17  -3  -3 1067.06 127.348   2
 -17  -3   3 1366.55 124.912   1
  16  -3  -3 401.791 80.2383   2
 -16  -3   3 253.313 63.6607   2
  16  -3  -3 256.892 53.5788   3
 -16  -3   3 471.847 74.3189   1
 -15  -3   3 513.448 82.7148   2
  15  -3  -3 573.072 86.9689   2
  15  -3  -3 387.115 64.7203   3
 -15  -3   3 671.877 84.2164   1
  14  -3  -3 604.487 88.5394   2
 -14  -3   3 675.116 79.6645   1
  13  -3  -3 3.40428 27.1656   2
 -13  -3   3 72.7320 34.0971   1
  12  -3  -3 1617.59 136.862   2
 -12  -3   3 1716.62 117.729   1
 -12  -3   3 1688.18 121.537   2
 -11  -3   3 453.070 62.6202   1
 -11  -3   3 358.990 53.2285   2
  11  -3  -3 335.099 61.3052   2
  10  -3  -3 6105.23 250.048   2
 -10  -3   3 5671.20 197.542   1
 -10  -3   3 5866.54 194.783   2
   9  -3  -3 3172.19 172.001   2
  -9  -3   3 2877.92 137.540   1
  -9  -3   3 2798.37 123.718   2
  -8  -3   3 4843.26 147.536   2
   8  -3  -3 4806.17 202.626   2
  -8  -3   3 4942.07 175.410   1
   7  -3  -3-6.57702 20.5841   2
  -7  -3   3 24.1391 20.8109   1
  -7  -3   3 20.5223 11.3430   2
  -6  -3   3 7175.13 205.560   1
  -5  -3   3 1408.79 91.3465   1
  -4  -3   3 6122.61 106.686   3
  -4  -3   3 6405.80 187.710   1
  -3  -3   3 41391.0 474.105   1
  -3  -3   3 40557.9 319.463   3
  -2  -3   3 1784.39 96.2323   1
  -2  -3   3 1841.04 77.1765   3
  -1  -3   3 16443.3 286.588   1
  -1  -3   3 16912.7 253.639   3
   0  -3   3 787.313 748.035   2
   0  -3   3 564.594 556.281   3
   0  -3   3 954.493 779.751   1
   0  -3  -3 811.521 346.253   1
   1  -3   3 62.1605 27.4810   2
   1  -3   3 19.1219 17.0452   1
   2  -3   3 1773.12 113.834   2
   2  -3   3 1702.83 98.7931   3
   3  -3   3 5777.47 189.633   3
   3  -3   3 5696.98 213.423   2
   4  -3   3 8056.18 262.499   2
   4  -3   3 7925.65 235.021   3
   5  -3   3 2339.12 132.695   3
   5  -3   3 2300.68 147.500   2
   6  -3   3 504.740 66.9829   3
   6  -3   3 582.095 84.6629   2
   7  -3   3 457.958 77.0505   2
   7  -3   3 390.191 58.5611   3
  -7  -3  -3 378.728 47.7952   3
  -8  -3  -3 3511.84 151.734   3
   8  -3   3 3368.82 198.892   2
  -8  -3  -3 3332.35 185.385   2
   8  -3   3 3375.89 177.245   3
  -9  -3  -3 342.296 52.8462   3
  -9  -3  -3 260.545 58.5246   2
   9  -3   3 228.823 50.1179   3
  -9   3  -3 248.060 65.4289   2
   9  -3   3 334.683 72.0621   2
  10  -3   3 1463.97 141.391   2
 -10   3  -3 1355.59 150.708   2
 -10  -3  -3 1344.55 132.993   2
  10  -3   3 1354.72 117.985   3
 -11  -3  -3 193.158 50.8531   2
 -11   3  -3 232.182 67.6949   2
  11  -3   3 235.665 54.1440   3
  11  -3   3 184.861 53.5492   2
  12  -3   3 70.5164 44.1663   2
  12  -3   3 80.5493 34.6902   3
  13  -3   3 103.866 39.5631   3
  13  -3   3 103.818 43.3070   2
 -14  -3  -3 1798.53 150.799   3
  14  -3   3 1922.97 182.352   2
  15  -3   3 161.664 62.2277   2
  16  -3   3-47.3182 45.9883   2
  17  -3   3-48.2713 47.7490   2
  18  -3   3-28.8028 41.3669   2
  19  -3   3-104.412 53.1932   2
  20  -3   3 11.9930 39.4516   2
  21  -3   3 373.754 97.2378   2
  23  -4  -3 73.4914 45.2367   2
  22  -4  -3 23.0234 40.7642   2
 -21  -4   3 141.750 51.8501   1
  21  -4  -3 81.8805 45.1254   2
 -20  -4   3 303.656 71.5265   1
  20  -4  -3 263.007 70.1026   2
  19  -4  -3 74.3848 37.5009   2
 -19  -4   3 38.4050 29.7925   1
 -18  -4   3-64.6261 36.6355   2
  18  -4  -3-25.9238 30.1615   2
 -18  -4   3 5.74226 26.1656   1
 -17  -4   3-4.68225 18.2247   1
 -17  -4   3-47.6660 31.9585   2
  17  -4  -3 34.8084 40.9368   2
  17  -4  -3 15.3732 15.4475   3
  16  -4  -3 338.878 67.0660   3
 -16  -4   3 309.115 69.2863   2
 -16  -4   3 432.457 73.1995   1
  16  -4  -3 392.069 79.1679   2
 -15  -4   3 470.088 76.0356   1
 -15  -4   3 357.053 69.0395   2
  15  -4  -3 484.903 89.3817   2
  14  -4  -3 3237.59 214.973   2
 -14  -4   3 3069.50 176.587   1
  13  -4  -3 738.352 103.438   2
 -13  -4   3 838.967 91.0144   1
 -12  -4   3 97.3983 38.1658   1
  12  -4  -3 103.148 34.5165   2
 -12  -4   3 135.913 35.4667   2
  11  -4  -3 136.134 43.7763   2
 -11  -4   3 193.784 40.0800   2
 -11  -4   3 245.546 49.6803   1
  10  -4  -3 66.4424 35.5535   2
 -10  -4   3 72.8189 24.4564   2
 -10  -4   3 73.5008 30.5670   1
  -9  -4   3 4360.12 184.651   1
  -9  -4   3 4332.04 157.269   2
   9  -4  -3 4831.78 228.265   2
  -8  -4   3 286.197 47.2669   1
   8  -4  -3 253.848 53.2332   2
  -8  -4   3 242.846 36.0181   2
  -7  -4   3 852.414 80.2919   1
   7  -4  -3 800.936 88.4395   2
  -6  -4   3 765.662 36.5645   3
  -6  -4   3 951.869 81.6734   1
  -5  -4   3 51.9838 29.0342   1
  -4  -4   3 117.274 32.9584   1
  -4   4   3 128.834 20.4553   1
  -3   4   3 10020.7 157.417   1
  -3  -4   3 11356.8 268.534   1
  -2  -4   3 190.335 38.4135   1
   2  -4  -3 124.067 14.5365   1
  -2   4   3 132.983 16.8768   1
  -1  -4   3 3008.25 135.937   1
  -1   4   3 2869.89 68.1697   1
   1  -4  -3 2775.49 75.0323   1
   0  -4   3 430.243 51.7663   1
   0  -4  -3 557.572 37.5656   1
  -1  -4  -3 622.990 40.4515   1
   1  -4   3 672.876 66.3545   3
   1  -4   3 638.291 61.6106   1
   1  -4   3 620.700 74.3387   2
  -2  -4  -3 272.259 29.4172   1
   2  -4   3 230.517 40.7085   3
   2  -4   3 224.558 47.7846   2
   2  -4   3 231.049 39.7650   1
   3  -4   3-0.19653 13.4817   3
   3  -4   3 4.86509 21.3182   2
   4  -4   3 241.043 51.8946   2
   4  -4   3 254.695 48.6615   3
   5  -4   3 1638.45 133.550   2
   5  -4   3 1693.26 119.919   3
   6  -4   3 836.329 88.5962   3
   6  -4   3 763.728 95.3712   2
   7  -4   3 3039.43 171.092   3
   7  -4   3 2853.12 187.660   2
   8  -4   3-27.6480 35.7011   2
  -8  -4  -3 11.1995 16.9979   2
   8  -4   3 36.5887 26.4904   3
  -8  -4  -3 4.17635 17.8202   3
  -9  -4  -3 321.981 49.3556   3
   9  -4   3 396.874 66.2218   3
  -9  -4  -3 352.231 65.8566   2
   9  -4   3 327.568 72.1646   2
  -9   4  -3 353.026 77.4271   2
  10  -4   3 157.823 52.4440   2
  10  -4   3 233.037 55.5884   3
 -10   4  -3 164.787 52.5064   2
 -10  -4  -3 167.829 46.2062   2
  11  -4   3-40.2690 37.3510   2
 -11  -4  -3-21.9565 19.3357   2
  11  -4   3-0.43564 25.2921   3
  12  -4   3 5214.28 292.161   2
  13  -4   3 74.9791 32.6362   2
 -14  -4  -3 541.052 79.7058   3
  14  -4   3 470.222 94.2351   2
  15  -4   3-22.0116 36.4451   2
 -15  -4  -3-1.74522 21.5643   3
  16  -4   3 726.383 121.285   2
  17  -4   3 184.157 63.4468   2
  18  -4   3 36.1993 36.9214   2
  19  -4   3-14.8354 30.0851   2
  20  -4   3 198.768 79.1828   2
  23  -5  -3 32.3160 32.2110   2
  22  -5  -3 329.509 85.5491   2
 -21  -5   3 55.3914 39.9099   1
  21  -5  -3 49.5674 36.9313   2
  20  -5  -3-41.6359 37.1060   2
 -20  -5   3-2.26753 26.9692   1
  19  -5  -3 277.115 74.1346   2
 -19  -5   3 311.680 73.0706   1
  18  -5  -3 35.0450 39.1151   2
 -18  -5   3 25.5188 30.5083   1
 -17  -5   3 306.114 69.9724   2
 -17  -5   3 496.428 83.5547   1
  17  -5  -3 434.543 94.2247   2
  16  -5  -3-9.23415 33.1605   2
 -16  -5   3-3.24711 15.5703   2
 -16  -5   3 46.1655 38.4901   1
 -15  -5   3 278.369 60.2914   2
 -15  -5   3 306.305 63.7394   1
  15  -5  -3 276.719 73.2906   2
 -14  -5   3 85.5681 34.1405   2
  14  -5  -3 91.6069 42.5438   2
 -14  -5   3 98.3935 42.5113   1
  13  -5  -3 3468.24 228.526   2
 -13  -5   3 3238.38 188.780   1
  12  -5  -3 0.12981 36.3888   2
 -12  -5   3 96.3327 39.2192   1
 -11  -5   3 1415.47 106.172   2
  11  -5  -3 1405.16 140.870   2
 -11  -5   3 1465.31 123.317   1
 -10  -5   3-18.3524 25.4830   1
 -10  -5   3-4.33956 14.2743   2
  10  -5  -3-37.0493 35.6204   2
  -9  -5   3 2131.45 115.746   2
  -9  -5   3 2209.15 141.363   1
   9  -5  -3 2092.41 162.049   2
  -8  -5   3 4757.22 205.087   1
   8  -5  -3 4827.40 236.353   2
  -7  -5   3 17542.7 385.408   1
  -6  -5   3 2817.40 151.535   1
  -5  -5   3 29.0785 29.7789   1
  -5   5   3 5.28486 9.58739   1
  -4  -5   3 5083.59 197.594   1
  -4   5   3 5193.06 142.906   1
  -3   5   3 539.965 43.8763   1
  -3  -5   3 434.978 57.1456   1
  -2  -5   3 2710.68 140.669   1
  -2   5   3 2508.22 87.0817   1
   2  -5  -3 2575.41 82.0641   1
  -1  -5   3 2079.64 122.426   1
   1  -5  -3 2093.19 78.8900   1
  -1   5   3 2179.03 77.3269   1
   0  -5  -3 3005.63 102.103   1
   0  -5   3 3024.28 144.445   1
   0   5   3 2911.40 80.8424   1
  -1  -5  -3 1540.95 75.7606   1
   1  -5   3 1644.04 124.344   2
   1  -5   3 1643.98 106.178   1
   2  -5   3 10069.7 319.609   2
   2  -5   3 10385.1 265.350   1
  -2  -5  -3 10510.5 202.819   1
  -3  -5  -3 7332.83 173.589   1
   3  -5   3 6988.51 273.647   2
  -4  -5  -3 10508.3 214.721   1
   4  -5   3 10514.3 348.157   2
   4  -5   3 9949.92 299.294   3
   5  -5   3 55.7011 38.7566   3
   5  -5   3 15.5420 25.9241   2
  -5  -5  -3 112.684 29.0745   1
   6  -5   3 406.362 83.6249   2
   6  -5   3 318.325 59.6915   3
   7  -5   3 1772.10 155.312   2
  -7  -5  -3 1842.23 137.531   2
  -7   5  -3 1863.04 144.898   1
   7  -5   3 1803.86 137.801   3
   8  -5   3 637.339 84.7461   3
   8  -5   3 583.443 89.4419   2
  -8  -5  -3 599.144 82.9435   2
  -9   5  -3 27.0739 42.7214   2
  -9  -5  -3-23.2898 21.6540   2
   9  -5   3-0.74937 16.2205   3
   9  -5   3 18.2247 30.5111   2
  -9  -5  -3-24.2712 22.8891   3
  10  -5   3 1822.22 151.069   3
 -10   5  -3 1852.59 195.502   2
  10  -5   3 1737.71 168.792   2
 -10  -5  -3 1885.49 158.709   2
  11  -5   3 1866.64 179.461   2
  12  -5   3 962.948 131.522   2
  13  -5   3 37.6438 34.1645   2
 -14  -5  -3 209.697 50.8932   3
  14  -5   3 214.259 64.5179   2
  15  -5   3-2.95575 26.5584   2
 -15  -5  -3 28.2430 31.6504   3
  16  -5   3 57.3731 46.4749   2
 -16  -5  -3 205.071 57.6540   3
  17  -5   3 371.277 92.6844   2
  18  -5   3-4.85646 24.9512   2
  19  -5   3 510.801 119.395   2
  20  -5   3 13.5289 30.7931   2
  23  -6  -3 151.378 61.1695   2
  22  -6  -3-91.8070 49.5309   2
  21  -6  -3-24.3024 28.7034   2
 -21  -6   3 21.9100 32.4871   1
  20  -6  -3 177.672 66.7982   2
 -20  -6   3 127.804 52.7265   1
  19  -6  -3-66.1421 42.3497   2
 -19  -6   3-11.6745 26.9693   1
 -18  -6   3-22.7563 25.4634   1
  18  -6  -3 82.3509 47.8887   2
 -17  -6   3 14.2885 24.9514   2
  17  -6  -3 9.11162 23.1780   2
 -17  -6   3 36.1543 25.8503   1
 -16  -6   3 539.515 88.6032   2
  16  -6  -3 818.058 125.136   2
 -16  -6   3 756.112 107.726   1
 -15  -6   3 192.710 54.5187   1
 -15  -6   3 78.3530 36.4015   2
  15  -6  -3 93.6612 50.4188   2
 -14  -6   3 204.462 48.3118   2
  14  -6  -3 137.101 46.7816   2
 -14  -6   3 247.880 62.0154   1
  13  -6  -3 498.630 92.7735   2
 -13  -6   3 567.626 88.7987   1
 -13  -6   3 493.551 72.5143   2
  12  -6  -3 666.818 102.862   2
 -12  -6   3 515.160 79.4907   1
  11  -6  -3 246.650 67.1916   2
 -11  -6   3 156.523 42.9063   1
  10  -6  -3 101.481 43.9285   2
 -10  -6   3 78.9197 37.2916   1
  -9  -6   3 133.330 42.1071   1
   9  -6  -3 166.720 58.7595   2
  -8  -6   3 20.9669 21.7701   1
   8  -6  -3 101.653 48.8705   2
  -7  -6   3 7303.06 262.738   1
  -7   6   3 7513.67 221.630   1
  -6  -6   3 13061.0 344.768   1
  -6   6   3 13016.3 278.968   1
  -5   6   3 112.496 26.7394   1
  -5  -6   3 74.8986 36.4024   1
  -4   6   3 648.721 57.4295   1
  -4  -6   3 639.293 77.9544   1
  -3  -6   3 1082.36 96.2947   1
  -3   6   3 1168.23 72.6522   1
  -2  -6   3 5688.97 219.152   1
  -2   6   3 5830.57 153.205   1
   2  -6  -3 5596.06 146.186   1
   1  -6  -3 35.3083 16.6224   1
  -1  -6   3-13.0027 26.2475   1
  -1   6   3 7.18329 11.3395   1
   0  -6   3 265.826 542.336   1
   0   6   3 321.602 358.865   1
   0  -6  -3 267.703 380.015   1
  -1  -6  -3 621.194 56.1654   1
   1  -6   3 590.220 69.6708   1
   2  -6   3 2489.87 168.973   2
  -2  -6  -3 2469.81 113.032   1
   2  -6   3 2523.85 141.220   1
   3  -6   3 4079.49 223.442   2
  -3  -6  -3 4019.88 148.672   1
   4  -6   3 89.0545 48.5828   2
  -4  -6  -3 2.71521 16.8184   1
  -5  -6  -3 24.3645 20.8868   1
   5  -6   3 34.3869 22.4258   2
  -5   6  -3 64.2632 57.3348   1
  -6  -6  -3 498.471 57.8002   1
   6  -6   3 521.854 88.1256   2
  -6   6  -3 380.109 66.8588   1
   6  -6   3 442.760 71.8998   3
   7  -6   3 0.54453 28.7085   2
   7  -6   3 16.6507 17.0539   3
  -7  -6  -3 52.8014 26.5068   1
  -7  -6  -3 13.1446 18.7609   2
  -7   6  -3 13.9707 21.5843   1
  -8  -6  -3 1126.78 91.2528   1
   8  -6   3 1034.93 126.823   2
  -8   6  -3 1056.91 117.516   1
   8  -6   3 1068.22 114.713   3
  -8  -6  -3 1110.89 114.921   2
   9  -6   3 254.916 54.7699   3
  -9   6  -3 300.645 65.3018   1
   9  -6   3 250.819 64.1793   2
  -9  -6  -3 366.515 54.7748   1
  -9  -6  -3 295.963 61.6795   2
  10  -6   3 79.7705 28.5834   2
 -10  -6  -3 105.105 37.7266   2
  11  -6   3 771.443 121.847   2
  12  -6   3-13.6155 35.9205   2
  13  -6   3 637.350 113.995   2
  14  -6   3 56.9401 35.8181   2
 -14  -6  -3 58.7859 29.8848   3
 -15  -6  -3 99.6767 35.7179   3
  15  -6   3 51.4192 41.7129   2
  16  -6   3 82.9610 47.3269   2
 -16  -6  -3 129.654 47.9745   3
  17  -6   3 2.37917 32.2089   2
 -17  -6  -3 63.8066 36.3012   1
  18  -6   3-49.8874 41.9667   2
 -18  -6  -3 46.8062 33.0401   1
  19  -6   3 57.8036 53.3661   2
 -19  -6  -3 80.3721 37.7471   1
  22  -7  -3 20.3645 27.5105   2
  21  -7  -3 45.9425 42.5004   2
  20  -7  -3-4.54942 24.4237   2
 -20  -7   3 29.7436 22.7205   1
  19  -7  -3 277.736 81.4048   2
 -19  -7   3 336.809 83.8977   1
 -18  -7   3 104.007 48.5951   1
  18  -7  -3 10.6038 25.8205   2
  17  -7  -3 223.679 78.2561   2
 -17  -7   3 130.449 49.6275   1
 -16  -7   3 27.6357 21.8001   2
 -16  -7   3-3.71429 34.1339   1
  16  -7  -3 5.26074 32.7001   2
 -15  -7   3 22.4902 22.0504   2
 -15  -7   3-4.64268 28.7730   1
  15  -7  -3-37.6505 39.2441   2
  14  -7  -3-11.6464 28.9016   2
 -14  -7   3-31.1962 40.3639   1
 -14  -7   3-26.2494 21.7159   2
 -13  -7   3 176.860 54.7194   1
  13  -7  -3 109.351 48.5382   2
 -13  -7   3 145.135 41.4981   2
 -12  -7   3 619.260 93.7876   1
 -12  -7   3 519.203 73.2810   2
  12  -7  -3 731.214 114.541   2
 -11  -7   3 212.623 52.6820   1
  11  -7  -3 232.886 61.7433   2
 -11  -7   3 240.427 47.7990   2
  10  -7  -3 24.7751 42.5249   2
 -10  -7   3 17.9368 27.2279   1
   9  -7  -3 2289.09 190.026   2
  -9  -7   3 2525.97 172.799   1
  -8   7   3 247.169 48.1164   1
  -8  -7   3 227.848 55.4333   1
   7   7  -3 9539.92 279.810   1
  -7   7   3 9366.62 270.989   1
  -7  -7   3 8744.99 303.975   1
   6   7  -3 73.6593 33.8496   1
  -6  -7   3 40.9728 28.6732   1
  -6   7   3 54.1028 24.3070   1
  -5  -7   3 427.396 64.4970   1
  -5   7   3 465.223 57.0933   1
  -4  -7   3 803.977 90.7655   1
  -4   7   3 801.423 71.0287   1
  -3   7   3 1991.30 106.757   1
  -3  -7   3 2215.38 146.684   1
  -2  -7   3 479.422 68.5052   1
   2  -7  -3 528.475 51.0778   1
  -2   7   3 483.312 50.7932   1
  -1  -7   3 10649.0 315.093   1
  -1   7   3 11214.6 234.551   1
   1  -7  -3 11113.4 238.541   1
   0   7   3 16.4082 11.0422   1
   0  -7  -3 11.8655 17.7640   1
   0  -7   3-18.0090 30.5583   1
  -1  -7  -3 9001.67 231.166   1
   1   7   3 8907.60 185.501   1
   1  -7   3 8880.03 283.123   1
  -2  -7  -3 897.421 75.5262   1
   2  -7   3 766.748 82.4214   1
  -3  -7  -3 1290.42 93.6054   1
   3  -7   3 1416.35 140.992   2
  -4  -7  -3 1831.25 115.944   1
  -4   7  -3 1821.82 143.334   1
   4  -7   3 1535.36 146.966   2
   5  -7   3 5627.13 291.341   2
  -5  -7  -3 5615.16 204.850   1
  -5   7  -3 5599.65 261.768   1
  -6  -7  -3 2050.44 129.240   1
  -6   7  -3 2308.55 170.016   1
   6  -7   3 2210.55 187.847   2
  -7   7  -3 1683.78 150.674   1
   7  -7   3 1619.14 164.555   2
   7  -7   3 1564.47 141.659   3
  -7  -7  -3 1682.89 117.758   1
  -8  -7  -3 1576.85 142.748   2
  -8   7  -3 1438.21 142.495   1
   8  -7   3 1530.32 164.052   2
  -8  -7  -3 1414.33 112.080   1
  -9  -7  -3 64.8999 34.0757   1
   9  -7   3 19.9132 33.2973   2
  10  -7   3 233.352 68.5837   2
 -10  -7  -3 302.650 56.0243   1
 -11  -7  -3 355.861 63.4199   1
  11  -7   3 225.155 68.1237   2
  12  -7   3 760.990 124.877   2
 -12  -7  -3 819.635 97.0145   1
 -13  -7  -3 24.4065 28.3166   1
  13  -7   3 12.6355 32.5935   2
 -14  -7  -3 392.554 70.6508   1
 -14  -7  -3 327.426 60.1124   3
  14  -7   3 338.683 90.3602   2
  15  -7   3 378.622 94.7493   2
 -15  -7  -3 289.515 61.1685   1
 -15  -7  -3 324.150 63.1972   3
 -16  -7  -3 21.2139 24.0351   3
  16  -7   3 9.62429 29.0662   2
 -16  -7  -3 109.485 39.9096   1
 -17  -7  -3 105.226 40.6834   1
  17  -7   3 50.7816 53.8584   2
 -18  -7  -3 145.041 47.2251   1
  18  -7   3 96.4005 58.6721   2
  19  -7   3 0.74343 38.8184   2
  22  -8  -3 83.9581 58.3431   2
  21  -8  -3 87.6321 44.9011   2
  20  -8  -3 24.7102 37.2101   2
 -20  -8   3-18.7115 34.9831   1
  19  -8  -3 10.6315 24.0229   2
 -19  -8   3-45.8884 48.5277   1
 -18  -8   3 240.710 72.0837   1
  18  -8  -3 310.565 88.0081   2
 -17  -8   3-2.60509 37.0629   1
  17  -8  -3 8.95294 27.1762   2
  16  -8  -3 63.6477 41.7956   2
 -16  -8   3 48.7080 34.5167   1
 -15  -8   3 22.0851 24.9473   2
  15  -8  -3 61.6471 49.4442   2
 -15  -8   3 56.1061 27.0402   1
  14  -8  -3-3.19145 35.0298   2
 -14  -8   3 7.59878 41.0616   1
 -14  -8   3 13.0922 17.3320   2
 -13  -8   3 7.50167 34.3887   1
 -13  -8   3-13.5667 16.4404   2
 -12  -8   3 17.6870 16.7418   2
  12  -8  -3 14.1663 27.5724   2
 -12  -8   3-10.9133 32.6035   1
 -11  -8   3 788.310 90.2392   2
  11  -8  -3 809.530 126.286   2
 -11  -8   3 892.621 115.063   1
 -11   8   3 951.065 108.118   1
 -10   8   3 33.3481 19.3621   1
  10  -8  -3 66.5832 40.0014   2
 -10  -8   3 54.4713 33.8976   1
  -9  -8   3 610.745 93.0960   1
   9  -8  -3 314.932 75.9023   2
  -8  -8   3 1323.17 130.966   1
   8   8  -3 1289.53 109.271   1
  -7   8   3 116.477 33.4817   1
   7   8  -3 178.307 43.0171   1
  -7  -8   3 158.846 45.3575   1
  -6   8   3 831.090 84.7955   1
  -6  -8   3 748.753 94.9524   1
   6   8  -3 801.669 89.2414   1
  -5   8   3 1711.35 115.639   1
  -5  -8   3 1613.70 135.027   1
   5   8  -3 1926.94 141.259   1
  -4   8   3 865.565 80.4514   1
  -4  -8   3 752.371 91.9960   1
   4   8  -3 927.236 99.0540   1
  -3   8   3 374.655 51.4126   1
   3  -8  -3 347.759 43.7507   1
   3   8  -3 355.083 63.0374   1
  -3  -8   3 366.181 66.0277   1
  -2   8   3 471.939 54.9613   1
   2   8  -3 346.544 61.9871   1
   2  -8  -3 391.961 48.8288   1
  -2  -8   3 382.564 66.4521   1
  -1  -8   3 1028.99 104.906   1
   1   8  -3 1079.38 109.565   1
   1  -8  -3 1016.27 79.3979   1
  -1   8   3 1004.53 77.6770   1
   0   8   3 46.1331 17.1975   1
   0   8  -3 26.7612 25.3319   1
   0  -8  -3 25.6000 19.6163   1
   0  -8   3 7.53287 17.2445   1
   1   8   3 1000.66 69.2848   1
  -1   8  -3 969.416 106.592   1
   1  -8   3 893.184 95.3405   1
  -1  -8  -3 1062.37 87.8689   1
  -2  -8  -3 29.4205 16.1441   1
  -2   8  -3 42.0235 25.5820   1
   2  -8   3 44.5838 29.4092   1
  -3   8  -3 1356.69 132.359   1
   3  -8   3 1401.96 117.848   1
  -3  -8  -3 1254.85 100.870   1
   3  -8   3 1311.68 143.077   2
   4  -8   3 154.760 56.3559   2
  -4   8  -3 110.320 42.4404   1
  -4  -8  -3 105.962 34.6252   1
  -5  -8  -3 27.4132 21.3070   1
  -5   8  -3 18.1583 19.4969   1
   5  -8   3 8.53061 35.1479   2
  -6  -8  -3 690.041 81.2506   1
   6  -8   3 659.140 112.124   2
  -6   8  -3 823.465 112.993   1
  -7  -8  -3 818.723 91.6583   1
   7  -8   3 723.371 118.555   2
  -7   8  -3 821.424 109.781   1
   8  -8   3 2.91053 32.4211   2
  -8  -8  -3 35.2211 26.1675   1
   9  -8   3 401.577 89.7387   2
  -9  -8  -3 565.841 79.5407   1
 -10  -8  -3 71.3215 29.7860   1
  10  -8   3 91.1179 54.1417   2
  11  -8   3 43.6373 37.1844   2
 -11  -8  -3-33.2007 29.0015   1
 -12  -8  -3 18.4300 31.5862   1
 -12  -8  -3 5.38558 15.0076   3
  12  -8   3-15.8799 45.9391   2
  13  -8   3 87.6943 51.5561   2
 -13  -8  -3 39.1403 22.3549   3
 -13  -8  -3 32.5066 30.9828   1
 -14  -8  -3 2.48149 15.3980   3
 -14  -8  -3 24.8184 26.3424   1
  14  -8   3-2.17071 42.2303   2
  15  -8   3 59.0356 50.1564   2
 -15  -8  -3 79.6582 34.7684   3
 -15  -8  -3 62.1718 38.0321   1
 -16  -8  -3 65.7030 35.7828   1
  16  -8   3 51.3158 48.5598   2
  17  -8   3 160.608 74.1063   2
 -17  -8  -3 209.764 63.0596   1
  18  -8   3 94.1811 57.0535   2
 -18  -8  -3 37.8588 33.5549   1
  21  -9  -3-54.4720 41.8184   2
  20  -9  -3 25.3559 33.7972   2
  19  -9  -3 107.394 62.9998   2
 -19  -9   3 41.9784 41.7682   1
  18  -9  -3 46.2874 36.2509   2
 -18  -9   3-54.4795 48.7022   1
  17  -9  -3 247.514 76.7923   2
 -17  -9   3 244.086 71.8808   1
 -16  -9   3-26.4201 49.5216   1
  16  -9  -3-25.3704 29.9070   2
  15  -9  -3 78.1087 62.6543   2
 -15  -9   3 32.7780 39.0587   1
 -14  -9   3 135.384 51.1302   1
  14  -9  -3 93.9610 54.4828   2
 -13  -9   3 77.1178 31.5645   2
  13  -9  -3 160.387 62.5622   2
 -13  -9   3 197.461 67.5762   1
  12  -9  -3 412.803 104.668   2
 -12  -9   3 432.825 90.8240   1
 -12   9   3 334.375 71.1274   1
 -12  -9   3 312.473 61.3692   2
 -11   9   3 2480.45 184.534   1
  11  -9  -3 2486.30 225.152   2
 -11  -9   3 2418.22 195.324   1
 -10  -9   3-9.90948 24.1376   1
  10  -9  -3 6.99998 41.8586   2
 -10   9   3-4.25799 25.6569   1
  -9   9   3 1165.58 117.883   1
  -9  -9   3 1223.33 135.005   1
   9  -9  -3 1132.17 152.728   2
   8   9  -3 752.539 86.6602   1
  -8  -9   3 702.266 99.3292   1
  -7  -9   3 129.714 45.8601   1
   7   9  -3 137.068 38.7240   1
  -6  -9   3 655.769 978.114   1
  -6   9   3 843.781 923.764   1
   6   9  -3 682.059 913.735   1
  -5   9   3 61.1091 26.2227   1
  -5  -9   3 9.52355 30.2505   1
   5   9  -3 46.0244 24.6199   1
  -4   9   3-2.53471 14.6788   1
  -4  -9   3-2.53438 21.7735   1
   4   9  -3 5.54392 21.3146   1
  -3   9   3 447.231 59.7565   1
   3  -9  -3 452.010 54.9794   1
   3   9  -3 430.803 74.1742   1
  -3  -9   3 399.637 70.9459   1
  -2  -9   3 300.156 61.1873   1
   2   9  -3 305.304 63.7289   1
  -2   9   3 255.343 44.5486   1
   2  -9  -3 271.185 43.5328   1
   1  -9  -3 644.770 69.0514   1
  -1  -9   3 651.476 87.8105   1
   1   9  -3 728.164 95.8624   1
  -1   9   3 688.653 71.1981   1
   0  -9  -3 266.040 48.5178   1
   0   9  -3 174.281 49.8026   1
   0   9   3 168.357 33.9729   1
   0  -9   3 250.489 55.3824   1
  -1   9  -3 205.308 52.0976   1
   1  -9   3 137.986 36.5598   1
   1   9   3 223.088 36.7169   1
  -1  -9  -3 255.841 47.7228   1
   2  -9   3 897.970 100.301   1
  -2   9  -3 1012.55 117.122   1
  -2  -9  -3 868.656 88.0019   1
   3  -9   3 409.613 70.7802   1
  -3   9  -3 396.901 76.2389   1
   3  -9   3 324.601 80.4106   2
  -3  -9  -3 317.756 58.6969   1
   4  -9   3 378.411 88.4811   2
  -4   9  -3 196.543 54.9601   1
  -4  -9  -3 149.921 39.6092   1
  -5   9  -3 234.512 59.6352   1
  -5  -9  -3 203.431 46.5934   1
   5  -9   3 220.278 65.8359   2
  -6   9  -3 285.926 68.3537   1
   6  -9   3 335.008 88.0155   2
  -6  -9  -3 334.943 62.2198   1
  -7  -9  -3 532.912 79.6613   1
   7  -9   3 663.191 118.323   2
   8  -9   3 442.468 95.7494   2
  -8  -9  -3 469.570 77.8457   1
   9  -9   3 42.9459 44.1269   2
  -9  -9  -3 112.669 40.9479   1
 -10  -9  -3 1121.13 125.615   1
  10  -9   3 1349.59 177.002   2
 -11  -9  -3 11.6776 23.3666   1
  11  -9   3-53.5598 60.8973   2
 -12  -9  -3 90.4365 47.5186   1
  12  -9   3-5.95276 44.5886   2
  13  -9   3 21.8241 55.8732   2
 -13  -9  -3 55.9950 25.7544   3
 -13  -9  -3 113.402 46.5166   1
  14  -9   3 348.150 96.2027   2
 -14  -9  -3 387.769 81.7725   1
 -14  -9  -3 255.883 52.0212   3
 -15  -9  -3 94.2288 45.6901   1
  15  -9   3-117.398 61.4741   2
  16  -9   3 85.0094 53.6017   2
 -16  -9  -3 56.0312 37.9958   1
  17  -9   3 132.508 65.6387   2
 -17  -9  -3 63.9114 46.1180   1
 -18  -9  -3-56.0288 38.4773   1
  20 -10  -3 111.741 60.5625   2
  19 -10  -3 77.7568 54.8546   2
  18 -10  -3 76.1566 49.9487   2
 -18 -10   3-35.3595 39.8699   1
  17 -10  -3 199.484 75.4901   2
 -17 -10   3 61.0092 46.7552   1
  16 -10  -3 15.0449 40.6269   2
 -16 -10   3-3.91864 31.8631   1
  15 -10  -3 2.25677 35.2020   2
 -15 -10   3 77.4282 54.8181   1
  14 -10  -3 36.9167 33.5874   2
 -14 -10   3 48.5170 38.1692   1
  13 -10  -3 67.7592 52.6081   2
 -13 -10   3 25.7766 38.4741   1
 -12 -10   3 185.806 65.1852   1
 -12  10   3 257.557 65.1712   1
  12 -10  -3 166.893 65.8943   2
 -11 -10   3 278.908 73.7083   1
 -11  10   3 225.684 62.3261   1
  11 -10  -3 185.340 72.9294   2
 -10 -10   3 51.6213 44.3513   1
  10 -10  -3 37.2404 50.7527   2
 -10  10   3 58.4634 35.3057   1
  -9 -10   3 419.639 84.9016   1
  -9  10   3 362.424 71.5081   1
  -8  10   3 27.4525 29.6137   1
  -8 -10   3 8.84743 27.1600   1
  -7 -10   3 680.327 100.619   1
  -6 -10   3 1996.89 170.428   1
   6  10  -3 1799.95 145.285   1
   5  10  -3 1324.95 130.350   1
  -5 -10   3 1256.45 132.664   1
  -5  10   3 1592.40 129.155   1
  -4  10   3-14.8427 29.5919   1
  -4 -10   3-29.6662 39.5721   1
   4  10  -3-67.0264 37.7550   1
   3  10  -3 1974.47 162.449   1
  -3 -10   3 1806.28 156.127   1
   3 -10  -3 1916.41 120.480   1
  -3  10   3 1849.97 130.280   1
  -2 -10   3 523.155 83.6633   1
   2 -10  -3 501.827 63.8638   1
   2  10  -3 656.300 95.5360   1
  -2  10   3 563.998 68.7380   1
   1 -10  -3 47.4661 19.3145   1
  -1  10   3 61.4105 25.3725   1
  -1 -10   3 60.7740 27.1547   1
   1  10  -3 121.253 42.5569   1
   0 -10   3 76.9291 28.1155   1
   0  10  -3 136.517 51.0348   1
   0 -10  -3 77.6518 29.2225   1
   0  10   3 124.573 33.4732   1
  -1  10  -3 140.300 48.2952   1
  -1 -10  -3 146.858 43.5906   1
   1  10   3 140.711 33.4793   1
   1 -10   3 108.144 40.2283   1
  -2 -10  -3 418.288 66.1319   1
  -2  10  -3 284.171 67.4052   1
   2 -10   3 323.263 65.6041   1
   3 -10   3 98.6838 52.2460   2
   3 -10   3 79.0017 37.0612   1
  -3  10  -3 69.2146 37.1743   1
  -3 -10  -3 62.3605 33.0230   1
  -4 -10  -3 376.792 68.4641   1
   4 -10   3 358.301 94.8460   2
  -4  10  -3 329.738 69.6178   1
   5 -10   3 1159.02 156.104   2
  -5 -10  -3 1179.13 115.637   1
  -5  10  -3 1137.10 137.878   1
   6 -10   3 795.585 130.093   2
  -6 -10  -3 862.337 101.795   1
   7 -10   3 107.281 44.7370   2
  -7 -10  -3 109.199 45.5881   1
  -8 -10  -3 99.2390 42.2951   1
   8 -10   3 68.5628 52.2886   2
   9 -10   3 1333.45 177.509   2
  -9 -10  -3 1336.20 140.377   1
  10 -10   3 99.3538 56.6021   2
 -10 -10  -3 76.9563 38.9936   1
 -11 -10  -3 17.6054 25.5893   1
  11 -10   3 100.233 53.9225   2
  12 -10   3-31.8232 44.9579   2
 -12 -10  -3 25.0296 26.0579   1
 -13 -10  -3 244.338 66.9260   1
 -13 -10  -3 174.788 43.0564   3
  13 -10   3 268.966 85.6092   2
  14 -10   3-33.6091 53.9116   2
 -14 -10  -3-47.7885 43.4896   1
  15 -10   3 60.5171 58.3839   2
 -15 -10  -3-15.2675 35.4896   1
  16 -10   3 51.4449 49.1178   2
 -16 -10  -3 97.8615 51.3385   1
 -17 -10  -3-15.3411 28.6976   1
  19 -11  -3-44.1806 42.1651   2
  18 -11  -3-5.36486 23.3375   2
 -17 -11   3 1.98939 31.8974   1
  17 -11  -3-25.4079 34.1834   2
 -16 -11   3-5.93263 27.6565   1
  16 -11  -3 59.1032 56.8280   2
  15 -11  -3 39.9717 45.3554   2
 -15 -11   3 74.9312 49.2770   1
  14 -11  -3-23.7080 36.4591   2
 -14 -11   3 13.9050 27.1096   1
  13 -11  -3 19.5851 34.3272   2
 -13 -11   3-12.4584 37.3453   1
 -12 -11   3 63.0922 36.5221   1
  12 -11  -3 18.3451 37.7758   2
 -11  11   3 4.91091 16.6514   1
 -11 -11   3 19.0273 34.1196   1
  11 -11  -3 15.4887 31.8162   2
 -10  11   3 324.635 71.1535   1
 -10 -11   3 351.474 82.5592   1
  10 -11  -3 235.306 76.8725   2
  -9 -11   3 210.350 62.9457   1
  -9  11   3 225.450 60.3501   1
  -8 -11   3 17.2024 33.2719   1
  -8  11   3 19.4663 18.7631   1
  -7  11   3 3349.93 207.850   1
  -7 -11   3 3376.72 234.738   1
  -6 -11   3 530.457 96.3255   1
  -5 -11   3 387.584 79.9244   1
  -4 -11   3 42.8167 34.0545   1
  -3 -11   3 398.662 79.1046   1
   3  11  -3 375.882 74.2810   1
   3 -11  -3 341.043 54.8185   1
   2  11  -3-29.4702 31.4657   1
  -2 -11   3-29.1876 32.9696   1
   2 -11  -3-18.6684 23.2182   1
  -1 -11   3 889.861 115.490   1
   1  11  -3 852.884 117.462   1
   1 -11  -3 955.779 96.4447   1
   0 -11   3-11.2183 31.7500   1
   0  11  -3 11.0748 26.4534   1
   0 -11  -3 33.0120 19.6207   1
  -1  11  -3 287.066 73.0223   1
   1 -11   3 235.666 60.3646   1
  -1 -11  -3 207.819 51.7558   1
   2 -11   3-4.74559 26.1633   1
  -2  11  -3 18.0204 21.8495   1
  -2 -11  -3 7.48215 16.8340   1
   3 -11   3-7.00612 22.2643   1
  -3 -11  -3 31.0248 20.5303   1
   4 -11   3 991.861 146.851   2
  -4 -11  -3 850.891 105.294   1
  -5 -11  -3 176.142 51.0295   1
   5 -11   3 190.259 72.2057   2
   6 -11   3 1052.44 156.114   2
  -6 -11  -3 1207.09 128.371   1
   7 -11   3-123.856 59.1095   2
  -7 -11  -3 34.5823 26.8824   1
   8 -11   3 133.361 60.6222   2
  -8 -11  -3 137.938 49.9305   1
  -9 -11  -3 14.7564 22.1739   1
   9 -11   3 7.63176 33.0230   2
  10 -11   3-31.4449 51.8259   2
 -10 -11  -3 29.2390 22.7237   1
 -11 -11  -3 166.985 61.4462   1
  11 -11   3 94.4087 51.6852   2
  12 -11   3-13.2684 32.1798   2
 -12 -11  -3 4.67804 31.9453   1
  13 -11   3 153.358 68.6210   2
 -13 -11  -3 24.1948 29.6169   1
  14 -11   3 11.9807 36.0183   2
 -14 -11  -3-25.4838 35.4720   1
 -15 -11  -3-50.4564 41.3831   1
  15 -11   3 9.99011 40.4994   2
 -16 -11  -3-13.2891 41.4823   1
  17 -12  -3 21.8439 35.1345   2
  16 -12  -3 5.85162 31.3574   2
 -16 -12   3 13.6760 31.1436   1
  15 -12  -3 48.9139 45.3207   2
 -15 -12   3-38.8950 43.2742   1
 -14 -12   3 169.825 67.6995   1
  14 -12  -3 50.2934 59.7301   2
 -13 -12   3 6.02136 28.2531   1
  13 -12  -3 28.7449 40.7693   2
 -12 -12   3 87.9963 46.3276   1
  12 -12  -3 21.4941 39.5411   2
  11 -12  -3 133.349 67.7938   2
 -11 -12   3 221.166 72.9208   1
  10 -12  -3 85.1109 44.3196   2
 -10  12   3 102.856 47.8897   1
 -10 -12   3 120.204 45.0380   1
  -9  12   3 824.660 114.734   1
  -9 -12   3 989.906 138.311   1
  -8 -12   3 30.2204 27.2541   1
  -8  12   3 50.1238 27.8374   1
  -7 -12   3 110.716 47.5962   1
  -7  12   3 44.5822 29.1098   1
  -6 -12   3 885.857 123.868   1
  -6  12   3 862.042 108.414   1
  -5 -12   3 54.8791 42.9317   1
  -5  12   3-15.2399 24.5818   1
  -4 -12   3 260.690 69.0824   1
  -3 -12   3 107.591 50.1263   1
  -2 -12   3 528.660 90.3985   1
   2 -12  -3 658.264 83.4669   1
  -1 -12   3-9.83062 34.0844   1
   1 -12  -3 4.52704 17.1995   1
   0 -12  -3 24.0999 23.8513   1
   0  12   3 40.1654 23.4230   1
   0 -12   3 61.1987 32.4782   1
  -1 -12  -3 2.30098 16.6970   1
   1  12   3 6.18071 17.2442   1
   1 -12   3-24.0266 22.2213   1
  -2 -12  -3 94.1839 42.3060   1
   2 -12   3 95.8403 43.2399   1
  -3 -12  -3 81.2069 35.8562   1
  -4 -12  -3 123.838 42.0421   1
   4 -12   3 255.004 82.0044   2
  -5 -12  -3 417.942 77.8651   1
   5 -12   3 472.476 109.348   2
   6 -12   3 438.219 111.343   2
  -6 -12  -3 352.127 74.0569   1
  -7 -12  -3 25.4294 29.5148   1
   7 -12   3 143.420 67.9576   2
  -8 -12  -3 48.0597 32.5970   1
   8 -12   3 21.1499 41.0726   2
  -9 -12  -3-40.9271 42.2471   1
   9 -12   3-24.9149 47.2727   2
 -10 -12  -3-1.50217 29.8027   1
  10 -12   3 19.8282 40.5830   2
 -11 -12  -3 58.2684 46.1525   1
  11 -12   3 101.510 57.8279   2
  12 -12   3 37.4554 55.4718   2
 -12 -12  -3 46.2850 38.2459   1
  13 -12   3-137.635 68.4808   2
 -13 -12  -3 17.4778 30.1997   1
  14 -12   3 147.996 82.4996   2
 -14 -12  -3 144.219 66.7752   1
 -15 -12  -3 247.249 82.1790   1
 -16 -12  -3 52.8962 42.4827   1
 -15 -13   3 4.79158 37.5607   1
  15 -13  -3 48.4216 45.4650   2
  14 -13  -3 47.8912 44.8585   2
 -14 -13   3 56.2019 45.6811   1
  13 -13  -3-16.9031 35.1810   2
 -13 -13   3 15.1475 37.3095   1
 -12 -13   3-28.7889 37.0465   1
  12 -13  -3 43.7848 27.2226   2
 -11 -13   3 9.99725 33.8844   1
  11 -13  -3-7.05985 31.7211   2
  10 -13  -3 275.066 107.569   2
 -10 -13   3 455.497 104.029   1
  -9 -13   3 12.1889 33.8114   1
  -8  13   3 291.139 70.8500   1
  -8 -13   3 305.860 79.5774   1
  -7 -13   3 160.500 59.2211   1
  -7  13   3 83.2665 38.1742   1
  -6 -13   3 29.5222 40.5661   1
  -6  13   3 17.0891 20.2902   1
  -5  13   3 198.414 54.2789   1
  -5 -13   3 265.088 74.1244   1
  -4 -13   3 122.320 40.9274   1
  -4  13   3 167.885 51.0519   1
  -3 -13   3 63.6879 39.0697   1
  -3  13   3 100.657 39.8263   1
  -2 -13   3 27.9867 22.2935   1
   2 -13  -3 34.5249 27.1685   1
  -2  13   3-16.3308 24.8475   1
  -1 -13   3 28.8845 26.5293   1
   1 -13  -3-0.30875 14.2003   1
  -1  13   3 7.40666 19.2826   1
   0  13   3 30.5259 24.2287   1
   0 -13  -3-17.4156 19.2789   1
   0 -13   3-1.50364 23.7479   1
   1 -13   3 28.0911 28.1085   1
  -1 -13  -3-6.80455 24.5480   1
   1  13   3 1.32075 21.1385   1
  -2 -13  -3 337.683 67.8311   1
   2 -13   3 329.419 75.6874   1
   3 -13   3 146.747 66.3595   2
  -3 -13  -3 110.200 41.4992   1
  -4 -13  -3 601.282 94.7149   1
   4 -13   3 555.560 117.634   2
   5 -13   3-38.9607 53.8887   2
  -5 -13  -3 36.9933 35.5760   1
   6 -13   3 314.043 99.9544   2
  -6 -13  -3 202.015 58.8562   1
   7 -13   3-5.16537 27.9345   2
  -7 -13  -3 31.4628 38.8812   1
   8 -13   3 65.3760 48.4590   2
  -8 -13  -3 76.9058 42.3318   1
   9 -13   3 2.08286 33.0560   2
  -9 -13  -3 9.03059 26.3394   1
  10 -13   3 35.6616 68.5171   2
 -10 -13  -3 17.4196 39.6616   1
  11 -13   3 17.7583 33.6294   2
 -11 -13  -3-14.3743 25.2554   1
  12 -13   3 55.7437 46.0778   2
 -12 -13  -3 38.6186 35.3326   1
 -13 -13  -3 18.6770 27.6573   1
 -14 -13  -3 82.5510 53.4886   1
 -15 -13  -3 29.6270 44.1574   1
 -14 -14   3 11.3785 31.9830   1
  13 -14  -3 139.009 75.2889   2
 -13 -14   3 79.8874 58.7006   1
  12 -14  -3 34.3958 45.5166   2
 -12 -14   3 26.3402 36.8611   1
  11 -14  -3 46.5392 37.0855   2
 -11 -14   3-25.1218 37.4733   1
 -10 -14   3-8.48964 36.6179   1
  10 -14  -3-38.4700 59.3013   2
  -9 -14   3 46.8739 44.8634   1
  -8 -14   3 66.7859 47.3949   1
  -7 -14   3 201.451 69.6550   1
  -6 -14   3 92.9019 44.9915   1
  -5 -14   3 267.544 76.7755   1
  -5  14   3 133.204 48.3526   1
  -4  14   3 51.3179 29.2723   1
  -4 -14   3 150.465 52.7821   1
  -3  14   3-27.6933 24.2529   1
  -3 -14   3 30.2181 26.2746   1
   2 -14  -3 19.4167 31.5945   1
  -2  14   3 14.1781 16.3117   1
  -2 -14   3-18.4099 25.6511   1
  -1  14   3-24.3598 21.2815   1
  -1 -14   3-4.66566 35.9156   1
   1 -14  -3-29.2854 24.2329   1
   0 -14  -3 21.9660 24.0238   1
   0  14   3 14.9423 21.1648   1
   0 -14   3 6.84245 24.8847   1
  -1 -14  -3-14.2642 31.6649   1
   1 -14   3 54.1783 39.4325   1
   1  14   3 43.0490 23.6479   1
   2 -14   3 6.82922 30.0422   1
  -2 -14  -3-1.54699 19.0797   1
  -3 -14  -3 134.052 42.4329   1
   3 -14   3 17.8291 39.9512   2
   4 -14   3 37.8023 41.2987   2
  -4 -14  -3 63.1486 38.7940   1
  -5 -14  -3 36.6217 25.8115   1
   5 -14   3 127.797 68.2878   2
   6 -14   3 124.835 66.8568   2
  -6 -14  -3-7.23926 31.2855   1
   7 -14   3 249.971 97.9770   2
  -7 -14  -3 310.352 77.3495   1
   8 -14   3 51.7012 53.1008   2
  -8 -14  -3 72.6678 45.8289   1
  -9 -14  -3 11.5966 26.9774   1
   9 -14   3-3.62460 30.0292   2
 -10 -14  -3 16.8228 28.8992   1
  10 -14   3-9.17535 35.3597   2
 -11 -14  -3 7.37456 36.2409   1
 -12 -14  -3 29.1303 39.3895   1
 -13 -14  -3 42.9509 54.1082   1
 -14 -14  -3 19.9027 33.9380   1
 -13 -15   3-40.9466 43.8633   1
 -12 -15   3 48.5863 26.9760   1
 -11 -15   3-62.9124 46.0866   1
  11 -15  -3-36.6477 42.0533   2
  10 -15  -3 21.4628 43.4443   2
 -10 -15   3-55.4583 42.1116   1
   9 -15  -3 46.7736 44.9246   2
  -9 -15   3 55.6365 37.2425   1
  -8 -15   3 12.6741 28.4004   1
  -7 -15   3 15.1230 37.6901   1
  -6 -15   3 21.3390 47.0571   1
  -5 -15   3 41.3735 44.6427   1
  -4 -15   3 76.2343 45.9938   1
  -3 -15   3 111.353 52.3921   1
  -2 -15   3 26.1622 26.0320   1
  -1 -15   3 58.8673 43.1761   1
   1 -15  -3 2.82245 20.7158   1
   0 -15  -3 16.9793 23.7189   1
   0 -15   3 55.2323 38.6419   1
   1 -15   3-20.3328 22.4180   1
  -1 -15  -3-17.5171 22.1649   1
  -2 -15  -3 89.7279 39.4494   1
  -3 -15  -3 224.756 62.6073   1
   3 -15   3 238.997 88.9318   2
  -4 -15  -3 20.8245 28.8178   1
   4 -15   3 128.181 74.8983   2
   5 -15   3 91.9997 49.7398   2
  -5 -15  -3 108.482 46.5012   1
  -6 -15  -3 49.0839 45.9190   1
   6 -15   3 91.2298 64.7594   2
   7 -15   3-16.2139 44.8947   2
  -7 -15  -3 36.9596 26.5346   1
  -8 -15  -3 11.3048 23.7920   1
   8 -15   3-9.04292 35.6417   2
  -9 -15  -3 25.3620 32.4917   1
 -10 -15  -3 95.0178 57.5551   1
 -11 -15  -3 172.453 62.8737   1
 -12 -15  -3 21.3843 33.7025   1
 -11 -16   3 67.9775 50.1884   1
 -10 -16   3 15.3409 28.7440   1
  -9 -16   3 54.5573 43.3184   1
  -8 -16   3-31.0002 33.9730   1
  -7 -16   3 62.9048 51.6925   1
  -6 -16   3 46.4833 28.3609   1
  -5 -16   3 27.1277 29.8837   1
  -4 -16   3-70.1776 44.2985   1
  -3 -16   3-42.7941 38.0772   1
  -2 -16   3-19.4571 33.1389   1
  -1 -16   3 82.6648 44.1627   1
   0 -16   3 166.508 60.8741   1
   1 -16   3 78.2342 42.2624   1
   3 -16   3 59.2715 48.5424   2
   4 -16   3 176.797 81.6031   2
   5 -16   3 25.7409 41.9784   2
  -9 -17   3 46.5228 44.6401   1
  -8 -17   3 42.5079 38.5352   1
  -7 -17   3 34.5068 37.0771   1
  -6 -17   3 157.154 65.0142   1
  -5 -17   3-41.1836 35.8098   1
  -4 -17   3-82.1446 47.4096   1
  -3 -17   3-88.6891 48.4429   1
  -2 -17   3 46.4599 40.8761   1
  -1 -17   3-24.7064 32.2859   1
   0 -17   3 77.6549 48.8985   1
   1 -17   3 55.9436 43.1142   1
  -7 -18   3-24.9611 33.8019   1
  -6 -18   3-101.205 54.2060   1
  -5 -18   3 35.8176 35.2189   1
  -4 -18   3 12.1249 27.5944   1
  -3 -18   3-12.7132 25.0537   1
  -2 -18   3-51.7183 39.7062   1
  -1 -18   3 47.4420 41.3479   1
   0 -18   3 98.1663 53.5336   1
  22   0  -4 69.7192 33.2058   2
  21   0  -4 46.5420 31.9699   2
  20   0  -4 448.593 75.8689   2
 -19   0   4 126.612 47.4376   2
  19   0  -4 178.955 48.2625   2
 -18   0   4 961.938 132.090   2
  18   0  -4 1042.96 83.9638   3
  18   0  -4 1304.85 120.986   2
 -17   0   4 1703.49 171.380   2
  17   0  -4 1738.90 105.760   3
  17   0  -4 1618.25 130.416   2
 -16   0   4 1093.76 131.269   2
  16   0  -4 1193.18 107.601   2
  16   0  -4 1047.08 79.7475   3
  15   0  -4 484.862 66.4534   2
  15   0  -4 366.417 47.5437   3
  14   0  -4 342.326 54.3204   2
  14   0  -4 262.108 39.1099   3
  13   0  -4 919.852 83.3130   2
 -13   0   4 854.075 96.3990   2
  13   0  -4 916.914 69.0447   3
 -12   0   4 910.050 94.5602   2
  12   0  -4 646.313 64.4035   2
 -11   0   4 1439.02 110.206   2
  11   0  -4 1532.03 94.4901   2
 -10   0   4 16576.6 344.941   2
  10   0  -4 18064.7 296.283   2
  -9   0   4 2743.51 128.719   2
   9   0  -4 2526.07 101.858   2
  -8   0   4 461.517 48.1447   2
   8   0  -4 450.221 38.6754   2
  -7   0   4 922.204 58.0319   2
   7   0  -4 981.190 51.0943   2
  -6   0   4 461.367 40.9353   1
   6   0  -4 454.300 29.6771   2
  -5   0   4 16780.3 234.161   1
  -4   0   4 5953.88 139.080   1
   4   0  -4 5960.21 121.545   1
  -3   0   4 22075.9 257.274   1
   3   0  -4 20743.5 149.482   2
   3   0  -4 20803.7 244.671   1
   2   0  -4 14174.9 159.180   2
   2   0  -4 14231.9 204.254   1
  -2   0   4 13932.8 200.212   1
  -1   0   4 6408.65 132.400   1
  -1   0   4 6234.25 122.107   2
   0   0   4 2143.86 83.2383   2
   1   0   4 25787.8 315.489   2
   2   0   4 1181.30 759.634   2
   3   0   4 45.2138 18.2830   2
   4   0   4 423.186 52.4803   2
  -5   0  -4 3638.96 153.891   3
   5   0   4 3558.54 159.670   2
   6   0   4 11749.8 304.163   2
  -6   0  -4 12306.2 295.471   3
   7   0   4 1524.03 117.109   2
   8   0   4 244.828 51.8598   2
  -9   0  -4 9923.99 368.627   2
   9   0   4 10664.1 333.455   2
 -10   0  -4 599.571 94.9273   2
 -10   0  -4 700.779 88.6044   3
  10   0   4 683.619 87.2720   2
 -11   0  -4 67.6044 27.5959   3
 -11   0  -4 101.739 41.8782   2
  11   0   4 123.476 41.4854   2
  12   0   4 310.769 67.5032   2
  13   0   4 329.007 68.8803   2
  14   0   4 1182.85 135.258   2
  15   0   4 143.618 52.5569   2
  16   0   4 2747.94 216.794   2
  17   0   4 124.191 53.0184   2
  18   0   4 270.494 80.0795   2
  19   0   4 871.055 133.699   2
  20   0   4 100.018 51.0345   2
  22  -1  -4 32.1538 26.3057   2
  21  -1  -4 371.260 73.8607   2
  20   1  -4 56.6150 32.3128   2
  20  -1  -4 34.9506 23.2739   2
 -19  -1   4 542.079 102.568   2
  19  -1  -4 679.156 94.3628   2
  19   1  -4 776.725 94.8664   2
 -18  -1   4 23.7623 22.3118   2
  18   1  -4 69.4031 30.5608   2
  18  -1  -4 27.5207 17.7099   3
 -18   1   4 49.5218 35.9687   2
  18  -1  -4 39.3496 29.3351   2
 -17   1   4 367.675 82.2132   2
  17  -1  -4 418.535 72.7954   2
  17  -1  -4 351.049 53.8498   3
 -17  -1   4 380.484 76.8578   2
  17   1  -4 370.659 42.2195   3
  17   1  -4 452.854 67.7997   2
 -16  -1   4 1672.50 155.255   2
 -16   1   4 1817.11 173.921   2
  16  -1  -4 1648.06 113.529   3
  16   1  -4 1866.27 130.026   2
  16  -1  -4 1696.20 134.797   2
  16   1  -4 1780.83 89.3341   3
  15  -1  -4 122.387 31.4703   3
  15   1  -4 128.787 24.4027   3
 -15   1   4 96.3188 41.4826   2
  15  -1  -4 128.160 35.5968   2
  15   1  -4 168.184 38.4335   2
  14  -1  -4 110.974 32.6471   2
  14   1  -4 64.1251 25.1255   2
  14  -1  -4 61.6983 25.6401   3
 -14  -1   4 88.6667 34.2288   2
  14   1  -4 93.8088 19.6352   3
 -13  -1   4 1710.27 130.692   2
 -13   1   4 1724.98 145.922   2
  13   1  -4 1663.38 76.8286   3
  13  -1  -4 1766.51 122.745   2
  13   1  -4 1788.26 109.283   2
 -12  -1   4 1690.46 121.054   2
  12   1  -4 1905.17 105.765   2
 -12   1   4 1773.65 138.234   2
  12  -1  -4 1739.61 116.368   2
  12   1  -4 1767.54 76.4620   3
  11  -1  -4 761.650 73.1052   2
 -11   1   4 779.241 86.8561   2
 -11  -1   4 684.361 72.5573   2
  11   1  -4 718.946 46.6773   3
  11   1  -4 767.505 62.3515   2
  10  -1  -4 130.397 30.5062   2
 -10   1   4 121.971 31.2713   2
  10   1  -4 148.950 25.1138   2
 -10  -1   4 115.363 29.1151   2
   9  -1  -4 935.463 71.5552   2
  -9  -1   4 1082.98 75.2445   1
   9   1  -4 991.957 58.2369   2
  -9  -1   4 916.277 67.5221   2
   8  -1  -4 1169.28 75.1429   2
  -8  -1   4 1135.12 66.6437   2
  -8  -1   4 1282.09 80.0448   1
   8   1  -4 1199.91 56.4735   2
  -7  -1   4 1219.87 57.6783   2
   7  -1  -4 1259.79 74.4429   2
   7   1  -4 1202.83 47.4398   2
  -7  -1   4 1059.42 70.6641   1
  -6  -1   4 2338.65 63.4111   2
   6  -1  -4 2604.54 97.9924   2
  -6  -1   4 2680.41 107.700   1
  -5   1   4 716.313 40.7867   1
  -5  -1   4 644.012 53.4253   1
  -4   1   4 23072.9 223.215   1
  -4  -1   4 23331.4 305.964   1
  -3  -1   4 1363.66 82.0761   1
  -3   1   4 1320.42 53.7627   1
   2   1  -4 381.935 30.7805   2
  -2   1   4 278.817 24.1556   1
  -2  -1   4 226.786 32.9393   1
   2  -1  -4 239.463 22.1811   1
  -2  -1   4 348.891 26.2622   2
   1   1  -4 1980.73 80.3592   2
  -1  -1   4 2094.69 88.5099   1
   1  -1  -4 2090.00 64.3059   1
  -1  -1   4 2207.51 78.8980   2
   0  -1   4 31236.2 339.743   1
   0  -1   4 31982.5 338.157   3
   0  -1   4 32992.2 344.325   2
   1   1   4 2169.94 91.0623   2
   1  -1   4 1905.54 88.9694   3
   1  -1   4 2587.76 109.114   2
   2  -1   4 2975.70 125.926   2
   2   1   4 3048.98 117.937   2
   2  -1   4 3079.50 120.216   3
   3  -1   4 237.773 40.7182   2
   3  -1   4 246.220 38.2411   3
   3   1   4 188.752 33.7005   2
   4  -1   4 3758.57 163.012   2
   4  -1   4 3829.58 149.761   3
   4   1   4 3965.12 154.450   2
  -5  -1  -4 512.788 59.0163   3
   5   1   4 403.287 55.1045   2
   5  -1   4 405.816 57.6812   2
   5  -1   4 425.486 53.4275   3
   6  -1   4 105.714 29.4174   2
   6  -1   4 76.3670 27.6376   3
   6   1   4 101.251 30.9591   2
  -6  -1  -4 88.8010 28.6513   3
  -6   1  -4 116.111 34.3216   3
   7  -1   4 167.522 43.3256   2
   7  -1   4 173.822 37.6856   3
  -7  -1  -4 158.133 36.3887   3
   7   1   4 192.400 42.5848   2
   8  -1   4 675.444 75.4485   3
   8   1   4 804.511 87.0509   2
   8  -1   4 821.182 96.7064   2
   9  -1   4 97.5706 32.5914   3
  -9  -1  -4 110.460 39.5509   2
  -9   1  -4 119.015 42.2375   2
   9  -1   4 98.8007 31.4449   2
   9   1   4 95.2987 33.1560   2
 -10   1  -4 795.521 111.402   2
 -10  -1  -4 866.405 112.765   2
  10  -1   4 788.673 85.7099   3
  10  -1   4 805.008 100.188   2
  10   1   4 851.692 97.4575   2
 -11   1  -4 247.894 66.8883   2
  11  -1   4 375.819 73.4633   2
  11  -1   4 282.916 56.0904   3
 -11  -1  -4 296.351 62.7566   3
 -11  -1  -4 284.322 68.3115   2
  11   1   4 271.388 60.1695   2
  12  -1   4 234.925 49.8932   3
 -12  -1  -4 265.526 54.9337   3
  12   1   4 211.154 54.1344   2
  12  -1   4 310.076 70.4375   2
  13  -1   4 2541.16 195.122   2
  13  -1   4 1981.24 147.542   3
  13   1   4 2570.59 188.737   2
  14   1   4 71.7452 38.7565   2
  14  -1   4 102.151 47.5808   2
  15  -1   4 44.8261 31.7179   2
  15   1   4-14.3219 23.3833   2
  16   1   4 82.6680 47.8276   2
  16  -1   4 57.0392 39.7037   2
  17  -1   4 555.925 103.024   2
  17   1   4 612.803 105.569   2
  18  -1   4 117.786 55.0750   2
  18   1   4 33.3515 29.9573   2
  19   1   4 488.993 99.2259   2
  19  -1   4 543.926 111.100   2
  20  -1   4-24.9481 33.0677   2
  20   1   4 86.1980 47.7104   2
  22  -2  -4 540.279 94.2652   2
 -22  -2   4 763.296 116.328   1
 -21  -2   4 213.647 64.2846   1
  21  -2  -4 159.375 52.3921   2
  20  -2  -4 993.476 121.519   2
 -20  -2   4 1174.06 130.191   1
 -19  -2   4 332.898 69.9150   1
  19  -2  -4 197.755 53.5420   2
 -19  -2   4 94.4331 42.6511   2
 -18  -2   4 284.911 69.9216   2
  18  -2  -4 327.570 67.1425   2
  18  -2  -4 296.361 55.6102   3
 -18  -2   4 400.083 73.0704   1
 -17  -2   4 86.5814 37.8263   2
  17  -2  -4 139.992 46.7350   2
  17  -2  -4 68.4252 27.8291   3
  16  -2  -4 74.5973 34.8004   2
 -16  -2   4 37.4217 29.1732   2
  16  -2  -4 44.9091 23.2261   3
  15  -2  -4 160.521 39.0695   3
  15  -2  -4 95.0208 33.7239   2
 -14  -2   4 34.1916 26.6427   2
  14  -2  -4-4.88577 24.6182   2
 -14  -2   4 14.7799 24.1004   1
 -13  -2   4 268.343 50.2317   2
 -13  -2   4 90.4413 32.3959   1
  13  -2  -4 295.815 55.2449   2
  12  -2  -4 1039.70 97.4322   2
 -12  -2   4 1206.47 96.2022   1
 -12  -2   4 1019.51 89.6819   2
  11  -2  -4 2860.30 154.816   2
 -11  -2   4 2372.74 127.322   2
 -11  -2   4 2179.03 122.786   1
 -10  -2   4 2107.95 108.796   2
 -10  -2   4 2250.98 121.250   1
  10  -2  -4 2241.88 131.379   2
  -9  -2   4 327.014 39.9897   2
   9  -2  -4 392.459 52.8398   2
   8  -2  -4 26.9797 18.4788   2
  -8  -2   4 47.7327 15.5992   2
  -8  -2   4 26.6731 18.7379   1
  -7  -2   4 14247.3 282.837   1
  -7  -2   4 14304.0 187.578   2
   7  -2  -4 14781.0 296.043   2
  -6  -2   4 410.576 48.2397   1
  -6  -2   4 423.211 26.8830   2
  -5  -2   4 1417.80 87.4934   1
   5   2  -4 1345.14 44.8738   3
  -4  -2   4 9021.50 214.283   1
   4   2  -4 9499.11 136.671   3
  -3  -2   4 24947.6 351.641   1
  -3  -2   4 23786.0 247.967   2
   3   2  -4 25116.0 249.434   3
  -2  -2   4 155.391 42.4677   1
  -2  -2   4 412.514 39.6706   2
   2   2  -4 347.319 32.6432   3
  -2  -2   4 276.738 29.6382   3
  -1  -2   4 4828.00 133.122   3
   1   2  -4 4931.44 150.083   2
  -1  -2   4 4875.17 151.527   1
  -1  -2   4 4933.92 142.902   2
   0  -2   4 2083.06 980.830   1
   0  -2   4 2178.87 1034.73   2
   1  -2   4 13294.0 273.113   2
   1  -2   4 12776.7 243.169   1
   1  -2   4 12984.5 250.201   3
   2  -2   4 143.782 35.4774   2
   2  -2   4 98.4535 25.8440   3
   3  -2   4 1060.82 89.2998   2
   3  -2   4 959.712 75.6810   3
   4  -2   4 9276.60 247.355   3
   4  -2   4 9445.18 273.410   2
   5  -2   4 1.55593 18.5380   3
  -5  -2  -4 16.1214 17.8411   3
   5  -2   4 19.9747 23.6909   2
   5   2   4-3.32387 18.8622   2
   6  -2   4 4747.24 213.631   2
   6   2   4 3910.27 170.991   2
  -6  -2  -4 4473.45 170.514   3
   6  -2   4 4184.39 180.361   3
   7  -2   4 523.788 66.7321   3
   7  -2   4 490.258 73.2696   2
  -7  -2  -4 535.154 63.7502   3
   7   2   4 526.577 67.3826   2
   8   2   4 8429.83 275.384   2
   8  -2   4 8437.99 276.133   3
   8  -2   4 8519.64 307.690   2
  -9  -2  -4 94.7894 34.5840   2
  -9   2  -4 64.4157 36.1469   2
   9  -2   4 35.9189 22.3153   2
   9  -2   4 72.5441 28.2707   3
   9   2   4 54.2244 25.5293   2
 -10  -2  -4 3072.28 208.801   2
 -10   2  -4 2953.76 225.634   2
  10  -2   4 2952.09 173.980   3
  10   2   4 3120.82 182.764   2
  10  -2   4 2820.22 193.993   2
 -11  -2  -4 22.6743 28.8107   2
  11  -2   4 32.2871 30.5274   2
  11  -2   4-7.76842 17.1863   3
  11   2   4-6.88079 18.8478   2
 -11  -2  -4 0.09310 26.3126   3
 -12  -2  -4 1172.45 116.094   3
  12  -2   4 943.258 104.432   3
  12  -2   4 1266.29 137.230   2
  12   2   4 1035.73 114.177   2
  13  -2   4-6.14377 23.0108   2
  13   2   4 23.0455 25.7694   2
 -13  -2  -4-27.7889 38.8708   3
  14  -2   4 100.192 46.8116   2
 -14  -2  -4 148.946 48.3728   3
  14   2   4 217.828 60.6485   2
  15  -2   4 113.410 51.0574   2
  15   2   4 111.233 43.1118   2
  16   2   4 337.917 75.8975   2
  16  -2   4 351.803 83.0828   2
  17  -2   4 94.1937 45.5306   2
  18  -2   4 343.559 86.9355   2
  19  -2   4 44.2150 41.7527   2
  20  -2   4 61.1168 40.4134   2
  23  -3  -4 283.634 74.0347   2
 -22  -3   4 150.556 58.9733   1
  22  -3  -4 80.4509 39.2699   2
  21  -3  -4-6.46836 27.6917   2
 -21  -3   4 70.0052 40.7367   1
  20  -3  -4-20.6241 34.9570   2
 -20  -3   4 8.13738 26.9585   1
  19  -3  -4 24.5551 29.0327   2
 -19  -3   4 75.3736 37.6090   1
 -18  -3   4 35.4154 20.7147   2
 -18  -3   4 122.425 46.4422   1
  18  -3  -4 20.0948 14.9329   3
  18  -3  -4 16.9921 20.1248   2
  17  -3  -4 155.443 48.6420   2
 -17  -3   4 152.560 46.5806   1
 -17  -3   4 159.710 49.8419   2
  17  -3  -4 114.614 40.8229   3
  16  -3  -4 56.7178 30.3520   2
 -16  -3   4 63.6402 36.0608   1
 -16  -3   4 44.8702 19.9922   2
  16  -3  -4 46.1290 25.2239   3
  15  -3  -4 291.300 62.9766   2
 -15  -3   4 178.189 49.4410   1
  14  -3  -4-1.91521 20.0215   2
 -14  -3   4 34.6292 24.6203   1
 -13  -3   4 2797.12 157.720   1
  13  -3  -4 2916.67 181.504   2
 -13  -3   4 2901.12 161.639   2
  12  -3  -4 397.710 67.0447   2
 -12  -3   4 409.641 62.8186   1
 -12  -3   4 320.049 50.8061   2
  11  -3  -4 2032.56 140.858   2
 -11  -3   4 2016.98 127.162   1
 -11  -3   4 1889.22 111.271   2
  10  -3  -4 444.704 66.7475   2
 -10  -3   4 262.712 38.9079   2
  -9  -3   4 242.270 45.7236   1
  -9  -3   4 328.746 39.4253   2
   9  -3  -4 323.389 56.0210   2
  -8  -3   4 11839.3 287.327   1
   8  -3  -4 11944.9 313.172   2
  -8  -3   4 11382.8 203.527   2
  -7  -3   4 88.9553 29.6044   1
  -7  -3   4 146.950 21.8529   2
  -6  -3   4 769.560 72.8418   1
  -5  -3   4 2897.81 136.987   1
  -4  -3   4 27673.1 413.768   1
  -4  -3   4 27457.5 258.701   3
  -3  -3   4 723.805 70.7143   1
  -3  -3   4 1042.78 56.1870   3
  -2  -3   4 7548.96 190.154   2
  -2  -3   4 7552.22 210.164   1
  -2  -3   4 7548.96 166.593   3
  -1  -3   4 10419.0 242.327   1
  -1  -3   4 10922.4 245.412   2
  -1  -3   4 10338.2 211.141   3
   0  -3   4 9533.96 230.898   1
   0  -3   4 9697.35 243.292   2
   0  -3   4 9591.83 216.903   3
   0   3  -4 9623.00 258.368   2
   1  -3   4 9831.81 235.617   3
   1  -3   4 11133.8 279.235   2
   1  -3   4 10377.2 240.031   1
   2  -3   4 2690.51 143.840   2
   2  -3   4 2600.13 127.495   3
   3  -3   4 1776.18 110.317   3
   3  -3   4 1889.37 126.464   2
   4  -3   4 539.027 71.0581   2
   4  -3   4 483.408 61.2161   3
   5  -3   4 732.091 79.8518   3
   5  -3   4 1203.65 110.531   2
   6  -3   4 78.1178 31.5511   2
   6  -3   4 49.0589 26.0730   3
   7  -3   4 4222.65 221.069   2
  -7  -3  -4 3950.46 166.582   3
   7  -3   4 3806.14 186.355   3
   8  -3   4 1247.09 110.905   3
  -8  -3  -4 1212.32 119.469   2
   8  -3   4 1173.93 120.927   2
   9  -3   4 603.217 91.5510   2
  -9  -3  -4 534.212 83.2736   2
  -9   3  -4 524.022 95.1087   2
   9  -3   4 462.716 69.3707   3
 -10  -3  -4 188.715 51.4090   2
  10  -3   4 205.887 54.2779   2
  10  -3   4 114.772 39.7845   3
 -10   3  -4 366.017 80.1231   2
  11  -3   4 83.4971 44.8215   2
  11  -3   4 42.2603 16.9396   3
  12  -3   4 2304.27 192.661   2
 -12  -3  -4 2659.82 169.746   3
 -13  -3  -4 205.771 52.4903   3
  13  -3   4 70.8945 47.0042   2
 -14  -3  -4 97.3669 40.5117   3
  14  -3   4 159.633 57.9024   2
 -15  -3  -4 115.412 44.1500   3
  15  -3   4 109.830 53.4116   2
  16  -3   4 439.966 93.7997   2
  17  -3   4-58.3287 41.4868   2
  18  -3   4 6.20015 28.6654   2
  19  -3   4 372.951 94.5125   2
  20  -3   4 59.4721 49.2718   2
  23  -4  -4 31.3005 30.1707   2
  22  -4  -4 61.2806 43.5275   2
 -22  -4   4 71.3535 45.3090   1
 -21  -4   4 26.2129 31.6027   1
  21  -4  -4 47.9673 33.0010   2
  20  -4  -4 75.0813 43.6455   2
 -20  -4   4 168.386 58.4668   1
  19  -4  -4 30.9530 31.1518   2
 -19  -4   4 113.623 49.8828   1
  18  -4  -4 97.6049 40.0622   2
 -18  -4   4 183.800 57.1336   1
 -18  -4   4 102.975 40.1235   2
  17  -4  -4 10.1362 14.4008   3
 -17  -4   4 28.5840 21.8052   2
  17  -4  -4 42.4376 19.0520   2
 -17  -4   4 33.0879 24.7955   1
 -16  -4   4 197.391 53.0498   1
  16  -4  -4 198.411 60.0546   2
 -16  -4   4 137.133 45.2972   2
  15  -4  -4 349.667 72.5111   2
 -15  -4   4 337.166 65.5377   1
  14  -4  -4 960.180 113.207   2
 -14  -4   4 853.614 97.7661   1
  13  -4  -4 1929.81 157.361   2
 -13  -4   4 1877.12 138.249   1
 -13  -4   4 1894.85 130.574   2
  12  -4  -4-11.8167 37.3385   2
 -12  -4   4 15.8924 11.7092   2
 -12  -4   4 24.2336 19.9113   1
 -11  -4   4 86.8918 24.7235   2
 -11  -4   4 41.3071 29.4683   1
  11  -4  -4 73.4055 29.3007   2
 -10  -4   4 85.1772 22.8304   2
  10  -4  -4 63.6588 33.0768   2
 -10  -4   4 32.8728 22.8285   1
  -9  -4   4 924.249 91.7515   1
   9  -4  -4 1238.24 112.765   2
  -9  -4   4 1184.93 76.2249   2
   8  -4  -4 175.053 43.6873   2
  -8  -4   4 167.030 40.2318   1
  -8  -4   4 224.634 31.9270   2
  -7  -4   4 166.316 33.1492   1
  -6  -4   4 861.724 83.8672   1
  -6  -4   4 942.012 41.4583   3
  -5  -4   4 326.893 30.0320   3
  -5  -4   4 352.216 56.5552   1
  -4  -4   4 817.202 52.1679   3
  -4  -4   4 425.227 62.8772   1
  -4   4   4 787.817 44.5194   1
  -3   4   4 208.638 18.4089   1
  -3  -4   4 285.271 35.7650   3
  -3  -4   4 193.787 33.1260   1
  -2  -4   4 2811.24 142.986   1
  -2  -4   4 3062.88 118.980   3
  -1  -4   4 16125.0 333.076   2
  -1  -4   4 15722.8 322.800   1
  -1  -4   4 15126.2 282.654   3
   0  -4   4 886.583 73.5872   3
   0  -4  -4 943.047 42.9749   1
   0  -4   4 973.374 88.0759   2
   0  -4   4 940.785 79.1935   1
   1  -4   4 9771.84 283.436   2
  -1  -4  -4 10531.1 149.027   1
   1  -4   4 9828.51 253.168   1
   1  -4   4 9907.30 253.045   3
   2  -4   4 329.894 58.2231   2
   2  -4   4 345.859 51.3191   3
   3  -4   4 1926.22 122.336   3
   3  -4   4 1928.93 138.303   2
   4  -4   4 5496.62 213.741   3
   4  -4   4 5732.76 245.384   2
   5  -4   4 215.176 50.7031   2
   5  -4   4 262.208 52.3102   3
   6  -4   4 4549.78 209.239   3
   6  -4   4 4078.71 219.923   2
   7  -4   4 342.750 62.8437   3
   7  -4   4 363.828 69.6519   2
   8  -4   4 395.668 73.7331   2
   8  -4   4 303.133 58.0523   3
  -8  -4  -4 366.750 67.0948   2
   9  -4   4 21.8960 33.3421   2
  -9   4  -4 33.1249 26.1962   2
   9  -4   4-5.14504 23.0936   3
  -9  -4  -4 26.9491 20.1157   2
  10  -4   4 102.800 41.9978   2
 -10  -4  -4 85.3954 35.1358   2
  10  -4   4 106.495 40.0475   3
  11  -4   4 614.575 95.5619   2
  12  -4   4 265.993 72.0417   2
 -12  -4  -4 274.613 56.2994   3
  13  -4   4 139.897 57.7972   2
 -13  -4  -4 222.181 56.5730   3
  14  -4   4 578.363 107.778   2
 -14  -4  -4 552.338 83.6023   3
  15  -4   4 536.482 106.099   2
 -15  -4  -4 667.719 97.2813   3
  16  -4   4-0.56765 31.0113   2
  17  -4   4 22.8637 27.8930   2
  18  -4   4 291.141 87.3672   2
  19  -4   4 168.237 71.4335   2
  23  -5  -4 3.17099 18.4548   2
  22  -5  -4 76.4004 43.8695   2
 -21  -5   4 99.7724 43.5471   1
  21  -5  -4 166.214 60.8013   2
  20  -5  -4-8.52039 21.2970   2
 -20  -5   4-6.76373 32.1025   1
 -19  -5   4 67.5273 39.6363   1
  19  -5  -4 91.3838 41.0010   2
  18  -5  -4 71.2325 40.4540   2
 -18  -5   4 114.437 46.1439   2
 -18  -5   4 110.519 47.1575   1
 -17  -5   4-24.0340 22.8497   2
 -17  -5   4-16.2322 29.3747   1
  17  -5  -4-15.1693 26.8344   2
 -16  -5   4 183.265 51.3421   2
  16  -5  -4 251.250 63.8674   2
 -16  -5   4 251.868 60.1594   1
 -15  -5   4 296.996 65.6758   1
 -15  -5   4 210.120 47.9367   2
  15  -5  -4 227.520 60.8847   2
 -14  -5   4 97.7858 37.0904   1
  14  -5  -4 65.2499 32.2274   2
 -13  -5   4 293.723 59.7745   1
  13  -5  -4 293.178 66.5208   2
 -12  -5   4-1.53934 14.7504   2
  12  -5  -4-11.4098 32.9583   2
 -12  -5   4-2.61191 28.2568   1
 -11  -5   4 1736.62 110.509   2
  11  -5  -4 1578.18 147.102   2
 -11  -5   4 1858.79 141.857   1
 -10  -5   4-21.9519 30.4620   1
  10  -5  -4-1.23762 34.9637   2
 -10  -5   4 0.61741 10.4750   2
  -9  -5   4 2188.11 146.200   1
   9  -5  -4 2232.85 166.142   2
  -9  -5   4 2445.62 116.442   2
  -8  -5   4-36.7920 35.0915   1
  -7  -5   4 359.012 61.5113   1
  -7  -5   4 336.877 26.6452   3
  -6  -5   4 4994.49 207.034   1
  -6  -5   4 5535.43 128.255   3
  -5   5   4 1634.77 76.2103   1
  -5  -5   4 1622.24 118.693   1
  -5  -5   4 1649.54 78.9658   3
  -4  -5   4 2980.79 158.108   1
  -4   5   4 3045.74 95.3213   1
  -4  -5   4 3044.97 115.803   3
  -3  -5   4 7421.79 243.638   1
  -3  -5   4 7037.39 190.193   3
  -3   5   4 6825.23 127.827   1
  -2  -5   4 1068.77 92.7969   1
  -2  -5   4 1046.34 78.4872   3
  -2   5   4 1022.47 42.8586   1
   2  -5  -4 1012.99 43.2860   1
   1  -5  -4 215.410 23.8702   1
  -1  -5   4 274.118 42.5576   3
  -1  -5   4 249.112 44.7757   1
   0  -5   4 605.073 679.514   1
   0  -5   4 434.675 575.190   3
   0  -5   4 595.082 752.184   2
  -1  -5  -4 3261.06 103.408   1
   1  -5   4 3398.06 183.433   2
   1  -5   4 3252.09 157.437   3
   1  -5   4 3397.84 160.574   1
   2  -5   4 554.490 68.6002   3
  -2  -5  -4 457.920 40.1799   1
   2  -5   4 567.531 66.4397   1
   2  -5   4 565.605 80.1205   2
   3  -5   4 5858.13 255.086   2
  -3  -5  -4 5299.64 141.005   1
   3  -5   4 5478.28 218.781   3
   4  -5   4 942.357 106.779   2
   4  -5   4 955.200 95.0478   3
   5  -5   4 219.301 54.0509   2
   5  -5   4 169.159 42.0855   3
   6  -5   4 6897.99 301.246   2
   6  -5   4 6768.20 267.428   3
   7  -5   4 12.1999 21.5855   3
   7  -5   4 1.12574 22.6528   2
  -7  -5  -4-12.7956 19.9883   2
   8  -5   4 394.761 79.9782   2
  -8   5  -4 442.659 90.6398   2
   8  -5   4 307.657 62.4046   3
  -8  -5  -4 463.576 75.6749   2
   9  -5   4 20.6538 22.9516   3
  -9  -5  -4 19.3087 18.0962   2
  -9   5  -4 5.66002 26.1342   2
   9  -5   4-34.3274 38.0764   2
  10  -5   4 205.092 61.7348   2
  11  -5   4 283.367 74.5783   2
 -11  -5  -4 214.435 45.8325   3
  12  -5   4 218.818 67.0877   2
 -12  -5  -4 109.094 33.3286   3
 -13  -5  -4 45.7802 32.5560   3
  13  -5   4 128.352 52.4105   2
  14  -5   4 80.2939 49.8443   2
 -14  -5  -4 78.3189 36.2248   3
 -15  -5  -4 206.407 55.0739   3
  15  -5   4 358.845 85.5009   2
  16  -5   4 1.82091 37.5930   2
 -16  -5  -4 27.8529 28.3415   3
  17  -5   4 72.1084 46.0852   2
  18  -5   4 0.22087 29.2987   2
  19  -5   4 115.069 61.3845   2
  23  -6  -4 27.6489 29.7292   2
  22  -6  -4-32.3248 31.6310   2
 -21  -6   4 84.2637 46.2572   1
  21  -6  -4-60.6901 40.3273   2
 -20  -6   4 16.3278 36.3521   1
  20  -6  -4 13.3694 22.5139   2
  19  -6  -4-23.3225 30.5868   2
 -19  -6   4-10.8599 32.5513   1
 -18  -6   4 69.5921 40.7255   1
  18  -6  -4 95.4872 50.8780   2
 -17  -6   4 339.010 75.2274   1
 -17  -6   4 259.066 61.6566   2
  17  -6  -4 436.294 91.2798   2
 -16  -6   4 8.91740 15.7074   2
  16  -6  -4 49.8092 37.4082   2
 -16  -6   4-14.2352 24.7403   1
 -15  -6   4 117.528 39.3055   2
  15  -6  -4 179.431 50.1673   2
 -15  -6   4 148.445 48.9859   1
  14  -6  -4-40.1109 43.3108   2
 -14  -6   4 6.78026 22.6976   2
 -14  -6   4-14.1053 35.6852   1
  13  -6  -4 137.376 50.5568   2
 -13  -6   4 124.923 43.5057   1
 -12  -6   4 233.983 51.3900   1
  12  -6  -4 240.094 64.9708   2
 -11  -6   4 687.355 73.1354   2
 -11  -6   4 637.676 90.5345   1
  11  -6  -4 611.440 98.0918   2
 -10  -6   4 2983.86 142.436   2
 -10  -6   4 2888.92 184.225   1
  10  -6  -4 3409.92 219.007   2
   9  -6  -4 401.474 80.0432   2
  -9  -6   4 436.976 72.8830   1
  -8  -6   4 307.051 28.1808   3
  -8  -6   4 202.202 52.5238   1
  -7   6   4 4094.15 152.895   1
  -7  -6   4 4043.04 119.656   3
  -7  -6   4 4216.37 206.859   1
  -6  -6   4 6955.57 259.096   1
  -6   6   4 7095.35 191.771   1
  -5   6   4 5176.56 152.668   1
  -5  -6   4 5192.64 221.974   1
  -4   6   4 167.846 25.2238   1
  -4  -6   4 86.2318 28.0700   1
  -3  -6   4 457.183 68.4924   1
  -3   6   4 410.203 37.0073   1
   2  -6  -4 162.534 24.6702   1
  -2   6   4 38.8728 12.9578   1
  -2  -6   4 96.9284 43.0433   1
  -1   6   4 2177.80 69.6933   1
   1  -6  -4 2244.69 87.8265   1
  -1  -6   4 2358.36 142.602   1
   0  -6  -4 512.058 45.5216   1
   0  -6   4 465.097 63.4991   1
  -1  -6  -4 2051.28 94.2966   1
   1  -6   4 1813.33 142.791   2
   1  -6   4 1716.03 122.565   1
   1  -6   4 1889.95 126.938   3
   2  -6   4 3192.03 171.183   3
  -2  -6  -4 3117.74 121.970   1
   2  -6   4 3438.27 202.700   2
   2  -6   4 3317.64 168.363   1
  -3  -6  -4 4583.64 150.692   1
   3  -6   4 4797.50 216.072   3
   3  -6   4 5195.17 254.790   2
  -4  -6  -4 332.210 42.8654   1
   4  -6   4 670.238 95.1519   2
   4  -6   4 557.912 78.3429   3
  -5  -6  -4 2086.73 108.226   1
  -5   6  -4 2047.25 154.834   1
   5  -6   4 2047.01 149.513   3
   5  -6   4 1967.87 169.395   2
   6  -6   4 500.619 76.7850   3
  -6  -6  -4 580.034 82.5672   2
  -6  -6  -4 539.146 58.4109   1
   6  -6   4 462.047 85.6997   2
  -6   6  -4 672.961 91.8972   1
   7  -6   4 1529.80 155.984   2
   7  -6   4 1483.69 134.836   3
  -7  -6  -4 1693.29 142.810   2
  -7  -6  -4 1478.27 99.3598   1
  -7   6  -4 1858.32 155.601   1
   8  -6   4 42.5937 24.8366   2
   8  -6   4 21.5482 27.6294   3
  -8  -6  -4 50.7989 27.4418   2
  -8   6  -4 61.3888 30.5081   1
   9  -6   4 183.038 61.1876   2
  10  -6   4 973.001 135.812   2
  11  -6   4-4.93030 22.5467   2
 -11  -6  -4 14.5823 19.2096   3
  12  -6   4 67.8749 49.6073   2
 -12  -6  -4 57.0707 30.3069   3
 -13  -6  -4 131.364 39.0052   3
  13  -6   4 262.380 76.5107   2
  14  -6   4 250.317 78.1112   2
 -14  -6  -4 207.601 52.6347   3
  15  -6   4 226.774 77.8530   2
 -15  -6  -4 113.819 43.0014   3
  16  -6   4-0.64399 28.3016   2
 -16  -6  -4 10.1689 22.4614   3
  17  -6   4-25.4843 56.2233   2
  18  -6   4-30.4082 37.6768   2
  23  -7  -4 1.49567 38.9774   2
  22  -7  -4 7.52942 21.8854   2
  21  -7  -4 56.6262 37.9792   2
 -20  -7   4 9.58956 29.3674   1
  20  -7  -4 10.1112 26.8642   2
  19  -7  -4 13.5757 29.4285   2
 -19  -7   4-18.5408 38.6492   1
  18  -7  -4 94.3703 48.3015   2
 -18  -7   4 24.3440 50.0837   1
 -17  -7   4 53.6541 30.6288   2
  17  -7  -4 28.8897 21.3403   2
 -17  -7   4-3.40717 35.9315   1
 -16  -7   4 16.9153 28.7882   1
  16  -7  -4 123.485 48.8506   2
 -16  -7   4 37.2593 23.4148   2
 -15  -7   4 303.574 62.7169   2
  15  -7  -4 449.987 92.3505   2
 -15  -7   4 414.140 83.3220   1
 -14  -7   4 146.836 47.5073   1
  14  -7  -4 267.166 76.2026   2
 -14  -7   4 159.112 39.8887   2
 -13  -7   4 1341.92 142.638   1
  13  -7  -4 1502.88 163.723   2
 -13  -7   4 1465.43 121.428   2
 -12  -7   4-47.3177 48.5735   1
  12  -7  -4 21.8280 26.8176   2
  11  -7  -4 185.273 55.1101   2
 -11  -7   4 147.061 46.8593   1
 -10  -7   4 129.750 14.0976   3
  10  -7  -4 229.280 62.8005   2
 -10  -7   4 129.328 48.9418   1
  -9   7   4 475.817 63.1959   1
  -9  -7   4 500.899 40.3302   3
  -9  -7   4 513.880 81.7620   1
   8   7  -4 41.6520 28.5589   1
  -8  -7   4 83.6465 40.0269   1
  -7   7   4 1878.93 114.251   1
  -7  -7   4 1749.47 141.400   1
   7   7  -4 1905.31 131.971   1
  -6   7   4 765.752 69.8383   1
  -6  -7   4 767.010 93.7061   1
  -5  -7   4 396.834 68.5215   1
  -5   7   4 484.823 52.0025   1
  -4   7   4 364.892 41.6215   1
  -4  -7   4 324.405 59.0191   1
  -3   7   4 635.021 52.7272   1
  -3  -7   4 736.128 87.6209   1
  -2  -7   4 605.515 77.6743   1
  -2   7   4 515.767 44.8817   1
   2  -7  -4 532.563 46.5554   1
  -1  -7   4 86.0884 39.3082   1
   1  -7  -4 37.4261 14.8405   1
  -1   7   4 15.2670 10.2588   1
   0  -7   4 35.6512 28.8410   1
   0  -7  -4 54.9803 20.4966   1
   1  -7   4 2798.18 163.321   1
   1  -7   4 2768.73 189.413   2
  -1  -7  -4 2795.81 124.382   1
  -2   7  -4 546.297 80.4615   1
   2  -7   4 518.179 87.3292   2
  -2  -7  -4 470.223 53.9115   1
   2  -7   4 402.928 63.7670   1
  -3  -7  -4 1713.44 104.635   1
  -3   7  -4 1723.33 142.033   1
   3  -7   4 1485.18 147.134   2
   3  -7   4 1490.60 125.990   3
  -4   7  -4 427.016 73.5713   1
   4  -7   4 316.639 64.0423   3
  -4  -7  -4 188.427 38.1199   1
   4  -7   4 316.312 73.1972   2
  -5  -7  -4 3342.74 154.455   1
   5  -7   4 3242.26 225.352   2
   5  -7   4 2878.73 185.392   3
  -5   7  -4 3371.27 207.289   1
  -6   7  -4 47.3956 20.6349   1
   6  -7   4 7.79585 18.0699   3
   6  -7   4 20.7599 27.2341   2
  -6  -7  -4-18.8197 23.2610   1
  -7   7  -4 1623.86 151.073   1
   7  -7   4 1400.72 153.792   2
  -7  -7  -4 1594.29 144.274   2
   7  -7   4 1375.69 134.759   3
  -7  -7  -4 1462.87 107.637   1
  -8  -7  -4 109.606 35.9071   1
   8  -7   4 72.2714 37.3003   2
   9  -7   4 429.904 96.4145   2
  -9  -7  -4 356.583 61.0317   1
  10  -7   4 1257.67 155.998   2
 -10  -7  -4 1201.32 107.201   1
 -11  -7  -4 197.505 46.7736   3
  11  -7   4 261.114 74.5790   2
 -11  -7  -4 209.765 47.7882   1
  12  -7   4 21.6665 29.9215   2
 -12  -7  -4 40.9695 24.5720   3
 -12  -7  -4 93.9824 38.6195   1
 -13  -7  -4 58.9450 34.4736   1
  13  -7   4 2.99754 25.5322   2
 -13  -7  -4 17.7841 18.3546   3
 -14  -7  -4 158.465 44.0232   3
  14  -7   4 174.491 69.4921   2
 -14  -7  -4 205.859 51.7482   1
  15  -7   4 1.08699 27.1425   2
 -15  -7  -4 69.6620 38.9490   3
 -15  -7  -4 27.3411 25.0830   1
  16  -7   4 52.6846 38.3523   2
 -16  -7  -4-98.6436 40.3167   3
 -16  -7  -4 60.9689 31.4002   1
  17  -7   4-1.89440 24.6337   2
 -17  -7  -4 26.8225 32.2048   1
  18  -7   4 0.74077 30.9373   2
 -18  -7  -4 59.8542 35.6754   1
  22  -8  -4-24.0812 30.5260   2
  21  -8  -4-24.0735 30.3727   2
  20  -8  -4 104.318 57.3996   2
 -20  -8   4 76.6743 46.5323   1
  19  -8  -4 84.1757 48.9156   2
 -19  -8   4 85.7511 53.2042   1
  18  -8  -4 77.0763 44.1775   2
 -18  -8   4-14.7246 44.5923   1
  17  -8  -4 70.7531 46.9622   2
 -17  -8   4 157.357 54.7319   1
 -16  -8   4-9.41337 43.4297   1
 -16  -8   4 16.5371 18.8496   2
 -15  -8   4 13.9698 35.2176   1
  15  -8  -4 25.1830 28.6871   2
 -15  -8   4-1.86665 12.5778   2
  14  -8  -4 55.8030 38.9506   2
 -14  -8   4 27.2318 17.6139   2
 -14  -8   4 124.753 56.4170   1
 -13  -8   4 422.449 66.4909   2
  13  -8  -4 574.375 108.115   2
 -13  -8   4 508.094 92.8475   1
  12  -8  -4 823.065 128.712   2
 -12  -8   4 800.746 116.916   1
 -12  -8   4 841.774 90.8299   2
 -11   8   4 3108.04 186.043   1
  11  -8  -4 3038.70 236.778   2
 -11  -8   4 2722.18 200.588   1
  10  -8  -4 2656.21 215.500   2
 -10  -8   4 2683.25 195.096   1
 -10  -8   4 2629.29 98.9878   3
  -9  -8   4 1096.70 122.217   1
   9   8  -4 1046.45 102.200   1
  -8   8   4 180.938 40.8479   1
  -8  -8   4 190.009 53.7377   1
   8   8  -4 254.502 52.1709   1
  -7  -8   4 1294.42 126.356   1
   7   8  -4 1365.27 118.290   1
  -7   8   4 1266.22 101.318   1
  -6  -8   4 2376.48 170.554   1
   6   8  -4 2556.69 166.769   1
  -6   8   4 2335.74 132.391   1
  -5   8   4 474.536 57.8075   1
  -5  -8   4 436.597 71.0829   1
   5   8  -4 327.553 59.4560   1
  -4   8   4 53.6465 20.2487   1
   4   8  -4 63.8895 31.4511   1
  -4  -8   4 141.227 50.7853   1
  -3  -8   4 78.1924 33.0636   1
   3   8  -4 42.9487 29.3463   1
  -3   8   4 48.0195 19.5706   1
  -2   8   4 1450.84 86.1617   1
   2   8  -4 1473.89 132.035   1
   2  -8  -4 1618.72 91.3919   1
  -2  -8   4 1614.63 137.269   1
  -1   8   4 2044.96 93.9453   1
   1   8  -4 2437.35 174.611   1
  -1  -8   4 2303.86 159.433   1
   1  -8  -4 2228.45 110.499   1
   0  -8  -4 505.834 56.0600   1
   0   8  -4 435.604 74.7564   1
   0  -8   4 557.156 79.6958   1
   0   8   4 472.723 43.3168   1
  -1  -8  -4 190.079 35.9158   1
   1  -8   4 150.379 42.4021   1
  -1   8  -4 120.744 39.9233   1
  -2   8  -4 2270.11 172.741   1
   2  -8   4 2378.06 188.936   2
  -2  -8  -4 2243.88 127.382   1
   2  -8   4 2383.90 158.636   1
  -3   8  -4 846.761 105.786   1
  -3  -8  -4 663.442 71.3080   1
   3  -8   4 729.756 108.138   2
   4  -8   4 917.874 123.608   2
  -4  -8  -4 680.411 74.8378   1
  -4   8  -4 878.144 110.282   1
  -5   8  -4-10.3888 21.6425   1
   5  -8   4 65.5587 36.1981   2
  -5  -8  -4 27.7133 21.2375   1
   5  -8   4 54.8241 31.1265   3
   6  -8   4 1518.85 166.755   2
  -6  -8  -4 1450.47 115.967   1
  -6   8  -4 1704.01 158.612   1
   7  -8   4 327.575 75.4220   2
  -7  -8  -4 252.761 51.0975   1
  -8  -8  -4 24.2841 20.6266   1
   8  -8   4 207.482 69.6413   2
   9  -8   4 110.913 50.6051   2
  -9  -8  -4 129.470 37.4537   1
  10  -8   4 910.676 142.188   2
 -10  -8  -4 1111.26 112.535   1
  11  -8   4 384.431 93.0975   2
 -11  -8  -4 385.236 66.6580   1
  12  -8   4 50.6053 37.5411   2
 -12  -8  -4 7.48902 20.4071   3
 -12  -8  -4 8.75982 20.1281   1
 -13  -8  -4 733.518 98.3820   1
 -13  -8  -4 640.280 82.9466   3
  13  -8   4 740.269 133.954   2
 -14  -8  -4 100.757 39.4633   1
  14  -8   4 104.987 52.2597   2
 -14  -8  -4 63.1873 31.7227   3
 -15  -8  -4 132.635 43.3938   3
 -15  -8  -4 202.979 58.0383   1
  15  -8   4 238.002 79.5234   2
  16  -8   4-19.9435 33.5395   2
 -16  -8  -4-28.7586 27.3601   1
  17  -8   4 304.497 94.1314   2
 -17  -8  -4 156.600 51.6218   1
 -18  -8  -4-12.1570 21.4635   1
  21  -9  -4 65.3302 44.3889   2
  20  -9  -4 62.0073 44.3728   2
  19  -9  -4 33.9762 45.2875   2
 -19  -9   4 40.1902 42.1589   1
  18  -9  -4 12.4421 28.6030   2
 -18  -9   4-64.5113 53.1682   1
 -17  -9   4 33.9436 43.5641   1
  17  -9  -4 19.1540 24.1535   2
  16  -9  -4 124.634 66.0781   2
 -16  -9   4 77.2962 41.2929   1
  15  -9  -4 58.8918 46.7731   2
 -15  -9   4 32.7134 36.1728   1
 -14  -9   4 281.662 74.0858   1
 -14  -9   4 219.547 52.2135   2
  14  -9  -4 221.349 72.3214   2
  13  -9  -4 266.611 80.0904   2
 -13  -9   4 161.881 55.5531   1
 -13   9   4 132.352 44.1126   1
 -13  -9   4 105.563 35.2383   2
 -12  -9   4 203.596 67.3456   1
 -12   9   4 138.330 41.9889   1
  12  -9  -4 247.298 77.4653   2
 -12  -9   4 221.139 50.4235   2
 -11  -9   4 3736.76 244.086   1
  11  -9  -4 3455.71 261.645   2
 -11  -9   4 3548.67 120.979   3
 -11   9   4 3652.71 214.256   1
  10  -9  -4 128.507 61.0755   2
 -10  -9   4 198.981 63.1613   1
 -10   9   4 77.2380 34.5527   1
  -9  -9   4 236.884 60.4679   1
  -8  -9   4 72.3128 46.9359   1
  -8   9   4-17.0111 21.6632   1
   7   9  -4 389.281 67.8783   1
  -7   9   4 329.090 57.6666   1
  -7  -9   4 325.427 65.6359   1
  -6  -9   4 44.3934 32.0485   1
  -6   9   4 1.46442 16.1107   1
   6   9  -4 46.6209 31.4829   1
   5   9  -4-8.59775 30.0492   1
  -5   9   4-10.4825 21.4572   1
  -5  -9   4 49.3726 32.4280   1
  -4  -9   4 1161.60 123.029   1
   4   9  -4 1248.50 126.152   1
  -4   9   4 1265.87 95.3909   1
   3   9  -4 166.365 48.9258   1
  -3  -9   4 106.617 40.5785   1
  -3   9   4 143.174 32.1765   1
  -2   9   4 43.6893 17.4558   1
  -2  -9   4 38.7500 31.2522   1
   2   9  -4 57.0418 35.8279   1
   2  -9  -4 37.3312 20.1394   1
   1  -9  -4 69.2403 23.3404   1
  -1  -9   4 10.8434 22.6554   1
  -1   9   4 52.3123 17.9634   1
   1   9  -4 76.2226 34.4723   1
   0  -9   4 217.521 54.2179   1
   0   9   4 221.155 33.0438   1
   0  -9  -4 196.109 40.9482   1
   0   9  -4 227.454 58.7667   1
  -1  -9  -4 40.8137 21.6118   1
  -1   9  -4 29.8276 21.1180   1
   1  -9   4 57.8935 30.2919   1
   2  -9   4 339.328 65.4495   1
  -2   9  -4 366.143 72.1521   1
  -2  -9  -4 370.835 56.0597   1
   2  -9   4 295.335 74.5267   2
  -3  -9  -4 113.716 35.6974   1
   3  -9   4 83.2990 49.0226   2
  -3   9  -4 72.3527 33.1930   1
   4  -9   4 168.115 60.1128   2
  -4   9  -4 113.869 44.3256   1
  -4  -9  -4 77.9192 32.1793   1
   5  -9   4 41.7444 37.7517   2
  -5  -9  -4 71.3933 29.6266   1
  -5   9  -4 66.4211 39.5722   1
  -6  -9  -4-6.95833 20.5112   1
   6  -9   4-2.46125 33.7389   2
   7  -9   4-32.1451 48.0204   2
  -7  -9  -4-46.5777 37.8065   1
   8  -9   4 386.588 90.2978   2
  -8  -9  -4 39.6542 29.2949   1
  -9  -9  -4 646.210 90.7578   1
   9  -9   4 709.386 128.456   2
 -10  -9  -4 573.914 89.0709   1
  10  -9   4 485.553 105.130   2
 -11  -9  -4 92.1436 35.8026   1
  11  -9   4 134.315 54.6987   2
  12  -9   4 220.437 70.4852   2
 -12  -9  -4 239.449 61.1244   1
 -12  -9  -4 219.002 47.9304   3
 -13  -9  -4 13.5205 17.8516   3
 -13  -9  -4 15.2228 21.4742   1
  13  -9   4-62.1414 46.7076   2
 -14  -9  -4 35.4924 25.3430   3
  14  -9   4 3.31937 28.3195   2
 -14  -9  -4 57.2684 36.0709   1
  15  -9   4 148.792 84.6846   2
 -15  -9  -4-18.6718 29.8784   1
  16  -9   4 84.6671 59.0145   2
 -16  -9  -4 65.4492 41.3567   1
 -17  -9  -4 50.1531 38.7938   1
  20 -10  -4 50.7397 42.7799   2
  19 -10  -4-79.7042 50.8431   2
  18 -10  -4-70.0806 48.4795   2
 -18 -10   4 39.8764 32.3246   1
  17 -10  -4 21.0626 40.8295   2
 -17 -10   4 184.853 68.5863   1
  16 -10  -4 202.790 76.5803   2
 -16 -10   4 249.534 80.8983   1
  15 -10  -4 1.75862 26.2901   2
 -15 -10   4-60.9069 43.8551   1
  14 -10  -4-2.13422 31.1870   2
 -14 -10   4 14.2576 37.5900   1
  13 -10  -4 21.0801 40.4236   2
 -13  10   4 5.94729 19.5633   1
 -13 -10   4-1.88929 30.7992   1
 -12  10   4 126.235 48.8346   1
 -12 -10   4 199.215 65.7333   1
 -12 -10   4 151.267 25.5553   3
  12 -10  -4 131.757 55.5454   2
 -11 -10   4 29.4188 33.7273   1
 -11  10   4 49.0393 29.9802   1
  11 -10  -4 21.5583 38.0624   2
 -10  10   4 40.0821 29.5372   1
 -10 -10   4 27.6203 27.9808   1
  10 -10  -4 44.5948 46.4463   2
  -9 -10   4 619.422 102.642   1
  -8 -10   4 520.147 91.4506   1
  -7  10   4 43.0268 20.9731   1
  -7 -10   4 44.8437 33.2046   1
  -6  10   4-6.69786 15.8759   1
  -6 -10   4 0.93117 30.8312   1
  -5 -10   4 0.38919 25.8111   1
   5  10  -4 8.53177 23.2771   1
  -5  10   4-57.7997 25.8225   1
  -4  10   4 347.365 53.5942   1
   4  10  -4 392.668 74.4586   1
  -4 -10   4 338.308 74.0428   1
  -3  10   4 394.493 55.6835   1
  -3 -10   4 406.090 77.9477   1
   3  10  -4 307.142 68.5085   1
  -2 -10   4 239.017 55.7976   1
  -2  10   4 181.122 37.0553   1
   2  10  -4 268.927 61.7801   1
   2 -10  -4 311.644 46.8243   1
  -1  10   4 1685.08 102.398   1
   1  10  -4 1560.90 153.720   1
  -1 -10   4 1760.34 154.970   1
   1 -10  -4 1717.73 114.798   1
   0  10   4 702.141 63.0555   1
   0  10  -4 649.838 99.5566   1
   0 -10   4 686.142 97.1497   1
   0 -10  -4 602.751 71.7807   1
  -1  10  -4 116.790 37.9934   1
  -1 -10  -4 89.0794 32.3507   1
   1 -10   4 145.285 48.6331   1
  -2  10  -4 103.698 39.5998   1
   2 -10   4 174.664 53.9774   1
   2 -10   4 178.918 61.7816   2
  -2 -10  -4 211.335 47.3972   1
  -3  10  -4 217.061 61.7379   1
   3 -10   4 213.695 73.6056   2
  -3 -10  -4 172.082 46.0246   1
   4 -10   4 101.892 58.2940   2
  -4 -10  -4 19.7737 19.2895   1
  -5 -10  -4 331.751 63.3225   1
   5 -10   4 383.376 91.6511   2
   6 -10   4 1034.40 149.658   2
  -6 -10  -4 835.539 102.323   1
  -7 -10  -4 155.174 52.0801   1
   7 -10   4 113.006 47.5252   2
   8 -10   4 34.2773 48.4643   2
  -8 -10  -4 15.8280 24.7602   1
   9 -10   4 274.089 83.3384   2
  -9 -10  -4 273.729 74.0650   1
 -10 -10  -4 83.9162 39.5631   1
  10 -10   4 57.7697 57.2959   2
 -11 -10  -4 2.95444 29.9648   1
  11 -10   4 23.9725 33.9769   2
 -12 -10  -4 72.8136 32.1083   1
  12 -10   4 45.6414 43.6926   2
 -13 -10  -4 19.8815 25.1407   3
 -13 -10  -4-12.8060 34.8161   1
  13 -10   4 7.02888 29.6722   2
 -14 -10  -4-24.9796 36.1543   1
  14 -10   4 30.4074 33.6836   2
  15 -10   4-60.8337 49.8634   2
 -15 -10  -4-6.19411 21.3698   1
 -16 -10  -4 51.8138 41.9182   1
 -17 -10  -4 78.2348 48.6026   1
  19 -11  -4-22.4650 33.7572   2
  18 -11  -4-71.4321 49.7057   2
 -17 -11   4 91.5750 50.0338   1
  17 -11  -4 72.0554 45.9164   2
  16 -11  -4 102.563 52.2602   2
 -16 -11   4 10.0607 47.7369   1
  15 -11  -4-40.4987 44.2355   2
 -15 -11   4-30.6037 36.1933   1
 -14 -11   4 229.374 75.9657   1
  14 -11  -4 167.155 63.6347   2
 -13 -11   4 22.6894 36.7671   1
  13 -11  -4-37.3441 35.4601   2
 -12 -11   4 38.6133 33.0583   1
  12 -11  -4-35.0965 38.2713   2
 -12  11   4-13.8661 21.7868   1
 -11 -11   4 33.8662 40.3524   1
 -11  11   4 13.5974 21.6063   1
  11 -11  -4 2.32821 31.6868   2
 -10 -11   4 1147.98 145.031   1
 -10  11   4 1070.69 124.479   1
  10 -11  -4 1016.57 153.917   2
  -9  11   4 23.9159 22.0643   1
  -9 -11   4-27.9079 40.9286   1
  -8 -11   4 104.345 40.6244   1
  -7 -11   4 103.078 50.7662   1
  -6 -11   4 102.134 46.0429   1
  -5  11   4 29.9696 23.7771   1
  -5 -11   4 46.2098 36.2018   1
  -4  11   4 3.84743 17.9364   1
  -4 -11   4-8.67627 23.7044   1
  -3 -11   4 450.814 87.2225   1
  -3  11   4 546.436 68.8204   1
   2 -11  -4 1332.45 104.525   1
  -2  11   4 1260.94 100.036   1
  -2 -11   4 1370.07 142.503   1
   1 -11  -4 322.627 54.9046   1
  -1 -11   4 393.794 77.5548   1
  -1  11   4 332.948 48.7257   1
   0 -11   4 215.635 56.0219   1
   0 -11  -4 144.995 37.7892   1
   0  11   4 116.886 29.4370   1
  -1 -11  -4 17.0088 18.1764   1
   1 -11   4-6.48666 31.2661   1
   2 -11   4 311.141 82.6534   2
  -2 -11  -4 255.268 54.5472   1
   2 -11   4 292.870 63.5258   1
  -3 -11  -4 830.521 98.9304   1
   3 -11   4 697.106 123.593   2
   4 -11   4 163.090 61.2611   2
  -4 -11  -4 226.658 55.4027   1
   5 -11   4 1166.16 164.882   2
  -5 -11  -4 1127.00 119.426   1
  -6 -11  -4-11.1116 20.9295   1
   6 -11   4 15.3667 44.8157   2
  -7 -11  -4 269.645 63.3900   1
   7 -11   4 174.959 67.2156   2
  -8 -11  -4-25.6646 27.5607   1
   8 -11   4-5.10546 33.4381   2
   9 -11   4-1.38283 42.8009   2
  -9 -11  -4 20.1344 25.2275   1
  10 -11   4 68.0286 53.5149   2
 -10 -11  -4 14.4585 24.4866   1
  11 -11   4 59.2703 28.8706   2
 -11 -11  -4 28.3203 30.1591   1
 -12 -11  -4 21.5197 29.6211   1
  12 -11   4 43.2124 42.0569   2
  13 -11   4-29.6168 35.7931   2
 -13 -11  -4 9.96541 29.3530   1
 -13 -11  -4-19.5154 19.9156   3
 -14 -11  -4-43.3457 40.1431   1
  14 -11   4-118.047 64.1496   2
 -15 -11  -4-61.8355 42.9422   1
 -16 -11  -4 54.4889 47.9220   1
  18 -12  -4 24.1942 35.8699   2
  17 -12  -4 60.0075 39.5257   2
  16 -12  -4 91.8060 63.4644   2
 -16 -12   4 36.2683 50.8116   1
 -15 -12   4 49.8176 44.3937   1
  15 -12  -4 86.0831 54.9651   2
 -14 -12   4-32.6036 39.4972   1
  14 -12  -4 35.4903 30.2654   2
 -13 -12   4 5.73763 35.4743   1
  13 -12  -4-2.17672 32.5294   2
 -12 -12   4-9.49636 29.9862   1
  12 -12  -4 51.7203 44.1828   2
 -11  12   4-6.62813 15.5779   1
 -11 -12   4 54.5169 46.7843   1
  10 -12  -4-50.0476 43.1773   2
 -10  12   4 43.0543 30.3282   1
 -10 -12   4 31.2524 24.2812   1
  -9  12   4 321.952 67.8431   1
  -9 -12   4 319.689 81.2028   1
  -8  12   4 99.3068 36.4887   1
  -8 -12   4 103.021 52.8116   1
  -7 -12   4 30.3472 40.6407   1
  -7  12   4-5.35246 18.5271   1
  -6 -12   4 118.030 49.6521   1
  -5 -12   4 229.155 64.8224   1
  -4 -12   4 47.2816 36.9804   1
  -3 -12   4 323.703 73.4491   1
  -2 -12   4 243.625 60.6345   1
   2 -12  -4 259.021 47.6933   1
   1 -12  -4 191.910 47.8984   1
  -1 -12   4 221.373 63.8240   1
   0 -12  -4 71.5076 31.2107   1
   0 -12   4 67.9760 36.4414   1
  -1 -12  -4 8.10126 17.1177   1
   1 -12   4 6.37698 29.8184   1
  -2 -12  -4 796.826 97.9620   1
   2 -12   4 931.160 143.015   2
   2 -12   4 854.013 117.999   1
  -3 -12  -4 77.8531 41.5329   1
   3 -12   4 25.7926 44.6633   2
  -4 -12  -4 311.782 65.7304   1
   4 -12   4 385.917 100.428   2
   5 -12   4 156.675 68.5313   2
  -5 -12  -4 57.5971 30.2708   1
  -6 -12  -4 199.068 58.8431   1
   6 -12   4 210.335 79.3855   2
   7 -12   4-34.4217 55.6062   2
  -7 -12  -4-48.0839 34.7302   1
   8 -12   4 110.360 63.6425   2
  -8 -12  -4 86.0368 45.6116   1
  -9 -12  -4 38.8263 38.1079   1
   9 -12   4-24.0608 56.5984   2
  10 -12   4-77.1093 55.2184   2
 -10 -12  -4 20.5546 38.8653   1
  11 -12   4-64.1963 67.3902   2
 -11 -12  -4-30.2354 36.2426   1
  12 -12   4-136.451 68.9592   2
 -12 -12  -4 10.6159 31.2693   1
  13 -12   4-123.516 66.8163   2
 -13 -12  -4 27.8754 40.9067   1
 -14 -12  -4-65.8669 45.0310   1
 -15 -12  -4 29.9240 37.7495   1
  16 -13  -4 85.7840 54.8800   2
 -15 -13   4 24.8187 39.6639   1
  15 -13  -4-3.00037 26.0468   2
 -14 -13   4-36.6172 41.3022   1
  14 -13  -4 59.2110 58.9513   2
  13 -13  -4 170.555 68.8264   2
 -13 -13   4 251.668 85.6420   1
  12 -13  -4-24.2631 42.4720   2
 -12 -13   4 34.0170 35.4769   1
 -11 -13   4-34.6695 28.0536   1
  11 -13  -4-40.5384 45.5924   2
  10 -13  -4-137.341 67.0891   2
 -10 -13   4 0.97560 42.5317   1
  -9 -13   4 3.56578 29.2149   1
  -8 -13   4 59.4179 37.7682   1
  -8  13   4 73.0125 34.7084   1
  -7  13   4 10.5072 17.0367   1
  -7 -13   4 20.4458 28.1679   1
  -6  13   4 212.930 53.4417   1
  -6 -13   4 285.603 76.1971   1
  -5  13   4 54.7504 32.2281   1
  -5 -13   4 105.815 53.2724   1
  -4 -13   4 510.429 102.487   1
  -3 -13   4 98.1564 51.4206   1
  -2 -13   4-7.41665 31.8675   1
   2 -13  -4 4.17997 17.3235   1
  -1 -13   4 136.268 52.5247   1
  -1  13   4 133.343 39.1385   1
   1 -13  -4 232.088 49.2083   1
   0 -13  -4 198.784 48.7663   1
   0  13   4 185.889 39.1690   1
   0 -13   4 205.161 65.2918   1
  -1 -13  -4 74.8971 31.1025   1
   1 -13   4 10.0047 27.9275   1
  -2 -13  -4 16.7792 23.0173   1
   2 -13   4 55.3443 45.6099   2
   2 -13   4 81.7373 42.5922   1
   3 -13   4 660.191 132.848   2
  -3 -13  -4 589.097 90.2028   1
   4 -13   4 63.2404 65.0137   2
  -4 -13  -4 37.8481 35.5450   1
   5 -13   4 5.43875 33.8670   2
  -5 -13  -4-6.87964 20.8564   1
   6 -13   4 138.246 61.5205   2
  -6 -13  -4 92.2423 40.9279   1
   7 -13   4 116.852 58.3644   2
  -7 -13  -4 60.4415 37.5092   1
  -8 -13  -4-13.6993 22.4652   1
   8 -13   4-60.0736 48.9979   2
  -9 -13  -4 22.2222 23.6313   1
   9 -13   4 74.5984 48.4982   2
 -10 -13  -4 47.2440 40.1660   1
  10 -13   4-57.1340 51.5426   2
 -11 -13  -4 16.7413 28.7408   1
  11 -13   4 80.4059 63.1179   2
 -12 -13  -4 82.1928 48.6316   1
 -13 -13  -4 94.9070 58.7613   1
 -14 -13  -4-68.4988 47.2357   1
 -15 -13  -4 2.87231 23.1167   1
 -14 -14   4-16.6075 32.5749   1
  14 -14  -4 28.4443 31.5697   2
 -13 -14   4 58.3797 48.1672   1
  13 -14  -4 81.1678 60.9266   2
 -12 -14   4 79.0525 58.8881   1
  12 -14  -4 4.41132 35.2464   2
 -11 -14   4 71.3538 46.0984   1
  11 -14  -4 80.9090 59.8406   2
 -10 -14   4 95.7443 50.5150   1
  10 -14  -4-7.14795 32.8607   2
  -9 -14   4 38.0639 56.1548   1
  -8 -14   4 55.5374 45.8600   1
  -7 -14   4 43.3914 37.2249   1
  -6 -14   4 11.6153 20.7651   1
  -5 -14   4 3.67201 24.8977   1
  -4 -14   4 366.094 86.0456   1
  -3 -14   4-55.7920 40.2138   1
  -2 -14   4 120.006 44.7938   1
   2 -14  -4 131.646 39.4997   1
  -1 -14   4 39.9112 37.1113   1
  -1  14   4 30.4427 17.9405   1
   1 -14  -4-13.0415 22.3976   1
   0  14   4 49.4206 25.7372   1
   0 -14  -4 62.7208 34.3601   1
   0 -14   4 0.33865 35.7093   1
  -1 -14  -4 45.2107 26.8140   1
   1 -14   4 61.6996 44.3063   1
  -2 -14  -4 277.333 66.6206   1
   2 -14   4 426.080 88.4282   1
   2 -14   4 208.450 80.0886   2
  -3 -14  -4-25.2341 27.5116   1
   3 -14   4 45.6682 46.1708   2
  -4 -14  -4 33.3720 20.9164   1
   4 -14   4 241.312 83.2028   2
   5 -14   4 292.445 99.3951   2
  -5 -14  -4 256.131 66.6193   1
  -6 -14  -4-36.6232 31.0491   1
   6 -14   4 63.9479 45.3426   2
   7 -14   4-30.6392 41.5890   2
  -7 -14  -4 1.97976 21.2389   1
   8 -14   4-23.2014 52.9869   2
  -8 -14  -4 49.2482 39.9417   1
   9 -14   4-5.68096 34.4292   2
  -9 -14  -4 9.16044 27.7025   1
 -10 -14  -4 98.9098 50.4457   1
  10 -14   4 57.3545 47.5928   2
 -11 -14  -4 9.69441 27.2344   1
 -12 -14  -4-63.5987 44.8121   1
 -13 -14  -4-1.17369 19.8043   1
 -13 -15   4 44.7570 40.3373   1
 -12 -15   4-45.5415 42.8027   1
 -11 -15   4 103.740 60.6210   1
  11 -15  -4 31.4281 36.9754   2
 -10 -15   4 110.767 54.1444   1
  10 -15  -4 100.347 59.9214   2
  -9 -15   4 53.2371 33.6992   1
  -8 -15   4 72.1290 46.7650   1
  -7 -15   4 78.5356 47.1757   1
  -6 -15   4 21.8032 27.5933   1
  -5 -15   4-55.1099 44.6429   1
  -4 -15   4 223.159 70.3443   1
  -3 -15   4 39.7739 46.4051   1
  -2 -15   4-45.8020 38.0060   1
  -1 -15   4 21.2414 29.1887   1
   1 -15  -4 8.43226 25.7712   1
   0 -15   4 205.499 68.1907   1
   0 -15  -4 203.460 53.6757   1
  -1 -15  -4 79.6680 34.6888   1
   1 -15   4 145.427 61.0064   1
  -2 -15  -4 2.30666 20.7116   1
   2 -15   4-44.3089 35.4677   2
  -3 -15  -4 19.4590 28.5120   1
   3 -15   4-16.2519 52.3738   2
  -4 -15  -4 22.8744 24.5640   1
   4 -15   4 149.279 77.4900   2
  -5 -15  -4 29.2559 30.0841   1
   5 -15   4 49.4350 45.5913   2
   6 -15   4 19.1459 37.7397   2
  -6 -15  -4 32.2978 32.2236   1
   7 -15   4-112.088 65.2209   2
  -7 -15  -4 21.5267 38.2127   1
  -8 -15  -4 18.3808 28.8911   1
 -11 -16   4 19.1443 31.2475   1
 -10 -16   4 60.9196 53.2663   1
  -9 -16   4 47.6809 38.9163   1
  -8 -16   4-4.78095 35.6780   1
  -7 -16   4 10.6409 25.8140   1
  -6 -16   4-60.2158 43.8892   1
  -5 -16   4 12.2324 32.4344   1
  -4 -16   4 18.3271 33.7455   1
  -3 -16   4 19.8453 21.0936   1
  -2 -16   4-29.2176 33.2511   1
  -1 -16   4 77.5802 47.2148   1
   0 -16   4 53.9424 39.3386   1
   1 -16   4 75.9266 54.8991   2
   1 -16   4 33.9685 36.3462   1
   2 -16   4 113.292 65.7011   2
   3 -16   4 132.347 77.4108   2
   4 -16   4-22.8257 32.1815   2
   5 -16   4 17.9819 53.7211   2
  -9 -17   4-8.52550 26.3359   1
  -8 -17   4 16.7746 28.4376   1
  -7 -17   4-72.7689 47.3063   1
  -6 -17   4 40.4455 31.5577   1
  -5 -17   4 7.01398 26.1358   1
  -4 -17   4 11.7521 32.4044   1
  -3 -17   4-38.8060 36.2277   1
  -2 -17   4 29.9738 32.4437   1
  -1 -17   4 23.2974 28.6593   1
   0 -17   4 74.2045 56.0838   1
   1 -17   4 69.9932 53.2114   2
  -5 -18   4 84.8446 62.5445   1
  -4 -18   4 1.41913 19.4424   1
  -3 -18   4 29.4724 32.2800   1
  -2 -18   4 35.2597 34.0070   1
  -1 -18   4-22.0291 29.9464   1
   0 -18   4 11.1520 24.6855   1
 -23   0   5 90.3950 54.8726   1
  22   0  -5 8.89018 17.0138   2
  21   0  -5 30.0507 23.1321   2
  20   0  -5-4.77029 17.3913   2
 -19   0   5-3.75414 30.4626   2
  19   0  -5 21.8998 25.6378   2
  18   0  -5-8.06996 15.0656   3
 -18   0   5 38.3648 35.3540   2
  18   0  -5-17.3438 18.0113   2
 -17   0   5 19.8428 22.5318   2
  17   0  -5 18.7903 20.8159   2
  17   0  -5 14.4272 11.3848   3
  16   0  -5-18.3125 24.8024   2
  16   0  -5-22.3431 14.7711   3
  15   0  -5 8.18510 17.6810   2
  15   0  -5 12.4488 13.4702   3
  14   0  -5 21.1719 16.3266   3
 -14   0   5-29.2766 25.2735   2
  14   0  -5-7.20028 19.5969   2
 -13   0   5-15.4433 23.1945   2
  13   0  -5 53.7430 25.3576   2
 -12   0   5-18.4922 21.2794   2
  12   0  -5 6.66563 15.5675   2
  11   0  -5-7.61649 13.5258   2
 -11   0   5 5.64515 13.6767   2
  10   0  -5 66.4337 21.4659   2
 -10   0   5 55.3223 25.0338   2
   9   0  -5-7.41673 11.3207   2
  -9   0   5 26.1504 21.3558   1
   8   0  -5 7.46913 8.47259   2
  -8   0   5 7.71087 14.0631   1
  -7   0   5 14.6534 17.6376   1
   7   0  -5-8.52964 6.83829   2
  -6   0   5-9.89462 16.8751   1
  -5   0   5-16.1920 19.2968   1
   5   0  -5 6.71285 11.5545   1
  -4   0   5 4.17199 14.2461   1
   4   0  -5-1.43915 9.22068   1
   4   0  -5 4.66766 4.59486   2
  -3   0   5-27.2212 18.3025   1
   3   0  -5 11.6676 13.7658   1
   3   0  -5 3.22305 5.41047   2
  -2   0   5-6.44933 9.97397   1
   2   0  -5-14.6240 14.7431   1
   2   0  -5-0.19369 7.92452   2
  -2   0   5 5.92947 8.40669   2
   1   0  -5 3.27312 9.09901   2
   1   0  -5-22.9001 11.7110   1
  -1   0   5 14.9666 13.5455   2
  -1   0   5-10.3823 12.4299   1
   0   0  -5 1.27676 13.3564   2
   0   0   5 9.62401 13.2130   2
   0   0  -5-1.14785 9.57320   1
  -1   0  -5-11.0862 12.6070   1
   1   0   5-12.3751 15.8736   2
   2   0   5-0.87536 11.1588   2
   3   0   5-3.41211 15.4218   2
   4   0   5-2.08397 17.1752   2
  -5   0  -5-28.1276 27.2641   3
   5   0   5-29.8214 27.2600   2
   6   0   5-25.0599 27.0785   2
   7   0   5-9.14640 22.4059   2
   8   0   5-14.8591 25.9163   2
  -9   0  -5-23.1174 31.0697   3
  -9   0  -5 10.5412 25.3679   2
   9   0   5 4.45869 22.6031   2
 -10   0  -5 4.22779 27.8565   3
  10   0   5 9.96326 23.1035   2
 -10   0  -5 18.5458 21.0713   2
 -11   0  -5-54.4782 40.2446   3
  11   0   5-14.1325 31.2094   2
 -12   0  -5-43.6534 40.8275   3
  12   0   5-22.1206 34.8820   2
  13   0   5 8.39992 24.8773   2
  14   0   5-6.82168 31.2476   2
  15   0   5 25.7564 27.9812   2
  16   0   5 8.28061 33.9247   2
  17   0   5-40.2606 36.7212   2
  18   0   5 88.8902 46.8579   2
  19   0   5-38.5879 35.6099   2
 -23  -1   5 75.1503 43.6923   1
 -22  -1   5 157.523 57.5168   1
  22  -1  -5 88.3706 32.5344   2
 -21  -1   5 213.088 62.6868   1
  21  -1  -5 184.687 51.7812   2
 -20  -1   5 199.471 56.4408   1
  20  -1  -5 3.04467 17.1657   2
 -19  -1   5 49.2198 36.1818   1
  19   1  -5-15.3159 21.2994   2
 -19  -1   5-21.4794 18.9690   2
  19  -1  -5-34.0534 22.6691   2
  18  -1  -5 112.061 32.7404   3
  18   1  -5 170.440 44.3737   2
 -18  -1   5 229.619 63.0877   2
  18  -1  -5 134.121 42.7673   2
  17  -1  -5 71.7895 24.5211   3
  17  -1  -5 95.3096 34.1263   2
  17   1  -5 117.706 22.8760   3
  17   1  -5 110.344 33.0518   2
 -17  -1   5 46.7033 31.5626   2
  16  -1  -5 19.3015 18.2545   2
  16   1  -5 15.5219 8.05420   3
  16  -1  -5 8.98958 12.7970   3
 -16   1   5 37.5104 30.4638   2
  16   1  -5 61.8363 26.0000   2
  15   1  -5 23.8505 18.0587   2
  15  -1  -5 52.3724 23.3852   3
  15   1  -5 8.80639 8.76169   3
 -15  -1   5 39.6972 29.0088   2
  15  -1  -5 22.5527 16.8083   2
  14  -1  -5 95.3774 30.4482   2
  14   1  -5 77.9325 17.5347   3
  14   1  -5 162.797 34.3100   2
 -14  -1   5 72.1412 27.7348   2
 -13  -1   5 734.354 81.4521   2
  13   1  -5 643.978 47.0104   3
  13   1  -5 724.478 64.6496   2
 -13  -1   5 877.424 84.2154   1
  13  -1  -5 662.005 70.7122   2
  12  -1  -5 73.1141 25.0796   2
 -12  -1   5 58.9322 25.5186   2
 -12  -1   5 150.647 41.2861   1
  12   1  -5 30.3999 12.4723   3
  12   1  -5 69.3653 21.7172   2
  11  -1  -5 4779.33 169.990   2
  11   1  -5 4773.60 139.192   2
 -11  -1   5 4311.35 166.369   2
 -11  -1   5 4708.15 173.750   1
 -10  -1   5 191.075 31.7079   2
  10  -1  -5 101.042 26.9695   2
 -10  -1   5 134.915 34.7898   1
  10   1  -5 161.690 25.5726   2
  -9  -1   5 2357.50 117.540   1
   9   1  -5 2619.16 82.0381   2
   9  -1  -5 2439.35 109.796   2
  -9  -1   5 2842.20 108.526   2
  -8  -1   5 1324.80 61.3423   2
   8  -1  -5 1510.41 82.0462   2
  -8  -1   5 1608.19 95.2150   1
  -7   1   5 64.7448 20.4105   1
   7  -1  -5 25.4856 13.4531   2
  -7  -1   5 20.9236 20.6421   1
   6   1  -5 5114.48 141.405   1
  -6  -1   5 5195.23 166.295   1
  -6   1   5 5330.95 130.239   1
   5   1  -5 6707.09 170.129   1
  -5   1   5 6748.51 145.262   1
  -5  -1   5 6909.52 186.377   1
  -4   1   5 661.166 44.8566   1
   4   1  -5 638.499 54.6495   1
   4  -1  -5 624.459 35.9498   1
  -4  -1   5 661.060 58.2482   1
   3  -1  -5 229.524 24.0561   1
  -3   1   5 290.108 27.6163   1
   3   1  -5 284.307 28.5429   2
   3   1  -5 244.762 34.9392   1
  -3  -1   5 254.893 34.8044   1
  -3  -1   5 321.117 23.8594   2
   2   1  -5 7090.39 151.696   2
   2  -1  -5 7048.18 133.761   1
  -2  -1   5 7734.80 141.114   2
  -2   1   5 7017.97 131.383   1
  -2  -1   5 7120.89 177.127   1
   2  -1  -5 7231.09 144.694   2
   1   1  -5 6868.68 167.391   2
   1  -1  -5 6999.00 159.045   2
   1  -1  -5 6640.43 135.602   1
  -1  -1   5 6933.82 172.986   1
  -1  -1   5 7182.87 157.829   2
   0   1  -5 912.102 68.1070   2
   0  -1  -5 803.619 51.6439   1
   0  -1   5 853.249 61.4165   1
   0  -1   5 880.881 62.5829   2
   1   1   5 1549.34 84.9726   2
   1  -1   5 1609.35 93.8043   2
   2   1   5 1579.17 92.3725   2
   2  -1   5 1559.33 99.8732   2
   2  -1   5 1452.84 89.6883   3
   3   1   5 398.864 50.9911   2
   3  -1   5 430.797 51.7055   3
   3  -1   5 434.443 55.2517   2
   4  -1   5 151.477 41.2522   2
   4  -1   5 85.1053 29.7328   3
   4   1   5 99.7011 29.7688   2
  -5  -1  -5 14097.4 316.258   3
   5  -1   5 13625.4 311.606   3
   5   1   5 13477.5 317.868   2
   5  -1   5 13794.0 343.223   2
   6  -1   5 1153.34 94.7058   3
   6   1   5 1179.51 101.595   2
   6  -1   5 1189.37 108.695   2
   7  -1   5 377.390 65.9343   2
   7   1   5 401.799 65.1457   2
   7  -1   5 229.845 46.1170   3
   8  -1   5 414.181 68.8703   2
   8  -1   5 507.564 69.7167   3
   8   1   5 468.779 70.9643   2
  -8   1  -5 525.592 74.0604   3
  -9  -1  -5 1940.18 167.022   2
  -9  -1  -5 1920.85 139.757   3
  -9   1  -5 1793.05 167.257   2
   9  -1   5 1823.36 131.425   3
   9   1   5 1906.25 144.429   2
   9  -1   5 1784.87 148.311   2
  -9   1  -5 1835.19 148.100   3
  10  -1   5 24.5486 26.9492   2
 -10  -1  -5 56.7984 33.3208   2
 -10   1  -5 33.6874 28.9221   2
  10  -1   5 7.85790 17.1863   3
 -10  -1  -5 63.8371 37.4125   3
 -10   1  -5 12.1841 28.1588   3
  10   1   5 84.5341 41.7537   2
 -11  -1  -5 357.576 68.4915   3
  11  -1   5 274.362 62.9625   2
  11   1   5 373.017 72.0783   2
  11  -1   5 373.898 64.4585   3
  12   1   5 593.214 92.8560   2
  12  -1   5 568.359 92.2921   2
 -12  -1  -5 511.535 84.4534   3
  13   1   5-50.9568 38.5791   2
  13  -1   5 11.2475 25.1262   2
  14   1   5 487.388 91.5742   2
  14  -1   5 420.376 85.6495   2
  15   1   5 172.430 59.4392   2
  15  -1   5 166.351 56.5137   2
  16   1   5 48.8930 34.7720   2
  16  -1   5 21.6938 31.2268   2
  17   1   5 115.689 62.7586   2
  17  -1   5 118.184 56.7286   2
  18  -1   5-4.23135 32.5880   2
  18   1   5 71.6308 36.5240   2
  19   1   5 157.262 62.0362   2
  19  -1   5 182.480 64.8005   2
 -22  -2   5 47.3774 40.0076   1
  22  -2  -5-73.0503 35.2328   2
 -21  -2   5 177.881 56.5482   1
  21  -2  -5 219.802 56.8275   2
 -20  -2   5 51.6079 41.4466   1
  20  -2  -5 35.2676 27.0584   2
 -19  -2   5 38.3630 33.9210   1
  19  -2  -5-17.2082 21.2819   2
 -19  -2   5-14.6907 20.5220   2
  18  -2  -5 271.991 58.5041   2
  18  -2  -5 262.391 52.1203   3
 -18  -2   5 268.560 66.4129   2
 -18  -2   5 472.379 80.6253   1
  17  -2  -5 73.4422 27.9135   2
  17  -2  -5 67.9825 27.1760   3
 -17  -2   5 147.063 46.0976   1
 -17  -2   5 64.7345 33.2060   2
 -16  -2   5 1848.22 140.275   1
  16  -2  -5 1844.30 142.661   2
 -15  -2   5 39.1338 29.1372   1
 -15  -2   5 60.3560 29.4760   2
  15  -2  -5-4.40200 15.9659   2
  14  -2  -5 1514.78 120.836   2
 -14  -2   5 1556.69 119.369   1
 -14  -2   5 1450.60 118.334   2
  13  -2  -5 65.8280 30.8165   2
 -13  -2   5 50.4094 24.0815   2
 -13  -2   5 58.0859 34.0585   1
 -12  -2   5 293.632 44.6377   2
  12  -2  -5 229.161 45.6596   2
 -12  -2   5 286.641 52.0513   1
 -11  -2   5 27.3733 27.9657   1
  11  -2  -5-12.7428 21.7176   2
 -11  -2   5 26.0776 17.3351   2
 -10  -2   5 341.851 39.5762   2
  10  -2  -5 347.000 51.1348   2
 -10  -2   5 309.665 48.8336   1
  -9  -2   5 24.0992 15.4299   2
   9  -2  -5-11.8238 15.0254   2
  -9  -2   5 16.3525 16.7380   1
  -8  -2   5 3820.37 95.9327   2
  -8  -2   5 4149.42 166.961   1
   8  -2  -5 3976.19 155.285   2
  -7  -2   5 1980.22 113.835   1
   7   2  -5 1955.30 54.6412   3
  -7  -2   5 1763.77 52.1324   2
   6   2  -5 387.114 27.6372   3
  -6  -2   5 391.707 53.5861   1
   5   2  -5 1799.54 65.8850   3
  -5  -2   5 1938.41 110.045   1
  -5   2   5 1852.51 62.9692   1
  -4  -2   5 177.385 20.4815   2
   4   2  -5 186.924 25.3059   3
  -4  -2   5 146.890 32.4032   1
  -4   2   5 150.523 17.7240   1
  -3  -2   5 7322.14 201.406   1
   3  -2  -5 7509.89 82.7866   1
  -3  -2   5 7784.81 148.019   2
  -3   2   5 6779.19 102.285   1
   3   2  -5 7448.23 157.945   3
  -2  -2   5 11543.7 207.516   2
   2   2  -5 11696.6 214.090   3
   2   2  -5 10346.4 212.803   2
  -2  -2   5 11908.4 211.487   3
  -2  -2   5 11381.8 249.456   1
  -1  -2   5 237.567 41.3142   3
  -1  -2   5 148.639 29.1837   1
   1  -2  -5 160.307 18.1080   1
   1   2  -5 189.458 32.1010   2
   0  -2   5 715.516 62.8352   1
   0   2  -5 628.561 63.1039   2
   0  -2   5 736.964 63.8614   2
   0  -2   5 734.941 60.9700   3
   1  -2   5 4808.49 172.917   2
   1  -2   5 4569.51 159.633   3
  -1   2  -5 4559.01 179.904   2
   2  -2   5 341.388 51.1662   2
   2  -2   5 378.750 49.8298   3
   3  -2   5 10373.5 284.931   2
   3  -2   5 10034.8 259.904   3
   4  -2   5 1497.55 106.325   3
   4  -2   5 1648.90 121.793   2
   4   2   5 1561.92 102.828   2
   5  -2   5 1489.56 118.423   2
  -5  -2  -5 1478.61 102.119   3
   5  -2   5 1409.94 106.256   3
   5   2   5 1496.12 104.816   2
   6  -2   5 42.8241 20.8219   3
   6  -2   5 78.7102 31.8059   2
   6   2   5 99.7801 33.6671   2
   7  -2   5 614.351 76.5700   3
   7   2   5 602.279 77.6397   2
   7  -2   5 604.697 82.8068   2
  -7   2  -5 690.521 90.0578   3
   8   2   5 2992.02 170.498   2
   8  -2   5 2872.45 186.296   2
   8  -2   5 2838.75 166.098   3
  -8   2  -5 3075.95 189.510   3
  -9   2  -5 1301.19 146.525   2
  -9  -2  -5 1327.26 114.275   3
   9  -2   5 1333.08 116.733   3
   9   2   5 1424.47 122.677   2
   9  -2   5 1237.55 127.069   2
  -9  -2  -5 1444.77 142.422   2
  10  -2   5 120.703 50.5002   2
 -10  -2  -5 57.1066 36.7978   2
  10   2   5 181.843 53.9708   2
  10  -2   5 111.776 39.7634   3
 -10  -2  -5 123.161 45.2706   3
 -11  -2  -5 2279.50 162.251   3
  11  -2   5 2070.26 154.482   3
  11   2   5 2255.75 167.851   2
  11  -2   5 1903.51 168.600   2
  12  -2   5 13.4542 35.2786   2
 -12  -2  -5 61.1093 40.5550   3
  12   2   5 80.9676 35.8537   2
  13  -2   5 421.942 85.9674   2
 -13  -2  -5 399.974 76.1979   3
  13   2   5 389.166 78.2914   2
  14  -2   5 36.5711 24.5083   2
 -14  -2  -5 56.5947 35.6067   3
  14   2   5 93.8835 41.6278   2
  15  -2   5 39.2967 37.3121   2
  15   2   5-21.0975 24.7326   2
  16   2   5 179.611 58.6573   2
  16  -2   5 110.838 53.7894   2
  17  -2   5 60.1571 47.1628   2
  18  -2   5-28.8504 36.4121   2
  19  -2   5-5.87842 27.3793   2
  22  -3  -5 45.6607 19.9683   2
 -22  -3   5 11.3279 29.6158   1
 -21  -3   5 25.1324 32.2093   1
  21  -3  -5 74.7609 33.3296   2
 -20  -3   5 11.0594 23.9528   1
  20  -3  -5 16.5271 22.3905   2
  19  -3  -5-42.1640 31.8160   2
 -19  -3   5-6.73927 25.9203   1
 -19  -3   5 31.3645 23.7373   2
 -18  -3   5 85.4044 39.0874   1
 -18  -3   5-4.23406 23.2539   2
  18  -3  -5 43.7138 28.4484   2
  18  -3  -5 17.0117 15.9485   3
  17  -3  -5-8.97355 19.8793   2
 -17  -3   5 15.4540 19.8542   2
 -17  -3   5 22.9580 21.3411   1
  16  -3  -5 55.4266 30.7897   2
 -16  -3   5 77.1008 35.0550   1
 -15  -3   5 1104.25 110.772   1
 -15  -3   5 1015.34 102.235   2
  15  -3  -5 1076.06 113.794   2
 -14  -3   5 107.155 32.5690   2
  14  -3  -5 150.464 45.5336   2
 -14  -3   5 188.637 51.2842   1
 -13  -3   5 2553.87 142.110   2
  13  -3  -5 2587.50 165.441   2
 -13  -3   5 2430.54 153.155   1
 -12  -3   5 3257.00 148.924   2
 -12  -3   5 3504.10 178.555   1
  12  -3  -5 3590.23 190.999   2
 -11  -3   5 191.808 45.5021   1
  11  -3  -5 198.014 47.7782   2
 -11  -3   5 184.982 31.9075   2
 -10  -3   5 260.375 48.1758   1
  10  -3  -5 266.597 49.3177   2
 -10  -3   5 280.895 35.6540   2
  -9  -3   5 1619.32 115.174   1
   9  -3  -5 1517.13 112.670   2
  -9  -3   5 1518.46 73.0456   2
  -8  -3   5 2545.43 143.551   1
   8  -3  -5 2361.29 136.439   2
  -8  -3   5 2573.58 84.2397   2
  -7  -3   5 22.6304 22.5886   1
  -6  -3   5 2963.11 147.207   1
   5   3  -5 3319.94 96.5023   3
  -5  -3   5 3078.08 148.034   1
  -4  -3   5 4095.84 125.053   2
   4   3  -5 4177.69 119.374   3
  -4  -3   5 4047.24 111.922   3
  -4  -3   5 3974.01 163.351   1
  -4   3   5 3730.90 65.9882   1
   3   3  -5 581.612 53.1745   3
  -3  -3   5 342.489 48.8279   1
  -3  -3   5 519.733 47.2482   3
  -3  -3   5 461.405 53.7759   2
  -2  -3   5 8574.18 236.591   1
  -2  -3   5 8756.10 199.474   3
   2   3  -5 9006.93 204.596   3
  -2  -3   5 9036.34 218.154   2
   1   3  -5 7068.91 217.288   2
  -1  -3   5 7690.26 213.639   2
   1   3  -5 7120.41 194.749   3
  -1  -3   5 7330.43 191.540   3
  -1  -3   5 7511.20 216.919   1
   0  -3   5 143.633 31.0022   1
   0  -3   5 274.435 52.5680   2
   0   3  -5 134.907 41.4335   2
   0  -3   5 241.345 41.6106   3
   1  -3   5 2748.19 143.556   2
  -1   3  -5 2469.11 146.362   2
   1  -3   5 3012.41 137.543   3
   1  -3   5 2608.64 127.697   1
   2  -3   5 17476.0 347.594   3
   2  -3   5 17515.7 378.357   2
   3  -3   5 3262.28 172.003   2
   3  -3   5 2996.66 150.134   3
   4  -3   5 279.134 56.5989   2
   4  -3   5 224.908 45.2285   3
   5  -3   5 276.453 50.4640   3
   5  -3   5 257.437 60.1995   2
   6  -3   5 39.2887 24.6694   3
   6  -3   5 75.0051 34.2582   2
   7  -3   5 102.289 39.7524   2
   7  -3   5 77.2454 32.2621   3
  -8  -3  -5 776.606 99.4905   2
   8  -3   5 641.936 84.7529   3
   8  -3   5 904.654 111.736   2
  -9  -3  -5 488.825 83.4223   2
  -9   3  -5 632.271 108.280   2
   9  -3   5 742.432 107.357   2
   9  -3   5 480.347 74.9259   3
  10  -3   5 101.940 39.5766   3
 -10  -3  -5 65.5237 29.1373   3
  10  -3   5 102.449 37.9755   2
 -11  -3  -5 3842.27 206.033   3
  11  -3   5 3717.29 242.773   2
  12  -3   5 586.803 101.911   2
 -12  -3  -5 654.227 89.3282   3
 -13  -3  -5 1022.87 117.541   3
  13  -3   5 1055.52 139.419   2
  14  -3   5-65.1986 42.9702   2
 -14  -3  -5 10.7025 25.5253   3
 -15  -3  -5 7.58992 29.8764   3
  15  -3   5 3.22121 28.2163   2
  16  -3   5 795.696 129.083   2
  17  -3   5 191.150 69.9266   2
  18  -3   5 16.5125 31.8184   2
  19  -3   5 20.3885 26.7523   2
 -22  -4   5 123.322 49.8247   1
  22  -4  -5 149.908 53.6989   2
  21  -4  -5 213.940 61.1774   2
 -21  -4   5 279.927 70.7026   1
  20  -4  -5 2.63791 23.9262   2
 -20  -4   5 67.7942 43.6744   1
 -19  -4   5 600.553 97.9718   1
  19  -4  -5 475.560 87.9044   2
  18  -4  -5 35.5562 26.6168   2
 -18  -4   5 46.2999 24.5926   2
 -18  -4   5 59.4981 29.3207   1
  17  -4  -5-22.1659 33.0463   2
 -17  -4   5 27.3612 33.1424   1
 -17  -4   5-16.8602 25.4025   2
  16  -4  -5 35.2243 29.1534   2
 -16  -4   5-15.8173 35.5581   1
  15  -4  -5 151.627 46.2785   2
 -15  -4   5 104.569 42.6958   1
 -14  -4   5 926.917 105.963   1
 -14  -4   5 891.201 89.9743   2
  14  -4  -5 954.845 113.104   2
 -13  -4   5 1139.24 114.123   1
  13  -4  -5 1297.09 127.455   2
 -13  -4   5 1040.15 90.6981   2
  12  -4  -5 25.6973 27.0288   2
 -12  -4   5-11.3427 17.1279   2
 -12  -4   5 13.5308 24.7710   1
  11  -4  -5 1526.19 134.719   2
 -11  -4   5 1570.71 125.854   1
 -11  -4   5 1408.39 91.2814   2
 -10  -4   5 769.003 86.8291   1
  10  -4  -5 724.815 86.3881   2
 -10  -4   5 739.018 60.3524   2
  -9  -4   5 1479.32 118.660   1
  -9  -4   5 1320.31 73.3568   2
   9  -4  -5 1395.60 117.149   2
  -8  -4   5 1772.15 126.308   1
  -7  -4   5 439.737 64.0349   1
  -6  -4   5 5039.11 108.769   3
  -6  -4   5 4826.41 198.559   1
  -5  -4   5 1888.02 76.9214   3
  -5  -4   5 1899.42 124.502   1
  -4  -4   5 1837.31 121.065   1
  -4  -4   5 1762.86 82.2689   3
  -3  -4   5 524.738 66.8954   1
  -3  -4   5 468.482 48.1793   3
  -2  -4   5 27.6431 23.2749   1
  -2  -4   5 11.2490 13.7081   3
  -2  -4   5 18.3338 17.5737   2
  -1  -4   5 2984.08 148.941   2
  -1  -4   5 2999.49 131.909   3
  -1  -4   5 3036.93 148.893   1
   0  -4   5 242.997 44.9190   1
   0  -4  -5 326.024 22.6325   1
   0  -4   5 346.768 50.2763   3
   0  -4   5 235.571 44.3288   2
   1  -4   5 108.659 35.9862   2
  -1   4  -5 107.050 48.7264   2
   1  -4   5 86.9342 29.2868   1
   1  -4   5 127.361 37.7454   3
   2  -4   5 2456.61 142.018   3
   2  -4   5 2569.06 159.885   2
   3  -4   5 2725.17 151.899   3
   3  -4   5 2903.16 172.098   2
   4  -4   5 406.918 69.5741   2
   4  -4   5 323.933 54.0438   3
   5  -4   5 15.9617 38.9220   2
   5  -4   5 1.03188 15.3860   3
   6  -4   5 128.538 45.3818   2
   6  -4   5 25.7815 24.4021   3
   7  -4   5 4430.92 243.580   2
   7  -4   5 4734.49 225.742   3
   8  -4   5 469.903 85.3138   2
  -8   4  -5 437.186 86.5724   2
  -8  -4  -5 483.002 79.4349   2
   8  -4   5 442.685 72.2819   3
  -9  -4  -5 186.194 53.3778   2
   9  -4   5 236.936 65.1194   2
  -9   4  -5 215.658 63.6852   2
  -9  -4  -5 223.252 47.8581   3
   9  -4   5 286.330 59.6005   3
 -10  -4  -5 1362.80 117.704   3
  10  -4   5 1209.79 141.294   2
  11  -4   5 66.3474 42.0521   2
 -11  -4  -5 54.3631 28.8739   3
 -12  -4  -5 1419.18 129.914   3
  12  -4   5 1533.56 169.584   2
  13  -4   5-50.6846 37.7641   2
 -13  -4  -5 15.5031 30.9428   3
  14  -4   5-38.0279 39.9772   2
 -14  -4  -5-34.1072 34.1438   3
  15  -4   5 827.698 134.377   2
 -15  -4  -5 934.416 123.211   3
  16  -4   5 214.499 73.1536   2
 -16  -4  -5 80.7974 37.8963   3
  17  -4   5 107.477 52.0501   2
  18  -4   5-12.7643 28.7991   2
  19  -4   5 83.4339 46.2947   2
  22  -5  -5 141.898 53.7374   2
  21  -5  -5 15.8192 21.3382   2
 -21  -5   5 189.360 63.6155   1
  20  -5  -5 15.2715 28.9339   2
 -20  -5   5 29.4909 27.8258   1
  19  -5  -5 55.1928 33.9397   2
 -19  -5   5 78.3860 41.5343   1
  18  -5  -5 394.496 83.2440   2
 -18  -5   5 283.933 66.8908   2
 -18  -5   5 429.076 85.4573   1
 -17  -5   5 224.335 57.7296   1
  17  -5  -5 332.500 75.1536   2
 -17  -5   5 261.279 61.6680   2
  16  -5  -5 554.391 95.0205   2
 -16  -5   5 563.224 90.0373   1
  15  -5  -5 50.3092 35.2823   2
 -15  -5   5 87.7239 34.8673   1
  14  -5  -5 908.785 118.438   2
 -14  -5   5 873.329 110.224   1
 -14  -5   5 958.129 94.5874   2
  13  -5  -5 4585.44 253.680   2
 -13  -5   5 4158.26 229.166   1
 -13  -5   5 4134.79 182.070   2
  12  -5  -5 2899.69 197.567   2
 -12  -5   5 2942.94 188.457   1
 -12  -5   5 2925.06 144.248   2
  11  -5  -5 110.898 38.3596   2
 -11  -5   5 77.4307 29.6485   1
 -11  -5   5 106.593 27.4838   2
  10  -5  -5 5511.36 260.335   2
 -10  -5   5 5402.44 244.948   1
 -10  -5   5 5446.76 170.339   2
  -9  -5   5 52.3689 28.6045   1
  -8  -5   5 381.397 64.9643   1
  -7  -5   5 120.280 45.6567   1
  -7  -5   5 67.3678 14.0152   3
  -6  -5   5 31.5040 31.2665   1
  -6  -5   5 11.2848 11.5713   3
  -5  -5   5 3780.21 123.663   3
  -5  -5   5 3912.02 187.548   1
  -5   5   5 3760.80 101.227   1
  -4   5   5 762.170 37.3174   1
  -4  -5   5 837.290 85.3641   1
  -4  -5   5 918.363 67.1724   3
  -3  -5   5 420.093 51.9182   3
  -3  -5   5 305.303 55.4086   1
  -2  -5   5 628.444 72.9330   2
  -2  -5   5 683.946 65.9757   3
  -2  -5   5 637.802 75.5228   1
   1  -5  -5 4467.95 92.1345   1
  -1  -5   5 4580.48 203.781   2
  -1  -5   5 4700.23 177.275   3
  -1  -5   5 4895.27 200.946   1
   0  -5  -5 845.746 46.7649   1
   0  -5   5 874.717 85.9108   1
   0  -5   5 733.615 84.6741   2
   0  -5   5 737.535 74.4918   3
   1  -5   5 92.2007 46.3938   2
   1  -5   5 203.089 47.3150   3
  -1  -5  -5 105.970 19.0104   1
   1  -5   5 130.946 42.3133   1
   2  -5   5 1267.05 102.621   1
   2  -5   5 1227.14 117.768   2
  -2  -5  -5 1330.29 64.7928   1
   2  -5   5 1188.39 101.376   3
   3  -5   5-27.5423 41.6382   2
   3  -5   5 1.82869 24.1855   3
   4  -5   5 22.8876 26.5732   2
   4  -5   5 1.60096 17.6829   3
   5  -5   5 502.385 80.4052   2
   5  -5   5 492.658 74.6327   3
   6  -5   5 206.633 50.7688   3
   6  -5   5 112.584 75.0349   2
  -7   5  -5 210.419 64.0881   2
   7  -5   5 285.802 68.7827   2
  -7   5  -5 236.805 55.8285   1
   7  -5   5 291.495 59.7961   3
  -7  -5  -5 356.832 69.6047   2
   8  -5   5 3661.60 242.961   2
  -8   5  -5 4019.61 236.792   1
  -8   5  -5 3941.26 274.649   2
   8  -5   5 3562.78 210.685   3
  -8  -5  -5 3635.78 220.761   2
   9  -5   5 854.235 122.280   2
  -9  -5  -5 691.193 83.4497   3
  10  -5   5 327.262 77.0421   2
 -10  -5  -5 182.928 47.0506   3
  11  -5   5 90.1941 48.4562   2
 -11  -5  -5 115.145 38.5851   3
  12  -5   5 360.199 85.3941   2
 -12  -5  -5 326.206 66.2521   3
 -13  -5  -5 986.745 112.045   3
  13  -5   5 1021.03 143.209   2
 -14  -5  -5 311.806 66.6939   3
  14  -5   5 322.144 83.2594   2
  15  -5   5 113.066 51.5606   2
 -15  -5  -5 45.9812 34.5334   3
 -16  -5  -5 933.248 125.629   3
  16  -5   5 1047.69 158.634   2
  17  -5   5-34.7983 41.0334   2
 -17  -5  -5-26.4934 31.0076   3
  18  -5   5-16.6260 31.1694   2
  22  -6  -5 28.8795 30.5090   2
  21  -6  -5 183.636 63.7583   2
 -21  -6   5 222.180 70.6001   1
  20  -6  -5 72.5085 38.9986   2
 -20  -6   5 78.8761 50.3960   1
  19  -6  -5 60.4285 42.9594   2
 -19  -6   5 29.5310 26.5757   1
 -18  -6   5 115.190 47.8353   1
  18  -6  -5 168.458 51.9186   2
  17  -6  -5 92.1375 46.3432   2
 -17  -6   5 3.19377 28.7286   1
 -17  -6   5 17.7692 19.0795   2
 -16  -6   5 59.8225 30.6112   2
  16  -6  -5 43.8559 29.6761   2
 -16  -6   5 101.868 40.7023   1
 -15  -6   5-9.75421 33.5710   1
  15  -6  -5 14.7562 35.6556   2
 -14  -6   5 48.6426 27.9461   1
  14  -6  -5 97.3634 50.9428   2
 -13  -6   5-26.5873 51.3995   1
  13  -6  -5 71.6064 41.2586   2
 -12  -6   5 738.467 100.435   1
  12  -6  -5 718.933 109.521   2
 -12  -6   5 734.142 74.5570   2
 -11  -6   5 80.7256 36.6927   1
 -11  -6   5 86.8337 30.0010   2
  11  -6  -5 95.6449 44.7054   2
 -10  -6   5 283.985 63.7372   1
  10  -6  -5 254.261 65.3464   2
  -9  -6   5 425.805 75.2500   1
  -8  -6   5 3.51976 27.0716   1
  -8  -6   5-3.20502 7.24007   3
  -7  -6   5 4371.23 219.064   1
  -7   6   5 4593.77 150.689   1
  -7  -6   5 4476.67 126.482   3
  -6  -6   5-17.2441 33.6119   1
  -6  -6   5 39.8070 13.8182   3
  -6   6   5 55.4873 17.5269   1
  -5   6   5 171.555 24.4886   1
  -5  -6   5 206.345 34.9715   3
  -5  -6   5 149.329 45.0597   1
  -4   6   5 1290.25 58.5736   1
  -4  -6   5 1315.45 116.001   1
  -4  -6   5 1359.82 89.4174   3
  -3   6   5 47.9926 10.0326   1
  -3  -6   5 69.4199 29.8605   1
   2  -6  -5 636.707 35.8855   1
  -2  -6   5 713.610 72.5483   3
  -2  -6   5 718.372 86.6646   1
  -1  -6   5 6376.25 258.506   2
   1  -6  -5 6279.19 132.655   1
  -1  -6   5 6224.07 219.463   3
  -1  -6   5 6796.52 252.841   1
   0  -6   5 65.5938 31.5784   3
   0  -6  -5 22.4497 13.3333   1
   0  -6   5 94.5697 40.5248   2
   0  -6   5 3.99999 23.2952   1
  -1  -6  -5 1493.60 77.6816   1
   1  -6   5 1385.61 113.256   3
   1  -6   5 1613.37 137.627   2
   1  -6   5 1608.32 123.558   1
   2  -6   5 11.2039 25.2847   2
  -2  -6  -5 55.1337 17.1211   1
   2  -6   5 23.0236 17.3664   3
   2  -6   5 15.4054 18.1961   1
   3  -6   5 3679.32 220.492   2
   3  -6   5 3339.72 184.058   3
  -3  -6  -5 3544.41 127.802   1
   4  -6   5 19.5818 26.5465   3
  -4  -6  -5-10.5946 12.5519   1
   4  -6   5-28.8246 43.9745   2
  -5  -6  -5 556.060 56.1576   1
   5  -6   5 502.373 84.0964   2
  -5   6  -5 674.147 93.1445   1
   5  -6   5 612.253 84.9271   3
   6  -6   5 1684.36 161.876   2
  -6   6  -5 1789.46 153.942   1
  -6  -6  -5 1892.21 152.174   2
   6  -6   5 1916.61 154.186   3
   7  -6   5 622.111 89.2009   3
   7  -6   5 649.516 104.162   2
  -7  -6  -5 759.986 101.910   2
  -7   6  -5 559.880 90.7770   1
   8  -6   5 372.715 82.7429   2
   9  -6   5 1152.15 144.733   2
 -10  -6  -5 30.9314 20.9154   3
  10  -6   5 29.5731 29.9358   2
  11  -6   5 103.027 55.6541   2
 -11  -6  -5 109.220 36.9262   3
  12  -6   5 406.265 95.5164   2
 -12  -6  -5 391.980 70.9839   3
  13  -6   5 85.6876 46.8750   2
 -13  -6  -5 38.3643 23.8518   3
  14  -6   5 11.2534 37.5811   2
 -14  -6  -5 7.36167 21.4331   3
  15  -6   5 63.6595 48.3072   2
 -15  -6  -5 88.3629 37.1938   3
  16  -6   5 33.5582 40.1968   2
 -16  -6  -5 111.513 45.7586   3
  17  -6   5 92.6886 58.7893   2
  18  -6   5 54.0523 56.1991   2
  22  -7  -5-10.7388 19.0579   2
  21  -7  -5-16.2306 27.3665   2
  20  -7  -5 81.7031 49.1456   2
 -20  -7   5 106.058 56.4491   1
  19  -7  -5 65.9537 45.7991   2
 -19  -7   5 178.812 60.3213   1
  18  -7  -5 87.2652 51.6485   2
 -18  -7   5 21.5265 37.9021   1
 -17  -7   5 90.9852 39.8415   2
  17  -7  -5 200.958 68.2967   2
 -17  -7   5 177.379 56.3871   1
 -16  -7   5-3.38318 12.2576   2
 -16  -7   5-34.1255 47.6796   1
  16  -7  -5-52.2752 48.2939   2
 -15  -7   5 22.7081 18.3691   2
 -15  -7   5 109.738 51.2471   1
  15  -7  -5 23.1383 36.5612   2
 -14  -7   5 6.23365 34.2729   1
  14  -7  -5 5.01405 29.4279   2
 -14  -7   5 54.9803 23.6697   2
 -13  -7   5 935.225 119.760   1
  13  -7  -5 987.266 132.082   2
  12  -7  -5-8.83039 27.4492   2
 -12  -7   5 57.0774 42.5835   1
  11  -7  -5 654.669 106.050   2
 -11  -7   5 742.398 106.191   1
  10  -7  -5 1063.84 128.607   2
 -10  -7   5 1249.21 131.192   1
  -9   7   5 18.6559 16.6901   1
   9   7  -5 20.1724 21.5132   1
  -9  -7   5 82.5787 46.4642   1
  -9  -7   5 0.05090 7.74684   3
  -8  -7   5 22.3348 30.4647   1
  -8   7   5-2.36680 15.3200   1
   8   7  -5 9.64869 15.4532   1
  -8  -7   5 2.32771 8.02307   3
  -7  -7   5 302.814 64.0401   1
  -7  -7   5 322.196 39.9568   3
  -7   7   5 338.217 45.4879   1
  -6  -7   5 4700.91 162.996   3
  -6  -7   5 4581.14 229.888   1
  -6   7   5 4796.21 157.225   1
  -5   7   5 233.959 32.5313   1
  -5  -7   5 130.376 27.8133   1
  -5  -7   5 200.567 35.5639   3
  -4  -7   5 5000.00 234.922   1
  -4   7   5 4956.70 134.024   1
  -4  -7   5 4975.74 186.843   3
  -3  -7   5 3015.48 181.304   1
  -3   7   5 2915.02 91.5008   1
  -3  -7   5 2728.04 144.222   3
  -2   7   5 1077.30 48.7838   1
  -2  -7   5 1096.83 95.2296   3
   2  -7  -5 1112.46 57.9629   1
  -2  -7   5 1166.78 111.773   1
  -1  -7   5 56.8861 31.0132   1
   1  -7  -5-3.71734 11.0466   1
  -1  -7   5 84.5842 34.3507   3
   0  -7   5 2433.89 160.178   1
   0  -7  -5 2589.93 108.908   1
   0  -7   5 2483.73 153.422   3
   0  -7   5 2572.76 180.233   2
  -1  -7  -5 113.137 24.0588   1
   1  -7   5 192.939 57.5029   2
   1  -7   5 178.635 46.2617   3
   1  -7   5 85.8347 29.6037   1
  -2  -7  -5 2084.75 108.429   1
   2  -7   5 2123.53 181.468   2
   2  -7   5 2030.64 150.027   3
   2  -7   5 2213.97 157.671   1
   3  -7   5 70.4206 33.4969   2
  -3   7  -5 91.8358 37.2633   1
  -3  -7  -5 114.122 28.0085   1
   3  -7   5 102.774 38.5084   3
  -4   7  -5 393.801 71.8562   1
  -4  -7  -5 414.278 54.6267   1
   4  -7   5 358.127 75.9058   2
   4  -7   5 478.397 76.1130   3
   5  -7   5 690.835 92.1132   3
   5  -7   5 707.177 105.651   2
  -5   7  -5 782.044 104.358   1
  -5  -7  -5 745.614 71.1940   1
   6  -7   5 770.989 119.306   2
  -6   7  -5 697.595 104.110   1
  -6  -7  -5 675.344 94.9220   2
   6  -7   5 618.626 90.8973   3
  -6  -7  -5 793.732 76.7337   1
   7  -7   5 715.699 113.488   2
  -7  -7  -5 637.934 72.0489   1
   8  -7   5 1810.62 182.116   2
  -8  -7  -5 1900.25 127.421   1
  -9  -7  -5 60.3866 30.2545   1
   9  -7   5 90.2700 49.7077   2
 -10  -7  -5 160.571 43.5407   1
  10  -7   5 112.379 50.7450   2
  11  -7   5 938.029 145.303   2
 -11  -7  -5 1113.57 106.198   1
 -11  -7  -5 921.351 99.3311   3
 -12  -7  -5 170.989 46.1056   1
  12  -7   5 65.7218 45.9939   2
 -12  -7  -5 61.7774 26.2609   3
 -13  -7  -5 61.7171 33.5199   1
  13  -7   5 121.036 60.5560   2
 -13  -7  -5 7.82186 23.6588   3
 -14  -7  -5 212.400 52.0781   1
 -14  -7  -5 144.243 42.5202   3
  14  -7   5 55.0621 51.0868   2
 -15  -7  -5 61.8018 36.4223   1
  15  -7   5-9.12286 44.6091   2
 -15  -7  -5-9.69091 21.4134   3
  16  -7   5 32.3204 38.9848   2
 -16  -7  -5 4.61377 21.5243   3
 -16  -7  -5 112.121 40.7810   1
 -17  -7  -5 177.878 54.9445   1
  17  -7   5 139.105 68.8738   2
 -18  -7  -5 155.717 52.1400   1
  22  -8  -5 68.7481 50.8260   2
  21  -8  -5 28.3347 36.7384   2
 -20  -8   5-48.5358 43.1139   1
  20  -8  -5-52.7422 40.3941   2
  19  -8  -5 215.516 73.1883   2
 -19  -8   5 208.966 70.4544   1
 -18  -8   5 158.156 63.4793   1
  18  -8  -5 118.549 53.6058   2
 -17  -8   5-8.73670 38.1136   1
  17  -8  -5 28.7622 32.3738   2
 -16  -8   5 438.365 75.9436   2
  16  -8  -5 616.464 119.093   2
 -16  -8   5 547.669 105.626   1
  15  -8  -5 128.164 51.3855   2
 -15  -8   5 174.838 56.1336   1
 -15  -8   5 117.561 41.7715   2
  14  -8  -5 112.037 48.0285   2
 -14  -8   5 255.641 71.8732   1
 -14  -8   5 173.581 42.4789   2
  13  -8  -5 305.140 76.8763   2
 -13  -8   5 268.882 71.9474   1
 -13  -8   5 182.181 43.8306   2
  12  -8  -5 99.7644 51.1322   2
 -12  -8   5-13.8804 28.2963   1
 -12  -8   5 53.2301 26.9285   2
  11  -8  -5 233.339 69.9690   2
 -11  -8   5 397.885 83.1263   1
 -10  -8   5 205.565 25.7611   3
 -10  -8   5 282.172 66.0024   1
  -9  -8   5 211.515 31.7132   3
  -9  -8   5 191.815 57.4600   1
  -9   8   5 227.987 45.3872   1
  -8   8   5 43.2070 22.6921   1
   8   8  -5 22.6473 21.9502   1
  -8  -8   5 36.7341 18.6373   3
  -8  -8   5 58.9056 46.2753   1
   7   8  -5 336.862 62.6143   1
  -7   8   5 247.669 43.7586   1
  -7  -8   5 268.963 42.6031   3
  -7  -8   5 254.694 56.7106   1
  -6  -8   5-32.7429 44.7993   1
  -6   8   5-11.3481 14.7785   1
  -6  -8   5 21.4815 17.5132   3
   6   8  -5-14.5957 31.0799   1
   5   8  -5 109.148 40.4729   1
  -5  -8   5 136.616 38.0419   3
  -5   8   5 70.2236 20.5767   1
  -5  -8   5 82.8584 38.1174   1
  -4  -8   5 58.7364 30.4323   1
  -4   8   5 45.1927 16.4036   1
   4   8  -5 84.9452 40.3343   1
   3   8  -5 1987.59 157.460   1
  -3   8   5 1773.35 83.1312   1
  -3  -8   5 1701.34 145.092   1
   2   8  -5 64.0917 26.8595   1
  -2  -8   5 68.0403 36.0551   1
   2  -8  -5 105.295 21.7494   1
  -2   8   5 117.701 20.1493   1
  -1  -8   5-16.3199 28.2680   1
   1  -8  -5 10.5862 11.3370   1
   1   8  -5 2.46707 31.6205   1
   0  -8   5 88.1341 44.6065   1
   0  -8   5 29.2390 26.7511   2
   0   8  -5 115.592 42.9625   1
   0  -8   5 81.6930 32.8291   3
   0  -8  -5 84.9132 23.6648   1
  -1  -8  -5 1067.79 82.6171   1
   1  -8   5 991.892 106.709   1
   1  -8   5 909.334 118.079   2
   1  -8   5 1069.23 108.973   3
  -1   8  -5 1019.61 119.487   1
   2  -8   5 346.081 75.6524   2
  -2   8  -5 463.886 80.2951   1
   2  -8   5 436.056 71.9189   3
  -2  -8  -5 452.750 56.2680   1
   2  -8   5 363.182 65.6543   1
  -3   8  -5 691.714 99.5617   1
   3  -8   5 694.643 93.0769   3
   3  -8   5 708.271 108.929   2
  -3  -8  -5 682.895 71.3505   1
  -4  -8  -5 372.531 54.9246   1
   4  -8   5 273.240 69.6969   2
  -4   8  -5 378.907 76.8719   1
   4  -8   5 390.127 73.1432   3
   5  -8   5 640.304 113.056   2
  -5   8  -5 934.114 120.874   1
  -5  -8  -5 727.860 79.7812   1
   6  -8   5 1.49685 40.9900   2
  -6  -8  -5 32.2976 21.2491   1
  -7  -8  -5 31.0214 24.2239   1
   7  -8   5-1.89642 27.6882   2
  -8  -8  -5 245.989 50.1826   1
   8  -8   5 200.514 66.6452   2
   9  -8   5-112.792 55.2863   2
  -9  -8  -5 3.03284 18.9645   1
 -10  -8  -5 3.90500 21.1486   1
  10  -8   5-4.80198 30.5840   2
 -11  -8  -5 39.9258 31.5629   1
 -11  -8  -5 41.5407 28.0549   3
  11  -8   5 64.5083 50.0411   2
  12  -8   5 83.4377 59.3637   2
 -12  -8  -5 7.81341 23.9541   1
 -12  -8  -5 31.2414 21.8947   3
  13  -8   5 50.3112 41.3186   2
 -13  -8  -5 9.19915 18.2578   1
 -13  -8  -5 16.9655 24.8412   3
 -14  -8  -5 10.2152 18.0897   3
 -14  -8  -5 25.3237 25.4271   1
  14  -8   5 67.3718 44.5275   2
 -15  -8  -5 32.3826 27.0107   3
  15  -8   5 0.47496 26.7764   2
 -15  -8  -5 13.8640 29.7586   1
  16  -8   5-71.8592 49.0935   2
 -16  -8  -5 27.1496 29.3088   1
 -17  -8  -5 62.5683 41.3773   1
  22  -9  -5-19.1292 28.1617   2
  21  -9  -5-0.22874 30.1659   2
  20  -9  -5 28.7305 33.5390   2
  19  -9  -5 63.4556 42.2161   2
 -19  -9   5 136.263 60.9413   1
  18  -9  -5 29.0987 36.3481   2
 -18  -9   5 104.846 49.7195   1
 -17  -9   5 86.2947 51.2717   1
  17  -9  -5 29.5238 37.2820   2
  16  -9  -5 58.8515 51.5990   2
 -16  -9   5 134.851 57.6495   1
  15  -9  -5 143.124 55.2993   2
 -15  -9   5 111.138 38.8513   2
 -15  -9   5 177.857 67.2564   1
  14  -9  -5 320.150 87.6173   2
 -14  -9   5 255.359 73.8545   1
 -14   9   5 186.164 52.6912   1
 -14  -9   5 148.706 41.6093   2
  13  -9  -5 58.8230 49.2222   2
 -13   9   5 24.1845 20.5426   1
 -13  -9   5 36.6468 21.9187   2
 -13  -9   5 54.4237 42.6031   1
 -12  -9   5 3.99031 27.7837   1
  12  -9  -5-12.4922 36.9287   2
 -12   9   5-25.7207 24.0806   1
  11  -9  -5 1975.69 196.875   2
 -11  -9   5 1692.73 71.4492   3
 -11   9   5 1700.40 140.401   1
 -11  -9   5 1776.50 172.228   1
 -10  -9   5 2043.64 181.863   1
 -10  -9   5 1937.37 98.3852   3
  -9   9   5 1020.91 101.148   1
  -9  -9   5 952.179 120.905   1
  -9  -9   5 1090.91 82.7156   3
  -8  -9   5 376.657 52.8661   3
  -8   9   5 405.757 61.9066   1
  -8  -9   5 469.679 83.4457   1
  -7   9   5-23.8119 22.4614   1
  -7  -9   5-64.8669 45.4253   1
  -6   9   5 197.410 38.9457   1
  -6  -9   5 193.669 51.8998   1
   6   9  -5 212.373 51.9572   1
  -5   9   5 27.1628 12.0238   1
   5   9  -5-8.98870 28.2722   1
  -5  -9   5 56.5222 30.0723   1
  -4  -9   5 1860.24 159.145   1
  -4   9   5 1875.46 101.916   1
   4   9  -5 1821.82 157.216   1
   3   9  -5 469.025 85.7190   1
  -3   9   5 477.199 47.4227   1
  -3  -9   5 652.932 94.1593   1
   2   9  -5 2487.94 188.144   1
  -2   9   5 2330.16 95.8313   1
   2  -9  -5 2309.36 108.913   1
  -2  -9   5 2244.61 177.000   1
   1   9  -5 866.754 111.546   1
   1  -9  -5 882.783 70.7878   1
  -1  -9   5 680.619 95.2580   1
   0  -9  -5 2602.74 129.906   1
   0   9  -5 2588.18 196.692   1
   0  -9   5 2599.45 183.188   1
   0  -9   5 2560.40 204.137   2
   1  -9   5 2.52492 35.6921   2
  -1  -9  -5-24.8890 21.3499   1
  -1   9  -5 20.3259 22.3545   1
   1  -9   5 15.3878 26.4949   3
   1  -9   5-30.5753 36.7708   1
  -2  -9  -5 27.2090 21.2069   1
  -2   9  -5-0.13878 20.4395   1
   2  -9   5 36.6011 35.2362   2
   2  -9   5 83.2393 33.8349   3
   2  -9   5 47.2421 26.6624   1
   3  -9   5 33.4875 29.4405   2
  -3  -9  -5 44.7371 25.0761   1
   4  -9   5 798.273 127.839   2
  -4  -9  -5 657.146 77.6615   1
  -5  -9  -5 354.015 59.9741   1
   5  -9   5 274.207 79.5796   2
  -6  -9  -5 151.292 43.6270   1
   6  -9   5 210.166 74.4035   2
   7  -9   5 476.649 110.773   2
  -7  -9  -5 367.739 67.5577   1
  -8  -9  -5-1.28366 23.9374   1
   8  -9   5 58.9619 37.8973   2
   9  -9   5 12.5635 25.2126   2
  -9  -9  -5 55.3377 35.6255   1
 -10  -9  -5 37.4109 30.8779   1
  10  -9   5 63.2287 49.1798   2
 -11  -9  -5 89.0666 41.7715   1
  11  -9   5 20.8609 31.8690   2
  12  -9   5-31.0388 47.1222   2
 -12  -9  -5 14.5201 18.7411   3
 -12  -9  -5 44.9722 30.4147   1
  13  -9   5-10.7769 30.8866   2
 -13  -9  -5 84.3959 38.4827   1
 -13  -9  -5 61.8096 32.5711   3
  14  -9   5 159.958 73.3429   2
 -14  -9  -5 165.961 55.6319   1
 -14  -9  -5 129.310 43.7369   3
  15  -9   5 53.7976 61.8596   2
 -15  -9  -5 83.6349 40.8246   1
 -16  -9  -5 4.09327 27.1410   1
 -17  -9  -5 9.02703 21.6241   1
  21 -10  -5 78.3014 51.0571   2
  20 -10  -5 166.612 86.7110   2
  19 -10  -5 205.510 73.3686   2
  18 -10  -5 76.5676 30.5594   2
 -18 -10   5 122.209 55.8244   1
  17 -10  -5 48.2869 47.7453   2
 -17 -10   5 16.9324 33.6771   1
  16 -10  -5 62.4460 45.4011   2
 -16 -10   5 139.802 64.2491   1
  15 -10  -5-17.2267 35.4138   2
 -15 -10   5 60.6486 48.7052   1
 -14 -10   5 3.65047 24.6915   1
  14 -10  -5 9.61054 38.5765   2
 -14 -10   5-3.92958 12.5165   2
  13 -10  -5 69.4284 42.6568   2
 -13 -10   5 94.6349 47.8259   1
 -13 -10   5 56.5100 27.7979   2
 -13  10   5 21.7463 21.2012   1
 -12  10   5 0.99807 15.2992   1
  12 -10  -5-1.38237 32.2141   2
 -12 -10   5 3.36476 4.51636   3
 -12 -10   5 24.9629 42.6123   1
  11 -10  -5 289.953 83.3816   2
 -11 -10   5 246.857 71.3871   1
 -11  10   5 248.328 56.4919   1
 -11 -10   5 266.051 38.4306   3
 -10 -10   5 547.280 99.3234   1
 -10 -10   5 645.444 66.3125   3
  -9 -10   5 145.494 56.7178   1
  -9 -10   5 143.956 36.1100   3
  -8  10   5 386.758 62.5259   1
  -8 -10   5 396.076 84.2042   1
  -7  10   5 756.778 83.0806   1
  -7 -10   5 689.922 103.387   1
  -6 -10   5 64.1338 49.8885   1
  -6  10   5 57.8519 23.7731   1
  -5  10   5 44.5857 20.2404   1
  -5 -10   5 25.1253 32.3663   1
  -4 -10   5 416.512 82.9657   1
  -4  10   5 514.464 58.8336   1
  -3 -10   5 96.0550 42.8799   1
  -3  10   5 100.782 23.5938   1
   2 -10  -5 1422.08 92.6591   1
  -2 -10   5 1357.49 140.581   1
  -2  10   5 1602.15 87.2972   1
   2  10  -5 1464.57 151.345   1
   1 -10  -5 44.8688 21.3813   1
  -1 -10   5 33.6083 24.9120   1
   1  10  -5 3.47587 25.8962   1
   0 -10  -5 567.676 66.9401   1
   0 -10   5 562.746 92.2970   1
  -1 -10  -5 1039.93 92.7252   1
   1 -10   5 953.605 131.941   2
   1 -10   5 1334.10 135.130   1
   2 -10   5 170.422 68.0414   2
  -2 -10  -5 154.282 39.9474   1
   2 -10   5 144.290 45.6784   1
   3 -10   5 1002.78 141.231   2
  -3 -10  -5 814.041 88.5977   1
  -4 -10  -5 5.45285 18.9875   1
   4 -10   5-13.6626 48.2763   2
   5 -10   5 65.0675 46.1782   2
  -5 -10  -5 51.0791 28.9093   1
   6 -10   5 13.7154 31.5793   2
  -6 -10  -5-14.5981 25.0623   1
   7 -10   5 421.604 99.6748   2
  -7 -10  -5 415.116 75.3522   1
  -8 -10  -5 1.60820 21.4882   1
   8 -10   5-53.2861 57.0065   2
   9 -10   5-24.7791 45.7871   2
  -9 -10  -5 54.2805 29.4864   1
  10 -10   5 117.152 43.1311   2
 -10 -10  -5 142.422 49.1226   1
  11 -10   5 20.0328 34.5574   2
 -11 -10  -5 91.6734 38.9814   1
  12 -10   5 352.906 102.893   2
 -12 -10  -5 285.850 71.1550   1
 -13 -10  -5-3.40721 23.8446   1
 -13 -10  -5 41.0870 26.3471   3
  13 -10   5 75.0386 64.4100   2
  14 -10   5-89.4636 57.8491   2
 -14 -10  -5 26.9183 31.4568   1
 -15 -10  -5 5.99591 24.5654   1
 -16 -10  -5 36.8736 30.7499   1
  20 -11  -5-35.4358 37.8956   2
  19 -11  -5 211.594 79.0829   2
  18 -11  -5 77.3771 59.9058   2
 -17 -11   5 22.0893 39.3982   1
  17 -11  -5 109.584 59.4972   2
 -16 -11   5 0.43286 38.6607   1
  16 -11  -5 9.76171 28.5393   2
 -15 -11   5 21.1563 27.7977   1
  15 -11  -5 40.6812 39.6826   2
 -14 -11   5 192.829 74.2301   1
  14 -11  -5 144.139 56.1537   2
  13 -11  -5 29.7791 37.5263   2
 -13 -11   5 34.3382 31.6124   1
 -12 -11   5-1.85186 30.9715   1
 -12  11   5-31.5539 24.4397   1
  12 -11  -5 26.8927 37.9620   2
 -11 -11   5 11.1913 35.7940   1
  11 -11  -5 3.14095 46.0570   2
 -11  11   5 57.6915 32.1588   1
 -10  11   5 156.625 47.5861   1
 -10 -11   5 168.279 61.9484   1
 -10 -11   5 254.272 48.0911   3
  -9 -11   5 17.1390 14.6109   3
  -9 -11   5 87.1471 48.6476   1
  -8 -11   5 1266.68 151.070   1
  -7 -11   5 717.240 114.414   1
  -7  11   5 608.755 78.1847   1
  -6 -11   5 17.2727 28.9389   1
  -6  11   5 14.7871 16.5808   1
  -5 -11   5 100.918 45.7317   1
  -5  11   5 181.668 39.9143   1
  -4 -11   5 7.58427 30.2548   1
  -4  11   5 0.86548 13.4662   1
  -3  11   5 69.1280 22.5220   1
  -3 -11   5 73.4360 38.9482   1
  -2  11   5-12.0351 14.5658   1
  -2 -11   5-30.5081 35.5521   1
   2 -11  -5 6.54540 15.8034   1
   1 -11  -5 457.706 59.9391   1
  -1 -11   5 677.520 103.797   1
   0 -11  -5 0.89774 14.4309   1
   0 -11   5 9.88212 24.1859   1
  -1 -11  -5 365.815 59.7848   1
   1 -11   5 322.043 75.3542   1
   1 -11   5 352.317 85.1265   2
  -2 -11  -5 391.778 63.8824   1
   2 -11   5 455.501 101.182   2
   2 -11   5 403.986 77.5442   1
   3 -11   5 168.433 62.9802   2
  -3 -11  -5 216.003 49.1984   1
   4 -11   5 465.526 104.954   2
  -4 -11  -5 425.091 72.3254   1
  -5 -11  -5 332.947 62.9788   1
   5 -11   5 185.346 71.6750   2
  -6 -11  -5 423.120 77.2816   1
   6 -11   5 320.577 92.1007   2
  -7 -11  -5 24.2664 20.7086   1
   7 -11   5 109.548 63.4819   2
  -8 -11  -5 221.066 59.4957   1
   8 -11   5 252.739 79.3420   2
  -9 -11  -5 9.28142 33.1747   1
   9 -11   5 65.5237 55.0600   2
  10 -11   5-107.213 59.9549   2
 -10 -11  -5 27.4356 29.9621   1
  11 -11   5 19.6361 41.0961   2
 -11 -11  -5-46.0002 38.2514   1
 -12 -11  -5 30.7579 34.3854   1
  12 -11   5 6.87966 35.8772   2
 -13 -11  -5-100.020 50.7103   1
 -13 -11  -5-0.93042 15.0429   3
 -14 -11  -5 47.3515 35.4762   1
 -15 -11  -5 3.63095 43.2723   1
 -16 -11  -5 27.5895 26.1222   1
  18 -12  -5 119.621 73.9102   2
  17 -12  -5 82.4339 57.2682   2
 -16 -12   5 315.325 98.0974   1
  16 -12  -5 296.623 97.7796   2
  15 -12  -5 82.4683 60.7767   2
 -15 -12   5-3.83761 47.8060   1
 -14 -12   5 729.259 134.239   1
  14 -12  -5 526.514 122.244   2
 -13 -12   5 106.934 54.0449   1
  13 -12  -5 202.377 76.4533   2
  12 -12  -5 97.4411 51.7301   2
 -12 -12   5 202.907 65.1012   1
 -11 -12   5 27.1910 27.8478   1
  11 -12  -5-6.38883 27.5738   2
 -10 -12   5 108.328 57.8122   1
 -10  12   5 31.7224 22.9510   1
  -9  12   5-62.0091 30.9917   1
  -9 -12   5 14.7262 31.7791   1
  -8 -12   5 8.05017 28.2015   1
  -7 -12   5 82.9958 49.7486   1
  -6  12   5 267.414 54.7554   1
  -6 -12   5 112.093 52.4356   1
  -5  12   5-2.98780 15.2097   1
  -5 -12   5 77.4612 51.0108   1
  -4  12   5 469.368 63.7406   1
  -4 -12   5 419.809 87.3380   1
  -3 -12   5-28.5406 29.4331   1
  -3  12   5 8.54073 13.2652   1
  -2 -12   5-15.6766 31.2371   1
   2 -12  -5 38.9300 22.1773   1
  -2  12   5 45.1792 18.6198   1
  -1 -12   5 432.435 88.7244   1
   1 -12  -5 399.661 58.0293   1
   0 -12   5 617.374 102.990   1
   0 -12  -5 667.695 80.6236   1
  -1 -12  -5 36.1729 26.6425   1
   1 -12   5-37.7507 48.3194   2
   1 -12   5-0.44269 31.9552   1
   2 -12   5 5.33285 20.4123   1
  -2 -12  -5-0.87909 19.4840   1
   2 -12   5-46.3092 48.3774   2
  -3 -12  -5 111.380 40.5296   1
   3 -12   5 107.506 68.2893   2
  -4 -12  -5 93.0495 39.5205   1
   4 -12   5 138.177 63.1363   2
   5 -12   5 270.204 86.7986   2
  -5 -12  -5 290.843 62.6623   1
  -6 -12  -5 856.984 111.537   1
   6 -12   5 730.738 138.554   2
  -7 -12  -5 118.173 47.0987   1
   7 -12   5 100.305 55.6939   2
  -8 -12  -5 30.5131 30.3397   1
   8 -12   5-51.3714 65.6310   2
   9 -12   5 21.9178 34.9344   2
  -9 -12  -5 10.6994 30.4777   1
  10 -12   5 24.2928 43.8878   2
 -10 -12  -5 71.4520 41.5875   1
  11 -12   5-123.203 66.5546   2
 -11 -12  -5 54.4112 42.9868   1
  12 -12   5 87.9352 64.0066   2
 -12 -12  -5 101.081 58.1464   1
 -13 -12  -5-41.8319 38.8668   1
 -14 -12  -5-22.5005 35.3108   1
 -15 -12  -5 130.952 65.5958   1
  16 -13  -5 62.0737 60.4347   2
 -15 -13   5 409.560 110.426   1
  15 -13  -5 288.731 101.684   2
  14 -13  -5 24.5213 37.8156   2
 -14 -13   5 38.0924 40.8734   1
 -13 -13   5 25.2013 30.1713   1
  13 -13  -5-57.9751 48.5989   2
 -12 -13   5-4.30976 34.1096   1
  12 -13  -5 48.5293 35.3370   2
  11 -13  -5 14.6245 31.0429   2
 -11 -13   5 66.2053 36.2823   1
 -10 -13   5 30.4915 32.1973   1
  -9 -13   5 136.875 56.3027   1
  -8 -13   5 99.2994 51.2641   1
  -7 -13   5 14.5202 38.2360   1
  -6 -13   5 23.6294 29.9552   1
  -5 -13   5 117.707 54.2318   1
  -4 -13   5 110.726 50.9708   1
  -3 -13   5-14.1602 36.7740   1
   2 -13  -5 0.15133 9.93894   1
  -2 -13   5-11.5446 27.2611   1
  -1 -13   5 43.7939 37.8816   1
   1 -13  -5 30.9248 16.2530   1
   0 -13  -5 10.4193 20.7620   1
   0 -13   5-0.48770 24.4165   1
  -1 -13  -5 7.67901 19.5840   1
   1 -13   5 42.8624 42.2053   1
   1 -13   5-1.29199 31.4054   2
  -2 -13  -5 303.412 64.8894   1
   2 -13   5 224.076 79.9021   2
   2 -13   5 275.153 72.5581   1
   3 -13   5 504.452 120.239   2
  -3 -13  -5 507.477 81.6640   1
  -4 -13  -5 52.0084 34.4562   1
   4 -13   5 89.4992 62.5970   2
  -5 -13  -5 605.913 94.7931   1
   5 -13   5 583.282 127.547   2
   6 -13   5 17.2915 36.9141   2
  -6 -13  -5 188.506 57.9498   1
   7 -13   5-35.1071 40.4995   2
  -7 -13  -5 117.049 45.7721   1
  -8 -13  -5 75.2046 43.6323   1
   8 -13   5-3.68375 30.1243   2
  -9 -13  -5-51.0667 38.3751   1
   9 -13   5 1.89398 26.6603   2
 -10 -13  -5-63.2205 41.6240   1
  10 -13   5 111.329 63.5289   2
  11 -13   5 72.5646 42.8345   2
 -11 -13  -5 33.6538 34.5043   1
 -12 -13  -5-11.2040 29.1016   1
 -13 -13  -5-47.9833 39.4994   1
 -14 -13  -5 3.00408 25.5642   1
 -14 -14   5 62.4169 48.0550   1
  14 -14  -5-4.26880 24.6334   2
 -13 -14   5 28.7230 48.8322   1
  13 -14  -5-3.35358 28.8244   2
 -12 -14   5 27.6029 37.8023   1
  12 -14  -5 75.7451 55.5042   2
  11 -14  -5-20.4083 38.9925   2
 -11 -14   5-1.98760 28.4258   1
 -10 -14   5 12.7581 26.2104   1
  -9 -14   5-10.6019 35.8274   1
  -8 -14   5 63.4902 49.2295   1
  -7 -14   5 58.8210 47.3745   1
  -6 -14   5 121.990 57.6869   1
  -5 -14   5 106.098 56.2315   1
  -4 -14   5 193.421 62.5536   1
  -3 -14   5 114.139 47.9654   1
  -2 -14   5 124.479 56.2564   1
   1 -14  -5-17.5246 17.2887   1
  -1 -14   5-4.80375 26.7770   1
   0 -14   5-17.0171 38.6501   1
   0 -14  -5 70.1786 33.8966   1
  -1 -14  -5 11.8522 18.4520   1
   1 -14   5-3.09654 23.2966   1
   1 -14   5 39.2329 54.6272   2
  -2 -14  -5 113.873 37.8212   1
   2 -14   5 125.203 63.5027   2
  -3 -14  -5 24.7908 22.2800   1
   3 -14   5 77.8592 50.5449   2
  -4 -14  -5 1.82531 18.0250   1
   4 -14   5 134.251 80.9572   2
   5 -14   5 17.0948 34.5410   2
  -5 -14  -5 88.9640 44.9253   1
  -6 -14  -5 89.0694 41.1708   1
   6 -14   5-17.5699 36.2039   2
   7 -14   5-5.45121 33.1281   2
  -7 -14  -5 48.6569 38.2785   1
   8 -14   5 23.3356 27.3943   2
  -8 -14  -5-47.5768 35.1123   1
   9 -14   5 8.41405 31.7593   2
  -9 -14  -5 12.8869 22.9250   1
 -10 -14  -5 79.8534 52.9208   1
 -12 -15   5 54.9500 47.5820   1
  11 -15  -5 33.6571 47.2275   2
 -11 -15   5 25.0978 43.2934   1
 -10 -15   5 0.23046 27.6484   1
  -9 -15   5 56.6706 39.8052   1
  -8 -15   5-4.32526 23.0194   1
  -7 -15   5 153.728 65.6087   1
  -6 -15   5 69.6889 41.3131   1
  -5 -15   5-82.8567 48.9177   1
  -4 -15   5 21.3807 34.1095   1
  -3 -15   5-7.31149 27.0284   1
  -2 -15   5-19.6062 32.8442   1
  -1 -15   5 498.497 103.190   1
   0 -15   5 217.972 83.4189   2
   0 -15   5 163.518 71.2912   1
   1 -15   5 156.807 73.3003   2
   1 -15   5 102.056 49.2101   1
   2 -15   5 42.2736 32.8979   2
   3 -15   5 141.285 83.3668   2
   4 -15   5 184.831 85.7567   2
   5 -15   5-10.8515 39.4750   2
   6 -15   5-22.8323 33.0037   2
   7 -15   5-0.29280 26.6636   2
 -10 -16   5-38.2184 38.8270   1
  -9 -16   5-80.0135 51.0309   1
  -8 -16   5 29.5010 37.6691   1
  -7 -16   5 44.1359 48.8740   1
  -6 -16   5 41.4557 39.7143   1
  -5 -16   5 32.1811 24.7809   1
  -4 -16   5 0.21454 25.5637   1
  -3 -16   5-26.2186 34.1311   1
  -2 -16   5 49.7550 53.0869   1
  -1 -16   5-9.81719 24.7178   1
   0 -16   5-34.7441 43.3511   2
   0 -16   5 15.2200 33.4444   1
   1 -16   5 196.419 66.9190   1
   1 -16   5 191.104 85.5515   2
   2 -16   5-14.7847 36.7160   2
   3 -16   5 7.12287 35.1587   2
   4 -16   5-21.2632 38.6114   2
  -8 -17   5-8.66247 27.8499   1
  -7 -17   5-1.44223 21.2401   1
  -6 -17   5-76.6774 48.6463   1
  -5 -17   5 16.0444 28.2124   1
  -4 -17   5-31.3297 32.7842   1
  -3 -17   5 52.0595 48.1318   1
  -2 -17   5-69.6189 45.1004   1
  -1 -17   5-71.4644 52.0046   2
  -1 -17   5 54.4497 43.2601   1
   0 -17   5 6.02323 39.5113   2
   0 -17   5 54.7171 38.0109   1
  -2 -18   5 32.6512 40.1163   1
  -1 -18   5-7.73118 23.0993   1
   0 -18   5-60.3345 42.8334   1
 -23   0   6 119.062 56.8645   1
 -22   0   6 60.2440 47.2567   1
 -21   0   6 126.379 50.3754   1
  21   0  -6 54.7809 25.1152   2
  20   0  -6 14.6267 16.8255   2
 -20   0   6 13.7202 27.8933   1
  19   0  -6 54.6021 24.7398   2
 -19   0   6 137.223 47.8948   1
  18   0  -6 103.372 26.4384   3
  18   0  -6 195.397 43.3261   2
  17   0  -6 158.688 32.6493   3
  17   0  -6 112.525 32.8182   2
 -16   0   6 147.820 40.0686   2
  16   0  -6 124.616 31.1585   3
  16   0  -6 120.517 32.4481   2
  15   0  -6 6458.79 190.048   3
  15   0  -6 7097.50 221.309   2
  14   0  -6 3546.67 147.691   2
 -14   0   6 3755.70 172.422   1
 -13   0   6 14319.5 323.320   1
  13   0  -6 14738.7 281.817   2
 -12   0   6 1578.73 105.073   1
  12   0  -6 1489.01 83.5806   2
  11   0  -6-2.69895 10.5000   2
 -11   0   6 45.2946 28.5482   1
 -10   0   6 423.460 53.2229   1
  10   0  -6 427.425 36.5572   2
   9   0  -6 30.8476 12.8363   2
  -9   0   6 2.34990 15.1703   1
  -8   0   6 5490.23 170.752   1
   8   0  -6 4723.29 91.8359   2
  -7   0   6-3.62899 19.8695   1
   6   0  -6 241.421 30.5548   1
  -6   0   6 214.643 35.2920   1
  -5   0   6 8656.77 200.914   1
   5   0  -6 8778.07 183.540   1
   5   0  -6 8449.66 104.500   2
   4   0  -6 15444.5 253.441   1
  -4   0   6 16419.6 272.126   1
   4   0  -6 15037.3 173.987   2
  -3   0   6 940.014 65.3648   1
   3   0  -6 1000.35 53.4000   2
   3   0  -6 1059.78 69.2580   1
   2   0  -6 8042.89 187.899   1
  -2   0   6 8654.22 163.371   2
  -2   0   6 8072.84 181.693   1
   2   0  -6 8750.33 179.121   2
  -1   0   6 3731.46 121.985   1
  -1   0   6 3646.98 117.904   2
   1   0  -6 3575.83 130.194   1
   1   0  -6 3410.66 124.870   2
   0   0  -6 1614.78 94.8198   2
   0   0  -6 1683.06 91.8329   1
   0   0   6 1715.85 90.8982   2
   1   0   6 556.925 55.6073   2
  -1   0  -6 539.485 54.9581   1
  -1   0  -6 555.853 60.2314   2
   2   0   6 3528.11 147.575   2
   3   0   6 1297.16 98.9358   2
   4   0   6 12248.1 310.551   2
   5   0   6 885.171 89.0286   2
   6   0   6 302.613 56.4269   2
   7   0   6 459.701 70.8940   2
  -7   0  -6 483.911 73.6165   3
  -8   0  -6 4533.42 256.671   2
   8   0   6 4114.12 216.780   2
  -8   0  -6 4532.73 223.003   3
  -9   0  -6 4016.84 254.065   2
   9   0   6 4271.42 227.672   2
  -9   0  -6 4338.15 227.036   3
 -10   0  -6 2462.11 180.231   3
  10   0   6 2325.15 174.061   2
 -11   0  -6 1980.79 172.978   3
  11   0   6 2075.99 172.736   2
 -12   0  -6 285.177 69.6272   3
  12   0   6 309.833 70.5727   2
  13   0   6 758.424 112.206   2
  14   0   6 432.107 89.3020   2
  15   0   6 831.603 123.611   2
  16   0   6-35.4335 35.9992   2
  17   0   6 126.058 59.5303   2
  18   0   6 35.6599 39.3905   2
  19   0   6 95.1656 53.5998   2
 -23   1   6 316.573 84.2490   1
 -23  -1   6 272.546 78.5638   1
 -22  -1   6 45.3749 21.5250   1
 -21  -1   6 365.479 78.1083   1
  21  -1  -6 402.953 70.8718   2
 -20  -1   6 107.259 47.4840   1
  20  -1  -6 17.6292 21.2979   2
 -19  -1   6 39.7243 29.5723   1
 -19  -1   6 21.9955 22.1473   2
  19  -1  -6-12.3435 24.2569   2
  18  -1  -6 35.9987 17.3341   3
 -18  -1   6 112.503 42.7776   1
  18  -1  -6 75.4452 30.7241   2
  17   1  -6 23.0268 9.45193   3
  17  -1  -6 16.8864 16.9553   3
 -17  -1   6 10.6620 23.4646   1
  17   1  -6 29.1312 16.5318   2
  17  -1  -6 17.1118 24.0432   2
 -16  -1   6 5596.54 256.043   2
  16   1  -6 5815.16 200.286   2
  16  -1  -6 6125.21 231.220   2
 -16  -1   6 5963.79 245.154   1
  16   1  -6 5436.58 140.111   3
  15   1  -6-3.63749 8.84012   3
  15  -1  -6 28.7261 22.8248   2
  15   1  -6-1.99435 17.2723   2
 -15  -1   6-15.1353 29.0886   2
 -14  -1   6 1419.30 112.425   1
 -14  -1   6 1193.97 106.211   2
  14  -1  -6 1327.17 98.5637   2
  14   1  -6 1243.50 66.7350   3
  14   1  -6 1360.71 86.4830   2
 -13  -1   6 2020.40 129.734   1
  13   1  -6 2094.65 98.3491   2
 -13  -1   6 1941.54 121.927   2
  13  -1  -6 2192.59 120.833   2
 -12  -1   6 2961.58 150.859   1
 -12  -1   6 2823.51 133.549   2
  12   1  -6 3396.43 113.214   2
  12  -1  -6 3004.84 134.553   2
  11  -1  -6 344.714 43.7011   2
 -11  -1   6 359.091 42.1285   2
  11   1  -6 449.793 36.8247   2
 -11  -1   6 426.756 57.3904   1
 -10  -1   6 1908.74 114.181   1
  10  -1  -6 1989.03 99.2031   2
 -10   1   6 2006.34 102.820   1
  -9  -1   6 21.3675 21.6340   1
   9  -1  -6 8.78313 10.0095   2
  -9   1   6 73.2433 26.2431   1
   8  -1  -6 3685.76 119.587   2
  -8  -1   6 3545.12 152.378   1
  -8   1   6 3752.08 127.360   1
  -7  -1   6 141.214 30.5579   1
   7   1  -6 221.580 33.2518   1
  -7   1   6 183.330 29.6818   1
  -6   1   6 4338.89 134.704   1
   6   1  -6 4361.92 142.662   1
  -6  -1   6 4084.29 156.888   1
   5   1  -6 3064.79 126.059   1
  -5  -1   6 3242.99 136.654   1
   5  -1  -6 3134.95 88.8608   1
  -5   1   6 3066.77 108.213   1
   4   1  -6 1109.20 50.0521   2
  -4  -1   6 1123.70 79.8830   1
  -4   1   6 1045.82 62.7110   1
   4  -1  -6 1068.01 55.5157   1
  -4  -1   6 1184.39 42.2987   2
   4   1  -6 1174.55 78.8987   1
   3   1  -6 101.389 25.3542   1
  -3   1   6 96.7555 19.1200   1
   3   1  -6 133.304 21.2831   2
   3  -1  -6 103.656 19.3624   1
  -3  -1   6 112.049 24.1802   1
   3  -1  -6 125.744 20.3381   2
  -3  -1   6 144.477 19.3849   2
   2   1  -6 457.419 43.5323   2
   2  -1  -6 442.490 39.9657   1
  -2   1   6 450.233 37.9196   1
   2   1  -6 450.380 50.3284   1
  -2  -1   6 452.793 48.7657   1
   2  -1  -6 419.104 39.9296   2
  -2  -1   6 491.447 40.8036   2
   1   1  -6 6540.26 181.585   2
  -1  -1   6 7002.50 186.721   1
   1  -1  -6 6524.73 171.174   2
   1  -1  -6 6724.43 156.606   1
  -1  -1   6 6525.98 166.327   2
   1   1  -6 6436.32 190.203   1
   0  -1  -6 1926.89 102.115   2
   0   1  -6 1876.07 105.682   1
   0  -1  -6 1966.93 89.4249   1
   0   1  -6 1952.86 108.898   2
   0  -1   6 1881.75 98.9430   2
  -1   1  -6 321.470 49.0904   2
  -1   1  -6 369.626 48.3720   1
   1   1   6 325.373 42.4442   2
   1  -1   6 422.664 52.1689   2
  -2   1  -6 373.318 51.3116   1
   2   1   6 439.193 52.3290   2
   2  -1   6 453.216 56.6128   2
   3   1   6 556.193 64.7806   2
   3  -1   6 499.459 63.8584   2
   4   1   6 6375.66 220.719   2
   4  -1   6 6024.65 226.038   2
   5   1   6 6563.50 232.724   2
   5  -1   6 6593.16 245.668   2
   6  -1   6 74.2361 31.8905   2
   6   1   6 132.846 39.7854   2
   7   1   6 7261.32 269.510   2
  -7  -1  -6 7864.16 274.407   3
   7  -1   6 7470.59 288.019   2
  -7   1  -6 7717.06 287.153   3
  -8  -1  -6 2904.68 203.813   2
  -8   1  -6 2794.73 209.163   2
   8  -1   6 2889.00 185.761   2
  -8   1  -6 3118.42 193.666   3
   8   1   6 2799.17 174.444   2
  -8  -1  -6 2884.56 175.104   3
  -9  -1  -6 3612.09 238.490   2
  -9   1  -6 3129.09 228.908   2
  -9  -1  -6 4076.20 214.225   3
  -9   1  -6 4030.68 225.463   3
   9   1   6 3587.15 204.396   2
   9  -1   6 3445.64 211.777   2
 -10  -1  -6 772.899 99.9019   3
 -10   1  -6 706.377 105.646   3
  10  -1   6 827.227 110.126   2
  10   1   6 810.295 105.632   2
 -11   1  -6 4473.45 258.229   3
  11  -1   6 4536.58 257.481   2
 -11  -1  -6 4344.67 240.423   3
  11   1   6 4633.55 250.137   2
 -12  -1  -6 8.07185 25.6894   3
  12   1   6 26.0828 33.0438   2
  12  -1   6 21.0712 33.2203   2
 -13  -1  -6-26.4858 37.5104   3
  13   1   6 4.06775 27.1091   2
  13  -1   6 4.35802 23.6259   2
  14   1   6 44.1171 33.5332   2
  14  -1   6 30.6724 29.6855   2
  15   1   6 13.0008 24.3585   2
  15  -1   6-35.2859 50.7350   2
  16   1   6-53.5163 48.4778   2
  16  -1   6 32.9541 32.7884   2
  17  -1   6-17.2076 28.6375   2
  17   1   6 10.5064 25.1916   2
  18  -1   6 144.129 61.4834   2
  18   1   6 136.504 59.5751   2
  19   1   6 15.2943 23.0487   2
 -23  -2   6 2.71398 23.3391   1
 -22  -2   6 161.021 59.3066   1
 -21  -2   6 59.8818 44.6313   1
  21  -2  -6-24.0007 15.1444   2
 -20  -2   6 29.0305 32.5502   1
  20  -2  -6 3.38259 16.8919   2
 -19  -2   6 519.476 86.5992   1
 -19  -2   6 375.545 77.8974   2
  19  -2  -6 512.307 78.6025   2
  18  -2  -6 9.42343 19.4877   2
 -18  -2   6 96.5385 33.8872   1
  18  -2  -6 22.6022 19.4085   3
 -17  -2   6 1354.78 129.287   1
  17  -2  -6 1282.00 116.209   2
 -16  -2   6 158.120 47.6179   1
 -16  -2   6 66.8502 28.2005   2
  16  -2  -6 136.670 42.3042   2
 -15  -2   6 3542.82 191.232   1
 -15  -2   6 3073.82 172.296   2
  15  -2  -6 3359.16 177.482   2
  14  -2  -6 441.407 64.6294   2
 -14  -2   6 507.991 76.7101   1
 -14  -2   6 360.117 55.4983   2
 -13  -2   6 205.149 38.6866   2
 -13  -2   6 273.713 54.8714   1
  13  -2  -6 157.198 37.9880   2
  12  -2  -6 261.878 46.0569   2
 -12  -2   6 313.488 56.3516   1
 -12  -2   6 229.160 36.5103   2
 -11  -2   6 1164.60 72.3651   2
  11  -2  -6 1259.28 94.8200   2
 -11  -2   6 1142.44 99.3577   1
 -10  -2   6 770.521 51.4966   2
  10  -2  -6 862.570 76.2698   2
 -10  -2   6 951.015 88.6712   1
  -9  -2   6 8098.56 251.459   1
   9  -2  -6 7958.07 223.592   2
  -8  -2   6 3772.23 168.824   1
  -8   2   6 4058.48 120.223   1
   8  -2  -6 3625.14 143.737   2
  -7   2   6 1752.29 76.0609   1
   7   2  -6 1800.25 99.8898   1
   7   2  -6 1826.99 65.3182   3
  -7  -2   6 1822.58 115.225   1
  -6   2   6 5988.82 137.063   1
   6   2  -6 6057.86 129.494   3
  -6  -2   6 6140.00 204.969   1
   6   2  -6 6313.07 193.782   1
  -5  -2   6 1976.92 52.8488   2
  -5  -2   6 2182.30 124.772   1
   5   2  -6 2189.24 84.7002   3
   5   2  -6 2073.85 116.771   1
  -5   2   6 2210.61 80.0806   1
  -4  -2   6 286.041 26.8856   2
  -4   2   6 220.735 24.2442   1
   4   2  -6 229.572 30.4638   3
  -4  -2   6 227.429 36.3991   1
   4   2  -6 254.470 43.4453   1
   3  -2  -6 84.9395 13.0924   1
  -3   2   6 93.2192 13.9702   1
  -3  -2   6 145.276 25.3971   2
  -3  -2   6 51.1172 22.3468   1
   3   2  -6 91.5825 22.9153   3
   3   2  -6 98.5312 22.7326   2
  -2  -2   6 15878.4 259.424   2
   2  -2  -6 14500.9 183.428   1
   2   2  -6 14468.1 273.364   2
   2   2  -6 14915.1 269.487   3
  -2  -2   6 15220.9 307.950   1
  -1  -2   6 2746.97 118.150   2
   1   2  -6 2813.75 130.565   2
   1  -2  -6 2679.51 86.1748   1
  -1  -2   6 2903.20 133.328   1
   1  -2  -6 2945.87 119.037   2
   0  -2   6 17286.2 318.986   2
   0   2  -6 15834.0 335.753   2
   0  -2   6 17437.7 323.566   1
   0  -2   6 17045.6 311.850   3
   0  -2  -6 17139.6 308.717   2
   1  -2   6 1967.11 115.860   2
  -1   2  -6 1669.46 117.170   2
   1  -2   6 1938.70 110.429   3
   2  -2   6 30.0704 27.6134   2
  -2   2  -6 6.17846 17.0767   2
   2  -2   6-7.82867 15.1018   3
   3  -2   6 7032.91 228.619   3
   3  -2   6 6648.44 237.617   2
   4  -2   6 2644.52 146.249   3
   4  -2   6 2709.68 160.579   2
   5  -2   6 4671.08 216.971   2
   5  -2   6 4366.04 194.122   3
   5   2   6 4373.96 190.811   2
   6  -2   6 4.94562 20.2449   3
  -6   2  -6 6.42364 23.6233   3
   6   2   6 0.40098 14.6938   2
   6  -2   6 15.4648 19.4761   2
   7  -2   6 3855.23 195.333   3
  -7  -2  -6 3716.56 190.349   3
  -7   2  -6 3913.78 213.063   3
   7   2   6 3713.77 189.341   2
   7  -2   6 3493.44 204.760   2
  -8  -2  -6 1313.31 115.357   3
   8   2   6 1122.55 110.053   2
  -8   2  -6 1260.08 145.652   2
  -8   2  -6 1262.67 127.327   3
   8  -2   6 1239.93 114.348   3
   8  -2   6 1289.18 128.758   2
  -8  -2  -6 1183.11 128.514   2
  -9  -2  -6 32.9703 32.5737   2
   9  -2   6 10.1192 27.6143   2
   9  -2   6 61.8231 29.2534   3
  -9  -2  -6 53.5420 36.2314   3
  -9   2  -6 65.7643 49.0203   3
   9   2   6 21.9648 25.7008   2
 -10  -2  -6 5700.70 261.024   3
  10  -2   6 5408.36 251.392   3
  10   2   6 5719.44 265.262   2
  10  -2   6 5693.68 287.553   2
 -11  -2  -6-35.3477 33.2289   3
  11  -2   6-60.3937 48.3502   2
  11   2   6-56.5331 43.4291   2
  12  -2   6 290.559 71.3985   2
 -12  -2  -6 317.090 70.9581   3
  12   2   6 321.470 68.7710   2
  13  -2   6 242.043 68.7848   2
 -13  -2  -6 256.093 59.4482   3
  13   2   6 221.508 57.0071   2
 -14  -2  -6 540.533 94.1532   3
  14  -2   6 527.315 98.5712   2
  14   2   6 480.383 91.7531   2
 -15  -2  -6 650.774 110.995   3
  15   2   6 630.425 107.936   2
  15  -2   6 665.570 116.107   2
  16  -2   6 52.2038 33.7779   2
  17  -2   6-112.023 54.6234   2
  18  -2   6 25.8815 29.8905   2
 -22  -3   6 30.5267 39.2150   1
  21  -3  -6 228.914 59.6259   2
 -21  -3   6 268.715 69.9129   1
  20  -3  -6-14.1814 16.8694   2
 -20  -3   6 14.9494 34.4183   1
  19  -3  -6 119.788 42.5019   2
 -19  -3   6 243.002 63.6383   1
  18  -3  -6 6.15016 26.0198   2
 -18  -3   6 65.7731 38.6400   1
 -17  -3   6 84.2917 37.5697   1
  17  -3  -6 106.599 40.5560   2
  16  -3  -6 146.051 43.3755   2
 -16  -3   6 113.206 41.6380   1
 -16  -3   6 62.2500 25.1289   2
  15  -3  -6 26.6221 25.6193   2
 -15  -3   6 30.4952 20.0367   2
 -15  -3   6 25.4492 34.4370   1
 -14  -3   6 4918.90 194.253   2
  14  -3  -6 5316.59 235.325   2
 -14  -3   6 4957.51 234.238   1
 -13  -3   6 442.691 69.9828   1
 -13  -3   6 331.603 47.0512   2
  13  -3  -6 356.713 60.7182   2
 -12  -3   6 1841.49 99.6726   2
  12  -3  -6 2032.15 139.842   2
 -12  -3   6 1882.58 138.413   1
 -11  -3   6 366.518 41.0111   2
  11  -3  -6 384.843 60.8014   2
 -11  -3   6 393.557 62.6612   1
 -10  -3   6 632.753 76.3609   1
 -10  -3   6 633.451 46.3023   2
  10  -3  -6 672.091 77.3736   2
  -9  -3   6 1456.00 114.721   1
   9  -3  -6 1720.75 117.071   2
  -9  -3   6 1489.08 61.3829   2
   8   3  -6 297.779 24.2616   3
  -8  -3   6 371.011 60.4341   1
  -8  -3   6 310.545 25.0573   2
   7   3  -6 274.597 26.6869   3
  -7  -3   6 287.388 55.0129   1
  -6  -3   6 93.5701 35.5426   1
  -6   3   6 68.7801 16.3119   1
   6   3  -6 52.5136 14.9549   3
  -6  -3   6 49.2545 14.6540   2
   5   3  -6 136.367 23.5432   3
  -5  -3   6 113.299 27.9938   1
  -5  -3   6 147.081 24.2211   2
  -5   3   6 128.043 16.8152   1
   4   3  -6 1711.79 84.6986   3
  -4  -3   6 1890.95 118.727   1
  -4  -3   6 1758.72 85.4509   2
   3   3  -6 56.5588 19.7666   3
  -3  -3   6 62.3795 23.1111   2
  -3  -3   6 42.4839 23.0347   1
  -3  -3   6 12.6395 9.51674   3
   2   3  -6 299.008 42.6215   3
  -2  -3   6 350.424 46.9034   2
  -2  -3   6 340.328 41.8620   3
  -2  -3   6 391.857 55.6624   1
  -1  -3   6 1528.59 99.8037   2
   1   3  -6 1528.46 96.9256   3
   1  -3  -6 1325.19 51.7571   1
   1   3  -6 1400.23 103.675   2
  -1  -3   6 1521.04 93.0422   3
  -1  -3   6 1536.13 104.223   1
   0  -3   6 186.668 42.7250   2
   0  -3   6 112.192 33.7217   1
   0  -3   6 115.768 29.8260   3
   0   3  -6 140.658 38.6359   2
   1  -3   6 4241.70 184.572   2
   1  -3   6 4218.19 169.720   1
  -1   3  -6 3912.53 190.278   2
   1  -3   6 4038.45 169.080   3
   2  -3   6 111.045 31.4324   2
   2  -3   6 113.195 31.5719   3
  -2   3  -6 53.5623 24.9949   2
   3  -3   6 3837.90 192.188   2
   3  -3   6 3810.74 178.486   3
   4  -3   6 1984.84 145.044   2
   4  -3   6 1995.43 134.154   3
   5  -3   6 275.796 58.3404   2
   5  -3   6 255.526 51.1125   3
   6  -3   6 439.098 77.6665   2
   6  -3   6 379.363 62.6792   3
  -7  -3  -6 9.85849 16.7541   2
   7  -3   6-9.23973 19.1105   3
   7  -3   6 9.18384 25.3916   2
  -7  -3  -6-28.6151 28.8288   3
  -7   3  -6 0.14542 19.2820   2
  -8  -3  -6 7.80748 16.1078   2
   8  -3   6-12.9794 28.9152   2
  -8  -3  -6 46.4255 28.9061   3
  -8   3  -6 5.21773 22.1515   2
   8  -3   6-0.52051 15.1673   3
   9  -3   6 6359.91 277.525   3
  -9  -3  -6 7189.09 276.937   3
   9  -3   6 6596.51 311.581   2
  10  -3   6 12.4214 30.2031   2
 -10  -3  -6 9.35512 23.3416   3
 -11  -3  -6 1322.84 129.581   3
  11  -3   6 1521.20 160.313   2
 -12  -3  -6 220.395 60.8191   3
  12  -3   6 214.812 68.3474   2
  13  -3   6 539.229 103.295   2
 -13  -3  -6 610.043 99.3603   3
  14  -3   6 106.595 43.7344   2
 -14  -3  -6 111.737 51.3233   3
  15  -3   6 52.0869 43.0522   2
 -15  -3  -6 13.8488 26.1125   3
  16  -3   6 24.7616 34.8269   2
  17  -3   6 56.0110 46.7755   2
  18  -3   6 133.942 63.6192   2
 -22  -4   6 54.8015 39.6531   1
  22  -4  -6-14.5915 32.7188   2
  21  -4  -6 11.2847 24.5003   2
 -21  -4   6 30.1243 32.4977   1
  20  -4  -6-26.8472 32.2666   2
 -20  -4   6-7.37128 31.1975   1
  19  -4  -6 389.754 76.2705   2
 -19  -4   6 628.107 101.500   1
  18  -4  -6 198.122 51.9287   2
 -18  -4   6 240.092 62.8713   1
 -17  -4   6 93.0450 42.3671   1
  17  -4  -6 83.2440 37.5083   2
 -16  -4   6 169.919 52.6583   1
  16  -4  -6 150.986 43.1220   2
 -16  -4   6 207.453 46.4144   2
 -15  -4   6 674.342 78.1528   2
  15  -4  -6 750.045 99.0325   2
 -15  -4   6 735.788 98.5872   1
 -14  -4   6 311.851 49.0490   2
  14  -4  -6 355.755 67.3996   2
 -14  -4   6 323.816 66.6642   1
 -13  -4   6 1521.76 100.489   2
  13  -4  -6 1604.52 138.600   2
 -13  -4   6 1682.29 141.865   1
  12  -4  -6 1771.55 143.936   2
 -12  -4   6 1528.69 132.835   1
 -12  -4   6 1572.01 94.0838   2
 -11  -4   6 1826.63 142.819   1
  11  -4  -6 1967.63 147.511   2
 -11  -4   6 1851.81 92.3612   2
 -10  -4   6 4500.88 214.855   1
  10  -4  -6 4646.34 217.134   2
 -10  -4   6 4334.51 129.441   2
  -9  -4   6 393.340 66.1481   1
  -9  -4   6 357.633 34.4459   2
  -8  -4   6 3768.03 188.900   1
  -7  -4   6 1382.49 113.626   1
  -6  -4   6 1820.51 129.618   1
  -5   4   6 55.4389 9.19925   1
  -5  -4   6-10.3467 26.2434   1
  -5  -4   6 50.4154 14.4129   3
  -4  -4   6 4124.11 187.694   1
  -4  -4   6 3776.21 147.071   2
  -4  -4   6 3541.37 127.580   3
  -3  -4   6 3493.73 170.314   1
  -3  -4   6 3417.47 133.847   3
  -3  -4   6 3114.05 140.878   2
   3   4  -6 3496.72 141.823   3
  -2  -4   6 1185.26 85.9247   3
  -2  -4   6 1359.98 98.4258   2
  -2  -4   6 1439.90 107.893   1
   2   4  -6 1339.77 94.5599   3
   1  -4  -6 1245.24 35.4093   1
  -1  -4   6 1390.77 104.545   2
   1   4  -6 1285.52 96.4037   3
  -1  -4   6 1227.63 99.3463   1
  -1  -4   6 1253.62 90.5973   3
   0  -4   6 3893.36 182.769   2
   0  -4   6 3935.53 167.265   3
   0   4  -6 4009.23 178.649   3
   0   4  -6 3610.59 190.454   2
   0  -4   6 3531.47 169.153   1
   1  -4   6 6282.07 222.416   1
   1  -4   6 6478.08 244.886   2
  -1   4  -6 6349.95 263.134   2
   1  -4   6 6426.54 222.341   3
   2  -4   6 1055.05 104.115   2
   2  -4   6 1037.99 93.5238   3
  -2   4  -6 1050.76 110.607   2
   3  -4   6 184.445 47.9545   2
  -3   4  -6 169.308 48.2513   2
   3  -4   6 183.248 39.6502   3
   4  -4   6 745.795 86.5076   3
   4  -4   6 922.293 104.661   2
   5  -4   6 349.474 71.3027   2
   5  -4   6 271.797 55.0581   3
   6  -4   6 1470.10 141.597   2
  -6   4  -6 1170.18 139.271   2
   6  -4   6 1591.40 131.798   3
  -7   4  -6 137.369 48.2701   2
   7  -4   6 106.866 36.7255   3
   7  -4   6 166.709 54.1345   2
  -7   4  -6 224.018 58.6365   1
  -7  -4  -6 190.386 50.5031   2
  -8  -4  -6-11.1041 20.1826   2
   8  -4   6-2.24368 19.5830   3
   8  -4   6 10.7455 25.4619   2
  -8   4  -6 4.92323 25.3630   2
  -8  -4  -6-12.1150 23.9095   3
   9  -4   6 259.115 68.5858   2
  -9  -4  -6 292.995 59.0804   3
  10  -4   6 28.6131 32.7756   2
 -10  -4  -6-32.8259 34.4966   3
  11  -4   6-24.2023 46.1721   2
 -11  -4  -6-25.8910 29.8474   3
  12  -4   6 19.4744 28.4709   2
 -12  -4  -6 7.65204 22.2914   3
  13  -4   6 274.320 67.3025   2
 -13  -4  -6 390.389 74.8939   3
  14  -4   6 40.4327 42.2331   2
 -14  -4  -6 6.50150 31.4313   3
  15  -4   6 101.009 46.8171   2
 -15  -4  -6 103.148 43.2389   3
  16  -4   6 40.0680 34.9952   2
 -16  -4  -6 66.2399 40.3479   3
  17  -4   6 123.310 57.0741   2
  18  -4   6 10.2677 35.4259   2
  22  -5  -6-15.8026 23.7037   2
  21  -5  -6-23.5818 25.7294   2
 -21  -5   6 34.5350 28.0895   1
  20  -5  -6 133.336 51.3818   2
 -20  -5   6 61.1954 34.7450   1
  19  -5  -6-10.7409 26.8605   2
 -19  -5   6 21.1292 27.0482   1
 -18  -5   6 5.64776 36.4014   1
  18  -5  -6 22.6173 25.3903   2
 -18  -5   6 29.0464 21.0085   2
  17  -5  -6 340.003 74.7010   2
 -17  -5   6 289.438 73.6317   1
 -16  -5   6 206.030 61.0221   1
  16  -5  -6 230.171 58.6101   2
 -15  -5   6 115.669 44.5206   1
  15  -5  -6 180.524 51.8959   2
 -15  -5   6 86.7645 31.8474   2
 -14  -5   6 336.568 52.4068   2
  14  -5  -6 326.452 70.9254   2
 -14  -5   6 307.000 63.7288   1
 -13  -5   6-7.60726 14.5897   2
 -13  -5   6-38.9574 40.6992   1
  13  -5  -6-43.7802 37.0545   2
 -12  -5   6 40.8832 17.3695   2
  12  -5  -6 19.9590 23.5347   2
 -11  -5   6 1141.25 117.007   1
  11  -5  -6 1137.42 119.524   2
 -11  -5   6 1261.08 81.4765   2
  10  -5  -6-11.3029 25.8917   2
 -10  -5   6 4.55615 9.55797   2
  -9  -5   6 686.414 89.0398   1
  -8  -5   6 28.4592 29.7348   1
  -7  -5   6 2723.36 168.093   1
  -6  -5   6 31.9823 12.5359   3
  -6  -5   6 64.1863 29.3876   1
  -5  -5   6 287.640 37.3706   3
  -5  -5   6 319.239 55.0653   1
  -5   5   6 246.237 20.3484   1
  -4  -5   6 7383.49 265.637   1
  -4  -5   6 7444.82 198.119   3
  -3  -5   6 4472.75 203.848   1
  -3  -5   6 4516.21 189.902   2
  -3  -5   6 4350.06 160.820   3
  -2  -5   6 1843.61 110.430   3
  -2  -5   6 1899.26 128.609   2
  -2  -5   6 1918.52 131.765   1
  -1  -5   6 4156.71 174.354   3
  -1  -5   6 3982.13 193.554   2
   1  -5  -6 3634.73 76.4304   1
  -1  -5   6 4004.93 190.107   1
   0  -5  -6 655.980 37.9017   1
   0  -5   6 568.670 76.5992   2
   0  -5   6 626.189 73.7291   3
   0  -5   6 599.428 74.6262   1
   1  -5   6 1336.38 119.784   2
   1  -5   6 1259.33 103.978   3
  -1  -5  -6 1480.88 61.6392   1
   1  -5   6 1289.18 108.175   1
   2  -5   6 383.905 69.6701   2
   2  -5   6 331.068 57.2047   3
   3  -5   6 546.067 74.1868   3
   3  -5   6 661.030 90.9490   2
  -3   5  -6 557.498 91.7281   2
   4  -5   6 1.13465 19.4686   3
   4  -5   6 49.1105 25.1181   2
  -4   5  -6 16.5387 27.4639   2
   5  -5   6 150.225 45.0561   2
  -5   5  -6 248.609 64.0326   2
   5  -5   6 196.057 46.9532   3
   6  -5   6 35.7252 31.8111   2
  -6   5  -6-16.7879 20.1038   1
  -6   5  -6 37.2290 33.8572   2
   6  -5   6-24.9602 22.8042   3
  -6  -5  -6 14.5647 21.5577   2
  -7   5  -6 574.490 107.587   2
   7  -5   6 668.136 106.302   2
   7  -5   6 627.312 89.9784   3
  -7   5  -6 639.928 96.8897   1
  -7  -5  -6 722.189 98.8622   2
   8  -5   6 28.2278 33.6159   2
  -9  -5  -6 2883.96 174.838   3
   9  -5   6 2811.80 219.306   2
 -10  -5  -6 334.572 63.5442   3
  10  -5   6 345.392 80.2451   2
 -11  -5  -6 240.962 54.9635   3
  11  -5   6 238.399 70.1519   2
  12  -5   6 27.8252 37.2488   2
 -12  -5  -6 7.52020 29.5290   3
  13  -5   6-80.5251 50.6016   2
 -13  -5  -6 26.6366 30.6843   3
  14  -5   6 545.346 110.224   2
 -14  -5  -6 383.841 78.4010   3
  15  -5   6-64.2431 46.4788   2
 -15  -5  -6 20.9556 26.5470   3
  16  -5   6 373.202 97.6467   2
 -16  -5  -6 335.679 78.3226   3
  17  -5   6 189.484 71.6211   2
 -17  -5  -6 50.4452 34.2911   3
  22  -6  -6 65.5106 38.8374   2
  21  -6  -6 159.643 57.8456   2
 -21  -6   6 82.4961 45.6705   1
  20  -6  -6 231.688 65.8300   2
 -20  -6   6 355.888 88.1687   1
  19  -6  -6 575.980 105.006   2
 -19  -6   6 524.521 100.588   1
 -18  -6   6 45.4198 29.2466   1
  18  -6  -6 62.5891 36.2174   2
 -17  -6   6-14.7305 17.4902   2
  17  -6  -6 3.37059 26.8761   2
 -17  -6   6-29.5171 38.7697   1
  16  -6  -6 623.626 104.337   2
 -16  -6   6 494.389 91.8115   1
 -15  -6   6 2.31034 28.8269   1
  15  -6  -6 51.5581 39.3000   2
 -14  -6   6 25.8808 16.5059   2
 -14  -6   6 73.5871 40.6952   1
  14  -6  -6 34.5303 24.8426   2
  13  -6  -6 472.492 89.0872   2
 -13  -6   6 451.608 59.3580   2
 -13  -6   6 541.133 86.7088   1
  12  -6  -6 113.415 45.4120   2
 -12  -6   6 156.407 48.4650   1
 -12  -6   6 120.576 29.7317   2
  11  -6  -6 1823.39 160.240   2
 -11  -6   6 1709.27 100.768   2
 -11  -6   6 1590.86 147.609   1
 -10  -6   6 722.202 97.9639   1
   9   6  -6 607.975 76.5245   1
  -9  -6   6 456.225 77.8187   1
  -8  -6   6-18.2103 24.0210   1
  -8  -6   6 26.8526 9.93021   3
  -7   6   6 923.543 61.7758   1
  -7  -6   6 874.920 99.9371   1
  -7  -6   6 969.867 62.7900   3
  -6  -6   6 2300.43 161.465   1
  -6  -6   6 2185.29 102.213   3
  -6   6   6 2131.30 83.1219   1
  -5  -6   6 5880.97 250.458   1
  -5   6   6 5078.84 100.204   1
  -5  -6   6 5614.26 176.154   3
  -4  -6   6 5075.77 232.810   1
  -4  -6   6 4842.13 174.048   3
  -3  -6   6 9112.62 308.056   1
  -3  -6   6 9109.23 251.904   3
  -3  -6   6 9450.65 298.818   2
  -2  -6   6 294.072 56.6452   1
  -2  -6   6 264.396 54.9098   2
  -2  -6   6 332.928 51.7319   3
  -1  -6   6-19.5748 34.2856   1
  -1  -6   6 8.20288 24.3093   2
  -1  -6   6-15.0475 21.4202   3
   1  -6  -6 2.09026 6.01182   1
   0  -6  -6 1477.47 68.6668   1
   0  -6   6 1476.20 130.829   2
   0  -6   6 1610.50 118.937   3
   0  -6   6 1542.23 124.857   1
   1  -6   6 407.249 64.2728   3
  -1  -6  -6 416.233 39.4211   1
   1  -6   6 342.831 61.1610   1
   1  -6   6 422.513 70.6154   2
   2  -6   6 3.22182 23.3267   1
   2  -6   6-0.58051 26.6986   2
   2  -6   6-1.82904 16.9953   3
  -2  -6  -6 8.79889 10.2830   1
   3  -6   6 153.842 45.2438   3
  -3  -6  -6 479.920 49.3850   1
   3  -6   6 458.346 83.9507   2
   4  -6   6 1283.51 135.031   2
   4  -6   6 1335.45 123.526   3
  -5   6  -6 211.758 55.5539   1
   5  -6   6 141.649 51.7805   2
   5  -6   6 227.219 56.9527   3
  -5  -6  -6 196.971 51.3635   2
   6  -6   6 73.5632 37.1267   2
   6  -6   6 79.7867 35.7268   3
  -6  -6  -6 108.472 40.6837   2
  -6   6  -6 109.429 46.9412   1
   7  -6   6 1216.69 142.627   2
   8  -6   6 2046.57 190.838   2
   9  -6   6 477.998 94.3366   2
  10  -6   6 365.666 87.6350   2
 -10  -6  -6 265.314 56.4510   3
  11  -6   6 426.498 94.7121   2
 -11  -6  -6 442.433 74.8857   3
  12  -6   6 2.09043 31.3221   2
 -12  -6  -6 5.03268 20.4353   3
  13  -6   6 642.510 121.093   2
 -13  -6  -6 645.129 92.7045   3
  14  -6   6 10.4931 31.3845   2
 -14  -6  -6 2.95985 23.1717   3
  15  -6   6 211.272 78.9020   2
 -15  -6  -6 266.052 67.9466   3
  16  -6   6 539.879 119.813   2
 -16  -6  -6 484.612 94.1078   3
  17  -6   6 131.297 62.9877   2
  22  -7  -6 32.1444 29.8150   2
  21  -7  -6 234.097 73.3038   2
  20  -7  -6 107.659 48.4223   2
 -20  -7   6 251.018 76.9119   1
  19  -7  -6 133.144 54.6229   2
 -19  -7   6 149.029 54.9787   1
 -18  -7   6 200.096 64.6847   1
  18  -7  -6 37.1895 33.6754   2
 -17  -7   6 393.257 88.1093   1
  17  -7  -6 405.981 91.5145   2
 -16  -7   6 170.306 61.6062   1
 -16  -7   6 82.6273 30.8753   2
  16  -7  -6 137.907 51.6013   2
  15  -7  -6-18.8189 35.3684   2
 -15  -7   6-40.7146 44.1100   1
 -14  -7   6 10.7748 29.4517   1
  14  -7  -6-19.4645 30.5514   2
 -13  -7   6 50.2003 41.0382   1
  13  -7  -6-4.24605 26.5597   2
  12  -7  -6-31.5923 39.3867   2
 -12  -7   6 6.80326 32.0879   1
 -12  -7   6 2.31679 11.8605   2
  11  -7  -6 51.1022 38.8997   2
 -11  -7   6 94.5889 41.7444   1
 -10  -7   6 454.343 83.4235   1
  -9   7   6 1401.81 95.0716   1
   9   7  -6 1528.39 123.867   1
  -9  -7   6 1339.22 134.284   1
  -9  -7   6 1388.00 65.4810   3
  -8  -7   6 0.92982 28.7340   1
   8   7  -6 65.3536 33.7239   1
  -8   7   6 55.5424 17.2740   1
  -8  -7   6 44.3106 13.4967   3
  -7   7   6 19.8236 11.6631   1
  -7  -7   6 21.2616 13.1347   3
  -7  -7   6-32.9528 40.8270   1
   7   7  -6-11.8930 26.2605   1
  -6   7   6 109.953 20.7290   1
  -6  -7   6 112.929 25.8936   3
  -6  -7   6 79.9749 28.7885   1
  -5  -7   6 769.921 96.7320   1
  -5   7   6 615.242 41.2412   1
  -5  -7   6 677.972 68.2489   3
  -4  -7   6 470.918 74.5084   1
  -4   7   6 456.241 26.6008   1
  -4  -7   6 572.112 64.6680   3
  -3  -7   6 936.649 105.783   1
  -3  -7   6 870.151 84.2250   3
   2  -7  -6 3296.64 80.6761   1
  -2  -7   6 3511.86 203.221   2
  -2  -7   6 3544.26 173.790   3
  -2  -7   6 3624.63 201.207   1
   1  -7  -6 37.5165 12.2568   1
  -1  -7   6 66.8051 36.0807   2
  -1  -7   6 63.6763 28.6272   3
  -1  -7   6-6.81237 29.6410   1
   0  -7   6 1558.63 123.517   3
   0  -7   6 1602.71 144.502   2
   0  -7  -6 1628.06 81.1125   1
   0  -7   6 1596.12 133.818   1
  -1  -7  -6 10.1514 14.6786   1
   1  -7   6-16.6623 28.4576   2
   1  -7   6 27.7876 20.5025   3
   1  -7   6-19.1377 30.3403   1
  -2  -7  -6 3.94087 18.6609   1
  -2   7  -6 38.1533 26.8511   1
   2  -7   6-24.2468 36.6350   2
   2  -7   6-8.79985 20.5741   3
   2  -7   6 30.8084 30.0717   1
  -3   7  -6 535.545 84.6525   1
   3  -7   6 662.374 101.818   2
  -3  -7  -6 567.502 57.4270   1
   3  -7   6 565.954 82.7777   3
   4  -7   6 97.1876 36.7652   3
  -4   7  -6 99.1042 40.1292   1
   4  -7   6 63.4014 44.0028   2
  -4  -7  -6 107.362 26.4229   1
  -5  -7  -6 367.587 51.5380   1
  -5   7  -6 335.690 70.7872   1
   5  -7   6 332.445 74.3527   2
   5  -7   6 311.633 65.6535   3
  -5  -7  -6 327.094 66.0523   2
   6  -7   6 205.297 58.0776   2
  -6  -7  -6 205.891 40.4511   1
   7  -7   6 112.101 45.9044   2
  -7  -7  -6 220.278 48.0985   1
   8  -7   6 959.583 137.142   2
  -8  -7  -6 1264.73 101.699   1
   9  -7   6 194.576 65.5874   2
  10  -7   6 7.28151 34.6230   2
 -10  -7  -6 31.2387 22.6782   3
  11  -7   6 24.4062 45.3146   2
 -11  -7  -6 28.1345 22.2626   3
  12  -7   6 239.024 82.2451   2
 -12  -7  -6 199.745 53.6162   3
  13  -7   6 82.7164 46.4269   2
 -13  -7  -6-26.1646 26.4691   3
  14  -7   6 166.541 66.5538   2
 -14  -7  -6 170.152 52.9004   3
  15  -7   6 35.4393 40.7160   2
 -15  -7  -6-10.2002 23.3692   3
  16  -7   6-41.3672 48.7931   2
 -16  -7  -6 64.0165 34.6135   1
 -16  -7  -6 17.2977 33.4085   3
 -17  -7  -6 87.8895 43.8606   1
  22  -8  -6 23.6093 26.9819   2
  21  -8  -6-30.4183 32.5932   2
 -20  -8   6 151.271 66.1233   1
  20  -8  -6 85.2850 52.5432   2
  19  -8  -6-2.13253 29.6546   2
 -19  -8   6-23.3904 36.1080   1
  18  -8  -6 307.691 85.7062   2
 -18  -8   6 293.999 79.4215   1
  17  -8  -6 420.647 94.5400   2
 -17  -8   6 575.761 111.304   1
 -16  -8   6 944.775 137.745   1
  16  -8  -6 845.668 133.035   2
 -16  -8   6 492.387 74.8207   2
  15  -8  -6 139.284 58.3553   2
 -15  -8   6 119.613 52.3821   1
 -15  -8   6 96.7403 34.1323   2
 -14  -8   6 33.4442 37.5004   1
  14  -8  -6 6.03389 35.2320   2
 -14  -8   6 32.0051 20.1431   2
  13  -8  -6 443.684 93.4215   2
 -13  -8   6 427.241 87.5504   1
 -12  -8   6 665.846 103.706   1
  12  -8  -6 625.805 110.750   2
  11  -8  -6 263.599 72.1012   2
 -11  -8   6 314.867 74.3446   1
 -10  -8   6 197.307 65.1844   1
 -10   8   6 143.983 36.1479   1
 -10  -8   6 142.321 21.3085   3
  -9  -8   6 142.062 53.1127   1
  -9  -8   6 172.348 28.5407   3
  -9   8   6 213.266 41.2361   1
  -8  -8   6 474.641 52.0379   3
  -8   8   6 491.318 57.1885   1
  -8  -8   6 394.407 80.1110   1
  -7  -8   6 1096.04 123.202   1
   7   8  -6 1125.29 118.057   1
  -7  -8   6 1153.44 85.9832   3
  -7   8   6 1227.47 83.4465   1
   6   8  -6 167.648 48.1343   1
  -6  -8   6 149.387 46.6146   1
  -6  -8   6 161.020 34.7088   3
  -6   8   6 169.454 28.2137   1
  -5   8   6 50.9778 14.8019   1
  -5  -8   6 56.9896 39.2528   1
  -5  -8   6 46.0936 23.2296   3
   5   8  -6 47.4360 28.3648   1
   4   8  -6 81.9112 40.3505   1
  -4  -8   6 38.3713 32.1183   1
  -4   8   6 36.4412 9.88745   1
  -4  -8   6 21.6491 20.6231   3
   3   8  -6 988.979 114.828   1
  -3  -8   6 939.805 92.1195   3
  -3  -8   6 952.331 109.916   1
   2   8  -6 324.054 67.4256   1
  -2  -8   6 335.063 65.0245   1
  -2  -8   6 389.123 76.7049   2
  -2  -8   6 296.627 53.4555   3
   2  -8  -6 287.904 29.7988   1
  -1  -8   6 254.547 58.1025   1
  -1  -8   6 223.652 59.0408   2
  -1  -8   6 264.364 52.3640   3
   1   8  -6 216.203 56.5157   1
   1  -8  -6 271.110 32.3540   1
   0  -8   6 844.236 96.6965   3
   0  -8  -6 952.518 68.4887   1
   0   8  -6 1018.94 121.223   1
   0  -8   6 1031.72 123.085   2
   0  -8   6 939.957 108.393   1
  -1   8  -6 3120.01 211.639   1
   1  -8   6 2902.76 211.457   2
  -1  -8  -6 3064.83 133.119   1
   1  -8   6 2833.22 178.210   3
   1  -8   6 2764.04 181.429   1
  -2   8  -6-1.59373 31.5019   1
   2  -8   6 105.578 46.4110   2
   2  -8   6 77.2926 30.5288   3
   2  -8   6 67.2252 30.5286   1
  -2  -8  -6 84.9492 27.1435   1
  -3  -8  -6 726.232 72.2467   1
   3  -8   6 791.502 115.682   2
   3  -8   6 682.704 95.7793   3
  -3   8  -6 689.508 102.530   1
  -4  -8  -6 161.588 39.1765   1
   4  -8   6 144.992 53.2209   2
   5  -8   6 345.767 82.5663   2
  -5  -8  -6 350.612 55.4742   1
  -6  -8  -6 157.390 39.7774   1
   6  -8   6 140.068 50.8510   2
   7  -8   6 253.097 72.9168   2
  -7  -8  -6 245.323 52.2220   1
  -8  -8  -6 979.245 99.0672   1
   8  -8   6 866.024 133.888   2
  -9  -8  -6 848.358 96.0030   1
   9  -8   6 808.556 134.116   2
  10  -8   6 14.8863 36.2814   2
 -10  -8  -6-1.97136 19.1668   1
  11  -8   6 250.969 74.3507   2
 -11  -8  -6 365.598 68.7828   3
 -11  -8  -6 345.983 63.8013   1
 -12  -8  -6 42.8925 29.6909   1
  12  -8   6 58.0110 45.8614   2
 -12  -8  -6 59.4069 29.5864   3
 -13  -8  -6 19.6375 22.5294   3
  13  -8   6 93.6214 61.3003   2
 -13  -8  -6 20.6000 24.6154   1
  14  -8   6 334.391 101.377   2
 -14  -8  -6 276.785 64.3197   3
 -14  -8  -6 360.708 70.7745   1
  15  -8   6 52.8784 47.5224   2
 -15  -8  -6 44.4491 36.5344   1
 -15  -8  -6 2.12838 18.1146   3
 -16  -8  -6 85.0508 42.3881   1
 -17  -8  -6 18.0723 22.8892   1
  22  -9  -6 16.0208 37.8346   2
  21  -9  -6 124.157 63.7841   2
  20  -9  -6 96.2959 51.2153   2
  19  -9  -6 280.813 85.8287   2
 -19  -9   6 478.201 113.941   1
  18  -9  -6 0.61781 37.3864   2
 -18  -9   6 22.9758 47.4472   1
  17  -9  -6-55.0857 40.9505   2
 -17  -9   6 25.7330 47.6396   1
 -16  -9   6 396.882 93.1301   1
  16  -9  -6 384.929 94.4562   2
 -15  -9   6-8.38417 14.0818   2
  15  -9  -6 25.1981 27.2785   2
 -15  -9   6 81.9727 50.1714   1
 -15   9   6 31.2189 24.5602   1
 -14  -9   6 8.95575 28.5242   1
  14  -9  -6 46.2039 38.8670   2
 -14   9   6 18.6298 18.1013   1
 -14  -9   6 44.7522 24.5855   2
 -13  -9   6-30.9959 33.3076   1
 -13  -9   6-4.07147 14.1370   2
 -13   9   6-2.14073 15.7345   1
  13  -9  -6-21.7949 37.6091   2
 -12  -9   6 286.042 81.0072   1
 -12   9   6 245.444 52.8775   1
  12  -9  -6 250.744 74.7399   2
 -11  -9   6 258.129 69.3550   1
 -11  -9   6 207.633 23.4006   3
 -10   9   6 1.71759 13.6360   1
 -10  -9   6-35.9302 43.1686   1
 -10  -9   6-17.9259 15.9692   3
  -9  -9   6 240.023 40.8081   3
  -9   9   6 362.169 57.4988   1
  -9  -9   6 215.548 63.7876   1
  -8  -9   6 454.829 56.7180   3
  -8  -9   6 406.653 78.7849   1
  -8   9   6 409.190 56.1833   1
  -7   9   6 23.0341 14.4348   1
  -7  -9   6 25.7169 18.5388   3
  -7  -9   6-29.8050 49.6076   1
  -6  -9   6 89.7239 40.3763   1
  -6  -9   6 124.233 34.3397   3
  -6   9   6 111.695 24.6608   1
  -5   9   6 344.073 39.3740   1
  -5  -9   6 351.817 57.0084   3
   5   9  -6 224.850 60.1875   1
  -5  -9   6 367.146 75.1560   1
  -4  -9   6-26.4219 39.9325   1
  -4   9   6 1.61023 8.84085   1
   4   9  -6-25.5508 30.8909   1
  -4  -9   6-14.4846 16.6002   3
  -3  -9   6 431.263 66.7552   3
  -3  -9   6 441.497 79.3495   1
   3   9  -6 561.845 89.9234   1
  -3   9   6 513.226 36.6701   1
   2   9  -6 422.102 81.1314   1
  -2  -9   6 401.331 77.7100   1
  -2  -9   6 451.598 70.2622   3
   2  -9  -6 374.973 39.4859   1
   1   9  -6 1073.58 129.143   1
  -1  -9   6 1275.66 141.224   2
  -1  -9   6 1064.94 110.343   3
  -1  -9   6 1335.86 134.672   1
   1  -9  -6 1100.16 73.1209   1
   0   9  -6 47.2735 28.4630   1
   0  -9  -6 34.9065 17.0223   1
   0  -9   6 64.2465 40.8815   2
   0  -9   6 67.6574 33.9045   3
   0  -9   6 127.634 46.3005   1
   1  -9   6 145.536 52.5681   2
  -1   9  -6 205.110 59.0198   1
   1  -9   6 142.056 44.0338   3
  -1  -9  -6 195.783 37.3153   1
   1  -9   6 192.305 53.5357   1
  -2  -9  -6 198.174 40.3262   1
   2  -9   6 198.137 50.7757   3
   2  -9   6 172.200 48.1971   1
   2  -9   6 191.594 57.0183   2
  -3  -9  -6 37.0643 22.4700   1
   3  -9   6 6.39671 29.1960   2
   4  -9   6 179.923 61.8913   2
  -4  -9  -6 160.165 39.6936   1
  -5  -9  -6 2010.85 140.468   1
   5  -9   6 1989.79 201.461   2
  -6  -9  -6 59.9505 26.5670   1
   6  -9   6 59.7982 42.3590   2
   7  -9   6 37.1854 30.7495   2
  -7  -9  -6 147.737 42.9105   1
   8  -9   6 1.37105 31.4299   2
  -8  -9  -6 3.90225 21.3608   1
   9  -9   6 97.9878 53.0543   2
  -9  -9  -6 28.0836 31.5828   1
  10  -9   6 292.809 88.2898   2
 -10  -9  -6 324.632 65.8534   1
  11  -9   6 46.9362 42.4627   2
 -11  -9  -6 26.2993 20.0054   1
 -12  -9  -6 428.207 77.8806   3
  12  -9   6 548.339 118.502   2
 -12  -9  -6 525.300 89.5518   1
  13  -9   6 612.124 130.169   2
 -13  -9  -6 525.546 84.5489   3
 -13  -9  -6 613.633 96.0671   1
  14  -9   6 150.188 73.1336   2
 -14  -9  -6 35.3585 28.1256   1
 -14  -9  -6 61.5263 37.2724   3
  15  -9   6-29.0431 36.2397   2
 -15  -9  -6 25.3107 33.0019   1
 -16  -9  -6 154.095 55.5844   1
  21 -10  -6 108.491 54.8655   2
  20 -10  -6-19.7084 30.1711   2
  19 -10  -6 85.3301 44.6172   2
  18 -10  -6 160.651 66.7955   2
 -18 -10   6 276.143 88.0516   1
 -17 -10   6 200.219 76.0471   1
  17 -10  -6 154.783 65.7024   2
  16 -10  -6 253.378 79.3543   2
 -16 -10   6 295.774 88.1139   1
 -15 -10   6 94.4408 62.1575   1
  15 -10  -6 58.4397 43.8560   2
 -14 -10   6 11.7391 34.9426   1
  14 -10  -6 27.5425 33.5742   2
 -14 -10   6-3.82945 19.4407   2
 -14  10   6 59.9162 30.7833   1
 -13  10   6 314.786 67.9504   1
 -13 -10   6 369.720 89.0607   1
  13 -10  -6 341.510 88.2690   2
 -13 -10   6 271.933 54.0761   2
 -12 -10   6 32.8547 23.5261   1
 -12  10   6 53.8506 31.6420   1
  12 -10  -6 30.5352 32.6958   2
 -11 -10   6 113.935 48.9732   1
 -11 -10   6 45.8567 15.5302   3
 -10  10   6 307.437 57.2897   1
 -10 -10   6 346.785 49.1758   3
 -10 -10   6 353.506 81.5894   1
  -9  10   6 584.514 75.1434   1
  -9 -10   6 543.629 66.0665   3
  -9 -10   6 505.437 96.3036   1
  -8 -10   6-43.1215 60.9888   1
  -8  10   6 15.5908 16.0583   1
  -8 -10   6 43.4876 25.7222   3
  -7  10   6 492.580 60.2570   1
  -7 -10   6 515.514 70.6324   3
  -7 -10   6 523.921 95.2440   1
  -6 -10   6-15.8800 29.5664   1
  -6 -10   6-2.65766 17.1753   3
  -6  10   6-2.57939 11.9337   1
  -5 -10   6 1347.14 146.834   1
  -5  10   6 1222.91 80.8391   1
  -5 -10   6 1194.02 112.666   3
  -4  10   6 1606.17 82.0154   1
  -4 -10   6 1430.70 149.798   1
  -4 -10   6 1469.72 125.914   3
  -3 -10   6 216.625 60.3455   1
  -3  10   6 259.101 29.6985   1
  -3 -10   6 207.507 49.9136   3
  -2 -10   6 253.763 60.8481   1
   2 -10  -6 227.612 34.4313   1
  -2 -10   6 245.730 55.6662   3
  -1 -10   6 53.4051 31.6632   1
   1 -10  -6 75.7028 23.4975   1
  -1 -10   6 80.5092 37.8857   2
  -1 -10   6 67.0325 29.4282   3
   0 -10   6 466.064 77.5801   3
   0 -10   6 594.713 103.346   2
   0 -10  -6 641.982 65.5550   1
   0 -10   6 566.026 93.7489   1
  -1 -10  -6 305.010 50.7468   1
   1 -10   6 185.004 62.2644   2
   1 -10   6 247.377 59.4329   1
   2 -10   6 22.0464 36.2707   2
   2 -10   6 17.4075 19.2752   1
  -2 -10  -6 3.11892 20.7480   1
  -3 -10  -6 182.552 43.8368   1
   3 -10   6 191.973 69.5569   2
  -4 -10  -6 282.152 56.0991   1
   4 -10   6 373.814 89.3551   2
  -5 -10  -6 38.6644 23.2465   1
   5 -10   6-1.74012 47.3693   2
   6 -10   6 155.811 63.3256   2
  -6 -10  -6 166.764 49.8434   1
  -7 -10  -6 226.860 56.2401   1
   7 -10   6 202.254 70.7918   2
  -8 -10  -6-7.40723 23.4697   1
   8 -10   6 6.17920 39.5145   2
   9 -10   6 151.061 57.8228   2
  -9 -10  -6 70.7548 35.9132   1
 -10 -10  -6 157.944 52.7271   1
  10 -10   6 107.544 62.0274   2
  11 -10   6-0.47177 35.4365   2
 -11 -10  -6 26.0038 31.0784   1
  12 -10   6 118.282 64.9510   2
 -12 -10  -6 49.8573 35.3871   3
 -12 -10  -6 98.6957 43.5129   1
  13 -10   6 52.0917 46.2663   2
 -13 -10  -6 117.864 44.3170   3
 -13 -10  -6 231.678 69.4762   1
 -14 -10  -6 48.9942 29.1611   1
  14 -10   6 166.469 83.3624   2
 -15 -10  -6 10.5878 29.3504   1
 -16 -10  -6 72.8741 43.7804   1
  20 -11  -6 41.0440 28.1179   2
  19 -11  -6 57.2705 44.1714   2
  18 -11  -6 53.8848 44.4687   2
 -17 -11   6 197.513 78.7345   1
  17 -11  -6-18.0212 32.5280   2
 -16 -11   6-29.0715 38.7420   1
  16 -11  -6-7.25672 30.0544   2
 -15 -11   6 152.589 64.2882   1
  15 -11  -6 117.376 63.2778   2
 -14 -11   6 74.1341 48.7494   1
  14 -11  -6 155.027 64.9815   2
 -13 -11   6-32.8022 27.7871   1
  13 -11  -6-2.83743 21.3741   2
 -12 -11   6 158.105 61.2450   1
 -12  11   6 91.7543 36.8461   1
  12 -11  -6 96.9321 45.2425   2
 -11 -11   6-30.6537 27.9595   1
 -10 -11   6 71.9189 24.7572   3
 -10 -11   6 112.234 52.0279   1
  -9 -11   6 57.7647 27.3492   3
  -9 -11   6 41.9255 29.5479   1
  -9  11   6 27.3008 17.8452   1
  -8  11   6 624.519 75.6461   1
  -8 -11   6 583.334 78.7112   3
  -8 -11   6 570.261 104.218   1
  -7 -11   6 499.004 96.6284   1
  -7  11   6 437.104 58.1947   1
  -7 -11   6 462.386 70.5231   3
  -6 -11   6 4.64443 17.9538   3
  -6 -11   6-11.0797 30.7095   1
  -6  11   6 7.03714 12.6818   1
  -5  11   6 207.943 36.2462   1
  -5 -11   6 219.338 65.9136   1
  -5 -11   6 234.698 58.5780   3
  -4  11   6 2045.82 101.176   1
  -4 -11   6 1592.37 137.773   3
  -4 -11   6 1868.03 177.347   1
  -3 -11   6 15.1006 31.9707   1
  -3 -11   6 39.5807 28.7537   3
  -3  11   6 49.6517 16.0996   1
  -2 -11   6 49.6220 29.0071   1
  -2 -11   6 164.832 49.8185   3
   2 -11  -6 133.895 28.7690   1
  -1 -11   6 78.3354 45.4809   1
  -1 -11   6 86.2522 40.7972   2
   1 -11  -6 47.6199 18.9043   1
   0 -11   6 70.7899 48.8129   2
   0 -11  -6 69.1031 23.2312   1
   0 -11   6 108.032 44.2392   1
   1 -11   6 177.297 60.7536   2
  -1 -11  -6 217.164 43.6942   1
   1 -11   6 282.475 71.1638   1
   2 -11   6 120.821 51.0718   1
   2 -11   6 150.493 63.8068   2
  -2 -11  -6 213.815 46.8285   1
   3 -11   6 49.4123 35.3957   2
  -3 -11  -6 135.656 37.5166   1
  -4 -11  -6 12.6111 18.4163   1
   4 -11   6-6.69890 38.5276   2
  -5 -11  -6 156.038 47.2317   1
   5 -11   6 116.860 53.1405   2
  -6 -11  -6 22.3431 35.4261   1
   6 -11   6-25.2559 44.8191   2
   7 -11   6-56.4859 44.7881   2
  -7 -11  -6-7.99127 25.1014   1
   8 -11   6-30.6390 41.6540   2
  -8 -11  -6 34.5216 29.6382   1
   9 -11   6 58.6300 27.9880   2
  -9 -11  -6 27.5872 27.8533   1
 -10 -11  -6 91.0636 46.5420   1
  10 -11   6 164.441 71.0493   2
 -11 -11  -6-49.8030 37.9407   1
  11 -11   6-31.2952 43.1173   2
  12 -11   6-8.85209 36.9403   2
 -12 -11  -6-37.8328 29.8605   1
 -13 -11  -6 84.0097 51.5297   1
  13 -11   6 96.6575 70.0878   2
 -14 -11  -6 7.23715 26.8551   1
 -15 -11  -6 42.5837 37.9176   1
  18 -12  -6-27.3763 35.2181   2
  17 -12  -6-6.95336 23.3862   2
 -16 -12   6-62.0124 48.0099   1
  16 -12  -6 28.9312 36.1402   2
 -15 -12   6 61.0026 39.0750   1
  15 -12  -6 138.886 70.9694   2
 -14 -12   6 640.252 126.478   1
  14 -12  -6 514.858 115.813   2
  13 -12  -6-9.47526 33.3481   2
 -13 -12   6-23.5987 27.1424   1
  12 -12  -6 15.0279 37.1709   2
 -12 -12   6-3.04259 34.5325   1
 -11 -12   6-20.2108 38.3032   1
 -10 -12   6 1.31391 35.0348   1
  -9 -12   6 41.1607 30.2593   3
  -9 -12   6 108.919 55.0875   1
  -8  12   6 339.397 57.5795   1
  -8 -12   6 233.062 73.3007   1
  -8 -12   6 248.821 55.5761   3
  -7  12   6-5.93674 13.7997   1
  -7 -12   6-46.1032 50.0523   1
  -7 -12   6 6.85435 15.0885   3
  -6 -12   6 86.1021 46.2776   1
  -6 -12   6 125.554 44.0446   3
  -6  12   6 96.4761 27.8718   1
  -5  12   6 703.444 67.6694   1
  -5 -12   6 574.977 106.555   1
  -5 -12   6 539.979 85.2525   3
  -4 -12   6 27.2647 38.2108   1
  -4  12   6-4.86034 10.4199   1
  -4 -12   6 25.0176 20.1321   3
  -3 -12   6 104.920 45.6615   1
  -3  12   6 201.879 32.1710   1
  -2 -12   6 147.413 48.2397   1
  -1 -12   6 683.301 112.239   1
  -1 -12   6 668.519 120.082   2
   1 -12  -6 651.177 69.0353   1
   0 -12  -6 73.4339 24.9390   1
   0 -12   6 110.843 52.4478   2
   0 -12   6 83.1689 38.4271   1
   1 -12   6-10.8721 39.4132   2
  -1 -12  -6 34.9166 24.4347   1
   1 -12   6 9.36153 26.3989   1
  -2 -12  -6 1.45935 17.1783   1
   2 -12   6-4.76108 33.6872   2
   2 -12   6-14.4130 32.3392   1
   3 -12   6 256.356 76.0536   2
  -3 -12  -6 166.878 49.7019   1
   4 -12   6-33.1396 43.7931   2
  -4 -12  -6 24.0905 26.9804   1
   5 -12   6 53.9175 43.1541   2
  -5 -12  -6 41.4435 29.0691   1
  -6 -12  -6 426.085 82.1677   1
   6 -12   6 375.383 103.706   2
  -7 -12  -6-0.27260 24.4775   1
   7 -12   6-128.130 63.7807   2
   8 -12   6-102.457 59.7348   2
  -8 -12  -6 20.2586 32.4692   1
   9 -12   6 82.5896 39.9108   2
  -9 -12  -6 120.319 50.5559   1
  10 -12   6 219.598 80.8576   2
 -10 -12  -6 222.870 74.2748   1
  11 -12   6 91.1747 49.4668   2
 -11 -12  -6-14.0551 26.6167   1
 -12 -12  -6-22.5749 36.3518   1
 -13 -12  -6 49.5966 34.1161   1
 -14 -12  -6-31.7964 35.7847   1
  17 -13  -6-27.3409 34.2557   2
  16 -13  -6 27.9644 46.7440   2
 -15 -13   6 106.988 66.1853   1
  15 -13  -6-54.0910 47.1670   2
  14 -13  -6 191.559 80.1418   2
 -14 -13   6 201.990 75.8695   1
  13 -13  -6 91.9847 57.8932   2
 -13 -13   6 127.630 68.6350   1
 -12 -13   6 51.2055 40.5099   1
  12 -13  -6 14.5743 27.5785   2
 -11 -13   6-54.3870 49.4875   1
 -10 -13   6 72.1034 51.3822   1
  -9 -13   6 476.255 104.976   1
  -8 -13   6 54.4074 38.6089   1
  -7 -13   6 192.113 66.2718   1
  -7 -13   6 130.010 41.0383   3
  -6 -13   6 242.359 75.3703   1
  -6 -13   6 189.258 54.2002   3
  -5 -13   6 54.3014 37.4139   1
  -4 -13   6 187.883 67.5780   1
  -3 -13   6 371.502 84.1055   1
  -3  13   6 349.669 43.7855   1
  -2 -13   6 210.572 67.2571   1
  -1 -13   6 72.6451 52.8125   2
   1 -13  -6 2.69711 12.5191   1
  -1 -13   6 19.6042 23.6176   1
   0 -13  -6 150.251 37.1594   1
   0 -13   6 126.115 67.5502   2
   0 -13   6 55.0608 38.2356   1
  -1 -13  -6 28.5419 17.7834   1
   1 -13   6 37.2209 32.8727   1
   1 -13   6-5.25579 35.5253   2
  -2 -13  -6 70.6329 32.6998   1
   2 -13   6 89.3974 57.1728   2
  -3 -13  -6 22.5803 19.9885   1
   3 -13   6-38.2814 55.4993   2
   4 -13   6-37.2767 53.6713   2
  -4 -13  -6 19.6713 23.9087   1
   5 -13   6 20.3167 30.5803   2
  -5 -13  -6 4.45793 22.2812   1
   6 -13   6-20.0803 36.8228   2
  -6 -13  -6-9.35497 19.5012   1
  -7 -13  -6-10.7333 20.0436   1
   7 -13   6-8.34215 42.1100   2
  -8 -13  -6 80.0791 45.9611   1
   8 -13   6-87.2314 58.2174   2
  -9 -13  -6 49.3516 38.0448   1
   9 -13   6 74.3933 56.8544   2
  10 -13   6-137.572 69.5695   2
 -10 -13  -6 65.3052 41.3786   1
 -11 -13  -6 5.89051 30.0977   1
  14 -14  -6 48.6276 48.7400   2
  13 -14  -6-50.3348 46.6387   2
 -13 -14   6-62.7591 50.2423   1
  12 -14  -6 4.63059 39.4859   2
 -12 -14   6 1.62913 28.2929   1
 -11 -14   6 138.434 59.6228   1
 -10 -14   6 105.978 48.8385   1
  -9 -14   6 39.3909 44.4521   1
  -8 -14   6 443.270 107.590   1
  -7 -14   6 11.0969 36.5406   1
  -6 -14   6 36.5525 43.5819   1
  -5 -14   6-19.9144 34.1718   1
  -4 -14   6-48.6806 40.1130   1
  -3 -14   6-6.43003 30.1322   1
  -2 -14   6 70.5980 40.6669   1
  -1 -14   6 242.987 84.4885   2
  -1 -14   6 364.631 88.7866   1
   0 -14   6 46.0648 49.0098   2
   0 -14   6 38.6387 39.8674   1
   1 -14   6 85.4011 46.6747   2
   1 -14   6 95.2655 46.6015   1
   2 -14   6 36.9185 36.5446   2
   3 -14   6 17.2057 51.4459   2
   4 -14   6-95.6039 58.9108   2
   5 -14   6 55.9952 52.6484   2
   6 -14   6 24.8586 45.4451   2
   7 -14   6 38.9937 44.5353   2
   8 -14   6-10.0104 33.0752   2
 -12 -15   6 17.9225 45.6750   1
  12 -15  -6-4.72409 28.4518   2
 -11 -15   6 104.602 63.4846   1
 -10 -15   6-79.7594 48.9873   1
  -9 -15   6 98.0125 42.1445   1
  -8 -15   6 29.9293 37.5623   1
  -7 -15   6 207.998 71.5906   1
  -6 -15   6 79.8219 50.6111   1
  -5 -15   6-16.8204 41.5041   1
  -4 -15   6-31.8715 49.8488   1
  -3 -15   6-62.3537 43.5001   1
  -2 -15   6 12.0039 25.3482   1
  -1 -15   6-129.902 64.1162   2
  -1 -15   6 6.52458 28.6497   1
   0 -15   6 46.5214 33.2717   1
   0 -15   6 48.6535 39.8307   2
   1 -15   6 126.216 66.3686   2
   1 -15   6 83.4261 52.0933   1
   2 -15   6 64.9178 62.5679   2
   3 -15   6 125.837 71.8818   2
   4 -15   6-49.1439 40.7519   2
   5 -15   6 127.079 68.5253   2
   6 -15   6 21.0957 37.4134   2
  -9 -16   6 97.6143 57.7927   1
  -8 -16   6 16.5866 22.9761   1
  -7 -16   6-26.0437 33.2881   1
  -6 -16   6 39.0711 30.2627   1
  -5 -16   6 26.7962 30.0603   1
  -4 -16   6-44.6147 37.3195   1
  -3 -16   6 19.7495 34.1966   1
  -2 -16   6 36.5157 44.1214   2
  -2 -16   6 9.63408 41.6232   1
  -1 -16   6 125.984 65.4181   2
  -1 -16   6-37.5312 36.0982   1
   0 -16   6-87.6965 48.2435   1
   0 -16   6 19.3364 35.3396   2
   1 -16   6-24.2203 40.4805   2
   2 -16   6 77.4879 54.4092   2
   3 -16   6 97.1002 60.8147   2
  -6 -17   6 8.22897 30.0567   1
  -5 -17   6-0.23896 21.8138   1
  -4 -17   6-24.2728 33.4865   1
  -3 -17   6 24.6738 33.3874   1
  -2 -17   6 33.6793 35.1871   1
  -2 -17   6-6.94087 27.3383   2
  -1 -17   6 25.1349 54.4618   2
  -1 -17   6 49.0594 38.3256   1
   0 -17   6 90.3697 54.9114   1
 -23   0   7 3.92483 23.2451   1
 -22   0   7-16.3822 25.6384   1
 -21   0   7 41.1954 32.7672   1
  20   0  -7 5.29637 14.7340   2
 -20   0   7 50.1164 37.5933   1
 -19   0   7 8.99125 19.5290   1
  19   0  -7 28.3666 18.5085   2
 -18   0   7-9.56412 27.1363   1
  18   0  -7 27.9489 23.8439   2
 -17   0   7 60.0440 39.8343   1
  17   0  -7 124.388 31.2117   3
  17   0  -7 156.966 41.0585   2
 -16   0   7-2.12159 20.0751   1
  16   0  -7 0.70329 10.5845   2
 -15   0   7 35.1601 29.8714   1
  15   0  -7 3.00851 10.2378   2
 -14   0   7 130.244 39.0621   1
  14   0  -7 163.945 32.2470   2
 -13   0   7 60.4986 31.5630   1
  13   0  -7 2.52282 12.1549   2
 -12   0   7 48.3920 28.2187   1
  12   0  -7-2.64572 9.49858   2
 -11   0   7 19.9115 18.6920   1
  11   0  -7-6.75302 8.22724   2
  10   0  -7 3.46916 5.10175   2
 -10   0   7 14.8718 20.2653   1
   9   0  -7 18.3874 7.90143   2
  -9   0   7-13.7869 20.3482   1
  -8   0   7-25.9624 26.6046   1
  -7   0   7-8.45742 14.4106   1
  -6   0   7 7.65169 18.4818   1
   6   0  -7 7.05203 10.1921   1
   6   0  -7 3.33770 4.61346   2
   5   0  -7 0.41956 6.37010   2
   5   0  -7-12.0611 15.3604   1
  -5   0   7-28.0957 21.6152   1
   4   0  -7-3.91003 8.64601   2
  -4   0   7 10.2772 15.3780   1
   4   0  -7 12.9109 17.1506   1
   3   0  -7 3.07902 9.10494   2
  -3   0   7-2.04699 11.8949   1
   3   0  -7-39.2878 16.6541   1
   2   0  -7-2.35401 8.33873   2
   2   0  -7 13.2029 12.4831   1
  -2   0   7 16.7908 11.1104   2
  -2   0   7-2.09829 10.6128   1
   1   0  -7 7.57803 10.1950   2
  -1   0   7 4.28262 11.6904   2
   1   0  -7 2.09970 9.04937   1
   0   0  -7 25.1948 17.1084   1
   0   0  -7 55.0197 22.9612   2
   0   0   7 68.8158 23.5484   2
  -1   0  -7-4.37399 15.1426   2
  -1   0  -7-7.16316 12.8656   1
   1   0   7 16.3383 14.8610   2
  -2   0  -7 8.78756 16.5039   2
  -2   0  -7-1.53514 13.1340   1
   2   0   7-9.47578 19.8079   2
   3   0   7-17.5726 21.1230   2
   4   0   7-8.63172 20.3412   2
  -5   0  -7-14.2460 28.7359   3
   5   0   7 1.26852 18.1115   2
  -6   0  -7-32.6306 35.2242   3
   6   0   7 11.4397 18.9293   2
  -7   0  -7-6.09427 21.6313   2
  -7   0  -7-18.1303 34.1859   3
   7   0   7-20.9339 25.6195   2
  -8   0  -7-5.06662 17.9739   2
  -8   0  -7-17.2890 23.5440   3
   8   0   7-6.39265 24.4697   2
  -9   0  -7-36.8508 33.3078   3
   9   0   7 6.40673 26.4180   2
 -10   0  -7-21.9529 33.3615   3
  10   0   7 11.1285 27.8355   2
 -11   0  -7-34.6100 29.6171   3
  11   0   7-46.1438 41.6270   2
 -12   0  -7 109.233 46.7936   3
  12   0   7 51.2610 36.8388   2
 -13   0  -7-55.7195 39.0708   3
  13   0   7-57.9920 35.5875   2
  14   0   7 66.3057 44.9544   2
  15   0   7-2.79111 24.8432   2
  16   0   7-9.40290 36.3198   2
  17   0   7 46.0624 29.0872   2
  18   0   7 2.49867 22.0532   2
 -23  -1   7-35.5017 31.9467   1
 -23   1   7 109.184 53.0821   1
 -22   1   7-42.4068 24.6312   1
 -22  -1   7 95.2666 50.0660   1
 -21   1   7 67.5265 43.1764   1
 -21  -1   7 101.997 45.9739   1
 -20   1   7 59.0472 36.8671   1
 -20  -1   7 100.789 43.6530   1
  20  -1  -7 33.6230 21.6669   2
 -19   1   7 70.8975 35.8487   1
 -19  -1   7 132.165 48.2013   1
  19  -1  -7 58.1511 26.8100   2
 -18   1   7 205.127 53.0709   1
 -18  -1   7 204.499 52.0672   1
  18  -1  -7 138.265 33.4249   3
  18  -1  -7 180.739 41.0939   2
  17   1  -7 86.3736 18.2051   3
 -17  -1   7 178.700 52.5200   1
 -17   1   7 226.114 52.7841   1
  17  -1  -7 112.639 31.9644   2
  16  -1  -7 0.96319 16.4432   2
 -16  -1   7 18.4510 25.8940   1
  15  -1  -7-8.52500 20.2419   2
  15   1  -7 21.7129 10.5958   3
 -15   1   7 101.691 37.7847   1
 -15  -1   7 53.4690 38.0591   1
 -14  -1   7 757.794 85.5612   1
  14  -1  -7 826.726 72.5632   2
 -14   1   7 976.749 88.0425   1
  13  -1  -7 267.019 38.9243   2
 -13   1   7 325.275 51.0642   1
 -13  -1   7 205.997 47.0868   1
 -12   1   7 3074.23 140.841   1
  12  -1  -7 2943.24 122.082   2
 -12  -1   7 2798.41 153.465   1
  11  -1  -7 2823.02 114.552   2
 -11   1   7 3095.02 136.838   1
 -11  -1   7 2907.67 154.001   1
  10  -1  -7 20.1429 10.7808   2
 -10  -1   7-11.4287 24.9481   1
 -10   1   7 22.5309 18.5767   1
  -9  -1   7 4609.52 190.005   1
   9  -1  -7 4395.34 129.926   2
  -9   1   7 4565.13 158.684   1
  -8  -1   7 11217.4 282.474   1
  -8   1   7 11577.1 247.912   1
   8  -1  -7 11131.0 200.535   2
  -7   1   7 908.861 68.7859   1
   7   1  -7 1009.72 71.6887   1
  -7  -1   7 997.255 84.3417   1
  -6   1   7 14446.0 261.356   1
   6   1  -7 14362.3 284.769   1
  -6  -1   7 14903.2 313.654   1
   5   1  -7 380.515 48.2908   1
   5   1  -7 386.327 28.9796   2
  -5  -1   7 414.841 55.5239   1
  -5   1   7 389.954 44.0907   1
   5  -1  -7 412.777 37.6354   1
  -4   1   7 1072.33 67.8933   1
  -4  -1   7 955.902 77.0461   1
  -4  -1   7 1084.32 49.7803   2
   4   1  -7 1060.97 58.4517   2
   4  -1  -7 1062.58 58.6239   2
   4   1  -7 1061.93 81.9830   1
   4  -1  -7 986.571 61.1097   1
   3   1  -7 1706.24 84.6971   2
  -3  -1   7 1831.49 103.635   1
   3   1  -7 1821.66 108.234   1
   3  -1  -7 1665.98 84.2634   1
   3  -1  -7 1814.51 83.9114   2
  -3   1   7 1831.55 84.6706   1
  -3  -1   7 1825.40 76.0265   2
   2   1  -7 3426.95 133.093   2
   2  -1  -7 3268.33 118.726   1
   2  -1  -7 3567.71 129.107   2
  -2  -1   7 3597.39 121.423   2
   2   1  -7 3649.29 141.019   3
  -2   1   7 3604.53 114.155   1
   2   1  -7 3637.54 151.044   1
  -2  -1   7 3624.47 144.555   1
   1   1  -7 6749.81 203.468   2
   1   1  -7 6738.42 211.529   1
   1  -1  -7 6822.93 193.921   2
  -1  -1   7 6709.69 182.019   2
   1  -1  -7 6870.37 177.611   1
  -1  -1   7 7173.52 204.292   1
   0   1  -7 8095.42 240.314   2
   0  -1  -7 8014.99 226.988   2
   0  -1  -7 8417.20 206.014   1
   0   1  -7 8299.87 238.522   1
   0  -1   7 8581.59 224.185   2
  -1   1  -7 1443.75 110.860   2
  -1   1  -7 1230.86 93.9091   1
  -1  -1  -7 1143.08 79.6547   1
  -1  -1  -7 1387.94 104.726   2
   1   1   7 1192.30 86.6968   2
   1  -1   7 1338.20 98.1648   2
  -2   1  -7 1025.10 89.7679   1
  -2   1  -7 927.434 93.6694   2
   2   1   7 1024.31 85.3693   2
   2  -1   7 1033.24 89.7083   2
  -2  -1  -7 948.800 89.7110   2
   3  -1   7 222.648 53.8657   2
   3   1   7 118.352 36.8805   2
  -3   1  -7 205.269 54.7488   2
  -3   1  -7 97.8411 30.0746   1
   4   1   7 1572.44 115.989   2
   4  -1   7 1443.57 115.958   2
   5   1   7 806.626 86.7533   2
  -5  -1  -7 695.730 83.8854   3
   5  -1   7 762.262 89.2216   2
  -6   1  -7 2745.59 173.733   3
  -6  -1  -7 3101.61 177.231   3
   6   1   7 2488.03 158.150   2
   6  -1   7 2824.02 175.799   2
   7  -1   7 139.050 47.5919   2
  -7   1  -7 123.445 42.3916   3
  -7  -1  -7 108.120 47.7887   2
  -7   1  -7 126.468 51.5341   2
  -7  -1  -7 80.7361 35.2597   3
   7   1   7 106.710 37.3692   2
  -8  -1  -7 326.460 70.3612   2
  -8   1  -7 274.163 74.3008   2
  -8  -1  -7 258.811 51.0440   3
  -8   1  -7 326.252 66.4782   3
   8   1   7 290.655 61.6803   2
   8  -1   7 312.730 63.1893   2
  -9   1  -7-12.1693 33.5217   3
  -9  -1  -7 59.0004 30.5158   3
   9   1   7 13.8572 28.3246   2
   9  -1   7-2.94830 19.0361   2
 -10  -1  -7 735.678 101.672   3
 -10   1  -7 695.961 105.285   3
  10   1   7 596.339 92.7690   2
  10  -1   7 715.893 102.657   2
 -11   1  -7 355.793 83.9006   3
  11   1   7 400.515 74.3502   2
  11  -1   7 342.931 74.9471   2
 -11  -1  -7 322.544 71.4331   3
 -12  -1  -7 44.6050 36.6079   3
  12   1   7 22.2177 19.9502   2
  12  -1   7 57.9740 40.7416   2
  13   1   7 10.3267 23.3479   2
 -13  -1  -7-34.3332 39.8288   3
  13  -1   7-12.3851 34.8607   2
 -14  -1  -7 5.88539 29.0690   3
  14   1   7 28.9924 28.4470   2
  14  -1   7 50.9131 39.2132   2
  15   1   7 75.1050 44.8982   2
  15  -1   7-9.12588 27.8415   2
  16   1   7 143.140 59.9013   2
  16  -1   7 68.9742 48.3501   2
  17   1   7 85.8405 46.5383   2
  17  -1   7 5.64326 35.6869   2
  18  -1   7 95.6997 55.4611   2
  18   1   7 44.9526 37.1608   2
 -24   2   7 145.773 67.1914   1
 -23   2   7 151.558 64.3146   1
 -23  -2   7-4.46918 33.3801   1
 -22  -2   7 111.331 52.3764   1
 -21  -2   7-39.6907 36.7196   1
  21  -2  -7 24.6487 19.6374   2
 -20  -2   7 50.2983 33.4952   1
  20  -2  -7 66.2616 28.6299   2
  19  -2  -7 162.006 43.3757   2
 -19  -2   7 164.737 55.1858   1
  18  -2  -7 76.1902 29.4430   2
 -18  -2   7 67.3361 40.5568   1
 -18  -2   7 39.6980 23.3413   2
 -17  -2   7 79.9885 32.2551   2
  17  -2  -7 81.3678 29.2493   2
 -17  -2   7 75.9068 35.2879   1
  16  -2  -7 21.6365 17.4840   2
 -16  -2   7 20.7942 26.8815   1
 -16  -2   7 62.1552 22.3876   2
  15  -2  -7 233.837 45.7203   2
 -15  -2   7 135.584 43.4265   1
 -15  -2   7 197.619 40.6434   2
  14  -2  -7 331.594 53.9763   2
 -14  -2   7 310.928 59.2844   1
 -14  -2   7 356.593 49.6370   2
  13  -2  -7 1522.90 107.800   2
 -13  -2   7 1531.46 124.580   1
 -13  -2   7 1398.15 87.8308   2
  12  -2  -7 310.866 45.7472   2
 -12  -2   7 255.006 32.6745   2
 -12  -2   7 285.103 53.9327   1
  11  -2  -7 522.302 58.6046   2
 -11  -2   7 540.499 71.3007   1
 -11  -2   7 526.466 38.1931   2
 -11   2   7 610.943 58.2056   1
 -10  -2   7 1477.17 116.799   1
  10  -2  -7 1427.38 94.5964   2
 -10   2   7 1524.17 86.2975   1
   9  -2  -7 60.9470 24.5069   2
  -9   2   7 108.854 26.7934   1
  -9  -2   7 5.03459 26.5728   1
   8   2  -7 1402.00 92.4461   1
  -8   2   7 1446.23 80.5451   1
  -8  -2   7 1413.93 109.258   1
  -7   2   7 291.116 36.8222   1
  -7  -2   7 370.031 59.0126   1
   7   2  -7 370.406 39.2446   3
   7   2  -7 321.319 46.5981   1
   6   2  -7 8029.47 172.709   3
   6   2  -7 8371.20 242.004   1
  -6  -2   7 8561.38 255.925   1
  -6   2   7 8309.90 176.892   1
  -5  -2   7 5612.26 205.159   1
  -5   2   7 5409.61 136.460   1
   5   2  -7 5685.73 153.892   3
  -5  -2   7 5316.61 99.0039   2
   5   2  -7 5709.17 201.285   1
  -4  -2   7 103.944 19.3277   2
   4   2  -7 89.2536 22.5658   3
  -4   2   7 90.3843 17.2603   1
   4   2  -7 87.6851 28.8681   1
  -4  -2   7 126.438 33.0472   1
   4   2  -7 66.4972 16.9269   2
   4  -2  -7 97.4814 15.2915   1
   3   2  -7 380.014 44.7635   2
   3   2  -7 372.685 52.7329   1
   3   2  -7 374.966 46.0234   3
   3  -2  -7 379.361 33.4176   1
  -3   2   7 394.007 31.7288   1
  -3  -2   7 466.332 60.2250   1
  -3  -2   7 402.131 40.0386   2
   2  -2  -7 915.828 54.0124   1
   2   2  -7 856.849 79.2908   1
   2   2  -7 869.630 73.6926   2
  -2  -2   7 844.601 76.6619   1
   2  -2  -7 819.783 64.6796   2
   2   2  -7 849.459 71.3902   3
  -2  -2   7 901.682 65.9043   2
   1   2  -7 760.783 77.3692   1
   1   2  -7 800.483 76.0686   2
  -1  -2   7 876.393 77.1680   1
   1  -2  -7 852.996 71.2729   2
   1  -2  -7 832.970 55.7381   1
  -1  -2   7 876.813 71.7544   2
   0   2  -7 1253.20 101.093   2
   0  -2  -7 1165.57 88.3180   2
   0  -2   7 1147.20 89.3968   1
   0   2  -7 1289.61 101.909   1
   0  -2   7 1339.93 94.8488   2
   0  -2  -7 1180.13 72.4041   1
  -1   2  -7 688.442 81.0643   2
  -1  -2  -7 618.807 70.5470   2
  -1   2  -7 671.485 74.4995   1
   1  -2   7 714.650 77.7978   2
   2  -2   7 6847.28 231.343   3
  -2   2  -7 6711.90 261.325   2
  -2   2  -7 6363.30 235.184   1
   2  -2   7 6776.38 237.475   2
   3  -2   7-11.8820 25.4898   2
  -3   2  -7 35.1158 23.6884   2
   3  -2   7-6.92892 18.1964   3
  -3   2  -7 5.70375 18.0990   1
  -4   2  -7 620.346 77.6987   1
   4  -2   7 638.121 76.0035   3
   4  -2   7 688.681 82.5475   2
   5  -2   7 402.080 67.7786   2
  -5  -2  -7 399.492 62.3170   3
   5   2   7 408.843 61.4463   2
   5  -2   7 343.582 58.4226   3
   6  -2   7 21.9752 23.5809   2
  -6   2  -7 34.4810 28.8449   2
  -6  -2  -7 24.1870 25.6093   3
  -6   2  -7 13.8368 23.6845   3
   6   2   7 44.0679 24.8820   2
   6  -2   7 24.2369 22.3218   3
   7  -2   7-16.4641 30.0338   2
   7  -2   7-2.13917 16.1998   3
  -7  -2  -7 39.4071 30.6780   2
  -7   2  -7 28.2901 31.6522   2
  -7  -2  -7 36.4739 28.9909   3
  -7   2  -7 3.04675 25.0012   3
   7   2   7 16.8172 25.1858   2
   8  -2   7 1185.18 115.831   3
  -8  -2  -7 1309.98 121.428   3
   8   2   7 1145.35 115.258   2
  -8   2  -7 1347.70 138.529   3
   8  -2   7 1165.10 130.568   2
   9  -2   7 53.0972 29.4401   2
  -9  -2  -7-23.0489 38.2085   3
  -9   2  -7 31.6663 32.6601   3
   9   2   7 38.3791 32.8074   2
  10  -2   7-31.4878 43.5872   2
 -10  -2  -7-67.9053 40.8924   3
  10   2   7-16.4115 33.8165   2
  11  -2   7 281.220 69.3485   2
 -11  -2  -7 225.860 63.8778   3
  11   2   7 240.280 61.7195   2
 -12  -2  -7 18.9828 35.6972   3
  12   2   7 30.7138 34.4861   2
  12  -2   7 31.6900 30.0068   2
 -13  -2  -7 618.596 106.205   3
  13   2   7 625.451 104.349   2
  13  -2   7 716.890 115.794   2
 -14  -2  -7 26.2460 24.6504   3
  14   2   7 38.2762 39.8133   2
  14  -2   7 97.3782 46.9797   2
 -15  -2  -7 262.689 77.6488   3
  15  -2   7 124.170 54.8801   2
  16  -2   7 113.801 51.3047   2
  17  -2   7 58.2680 48.2000   2
 -22  -3   7 164.279 58.0769   1
  21  -3  -7 109.294 36.8003   2
 -21  -3   7 185.634 56.9328   1
  20  -3  -7 377.329 70.1486   2
 -20  -3   7 437.271 87.6484   1
  19  -3  -7 11.5452 20.7089   2
 -19  -3   7 24.5601 40.6225   1
 -18  -3   7 1501.55 132.283   2
 -18  -3   7 1820.23 164.278   1
  18  -3  -7 1882.45 147.294   2
  17  -3  -7 33.7749 24.6422   2
 -17  -3   7 17.0124 14.8122   2
 -17  -3   7 35.0055 26.9793   1
  16  -3  -7 168.673 41.2153   2
 -16  -3   7 140.091 34.8178   2
 -16  -3   7 156.078 47.0086   1
  15  -3  -7 654.806 83.0579   2
 -15  -3   7 556.623 65.9507   2
 -15  -3   7 726.361 96.7850   1
  14  -3  -7 55.4559 20.6174   2
 -14  -3   7 103.625 27.5563   2
 -14  -3   7 98.5597 40.6892   1
 -13  -3   7 371.056 45.5750   2
  13  -3  -7 361.449 58.3414   2
 -13  -3   7 277.318 60.0612   1
 -12  -3   7 51.8368 14.8001   2
 -12  -3   7 1.65562 31.8289   1
  12  -3  -7 68.2414 27.6154   2
 -11  -3   7 59.0244 29.5640   1
 -11  -3   7 85.3993 18.7443   2
  11  -3  -7 61.4788 26.4803   2
 -10  -3   7 186.492 19.6380   2
  10  -3  -7 194.607 41.7699   2
  10   3  -7 144.016 15.7005   3
 -10  -3   7 180.065 46.8312   1
  -9   3   7 1582.07 78.3367   1
   9   3  -7 1438.87 57.0826   3
   9   3  -7 1639.43 106.446   1
  -9  -3   7 1510.29 121.152   1
   8   3  -7 205.761 40.8007   1
  -8  -3   7 179.934 45.0853   1
  -8   3   7 182.869 26.6091   1
   8   3  -7 142.071 21.0293   3
  -7  -3   7 1612.43 53.4421   2
   7   3  -7 1882.72 79.7553   3
   7   3  -7 1937.32 124.498   1
  -7   3   7 1974.39 80.6367   1
  -7  -3   7 1997.80 134.030   1
   6   3  -7 72.8195 25.7072   1
  -6  -3   7 51.4781 13.5720   2
   6   3  -7 67.0741 18.8154   3
  -6   3   7 50.1204 13.9888   1
  -6  -3   7 64.3883 27.4454   1
   5   3  -7 13965.4 339.759   1
   5   3  -7 13699.5 245.406   3
  -5  -3   7 13996.9 218.316   2
  -5  -3   7 14494.3 348.604   1
  -5   3   7 12621.9 171.396   1
  -4  -3   7 2022.13 129.163   1
  -4  -3   7 1924.91 91.1421   2
   4   3  -7 1875.03 97.8157   3
  -4   3   7 1650.44 49.4788   1
   3   3  -7 3788.89 145.770   3
  -3  -3   7 3981.17 143.144   2
  -3  -3   7 3960.48 177.413   1
   2  -3  -7 239.971 22.6172   1
  -2  -3   7 309.686 48.9341   2
  -2  -3   7 223.028 42.4448   1
  -2  -3   7 253.428 39.1702   3
   2   3  -7 295.672 48.3649   3
   2   3  -7 259.450 44.4181   2
  -1  -3   7 294.743 48.4412   2
  -1  -3   7 232.082 39.3069   3
   1   3  -7 317.477 50.8259   3
   1  -3  -7 250.115 27.9018   1
   1   3  -7 297.327 52.3314   2
  -1  -3   7 275.539 46.7857   1
   0  -3   7 1184.05 104.712   2
   0   3  -7 1269.52 110.733   2
   0  -3   7 1161.53 91.2330   3
   0  -3   7 1018.91 89.8173   1
   0  -3  -7 1176.50 92.1363   2
   1  -3   7 621.830 73.9420   2
  -1   3  -7 553.407 76.3505   2
   1  -3   7 541.391 65.4755   3
  -1  -3  -7 506.097 63.4654   2
   2  -3   7 62.3258 30.4364   2
   2  -3   7 29.2467 22.5617   3
  -2   3  -7 79.9311 35.4958   2
   3  -3   7 101.328 37.2125   2
  -3   3  -7 90.3368 34.2968   2
   3  -3   7 152.520 38.7328   3
   4  -3   7 311.632 61.8879   2
  -4   3  -7 401.974 79.1999   2
   4  -3   7 350.181 60.0427   3
   5  -3   7 585.329 84.3174   2
  -5   3  -7 632.867 96.1688   2
  -5   3  -7 658.375 90.0853   1
   5  -3   7 607.112 80.7240   3
   6  -3   7 4901.52 230.592   3
   6  -3   7 4978.40 252.062   2
  -6   3  -7 5081.52 285.910   2
  -6  -3  -7 5074.33 221.385   3
  -6   3  -7 5145.64 249.608   1
  -6   3  -7 4957.46 251.645   3
  -6  -3  -7 4769.41 245.203   2
  -7  -3  -7 18.8199 21.0335   2
   7  -3   7 82.3974 40.7708   2
  -7   3  -7 10.7091 19.7062   2
  -7  -3  -7 21.5226 21.7505   3
   7  -3   7 35.0397 30.9231   3
  -7   3  -7 167.463 58.1944   3
   8  -3   7 4190.86 224.978   3
  -8  -3  -7 4231.58 219.712   3
   8  -3   7 4262.20 248.828   2
   9  -3   7-0.97125 35.0241   2
  -9  -3  -7-7.04633 27.2339   3
  10  -3   7 5.98622 21.7625   2
 -10  -3  -7 39.2622 23.9372   3
  11  -3   7 667.941 109.561   2
 -11  -3  -7 498.979 83.6869   3
  12  -3   7 586.005 105.911   2
 -12  -3  -7 712.807 106.637   3
  13  -3   7 361.017 84.9762   2
 -13  -3  -7 420.814 83.4569   3
  14  -3   7 81.0366 49.6356   2
 -14  -3  -7 43.5042 40.6512   3
 -15  -3  -7 242.576 63.0512   3
  15  -3   7 314.608 86.8429   2
 -16  -3  -7 397.000 92.4264   3
  16  -3   7 393.139 95.4757   2
  17  -3   7 66.1562 46.5296   2
 -22  -4   7 18.6440 28.1992   1
  21  -4  -7 93.1120 36.8376   2
 -21  -4   7 80.2803 45.9404   1
  20  -4  -7 15.4179 23.1853   2
 -20  -4   7 12.5692 33.6435   1
 -19  -4   7 657.402 108.039   1
  19  -4  -7 610.921 92.3048   2
  18  -4  -7 190.433 50.4272   2
 -18  -4   7 148.362 43.0805   2
 -18  -4   7 336.463 77.5849   1
 -17  -4   7 255.087 59.6964   1
  17  -4  -7 293.013 62.0358   2
 -17  -4   7 176.879 43.6451   2
  16  -4  -7 13.8463 18.0772   2
 -16  -4   7 62.8241 28.5476   2
 -16  -4   7 85.8990 35.6098   1
  15  -4  -7 206.897 51.1755   2
 -15  -4   7 232.989 39.6087   2
 -15  -4   7 218.561 60.1878   1
 -14  -4   7 75.5116 21.8514   2
  14  -4  -7 77.7768 31.8557   2
 -14  -4   7 32.4545 35.8219   1
 -13  -4   7 174.349 30.8372   2
 -13  -4   7 213.739 50.4754   1
  13  -4  -7 239.520 52.9700   2
 -12  -4   7 733.911 57.0255   2
 -12  -4   7 618.136 87.9931   1
  12  -4  -7 750.257 91.0427   2
  11  -4  -7 1476.06 125.377   2
 -11  -4   7 1557.81 134.939   1
 -11  -4   7 1400.69 70.6904   2
  10  -4  -7 1978.98 139.623   2
 -10  -4   7 1811.80 72.6471   2
 -10  -4   7 1899.40 145.659   1
   9   4  -7 1805.31 121.031   1
  -9  -4   7 2187.87 153.945   1
  -9  -4   7 1795.32 66.4044   2
  -8   4   7 107.504 20.3803   1
  -8  -4   7 47.9051 30.4607   1
  -7   4   7 831.343 45.6862   1
  -7  -4   7 769.645 56.5962   2
  -7  -4   7 718.317 87.9901   1
  -6   4   7 3911.69 92.6520   1
  -6  -4   7 4249.28 202.779   1
  -6  -4   7 4080.69 137.877   2
   6   4  -7 4236.85 139.550   3
  -5  -4   7 2168.46 145.571   1
  -5  -4   7 2068.03 103.955   2
   5   4  -7 2206.25 107.551   3
  -4  -4   7 2.79558 15.4610   2
  -4  -4   7 30.7380 25.5153   1
  -4  -4   7-8.52766 15.4458   3
   4   4  -7 22.9804 22.3582   3
  -3  -4   7 174.899 31.6880   3
  -3  -4   7 149.640 38.4793   1
  -3  -4   7 127.457 31.8087   2
   3   4  -7 281.533 51.0167   3
  -2  -4   7 6070.16 230.641   1
  -2  -4   7 6101.69 214.015   2
  -2  -4   7 5732.75 194.319   3
   2   4  -7 6141.53 207.232   3
  -1  -4   7 297.546 52.5585   1
  -1  -4   7 369.674 55.8065   2
   1  -4  -7 339.126 26.7869   1
   1   4  -7 443.285 60.8327   3
  -1  -4   7 410.785 54.4632   3
   0  -4   7 57.5001 35.0563   2
   0  -4   7 43.1265 19.6133   3
   0   4  -7 108.690 41.4298   2
   0   4  -7 48.8923 32.7251   3
   0  -4   7 43.6139 23.2602   1
   1  -4   7 1088.33 104.520   2
  -1   4  -7 1125.23 117.441   2
   1  -4   7 999.736 93.7062   1
   1  -4   7 1156.84 101.443   3
   2  -4   7 8186.41 293.221   2
  -2   4  -7 7380.59 309.665   2
   2  -4   7 7781.87 267.698   3
   3  -4   7 468.927 69.5677   3
   3  -4   7 455.772 73.0034   2
  -3   4  -7 438.088 81.0785   2
   4  -4   7 11592.1 375.087   2
  -4   4  -7 10917.2 404.985   2
   4  -4   7 11491.5 347.220   3
   5  -4   7 3205.91 205.259   2
  -5   4  -7 3048.27 221.220   2
   5  -4   7 3009.89 185.211   3
  -5   4  -7 3209.41 201.040   1
   6  -4   7 1085.94 123.674   2
  -6   4  -7 1211.04 148.045   2
   6  -4   7 1125.37 116.235   3
  -6   4  -7 1211.03 131.183   1
  -6  -4  -7 1175.41 125.052   2
   7  -4   7 729.802 107.479   2
  -7   4  -7 843.185 126.777   2
  -7  -4  -7 748.465 89.6738   3
   7  -4   7 631.959 92.0938   3
  -7   4  -7 735.669 104.197   1
  -7  -4  -7 688.834 100.467   2
   8  -4   7 548.535 96.2348   2
  -8  -4  -7 596.324 82.6910   3
   9  -4   7 556.566 94.7487   2
  -9  -4  -7 543.092 81.8867   3
  10  -4   7-61.0082 51.2637   2
 -10  -4  -7-7.20595 32.2048   3
  11  -4   7 77.9427 47.3797   2
 -11  -4  -7 22.3725 26.5387   3
  12  -4   7-17.9733 34.5726   2
 -12  -4  -7-13.3730 24.1205   3
  13  -4   7 232.777 72.3939   2
 -13  -4  -7 231.213 67.2972   3
  14  -4   7 110.205 49.4123   2
 -14  -4  -7 181.325 56.9619   3
  15  -4   7 14.6109 29.6945   2
 -15  -4  -7-3.97312 38.1127   3
  16  -4   7 70.5425 49.9246   2
 -16  -4  -7 68.9207 42.3316   3
 -17  -4  -7 18.7949 30.7702   3
  17  -4   7-38.7043 39.8148   2
 -22  -5   7 190.103 68.4977   1
  21  -5  -7 481.825 89.1660   2
 -21  -5   7 484.886 100.743   1
  20  -5  -7 513.741 90.3134   2
 -20  -5   7 498.379 101.567   1
 -19  -5   7 316.239 76.9720   1
  19  -5  -7 293.664 68.0217   2
  18  -5  -7 716.336 104.186   2
 -18  -5   7 808.883 122.049   1
  17  -5  -7 810.323 115.476   2
 -17  -5   7 638.168 79.9116   2
 -17  -5   7 783.004 116.907   1
 -16  -5   7 69.8974 27.9588   2
  16  -5  -7 79.8458 39.6218   2
 -16  -5   7 43.9150 33.0860   1
 -15  -5   7 1142.94 94.1542   2
  15  -5  -7 1396.49 138.823   2
 -15  -5   7 1282.99 140.540   1
 -14  -5   7 5.41938 15.8209   2
  14  -5  -7-25.4379 34.0432   2
 -14  -5   7 10.3067 32.6655   1
 -13  -5   7 4.11234 11.1369   2
  13  -5  -7 4.09168 28.5045   2
 -13  -5   7-4.57163 40.4592   1
  12  -5  -7 2514.19 176.920   2
 -12  -5   7 2448.54 110.904   2
 -12  -5   7 2508.13 182.531   1
  11  -5  -7 637.320 88.0358   2
 -11  -5   7 907.371 110.579   1
 -11  -5   7 738.788 56.3741   2
 -10  -5   7 38.7787 34.0585   1
  10   5  -7 80.9508 30.2473   1
 -10  -5   7 8.42222 8.20034   2
   9   5  -7 200.092 45.1465   1
  -9  -5   7 152.935 48.1146   1
  -8  -5   7 457.889 73.2699   1
  -7  -5   7 14.7967 20.6674   1
  -6  -5   7 2278.50 155.924   1
  -6   5   7 1836.77 51.7049   1
  -6  -5   7 2016.08 95.7398   3
  -6   5   7 1762.33 54.1908   1
  -5  -5   7 235.603 52.2776   1
  -5  -5   7 263.149 37.4923   3
  -5  -5   7 284.881 46.3813   2
  -4  -5   7 294.951 57.3065   1
  -4  -5   7 350.139 47.3510   3
  -4  -5   7 309.894 49.7399   2
  -3  -5   7 238.323 53.3909   1
  -3  -5   7 212.653 41.6173   3
  -3  -5   7 218.436 45.1349   2
  -2  -5   7 49.8045 25.8185   1
  -2  -5   7 49.6235 29.7325   2
  -2  -5   7 93.1784 29.4554   3
  -1  -5   7 392.582 62.6479   1
   1  -5  -7 387.711 24.5492   1
  -1  -5   7 391.226 62.5007   2
  -1  -5   7 477.921 62.5679   3
   0  -5   7 921.713 98.9178   2
   0  -5  -7 967.077 43.8316   1
   0  -5   7 879.435 87.1678   3
   0  -5   7 995.121 99.4071   1
   1  -5   7 6921.15 277.176   2
   1  -5   7 6741.15 252.996   1
   1  -5   7 6946.69 254.073   3
   2  -5   7 474.417 77.2444   2
   2  -5   7 471.023 69.2399   3
  -2   5  -7 565.323 91.4487   2
   3  -5   7 7126.37 300.176   2
  -3   5  -7 7659.66 341.608   2
   3  -5   7 7355.65 277.784   3
  -4   5  -7 146.963 50.1993   2
   4  -5   7 92.0302 44.4573   2
   4  -5   7 80.8299 32.8168   3
  -4  -5  -7 124.113 40.5743   2
   5  -5   7-14.0319 32.8671   2
   5  -5   7 10.0551 19.5497   3
  -5   5  -7 30.7562 21.8706   2
  -5  -5  -7 4.09673 18.8404   2
  -5   5  -7 44.4589 31.6427   1
   6  -5   7 2051.27 178.361   2
  -6   5  -7 1869.92 191.667   2
   6  -5   7 1900.74 154.999   3
  -6   5  -7 1946.55 168.021   1
  -6  -5  -7 1861.64 158.830   2
   7  -5   7 1.56367 35.5776   2
   8  -5   7 2208.48 193.861   2
  -8  -5  -7 1871.28 146.895   3
   9  -5   7 2381.65 205.553   2
  -9  -5  -7 2247.39 164.231   3
  10  -5   7 65.3967 44.5461   2
 -10  -5  -7 86.1664 37.0283   3
 -11  -5  -7 701.446 100.530   3
  11  -5   7 744.452 124.342   2
 -12  -5  -7 26.9880 22.9805   3
  12  -5   7 38.8798 22.5688   2
  13  -5   7 261.922 82.1656   2
 -13  -5  -7 237.994 66.2470   3
 -14  -5  -7 74.9690 44.2329   3
  14  -5   7-20.5063 38.4060   2
  15  -5   7 260.830 83.7600   2
 -15  -5  -7 200.656 61.9763   3
  16  -5   7 139.678 56.5345   2
 -16  -5  -7 178.611 64.4291   3
 -17  -5  -7 55.6636 50.5658   3
  21  -6  -7-22.8976 25.8906   2
 -21  -6   7 19.4966 30.5929   1
 -20  -6   7 68.4326 39.2354   1
  20  -6  -7 94.6708 41.8799   2
  19  -6  -7-13.0231 33.0942   2
 -19  -6   7-6.78046 34.2958   1
 -18  -6   7-2.25276 37.5507   1
  18  -6  -7 61.4577 46.7504   2
 -17  -6   7 267.928 72.6416   1
  17  -6  -7 279.325 66.4408   2
 -16  -6   7-18.0842 33.7042   1
 -16  -6   7 1.18822 14.9923   2
  16  -6  -7 31.2649 30.0259   2
 -15  -6   7 280.416 48.7351   2
  15  -6  -7 387.370 82.4309   2
 -15  -6   7 311.549 73.8445   1
 -14  -6   7 98.4094 26.4935   2
  14  -6  -7 73.8281 31.7952   2
 -14  -6   7 209.933 58.8628   1
 -13  -6   7 413.134 84.0963   1
  13  -6  -7 284.568 66.0198   2
 -13  -6   7 342.643 48.0631   2
 -12  -6   7 682.967 100.447   1
 -12  -6   7 619.995 59.1064   2
  12  -6  -7 617.134 91.6084   2
 -11  -6   7 211.155 59.9543   1
  11  -6  -7 152.298 44.6894   2
 -11  -6   7 160.119 30.3857   2
 -10  -6   7 56.1201 36.5225   1
  10   6  -7 44.4605 24.5833   1
  -9  -6   7 330.662 67.9683   1
   9   6  -7 336.964 58.8303   1
  -8  -6   7 27.1469 25.5557   1
   8   6  -7 33.5129 21.4471   1
  -7  -6   7 1.53534 9.06166   3
  -7   6   7-4.30503 6.74609   1
  -7  -6   7-45.1139 36.9661   1
  -6  -6   7 665.112 88.8104   1
  -6  -6   7 654.230 59.7324   3
  -5  -6   7 4.52509 17.2344   2
  -5  -6   7 19.5064 28.4686   1
  -5  -6   7 33.6133 16.5971   3
  -4  -6   7 2970.22 183.744   1
  -4  -6   7 2941.78 166.341   2
  -4  -6   7 2859.64 139.503   3
  -3  -6   7-7.83417 16.2698   3
  -3  -6   7-17.6648 26.4036   1
  -3  -6   7 13.6066 28.4471   2
  -2  -6   7 128.769 38.4485   1
  -2  -6   7 230.639 53.1297   2
  -2  -6   7 257.423 47.0166   3
  -1  -6   7 489.349 74.7435   1
  -1  -6   7 529.082 77.7677   2
   1  -6  -7 475.788 30.0209   1
  -1  -6   7 508.132 65.9935   3
   0  -6  -7 1834.60 74.6550   1
   0  -6   7 1881.23 150.335   2
   0  -6   7 1964.17 135.972   3
   0  -6   7 1904.53 143.301   1
   1  -6   7 329.500 64.7459   2
   1  -6   7 425.899 66.0678   3
  -1  -6  -7 453.155 39.0872   1
   1  -6   7 453.053 70.2301   1
   2  -6   7 119.161 48.1261   2
   2  -6   7 192.229 49.2849   3
  -2  -6  -7 161.394 26.7543   1
   3  -6   7 246.977 58.9310   2
   3  -6   7 140.636 42.7496   3
  -3  -6  -7 178.951 48.9730   2
  -4   6  -7 91.4588 38.0973   1
   4  -6   7 142.414 49.4357   2
   4  -6   7 124.621 40.4690   3
  -4  -6  -7 94.3520 37.1995   2
  -5   6  -7 108.653 40.3264   1
   5  -6   7 42.1693 27.9096   2
  -5   6  -7 78.0443 44.9067   2
  -5  -6  -7 99.0694 39.2329   2
   5  -6   7 128.166 47.0429   3
   6  -6   7 261.034 69.8886   2
   7  -6   7 1283.21 153.109   2
   8  -6   7 1227.21 151.329   2
   9  -6   7 94.7689 40.9594   2
  -9  -6  -7 74.0967 34.6172   3
  10  -6   7 11.4334 25.0483   2
 -10  -6  -7-5.20393 24.2053   3
  11  -6   7-86.7836 46.6163   2
 -11  -6  -7-19.2661 26.5885   3
  12  -6   7 319.941 85.0971   2
 -12  -6  -7 200.474 55.7344   3
  13  -6   7 191.749 73.2404   2
 -13  -6  -7 100.435 45.6703   3
  14  -6   7 80.5680 53.0632   2
 -14  -6  -7 3.92129 24.6805   3
  15  -6   7 46.6311 45.5676   2
 -15  -6  -7 92.6374 46.2113   3
  16  -6   7 72.5548 51.4533   2
 -16  -6  -7 51.8842 21.0877   3
  21  -7  -7 73.4883 46.4810   2
 -20  -7   7 46.4788 33.5758   1
  20  -7  -7 115.969 51.0748   2
 -19  -7   7 14.3740 30.3978   1
  19  -7  -7 78.2495 46.2886   2
  18  -7  -7 452.823 94.0349   2
 -18  -7   7 462.648 102.886   1
  17  -7  -7-50.3522 36.9213   2
 -17  -7   7-10.8580 23.9527   1
  16  -7  -7 144.627 51.6579   2
 -16  -7   7 117.471 46.3594   1
  15  -7  -7 85.4123 44.5546   2
 -15  -7   7 170.982 58.5015   1
  14  -7  -7 140.610 47.7020   2
 -14  -7   7 208.514 63.7366   1
 -14  -7   7 116.731 32.5031   2
  13  -7  -7 262.380 69.9838   2
 -13  -7   7 315.614 77.2403   1
 -13  -7   7 199.923 37.9775   2
 -12  -7   7 710.786 104.646   1
  12  -7  -7 678.619 105.342   2
 -12  -7   7 600.479 64.1026   2
 -11  -7   7 843.244 112.900   1
 -10  -7   7 274.656 66.7439   1
  -9  -7   7 199.662 53.3377   1
  -9   7   7 366.405 45.4878   1
   9   7  -7 359.042 64.0807   1
   8   7  -7 8.02190 20.7164   1
  -8  -7   7-0.64029 11.5252   3
  -8  -7   7-7.91166 32.4921   1
  -8   7   7-0.04261 9.15297   1
  -7  -7   7 358.462 71.7317   1
   7   7  -7 372.491 68.0972   1
  -7  -7   7 367.026 46.2489   3
  -7   7   7 347.754 34.7229   1
  -6   7   7 80.2972 12.4682   1
  -6  -7   7 127.761 29.5007   3
  -6  -7   7 101.287 38.5701   1
  -5  -7   7 529.572 82.6437   1
  -5  -7   7 643.660 68.5540   3
  -4  -7   7-29.6620 40.1926   1
  -4  -7   7 2.67407 15.0417   3
  -4  -7   7-35.9538 29.9021   2
  -3  -7   7 10696.3 349.653   2
  -3  -7   7 11042.8 365.961   1
  -3  -7   7 11372.6 308.892   3
  -2  -7   7 543.587 92.0515   2
  -2  -7   7 775.507 84.9044   3
  -2  -7   7 673.361 89.8919   1
  -1  -7   7 114.687 37.1619   1
   1  -7  -7 96.3115 15.5325   1
  -1  -7   7 80.7184 35.7050   2
  -1  -7   7 143.483 41.7512   3
   0  -7   7 27.6652 30.4926   2
   0  -7  -7 23.7733 14.3485   1
   0  -7   7 7.52789 15.5987   3
   0  -7   7 21.0099 28.5899   1
  -1  -7  -7 1950.87 93.2845   1
   1  -7   7 1992.43 149.503   3
  -1   7  -7 1726.52 154.996   1
   1  -7   7 1723.99 155.865   2
   1  -7   7 2022.58 153.272   1
  -2   7  -7 4.26615 29.5950   1
   2  -7   7-50.8502 45.3805   2
   2  -7   7 14.9433 23.8962   3
  -2  -7  -7 1.85367 12.5232   1
  -3  -7  -7 579.650 57.5923   1
  -3   7  -7 564.398 91.9300   1
   3  -7   7 529.357 92.0876   2
   3  -7   7 522.658 82.6419   3
  -4  -7  -7 88.7337 26.7282   1
   4  -7   7 87.3618 46.7932   2
  -5  -7  -7 180.210 37.6217   1
   5  -7   7 149.246 54.3738   2
   6  -7   7 1089.08 140.176   2
  -6  -7  -7 1152.19 92.4367   1
   7  -7   7 301.711 81.7051   2
   8  -7   7 9.64922 35.9959   2
   9  -7   7 386.184 88.8002   2
  10  -7   7 206.191 63.6766   2
 -10  -7  -7 185.677 53.2915   3
  11  -7   7 250.637 74.4490   2
 -11  -7  -7 180.863 53.2190   3
  12  -7   7 198.505 72.6296   2
 -12  -7  -7 153.625 51.5201   3
  13  -7   7-89.7267 58.2782   2
 -13  -7  -7-31.8908 30.8419   3
  14  -7   7 72.9026 56.2223   2
 -14  -7  -7 59.8838 31.1011   3
  15  -7   7-19.6350 33.9142   2
 -15  -7  -7-100.929 44.8366   3
 -17  -7  -7 182.373 56.2055   1
  21  -8  -7-3.33717 17.1292   2
  20  -8  -7 16.2619 24.5792   2
 -20  -8   7-9.52220 27.9753   1
  19  -8  -7 101.670 49.2806   2
 -19  -8   7 100.526 57.9296   1
  18  -8  -7 53.5058 31.4737   2
 -18  -8   7 53.8946 51.3908   1
  17  -8  -7 64.7525 33.3526   2
 -17  -8   7 27.9167 35.4588   1
  16  -8  -7 114.153 49.6968   2
 -16  -8   7 127.636 53.1969   1
  15  -8  -7 58.2292 38.4257   2
 -15  -8   7 31.0419 32.6379   1
  14  -8  -7 151.038 55.4269   2
 -14  -8   7 205.471 66.1870   1
 -13  -8   7 1005.07 133.224   1
  13  -8  -7 787.945 122.051   2
 -12  -8   7 546.746 97.1927   1
  12  -8  -7 459.009 94.0533   2
 -11  -8   7 4564.81 272.717   1
 -11   8   7 4413.44 190.785   1
 -10  -8   7-1.42852 34.8256   1
 -10   8   7 25.2093 17.8256   1
  -9   8   7 45.2883 22.8157   1
  -9  -8   7 20.2724 29.2168   1
  -9  -8   7 40.1845 14.2691   3
  -8  -8   7 470.406 53.8752   3
  -8  -8   7 329.225 69.8356   1
  -8   8   7 407.294 45.7920   1
  -7  -8   7 298.973 68.3456   1
  -7   8   7 326.919 35.2385   1
  -7  -8   7 409.985 53.6143   3
   6   8  -7 38.7587 25.6664   1
  -6   8   7 90.7569 15.2110   1
  -6  -8   7 65.0446 36.9836   1
  -6  -8   7 66.7359 24.7347   3
  -5  -8   7 7.67818 30.0837   1
  -5  -8   7-6.38400 13.3903   3
   5   8  -7-10.2703 14.2702   1
  -4  -8   7 925.813 90.0628   3
   4   8  -7 912.686 113.357   1
  -4  -8   7 843.029 109.554   1
  -3  -8   7 38.2558 25.1062   3
   3   8  -7 16.5809 19.9090   1
  -3  -8   7 16.1170 32.4485   1
  -3  -8   7 31.3107 33.8301   2
   2   8  -7-8.88132 22.5655   1
  -2  -8   7-1.29813 25.9161   1
  -2  -8   7 25.7960 24.0532   2
  -2  -8   7 23.2475 22.2024   3
   1   8  -7 1028.32 123.852   1
  -1  -8   7 964.592 118.838   2
  -1  -8   7 927.063 100.045   3
  -1  -8   7 1029.64 117.567   1
   1  -8  -7 868.087 51.4302   1
   0  -8   7 25.0354 38.2872   2
   0  -8  -7 27.3117 12.9608   1
   0   8  -7 31.3741 22.4916   1
   0  -8   7 18.9739 20.6239   3
   0  -8   7 13.7159 26.1110   1
  -1  -8  -7 278.433 38.0605   1
   1  -8   7 256.370 57.5696   3
   1  -8   7 215.139 60.1908   2
   1  -8   7 269.154 62.3810   1
  -1   8  -7 226.123 62.7680   1
   2  -8   7 659.574 92.5067   1
   2  -8   7 575.615 99.9157   2
   2  -8   7 582.871 86.6243   3
  -2  -8  -7 701.655 66.8491   1
  -3  -8  -7 184.330 36.6637   1
   3  -8   7 138.447 49.3295   2
   4  -8   7 77.1054 41.2983   2
  -4  -8  -7 163.370 37.5677   1
  -5  -8  -7 410.329 57.7494   1
   5  -8   7 234.193 56.8149   2
   6  -8   7 260.561 78.1287   2
  -6  -8  -7 447.549 62.7297   1
  -7  -8  -7 591.482 74.1831   1
   7  -8   7 499.375 100.850   2
   8  -8   7 33.3063 40.8959   2
  -8  -8  -7 40.7528 27.1198   1
   9  -8   7 180.786 61.7273   2
  -9  -8  -7 218.298 47.7488   1
 -10  -8  -7 85.9369 36.4993   1
  10  -8   7 133.041 65.8690   2
  11  -8   7-6.60310 29.4682   2
 -11  -8  -7 36.2088 30.0674   1
 -11  -8  -7-20.3739 26.1835   3
  12  -8   7 196.027 75.9762   2
 -12  -8  -7 150.539 46.5488   1
 -12  -8  -7 162.988 48.7758   3
  13  -8   7 77.6146 53.7697   2
 -13  -8  -7 9.90770 25.4726   1
 -13  -8  -7 5.78052 21.9515   3
 -14  -8  -7 65.9972 36.0189   1
 -14  -8  -7 65.6466 37.2873   3
  14  -8   7 41.2926 31.7896   2
  15  -8   7 16.8837 36.2389   2
 -15  -8  -7 20.1335 23.5719   1
 -15  -8  -7 16.9879 30.9464   3
 -16  -8  -7 100.658 43.0227   1
  21  -9  -7-5.73575 16.3667   2
  20  -9  -7 14.1210 25.6726   2
  19  -9  -7 28.0408 33.0972   2
 -19  -9   7 65.4310 51.9617   1
  18  -9  -7 94.4822 43.8317   2
 -18  -9   7 35.9638 33.3516   1
  17  -9  -7 242.132 75.2166   2
 -17  -9   7 207.697 77.4008   1
  16  -9  -7 141.032 61.2445   2
 -16  -9   7 166.696 62.4431   1
 -15  -9   7 84.5522 51.9477   1
 -15   9   7 85.2091 33.6960   1
  15  -9  -7 91.6648 42.1343   2
 -14  -9   7 38.3789 41.5550   1
 -14   9   7 17.8759 19.9402   1
  14  -9  -7 14.8013 33.5579   2
 -14  -9   7 6.26923 12.5949   2
 -13  -9   7 3.57860 26.7069   1
 -13   9   7-2.15726 19.3782   1
  13  -9  -7 16.2337 29.8095   2
 -13  -9   7 14.0308 14.2436   2
 -12  -9   7-8.76192 37.8901   1
  12  -9  -7 19.4849 32.0831   2
 -11  -9   7 414.134 90.6515   1
 -11   9   7 531.590 71.2443   1
 -10  -9   7 1099.90 138.709   1
 -10   9   7 1222.21 99.7050   1
 -10  -9   7 1223.33 77.8187   3
  -9  -9   7 1939.34 179.942   1
  -9  -9   7 1953.31 110.727   3
  -9   9   7 1979.51 117.615   1
  -8   9   7 662.249 61.4494   1
  -8  -9   7 684.599 72.4101   3
  -8  -9   7 557.045 93.6281   1
  -7  -9   7 193.001 60.2724   1
  -7  -9   7 193.044 41.5863   3
  -7   9   7 133.194 24.8275   1
  -6  -9   7-19.0811 41.3832   1
  -6  -9   7 10.6159 16.2187   3
  -6   9   7 12.4424 8.71574   1
  -5   9   7 6.63971 5.59378   1
  -5  -9   7-40.4648 34.8552   1
  -5  -9   7 6.51082 16.8597   3
  -4  -9   7 29.1676 26.3942   1
  -4  -9   7-7.45678 15.6083   3
  -3  -9   7 605.818 80.3728   3
  -3  -9   7 453.170 83.1694   1
  -3  -9   7 515.991 90.0918   2
  -2  -9   7 21.2872 21.5507   1
  -2  -9   7 42.4169 31.7035   2
  -2  -9   7-0.91074 19.0535   3
  -1  -9   7-29.5285 38.1833   1
   1  -9  -7 15.8276 10.9322   1
  -1  -9   7 3.16493 32.8208   2
  -1  -9   7-13.6169 16.2687   3
   0  -9  -7 367.220 43.4725   1
   0  -9   7 318.341 71.7294   2
   0  -9   7 318.205 63.1964   3
   0  -9   7 247.593 61.7588   1
  -1  -9  -7 1880.32 108.995   1
   1  -9   7 1855.93 179.235   2
   1  -9   7 1906.19 165.270   1
  -2  -9  -7 126.687 32.0328   1
   2  -9   7 166.850 49.5414   1
   2  -9   7 128.224 61.7142   2
   3  -9   7 352.355 88.3731   2
  -3  -9  -7 391.973 58.2650   1
   4  -9   7 189.195 67.5160   2
  -4  -9  -7 53.8322 22.3656   1
  -5  -9  -7 103.719 34.0082   1
   5  -9   7 230.309 73.4112   2
   6  -9   7 639.092 117.568   2
  -6  -9  -7 736.806 89.0735   1
   7  -9   7 33.4541 28.7255   2
  -7  -9  -7 41.7614 26.3788   1
  -8  -9  -7 5.92879 21.9763   1
   8  -9   7-6.86030 30.5734   2
   9  -9   7 340.267 90.2645   2
  -9  -9  -7 269.766 57.8161   1
  10  -9   7 55.7935 45.7941   2
 -10  -9  -7 105.961 41.3101   1
  11  -9   7 61.2171 43.9828   2
 -11  -9  -7-22.9547 25.5316   3
 -11  -9  -7 15.7628 26.0086   1
  12  -9   7-3.06773 36.8794   2
 -12  -9  -7-7.57217 21.9173   1
 -12  -9  -7 7.04484 22.0097   3
  13  -9   7 103.623 64.6182   2
 -13  -9  -7 17.6335 26.6137   3
 -13  -9  -7 145.730 49.6115   1
  14  -9   7 112.716 56.3645   2
 -14  -9  -7 5.50744 22.8519   3
 -14  -9  -7 153.742 50.9577   1
 -15  -9  -7 288.923 71.9227   1
 -16  -9  -7 89.4696 41.1387   1
  21 -10  -7 19.1901 27.3695   2
  20 -10  -7 59.1984 41.5028   2
  19 -10  -7-111.342 55.4250   2
  18 -10  -7 12.4173 28.5741   2
 -18 -10   7 51.0725 44.4747   1
 -17 -10   7 10.8098 30.4942   1
  17 -10  -7 41.5599 43.3321   2
 -16 -10   7 139.859 61.3055   1
  16 -10  -7 56.0869 32.9463   2
 -15 -10   7 10.7403 31.0822   1
  15 -10  -7 79.3314 50.9850   2
 -14 -10   7 130.343 57.7716   1
  14 -10  -7 29.9430 27.7914   2
 -13  10   7 8.94578 22.1182   1
 -13 -10   7 22.2074 37.9519   1
  13 -10  -7 26.0485 39.4510   2
 -12 -10   7 397.640 91.8143   1
  12 -10  -7 422.335 98.0411   2
 -11  10   7 857.897 92.8448   1
 -11 -10   7 909.112 135.296   1
 -11 -10   7 1046.03 69.9590   3
 -10  10   7 11.9870 18.1730   1
 -10 -10   7-3.66647 36.8883   1
 -10 -10   7 29.1555 21.7407   3
  -9  10   7 660.427 70.9960   1
  -9 -10   7 748.873 120.050   1
  -9 -10   7 753.689 77.4790   3
  -8 -10   7 716.371 115.437   1
  -8  10   7 708.495 67.1426   1
  -8 -10   7 742.830 81.4641   3
  -7 -10   7 1658.45 169.590   1
  -7 -10   7 1534.70 122.945   3
  -7  10   7 1606.38 88.9776   1
  -6  10   7 93.6186 20.1012   1
  -6 -10   7 151.441 56.8976   1
  -6 -10   7 127.773 37.8429   3
  -5 -10   7 1235.42 143.730   1
  -5 -10   7 1136.20 111.724   3
  -5  10   7 1216.86 53.7633   1
  -4 -10   7 286.953 72.1415   1
  -4 -10   7 305.930 58.8664   3
  -3 -10   7 26.8954 39.8816   1
  -3 -10   7 26.1959 25.9382   3
  -3 -10   7 53.2983 37.0809   2
  -2 -10   7 320.119 70.4645   1
  -2 -10   7 128.491 47.3909   2
  -2 -10   7 243.317 54.9381   3
   1 -10  -7 779.924 59.4434   1
  -1 -10   7 713.699 113.808   2
  -1 -10   7 844.437 105.083   3
  -1 -10   7 895.951 118.296   1
   0 -10  -7 28.1454 15.4959   1
   0 -10   7-4.53791 32.5735   1
   1 -10   7 47.0528 38.4042   2
  -1 -10  -7 92.3004 28.9501   1
   1 -10   7 42.8983 32.3213   1
  -2 -10  -7 595.776 70.0729   1
   2 -10   7 607.603 111.105   2
   2 -10   7 642.759 97.3286   1
  -3 -10  -7 6.46733 19.7679   1
   3 -10   7 59.9588 45.9443   2
  -4 -10  -7 54.6741 28.9207   1
   4 -10   7 77.9778 54.4910   2
   5 -10   7 83.7072 47.4026   2
  -5 -10  -7 12.9073 18.4055   1
   6 -10   7 2.87893 29.8432   2
  -6 -10  -7-0.31734 21.3441   1
  -7 -10  -7 18.1124 27.8831   1
   7 -10   7 50.8206 44.0605   2
   8 -10   7-28.5923 42.4239   2
  -8 -10  -7-22.3484 33.5329   1
   9 -10   7-48.4350 38.7178   2
  -9 -10  -7-9.47950 31.4634   1
  10 -10   7 252.113 90.0310   2
 -10 -10  -7 326.146 73.2808   1
  11 -10   7 68.6908 43.9962   2
 -11 -10  -7 135.616 51.6654   1
 -12 -10  -7 227.068 67.5532   1
  12 -10   7 187.586 78.7292   2
 -12 -10  -7 161.837 53.9608   3
 -13 -10  -7 180.106 60.9181   1
  13 -10   7 183.631 79.7704   2
 -13 -10  -7 151.488 51.7087   3
 -14 -10  -7 113.295 53.5712   1
 -15 -10  -7 44.8426 34.4614   1
 -16 -10  -7 10.0081 29.1201   1
  20 -11  -7 28.5790 33.9555   2
  19 -11  -7 70.7635 51.5460   2
  18 -11  -7-3.58888 24.8003   2
 -17 -11   7 74.2622 44.3384   1
  17 -11  -7 136.827 69.6824   2
  16 -11  -7 44.9008 42.4881   2
 -16 -11   7 27.7275 37.5571   1
 -15 -11   7 72.9622 43.3559   1
  15 -11  -7-6.52484 43.9907   2
 -14 -11   7 74.5255 56.3551   1
  14 -11  -7 44.3706 38.9668   2
  13 -11  -7 68.1999 48.1822   2
 -13 -11   7 2.80240 31.5814   1
 -12 -11   7 93.6507 52.3262   1
 -11 -11   7 211.636 68.2932   1
 -10  11   7 616.803 77.1635   1
 -10 -11   7 750.706 126.019   1
 -10 -11   7 799.941 82.9499   3
  -9 -11   7-2.03758 19.6956   3
  -9  11   7 16.5010 11.1340   1
  -9 -11   7 38.5502 33.7728   1
  -8  11   7 13.5020 15.9688   1
  -8 -11   7 24.5980 21.1570   3
  -8 -11   7 18.6883 35.3470   1
  -7 -11   7 51.9795 38.6599   1
  -7  11   7 8.78143 11.0210   1
  -7 -11   7 4.81728 25.0377   3
  -6 -11   7 799.966 121.074   1
  -6  11   7 999.346 64.9820   1
  -6 -11   7 883.955 101.973   3
  -5 -11   7 263.483 72.8704   1
  -5 -11   7 327.868 62.9144   3
  -4 -11   7 127.954 52.1064   1
  -4 -11   7 266.470 60.0408   3
  -3 -11   7-21.9767 26.9981   3
  -3 -11   7-16.9577 34.9213   1
  -2 -11   7 24.2131 23.9068   1
  -2 -11   7-31.7925 39.2831   2
  -1 -11   7 28.2491 32.8094   1
  -1 -11   7 0.17574 27.6013   2
   1 -11  -7 1.70030 8.81355   1
   0 -11  -7-0.45782 9.97789   1
   0 -11   7 1.99444 24.4637   2
   0 -11   7 7.91502 25.3391   1
  -1 -11  -7 30.8848 20.5243   1
   1 -11   7-19.8269 29.9395   2
   1 -11   7-29.2151 33.9447   1
  -2 -11  -7 178.919 42.6063   1
   2 -11   7 107.460 48.3602   1
   2 -11   7 108.220 62.5199   2
   3 -11   7 82.7144 44.2231   2
  -3 -11  -7 107.652 33.3852   1
  -4 -11  -7 117.811 42.9735   1
   4 -11   7 37.2393 50.0539   2
  -5 -11  -7 64.2088 36.2131   1
   5 -11   7-2.36072 39.4949   2
   6 -11   7 177.314 65.5233   2
  -6 -11  -7 196.543 52.7827   1
   7 -11   7 24.4118 34.8643   2
  -7 -11  -7 17.3067 19.3137   1
   8 -11   7 106.636 65.5056   2
  -8 -11  -7-16.5692 31.9375   1
  -9 -11  -7-20.1240 31.4168   1
   9 -11   7-52.9869 43.6713   2
 -10 -11  -7 126.755 49.8028   1
  10 -11   7 182.464 74.2973   2
  11 -11   7 93.4777 63.9266   2
 -11 -11  -7 58.3363 29.5286   1
  12 -11   7 44.2796 30.1468   2
 -12 -11  -7 92.5989 49.6416   1
 -12 -11  -7 38.0273 28.1709   3
 -13 -11  -7 46.3179 39.2666   1
 -14 -11  -7 65.3157 47.1035   1
 -15 -11  -7 28.7965 31.2528   1
  19 -12  -7-22.4092 30.6521   2
  18 -12  -7 61.7760 42.9381   2
  17 -12  -7-58.2115 46.8613   2
 -16 -12   7-76.3071 52.0520   1
  16 -12  -7 52.9274 61.4468   2
 -15 -12   7 29.8892 38.9155   1
  15 -12  -7 44.2072 49.6329   2
  14 -12  -7 24.9596 33.4198   2
 -14 -12   7 135.124 66.2845   1
  13 -12  -7 22.5332 44.9524   2
 -13 -12   7-55.3885 53.3390   1
 -12 -12   7 37.8254 45.4815   1
 -11 -12   7 53.4830 38.9881   1
 -10 -12   7 101.098 54.8955   1
  -9 -12   7 283.900 79.0272   1
  -8 -12   7-42.9558 35.5148   1
  -8 -12   7-34.5277 24.4564   3
  -7 -12   7 15.9985 20.5113   3
  -7 -12   7 37.9008 36.8186   1
  -7  12   7-0.81648 11.0162   1
  -6 -12   7 49.3635 32.3948   3
  -6 -12   7 76.6727 49.4617   1
  -6  12   7 20.7088 11.8375   1
  -5  12   7 46.4730 15.0246   1
  -5 -12   7-8.41484 26.9787   3
  -5 -12   7 26.6523 25.3225   1
  -4 -12   7 331.731 80.9702   1
  -3 -12   7 182.056 59.2479   1
  -2 -12   7 116.100 51.5936   1
  -2 -12   7 116.884 56.3914   2
  -1 -12   7 424.467 98.7362   2
   1 -12  -7 412.941 49.6396   1
  -1 -12   7 519.202 101.200   1
   0 -12  -7-2.94942 11.4225   1
   0 -12   7 61.0814 48.0459   2
   0 -12   7-58.5079 37.8701   1
   1 -12   7 375.147 99.3543   2
   1 -12   7 410.802 86.8797   1
  -1 -12  -7 401.420 58.3034   1
   2 -12   7 1.89504 26.9361   2
  -2 -12  -7 42.9180 22.9252   1
  -3 -12  -7 521.429 74.1913   1
   3 -12   7 453.750 109.970   2
   4 -12   7 7.60894 37.3612   2
  -4 -12  -7 25.0996 21.6385   1
  -5 -12  -7 4.88967 18.9087   1
   5 -12   7 0.92788 37.6927   2
  -6 -12  -7 197.254 53.1614   1
   6 -12   7 123.093 63.1486   2
  -7 -12  -7 123.456 47.4623   1
   7 -12   7 119.671 52.0446   2
   8 -12   7-84.0249 56.6219   2
  -8 -12  -7 4.12694 29.4200   1
   9 -12   7 56.9515 49.1332   2
  -9 -12  -7 160.936 58.8537   1
  10 -12   7 54.8016 48.5921   2
 -10 -12  -7 120.390 55.4727   1
 -11 -12  -7-42.2738 37.2767   1
 -12 -12  -7-20.4368 31.2307   1
  17 -13  -7 34.6913 38.0720   2
  16 -13  -7-37.6138 39.9604   2
  15 -13  -7 22.4615 32.3714   2
 -15 -13   7-21.9506 34.4286   1
  14 -13  -7 70.3109 56.7975   2
 -14 -13   7 43.4360 45.5630   1
 -13 -13   7 69.7134 50.2925   1
  13 -13  -7 27.5682 48.0196   2
 -12 -13   7-54.1349 44.1952   1
 -11 -13   7 63.1690 55.1219   1
 -10 -13   7 109.127 54.9958   1
  -9 -13   7 108.763 51.2533   1
  -8 -13   7 8.41987 30.4911   1
  -7 -13   7 157.095 63.1236   1
  -6 -13   7-3.20841 27.7656   1
  -5 -13   7 43.0690 41.1726   1
  -4 -13   7 199.172 62.6152   1
  -3 -13   7-27.7127 33.3658   1
  -3 -13   7 17.9786 26.9308   2
  -2 -13   7 35.0076 25.7197   1
  -2 -13   7-11.0118 40.6611   2
  -1 -13   7-55.1861 41.8937   2
   1 -13  -7 21.5587 12.4473   1
  -1 -13   7 46.5644 34.2016   1
   0 -13   7 81.0917 46.6725   2
   0 -13   7 138.923 52.3791   1
   0 -13  -7 52.5359 20.4577   1
  -1 -13  -7-18.0378 15.9888   1
   1 -13   7-11.2846 30.5698   2
   1 -13   7 19.3266 29.2788   1
  -2 -13  -7 17.6091 18.1590   1
   2 -13   7-29.1512 30.8297   2
  -3 -13  -7 103.344 38.7829   1
   3 -13   7 205.709 82.6957   2
  -4 -13  -7 41.9686 36.5048   1
   4 -13   7 57.2695 58.8892   2
   5 -13   7 11.4390 31.4235   2
  -5 -13  -7 57.6235 29.8992   1
   6 -13   7 172.506 72.2893   2
  -6 -13  -7 255.154 64.5963   1
   7 -13   7 48.9345 60.8170   2
   8 -13   7 47.3479 49.3272   2
   9 -13   7 64.4733 53.2772   2
  15 -14  -7-23.4111 36.6744   2
  14 -14  -7 5.63976 26.4139   2
 -13 -14   7 8.09031 32.5024   1
  13 -14  -7-110.473 62.8924   2
 -12 -14   7 115.871 69.1577   1
  12 -14  -7-99.9848 63.2311   2
 -11 -14   7 88.4423 55.5790   1
 -10 -14   7 66.5893 41.6767   1
  -9 -14   7 41.1711 53.1009   1
  -8 -14   7-0.21106 22.2030   1
  -7 -14   7 55.8996 43.9891   1
  -6 -14   7 11.5193 34.0338   1
  -5 -14   7 85.3420 44.6161   1
  -4 -14   7 1.37873 34.0612   1
  -3 -14   7-28.3906 36.0139   1
  -3 -14   7-19.0930 31.8516   2
  -2 -14   7-18.6097 40.1800   2
  -2 -14   7 92.1925 52.6454   1
  -1 -14   7-16.6187 43.7459   2
  -1 -14   7 11.4046 32.6628   1
   0 -14   7 160.007 71.6907   2
   0 -14   7 96.1539 47.6112   1
   1 -14   7 31.5917 43.2864   2
   1 -14   7 65.2926 44.7730   1
   2 -14   7-22.8453 34.4367   2
   3 -14   7 21.2022 40.8047   2
   4 -14   7-21.5294 36.4605   2
   5 -14   7-79.4651 54.5665   2
   6 -14   7-39.5201 61.9713   2
   7 -14   7-78.6167 57.3362   2
  12 -15  -7-19.8954 34.9668   2
 -11 -15   7 48.4834 38.3824   1
 -10 -15   7 68.3554 34.4002   1
  -9 -15   7-5.32928 34.8851   1
  -8 -15   7 382.770 99.9822   1
  -7 -15   7 15.2191 31.4466   1
  -6 -15   7 51.9880 44.4019   1
  -5 -15   7-111.413 56.5539   1
  -4 -15   7-2.54456 27.3994   1
  -3 -15   7 14.7938 37.8211   2
  -3 -15   7 3.14806 26.8080   1
  -2 -15   7 74.7572 43.5654   2
  -2 -15   7 38.5198 36.7133   1
  -1 -15   7-75.7528 52.3042   2
  -1 -15   7 14.8779 30.7522   1
   0 -15   7-65.2798 50.0002   2
   0 -15   7 103.698 55.3057   1
   1 -15   7 46.5607 33.0435   1
   1 -15   7 153.679 73.3373   2
   2 -15   7 27.4769 55.9990   2
   3 -15   7 74.2404 53.7944   2
   4 -15   7 17.2285 51.8280   2
   5 -15   7-59.5774 49.5590   2
  -8 -16   7 69.8143 65.6938   1
  -7 -16   7 100.895 51.2776   1
  -6 -16   7 15.3485 32.2955   1
  -5 -16   7 111.825 54.0495   1
  -4 -16   7 29.9083 27.0603   1
  -4 -16   7 17.9875 32.4117   2
  -3 -16   7 7.33957 25.2336   2
  -3 -16   7 3.12296 30.2013   1
  -2 -16   7-21.7389 33.1719   2
  -2 -16   7 6.39309 24.5470   1
  -1 -16   7 7.42372 27.8477   2
  -1 -16   7 14.7657 22.3035   1
   0 -16   7 95.7789 60.1320   2
   0 -16   7 75.1424 49.5741   1
   1 -16   7 82.7418 65.2294   2
   2 -16   7 28.0487 48.0479   2
   3 -16   7 118.649 62.1455   2
  -4 -17   7 30.0032 30.2558   2
  -3 -17   7 26.9703 41.5057   2
  -3 -17   7-26.3523 31.9463   1
  -2 -17   7 39.2797 43.2767   2
  -2 -17   7-28.0605 33.1627   1
  -1 -17   7 17.0558 36.2144   2
  -1 -17   7 43.2741 37.7830   1
 -23   0   8 354.819 84.7961   1
 -22   0   8 291.143 78.8667   1
 -21   0   8 287.775 73.9252   1
 -20   0   8 2106.15 175.713   1
 -19   0   8 386.332 73.8842   1
  19   0  -8 391.134 53.2316   2
 -18   0   8 1163.63 120.066   1
  18   0  -8 1129.45 86.5950   2
 -17   0   8 664.340 89.5441   1
  17   0  -8 861.362 72.2838   2
  16   0  -8 942.267 70.5396   2
 -16   0   8 871.153 96.6777   1
 -15   0   8 126.526 35.9173   1
  15   0  -8 413.381 42.7930   2
  14   0  -8 298.769 33.6946   2
 -14   0   8 265.049 50.7929   1
 -13   0   8 1615.29 119.296   1
  13   0  -8 1849.62 75.7910   2
 -12   0   8 1090.83 95.9250   1
  12   0  -8 1197.61 52.9363   2
 -11   0   8 22.6652 18.0565   1
  11   0  -8 263.012 20.4642   2
 -10   0   8-21.5630 24.0044   1
  -9   0   8 1776.49 114.191   1
  -8   0   8 10647.0 275.166   1
   7   0  -8 695.234 58.1161   1
  -7   0   8 834.405 81.9687   1
  -6   0   8 14733.0 310.016   1
   6   0  -8 14597.8 274.372   1
   6   0  -8 14700.9 178.859   2
   5   0  -8 2948.49 129.003   1
  -5   0   8 3029.16 135.563   1
   5   0  -8 2752.84 92.2131   2
   4   0  -8 95.7771 20.5766   2
  -4   0   8 92.1390 25.4910   1
   4   0  -8 92.7556 25.1050   1
   3   0  -8 542.709 57.5943   1
  -3   0   8 578.699 58.7710   1
   3   0  -8 559.148 52.4665   2
   2   0  -8 13.5245 11.3243   2
   2   0  -8-4.36449 19.7610   1
  -2   0   8 2.18352 13.2377   2
  -2   0   8 12.3095 11.9701   1
  -1   0   8 2843.08 124.095   2
   1   0  -8 2842.57 137.416   1
   1   0  -8 2917.77 140.119   2
   0   0   8 6040.86 193.740   2
   0   0  -8 5615.62 202.603   1
   0   0  -8 6177.83 217.019   2
  -1   0  -8 16157.5 344.954   1
   1   0   8 16398.7 338.734   2
  -1   0  -8 15976.9 371.600   2
  -2   0  -8 8158.58 282.719   2
  -2   0  -8 9005.44 268.063   1
   2   0   8 8641.86 259.318   2
  -3   0  -8 116.780 37.0723   2
  -3   0  -8 128.039 40.7090   1
   3   0   8 112.395 34.6115   2
  -4   0  -8 74.1710 34.4601   2
   4   0   8 118.129 38.8260   2
  -5   0  -8 5573.31 272.003   2
  -5   0  -8 5635.27 246.753   3
   5   0   8 5679.78 239.787   2
  -6   0  -8 1169.59 132.165   2
  -6   0  -8 1203.87 117.781   3
   6   0   8 1072.19 109.361   2
  -7   0  -8 3767.01 215.588   3
  -7   0  -8 3300.78 230.461   2
   7   0   8 3454.90 204.612   2
  -8   0  -8 99.0910 42.0214   3
   8   0   8 133.272 47.1561   2
  -9   0  -8 6749.08 313.039   3
   9   0   8 6468.98 298.756   2
 -10   0  -8 1028.79 128.192   3
  10   0   8 1090.20 128.423   2
 -11   0  -8 4155.26 263.562   3
  11   0   8 3758.00 245.131   2
 -12   0  -8 344.368 85.5447   3
  12   0   8 515.858 96.7551   2
 -13   0  -8 134.775 60.1396   3
  13   0   8 17.1301 27.8467   2
  14   0   8 311.255 78.5963   2
  15   0   8 1130.24 153.344   2
  16   0   8 232.308 73.1882   2
  17   0   8 156.876 66.2439   2
 -24   1   8 351.835 95.1030   1
 -23   1   8 397.880 90.8774   1
 -23  -1   8 390.674 91.0109   1
 -22   1   8 804.336 119.652   1
 -22  -1   8 763.620 120.423   1
 -21   1   8 191.341 58.4063   1
 -21  -1   8 73.6084 45.4751   1
  20  -1  -8 55.9060 24.6320   2
 -20  -1   8 42.4159 32.7017   1
 -20   1   8 61.1374 38.1066   1
 -19  -1   8-6.36260 22.6542   1
 -19   1   8 8.24938 20.2750   1
  19  -1  -8 5.61833 16.7099   2
 -18  -1   8 51.2812 25.2663   1
 -18   1   8 70.4453 30.5969   1
  18  -1  -8 52.3444 21.9624   2
  17  -1  -8 334.946 49.1524   2
 -17  -1   8 263.375 57.5864   1
  17   1  -8 215.185 27.6203   3
 -17   1   8 288.874 56.1287   1
 -16  -1   8 32.8009 28.9888   1
 -16   1   8 53.8083 30.4799   1
  16   1  -8-13.7632 11.5017   3
  16  -1  -8 21.8838 16.9529   2
 -15   1   8 801.524 85.5995   1
 -15  -1   8 747.012 89.6749   1
  15  -1  -8 779.353 67.6730   2
  14  -1  -8 231.788 35.1336   2
 -14  -1   8 150.307 43.1129   1
 -14   1   8 207.802 44.5670   1
  13  -1  -8 77.2115 20.8151   2
 -13   1   8 71.8198 34.3547   1
 -13  -1   8 13.3089 21.3821   1
  12  -1  -8 804.162 58.7364   2
 -12  -1   8 701.392 82.3672   1
 -12   1   8 635.697 69.0390   1
 -11   1   8 61.6893 24.0882   1
  11  -1  -8 70.2037 17.6714   2
 -11  -1   8 41.2503 21.6983   1
 -10  -1   8 430.112 60.6827   1
  10  -1  -8 394.691 37.5136   2
 -10   1   8 415.567 53.0243   1
  -9   1   8-11.6578 21.8800   1
   9  -1  -8 41.1758 15.9393   2
  -9  -1   8 15.2176 22.6738   1
  -8   1   8 290.317 46.2925   1
  -8  -1   8 289.088 53.8093   1
   8   1  -8 231.092 37.0590   1
  -7  -1   8 6929.55 231.689   1
  -7   1   8 6609.39 195.390   1
   7   1  -8 6595.93 200.500   1
   6   1  -8 656.996 47.3686   2
  -6  -1   8 475.652 78.0588   1
  -6   1   8 427.131 61.6296   1
  -5   1   8 9291.69 213.979   1
  -5  -1   8 9613.34 262.513   1
   5   1  -8 9854.52 177.409   2
   5  -1  -8 8812.62 194.599   1
   5  -1  -8 10078.0 185.053   2
   5   1  -8 9516.14 255.070   1
  -4   1   8 107.443 25.2689   1
   4   1  -8 48.4329 21.7469   1
   4   1  -8 113.278 23.0190   2
  -4  -1   8 65.6516 25.0416   1
   4  -1  -8 111.840 24.0506   1
  -4  -1   8 125.896 21.3388   2
   4  -1  -8 114.111 21.3303   2
   3   1  -8 3810.20 140.107   2
   3   1  -8 3616.79 161.119   1
   3  -1  -8 3643.76 135.463   1
   3   1  -8 3627.76 146.027   3
  -3   1   8 3817.15 130.422   1
  -3  -1   8 3722.79 120.045   2
   3  -1  -8 3762.25 135.970   2
  -3  -1   8 3824.79 158.209   1
   2   1  -8 49.4727 21.9117   2
   2   1  -8-13.7478 19.6336   1
   2   1  -8 8.20882 16.6641   3
   2  -1  -8 18.6135 9.69437   1
  -2  -1   8 35.2176 16.2124   2
  -2  -1   8 18.3051 13.7065   1
   2  -1  -8 6.71674 10.3673   2
   1   1  -8 18703.9 366.689   2
  -1  -1   8 19786.7 354.034   1
  -1  -1   8 19306.2 329.871   2
   1  -1  -8 18311.1 348.361   2
   1  -1  -8 18616.5 322.743   1
   1   1  -8 18006.8 373.928   1
   0   1  -8 20372.9 411.473   2
   0  -1  -8 19701.3 347.324   1
   0   1  -8 20489.0 400.904   1
   0  -1   8 20499.5 364.649   2
   0  -1  -8 20183.9 387.580   2
  -1   1  -8 8047.55 273.287   2
  -1  -1  -8 8180.50 235.720   1
   1   1   8 8334.55 237.557   2
  -1   1  -8 8356.19 263.167   1
   1  -1   8 8277.78 246.667   2
  -1  -1  -8 8442.62 267.910   2
  -2   1  -8 5249.28 234.106   2
  -2  -1  -8 5279.26 193.379   1
  -2   1  -8 5172.13 217.539   1
   2   1   8 5266.56 200.318   2
   2  -1   8 5091.65 206.295   2
  -2  -1  -8 5467.83 227.003   2
  -3   1  -8 628.668 85.8399   2
  -3   1  -8 590.962 74.8751   1
   3   1   8 596.517 72.6088   2
   3  -1   8 540.307 71.8217   2
  -3  -1  -8 487.859 73.5794   2
  -4  -1  -8 305.109 61.7702   2
  -4   1  -8 245.965 57.9602   2
  -4  -1  -8 351.358 61.2330   3
  -4   1  -8 400.895 64.0530   1
   4  -1   8 254.988 51.8720   2
   4   1   8 355.618 58.1293   2
  -5  -1  -8 233.463 58.4230   2
  -5   1  -8 272.167 62.9397   2
  -5  -1  -8 218.494 49.2612   3
  -5   1  -8 244.220 51.9746   3
   5   1   8 154.460 41.2299   2
   5  -1   8 189.150 48.2634   2
  -6  -1  -8 1379.93 141.190   2
  -6   1  -8 1582.01 155.443   2
  -6  -1  -8 1601.37 134.565   3
  -6   1  -8 1715.70 145.440   3
   6   1   8 1529.07 128.734   2
   6  -1   8 1416.07 130.742   2
  -7  -1  -8 65.2558 31.7902   2
  -7  -1  -8 78.9268 35.2739   3
  -7   1  -8 80.2817 32.7548   2
  -7   1  -8 112.828 47.3580   3
   7   1   8 59.0384 23.1969   2
   7  -1   8 141.992 46.8591   2
  -8  -1  -8 1268.55 128.993   3
  -8   1  -8 1369.00 140.882   3
   8   1   8 1221.47 124.254   2
   8  -1   8 1398.77 139.557   2
  -9  -1  -8 137.877 48.9881   3
  -9   1  -8 106.253 47.2317   3
   9   1   8 158.754 50.9743   2
   9  -1   8 131.961 47.9961   2
  10   1   8 72.9552 38.4572   2
 -10  -1  -8 22.4653 34.8197   3
 -10   1  -8 15.8670 32.8542   3
  10  -1   8 105.319 48.4925   2
 -11  -1  -8-33.0222 37.5969   3
 -11   1  -8 41.1689 38.0195   3
  11   1   8-31.8472 34.0905   2
  11  -1   8 41.9492 35.5522   2
 -12  -1  -8 240.533 71.5749   3
 -12   1  -8 243.544 68.0695   3
  12   1   8 282.373 70.3739   2
  12  -1   8 274.928 72.3357   2
 -13  -1  -8 430.888 92.2397   3
  13   1   8 401.469 86.1163   2
  13  -1   8 540.096 101.417   2
 -14  -1  -8 373.315 92.1131   3
  14   1   8 342.974 83.7536   2
  14  -1   8 405.429 89.9131   2
  15   1   8-11.1307 25.9362   2
  15  -1   8 52.9069 41.0587   2
  16  -1   8 341.898 88.0697   2
  16   1   8 259.461 76.9875   2
  17   1   8 47.5642 46.2834   2
  17  -1   8 33.3550 39.6163   2
 -24   2   8 24.6778 41.9797   1
 -23   2   8 677.307 117.274   1
 -23  -2   8 516.563 107.309   1
 -22  -2   8 30.3749 43.1009   1
 -22   2   8 131.018 51.1597   1
 -21   2   8 875.868 119.426   1
 -21  -2   8 638.302 107.078   1
 -20   2   8 185.019 57.9966   1
 -20  -2   8 97.2514 42.6685   1
  20  -2  -8 108.656 34.1790   2
  19  -2  -8 236.356 49.0534   2
 -19  -2   8 151.529 49.3096   1
 -19   2   8 161.284 47.6080   1
  18  -2  -8 7.94378 15.0647   2
 -18  -2   8 44.6711 29.9622   1
 -18   2   8 7.85958 23.4116   1
  17  -2  -8 13.1671 17.7268   2
 -17  -2   8-32.4401 33.6533   1
 -17   2   8 2.45028 20.2204   1
 -16  -2   8-1.71090 28.8963   1
  16  -2  -8 5.94013 15.9422   2
 -16   2   8 51.1016 31.2016   1
  15  -2  -8 190.076 38.2225   2
 -15   2   8 261.352 49.7975   1
 -15  -2   8 151.991 43.6119   1
  14  -2  -8 1015.24 85.6502   2
 -14  -2   8 997.494 109.080   1
 -14   2   8 1136.71 93.1231   1
  13  -2  -8 735.387 72.0937   2
 -13   2   8 684.616 69.6594   1
 -13  -2   8 645.565 83.1619   1
 -12   2   8 2633.23 131.033   1
  12  -2  -8 2628.39 128.333   2
 -12  -2   8 2634.30 166.569   1
 -11  -2   8 383.329 63.1687   1
  11  -2  -8 506.659 56.4591   2
 -11   2   8 483.598 54.6779   1
 -10   2   8 37.0003 18.7220   1
  10  -2  -8 19.1252 17.8926   2
 -10  -2   8-2.75255 19.0208   1
  -9   2   8 478.129 52.6800   1
   9   2  -8 476.421 57.1084   1
  -9  -2   8 437.694 66.0526   1
  -8   2   8 9071.84 219.669   1
   8   2  -8 9476.13 254.715   1
  -8  -2   8 9348.98 288.392   1
   8   2  -8 9109.63 185.069   3
  -7  -2   8 3251.17 172.148   1
   7   2  -8 3339.92 118.195   3
   7   2  -8 3323.33 158.248   1
  -7   2   8 3126.75 124.009   1
  -6  -2   8 5128.71 80.3495   2
   6   2  -8 5546.16 211.168   1
  -6  -2   8 5803.65 221.817   1
  -6   2   8 5668.27 156.297   1
   6   2  -8 5445.18 158.617   3
   5   2  -8 61.9267 21.6054   3
  -5   2   8 21.3998 10.9604   1
  -5  -2   8 65.3027 30.5269   1
   5   2  -8 11.0996 14.7361   1
   5  -2  -8 34.3223 11.6570   1
  -5  -2   8 25.3693 9.04443   2
  -4  -2   8 1561.18 111.628   1
   4  -2  -8 1506.82 70.8175   1
   4   2  -8 1712.33 92.5160   2
   4   2  -8 1702.68 98.1241   3
   4   2  -8 1571.27 113.890   1
  -4   2   8 1639.40 75.5128   1
  -4  -2   8 1504.02 73.0032   2
   3   2  -8 3179.54 139.943   2
   3   2  -8 3208.14 163.494   1
   3  -2  -8 2943.37 105.709   1
   3   2  -8 3236.75 141.611   3
   3  -2  -8 3065.88 126.928   2
  -3  -2   8 3094.20 153.017   1
  -3  -2   8 3191.37 119.461   2
   2  -2  -8 2617.25 106.120   1
   2   2  -8 2729.62 151.631   1
   2   2  -8 2665.68 137.741   2
   2   2  -8 2956.56 141.543   3
  -2  -2   8 2790.08 145.557   1
   2  -2  -8 2616.97 124.061   2
  -2  -2   8 2910.24 125.762   2
  -1  -2   8 2.78431 19.3575   2
   1  -2  -8 20.5640 12.6829   1
   1   2  -8 28.5919 25.5086   3
   1  -2  -8 20.6368 13.8255   2
   1   2  -8 21.1816 20.7625   1
   1   2  -8 40.7330 23.8471   2
  -1  -2   8 19.1915 20.9495   1
   0   2  -8 900.863 91.2249   2
   0  -2  -8 952.506 74.5611   1
   0  -2  -8 780.031 79.4508   2
   0   2  -8 1080.42 98.0147   1
   0  -2   8 937.380 83.3023   2
  -1   2  -8 2301.56 152.866   2
  -1  -2  -8 2018.23 133.120   2
  -1  -2  -8 2238.82 114.994   1
  -1   2  -8 2208.05 145.370   1
   1  -2   8 2120.21 130.693   2
  -2   2  -8 1516.64 130.479   2
  -2   2  -8 1565.42 125.498   1
  -2  -2  -8 1176.40 105.932   2
   2  -2   8 1404.26 113.231   2
  -3  -2  -8 398.894 64.8137   2
   3  -2   8 442.888 67.3234   2
  -3   2  -8 403.742 71.7234   2
  -3   2  -8 502.909 72.5122   1
   4  -2   8 22.4826 30.5264   2
  -4  -2  -8 6.61183 13.5142   2
  -4   2  -8 35.3974 25.8744   2
  -4  -2  -8 4.49707 23.7191   3
  -4   2  -8 17.8906 26.5503   1
   5  -2   8 370.629 67.5447   2
  -5  -2  -8 357.481 66.8339   2
  -5   2  -8 320.605 69.9122   2
  -5  -2  -8 333.836 59.7731   3
  -5   2  -8 332.672 63.4189   1
  -5   2  -8 321.328 62.3943   3
   6  -2   8 216.417 59.2198   2
  -6  -2  -8 161.084 53.7942   2
  -6   2  -8 249.463 63.9025   2
  -6  -2  -8 154.087 50.8023   3
  -6   2  -8 234.613 57.6576   3
   6   2   8 206.381 50.9024   2
   7  -2   8 235.052 59.8916   2
   7   2   8 241.574 55.9962   2
  -7  -2  -8 210.247 55.8292   3
  -7   2  -8 210.714 57.4101   3
   8  -2   8 35.5554 28.3159   2
   8   2   8 82.2313 35.7478   2
  -8  -2  -8 82.0692 37.3527   3
  -8   2  -8 161.071 54.4783   3
   9  -2   8 54.0927 32.2083   2
  -9  -2  -8 72.5788 39.9898   3
  -9   2  -8 27.6164 34.3595   3
   9   2   8 50.5475 28.5438   2
  10  -2   8 57.8313 34.2048   2
  10   2   8 93.7643 40.8692   2
 -10  -2  -8 124.262 46.5598   3
 -10   2  -8 65.1488 37.3078   3
  11   2   8 16.8343 25.0971   2
 -11  -2  -8 35.5719 31.9891   3
  11  -2   8-17.6182 36.6850   2
 -12  -2  -8 128.871 51.0687   3
  12   2   8 142.429 53.9737   2
  12  -2   8 112.868 45.8877   2
 -13  -2  -8 1193.09 145.094   3
  13  -2   8 1353.20 162.913   2
 -14  -2  -8 48.4740 40.0910   3
  14  -2   8 31.4973 25.7408   2
 -15  -2  -8 889.423 135.000   3
  15  -2   8 774.749 127.729   2
  16  -2   8-10.0960 26.4210   2
 -24   3   8 234.071 76.9307   1
 -23   3   8 200.517 68.6312   1
 -23  -3   8-21.6085 27.4851   1
 -22   3   8 48.3733 46.1392   1
 -22  -3   8 16.6224 33.4402   1
 -21   3   8 236.406 63.9090   1
 -21  -3   8 263.321 69.5597   1
 -20  -3   8 880.930 126.963   1
  20  -3  -8 784.603 96.1043   2
  19  -3  -8 141.690 40.3470   2
 -19  -3   8 154.270 57.5492   1
  18  -3  -8 149.328 43.9187   2
 -18  -3   8 101.139 28.7365   2
 -18  -3   8 168.020 54.7150   1
  17  -3  -8 120.511 36.3534   2
 -17  -3   8 126.166 32.7121   2
 -17  -3   8 143.631 50.9842   1
  16  -3  -8 51.3486 28.3630   2
 -16  -3   8 18.3421 26.7998   1
 -16  -3   8 6.66132 11.3935   2
  15  -3  -8 2396.68 149.733   2
 -15  -3   8 2224.48 172.103   1
 -15  -3   8 2462.25 117.277   2
  14  -3  -8 56.6024 26.8707   2
 -14  -3   8 99.2515 38.8989   1
 -14  -3   8 68.9231 18.8455   2
 -13  -3   8-24.3075 45.2025   1
  13  -3  -8 30.7121 20.6098   2
 -13  -3   8 22.5454 9.12815   2
 -13   3   8 63.7092 30.8821   1
 -12   3   8 26.6261 18.6913   1
  12  -3  -8 3.41743 14.3216   2
 -12  -3   8-50.7708 41.9563   1
  11   3  -8 16.1445 7.67298   3
 -11   3   8 20.8137 15.7961   1
  11  -3  -8 19.9621 20.1297   2
 -11  -3   8 37.4956 30.5187   1
  10   3  -8 147.512 20.3995   3
 -10  -3   8 94.5544 37.6538   1
  10  -3  -8 136.526 43.2504   2
  -9   3   8 3496.17 128.342   1
   9   3  -8 3690.23 167.671   1
   9   3  -8 3599.45 106.649   3
  -9  -3   8 3736.60 193.274   1
  -8  -3   8 644.603 84.3715   1
  -8   3   8 565.534 52.4961   1
   8   3  -8 690.719 50.7959   3
   8   3  -8 705.185 76.3203   1
  -7  -3   8 7446.49 271.700   1
   7   3  -8 7899.04 264.302   1
   7   3  -8 7384.30 178.030   3
  -7   3   8 7413.21 170.806   1
   6   3  -8 4180.03 195.707   1
  -6  -3   8 4562.34 205.838   1
  -6   3   8 4211.35 117.515   1
   6   3  -8 4320.19 143.581   3
  -6  -3   8 4415.72 106.050   2
  -5  -3   8 718.470 51.3708   2
  -5  -3   8 589.199 78.0876   1
   5   3  -8 641.192 59.8646   3
   5   3  -8 535.805 71.4654   1
  -5   3   8 555.175 37.8612   1
  -4  -3   8 363.666 41.8765   2
   4   3  -8 366.991 48.4918   3
   4  -3  -8 346.846 21.5550   1
   4   3  -8 360.888 58.2526   1
  -4  -3   8 335.955 57.4582   1
  -3  -3   8 94.0637 26.0337   2
  -3  -3   8 66.5298 27.4966   1
   3  -3  -8 53.2123 12.0300   1
   3   3  -8 74.5229 26.1909   2
   3   3  -8 75.7401 26.4055   3
   3   3  -8 27.0496 17.8571   1
  -2  -3   8 43.2940 19.7445   1
  -2  -3   8 21.7453 14.9239   2
   2   3  -8 12.9390 19.7595   2
   2   3  -8-10.0878 18.0461   3
   2  -3  -8-0.62683 7.44439   1
   2   3  -8 4.05542 13.3882   1
  -1  -3   8 2355.12 133.219   2
   1   3  -8 2282.44 148.733   1
   1   3  -8 1975.31 136.160   2
   1   3  -8 2260.63 131.867   3
  -1  -3   8 2236.88 138.951   1
   1  -3  -8 2149.60 90.8263   1
   1  -3  -8 2223.31 127.000   2
   0  -3   8 3410.87 168.813   1
   0  -3   8 3483.41 171.203   2
   0   3  -8 3115.50 179.664   2
   0  -3   8 3377.82 164.147   3
   0  -3  -8 3592.10 168.985   2
   0  -3  -8 3584.42 128.634   1
   0   3  -8 3549.07 186.838   1
  -1   3  -8 1953.40 148.335   2
   1  -3   8 1611.73 117.844   3
   1  -3   8 1889.95 132.027   2
  -1  -3  -8 1698.92 121.958   2
  -1   3  -8 1663.29 133.950   1
  -2   3  -8 427.496 68.7789   1
   2  -3   8 433.469 67.1793   2
   2  -3   8 384.920 61.1964   3
  -2   3  -8 382.531 72.0203   2
  -2  -3  -8 430.278 65.1907   2
  -3   3  -8 4283.93 241.379   2
   3  -3   8 3841.39 194.155   3
  -3   3  -8 4375.75 221.969   1
  -3  -3  -8 4169.22 210.042   2
   3  -3   8 3973.50 206.965   2
  -4   3  -8 2294.63 184.210   2
  -4   3  -8 2383.15 169.852   1
  -4  -3  -8 2331.41 166.038   2
   4  -3   8 2345.41 156.119   3
   4  -3   8 2218.69 161.470   2
  -5  -3  -8 350.561 68.6445   2
   5  -3   8 423.049 74.8402   2
  -5   3  -8 493.701 83.7208   3
  -5   3  -8 534.801 93.7492   2
  -5   3  -8 482.719 79.3710   1
   5  -3   8 405.465 68.1329   3
  -6  -3  -8 52.2426 32.0258   2
   6  -3   8 91.1880 41.0684   2
   6  -3   8 57.3284 25.5014   3
  -6   3  -8 13.0805 21.8155   2
  -6  -3  -8-11.0554 20.1448   3
  -6   3  -8-6.72301 25.8646   3
  -6   3  -8 51.6500 33.7669   1
   7  -3   8 79.8346 42.5591   2
  -7   3  -8 69.7761 46.3614   3
  -7  -3  -8 45.8862 32.0617   3
   8  -3   8 117.464 42.6495   2
  -8  -3  -8 94.8874 37.5883   3
  -8   3  -8 74.4209 46.3351   3
   9  -3   8 208.824 60.0176   2
  -9  -3  -8 187.671 54.1782   3
  10  -3   8-18.1647 39.2723   2
 -10  -3  -8-33.4551 31.5969   3
  11  -3   8 479.272 96.4107   2
 -11  -3  -8 373.268 75.5926   3
  12  -3   8 75.4455 40.9478   2
 -12  -3  -8 95.0446 53.3049   3
  13  -3   8 92.4941 50.5478   2
 -13  -3  -8 12.9664 24.7063   3
 -14  -3  -8 910.411 129.002   3
  14  -3   8 975.416 148.822   2
  15  -3   8 66.0069 48.0291   2
 -15  -3  -8 56.8786 38.0715   3
 -16  -3  -8 452.468 102.117   3
  16  -3   8 495.425 112.976   2
 -24   4   8 130.281 62.1604   1
 -22  -4   8 34.3907 29.3034   1
 -21  -4   8 108.172 50.4047   1
  20  -4  -8 97.4593 37.1941   2
 -20  -4   8 129.921 57.2994   1
  19  -4  -8 58.0331 28.2644   2
 -19  -4   8 10.4011 24.0841   1
  18  -4  -8 28.9249 25.2068   2
 -18  -4   8-22.4227 43.1757   1
  17  -4  -8 113.277 34.0382   2
 -17  -4   8 77.9815 40.0879   1
 -17  -4   8 71.4438 23.4277   2
  16  -4  -8 50.1566 29.6981   2
 -16  -4   8 14.6330 27.3033   1
 -16  -4   8 42.1355 19.4250   2
 -15  -4   8-32.2833 44.4656   1
  15  -4  -8-69.2047 31.4197   2
 -15  -4   8 4.75301 9.86293   2
 -14  -4   8 1509.23 145.520   1
 -14  -4   8 1426.69 81.9344   2
  14  -4  -8 1367.87 125.933   2
 -13  -4   8 1597.59 145.691   1
 -13  -4   8 1585.85 76.0115   2
  13  -4  -8 1704.01 137.028   2
 -12  -4   8 164.682 21.8620   2
  12  -4  -8 221.260 52.9162   2
 -12  -4   8 39.0095 22.8153   1
 -11  -4   8 331.308 26.3811   2
 -11  -4   8 156.790 56.6526   1
  11  -4  -8 406.851 63.3040   2
 -10   4   8 1110.86 69.3041   1
  10   4  -8 1221.66 101.332   1
 -10  -4   8 1118.12 115.749   1
  -9  -4   8 302.648 66.1378   1
  -9  -4   8 224.418 23.6138   2
  -9  -4   8 218.049 19.3452   2
  -9   4   8 276.535 33.7857   1
   9   4  -8 277.164 51.2552   1
  -8  -4   8 495.641 77.5677   1
   8   4  -8 588.807 49.1546   3
   8   4  -8 496.186 69.1937   1
  -8  -4   8 594.354 43.2272   2
  -8   4   8 488.674 43.5297   1
   7   4  -8 73.7855 26.8114   1
  -7  -4   8 73.9843 18.6072   2
  -7   4   8 47.8938 14.2176   1
   7   4  -8 64.5119 21.3181   3
  -7  -4   8 82.4736 28.3882   1
   6   4  -8 4775.54 220.879   1
  -6  -4   8 5289.55 155.091   2
  -6   4   8 4325.93 93.3466   1
  -6  -4   8 5213.61 232.000   1
   6   4  -8 4983.08 162.953   3
  -5  -4   8 284.923 41.8454   2
   5   4  -8 210.905 48.0462   1
  -5  -4   8 230.953 51.9352   1
   5   4  -8 233.695 39.0365   3
  -4  -4   8 460.043 54.4378   2
  -4  -4   8 321.314 61.3255   1
   4   4  -8 464.686 58.2620   3
  -3  -4   8 326.903 58.4585   1
  -3  -4   8 305.616 49.7064   2
  -3  -4   8 295.833 45.3830   3
   3   4  -8 321.320 48.9359   3
  -2  -4   8 2472.66 140.125   2
   2  -4  -8 2071.23 59.1825   1
  -2  -4   8 2329.79 131.205   3
   2   4  -8 2377.70 136.981   3
  -2  -4   8 2415.74 153.374   1
  -1  -4   8 1632.18 119.320   2
   1   4  -8 1607.36 131.435   2
  -1  -4   8 1565.67 112.262   3
   1   4  -8 1630.33 117.912   3
  -1  -4   8 1759.10 129.072   1
   1  -4  -8 1465.23 65.5880   1
   0  -4   8 4292.35 202.355   2
   0   4  -8 3839.85 211.808   2
   0   4  -8 3828.29 187.550   3
   0  -4   8 3926.42 190.670   1
   0  -4   8 3910.31 183.837   3
   0  -4  -8 4130.98 188.966   2
   1  -4   8 560.296 77.1246   2
   1  -4   8 404.835 63.6447   3
  -1   4  -8 498.136 83.8889   2
  -1   4  -8 484.441 72.3501   3
  -1  -4  -8 449.285 66.0120   2
   2  -4   8 2511.35 168.327   2
  -2   4  -8 2335.23 179.700   2
   2  -4   8 2347.55 154.214   3
  -2  -4  -8 2586.98 163.176   2
  -2   4  -8 2454.19 169.361   1
  -3   4  -8 49.3873 28.8084   1
   3  -4   8-8.20179 24.0739   2
  -3   4  -8 13.5669 19.9392   2
   3  -4   8 21.3357 22.0552   3
  -3  -4  -8 24.5928 26.8051   2
  -4   4  -8 215.471 53.1040   1
   4  -4   8 161.358 48.7619   2
  -4   4  -8 168.283 55.4430   2
   4  -4   8 116.739 37.9102   3
  -4   4  -8 164.119 51.3712   3
  -4  -4  -8 117.797 39.2041   2
   5  -4   8 4548.61 249.001   2
  -5   4  -8 4535.03 279.783   2
   5  -4   8 4359.88 227.710   3
  -5   4  -8 4610.96 254.553   3
  -5   4  -8 4738.07 256.018   1
  -5  -4  -8 4135.68 234.015   2
  -6   4  -8 2511.20 217.849   2
   6  -4   8 2668.20 196.909   2
  -6   4  -8 2303.55 184.001   1
  -7  -4  -8 4433.89 228.196   3
   7  -4   8 3990.61 249.912   2
   8  -4   8 168.126 45.0709   2
  -8  -4  -8 170.863 51.0787   3
   9  -4   8-15.4296 43.9798   2
  -9  -4  -8-7.53177 31.3596   3
  10  -4   8-65.5116 51.4183   2
 -10  -4  -8-11.4186 26.0782   3
  11  -4   8 155.033 54.4623   2
 -11  -4  -8 133.658 49.8050   3
  12  -4   8 103.314 53.2975   2
 -12  -4  -8 26.3406 31.3311   3
  13  -4   8 102.217 47.6423   2
 -13  -4  -8 82.1465 37.8110   3
  14  -4   8-53.3001 48.7198   2
 -14  -4  -8-11.5279 24.9503   3
  15  -4   8 226.052 74.7529   2
 -15  -4  -8 150.820 63.2740   3
 -16  -4  -8 197.231 71.1147   3
  16  -4   8 217.151 80.2717   2
 -17  -4  -8 188.662 72.6856   3
 -22  -5   8 13.0115 29.2231   1
 -21  -5   8-43.9211 49.0880   1
  20  -5  -8 60.5971 30.5965   2
 -20  -5   8 124.059 55.7486   1
  19  -5  -8 98.9567 41.2614   2
 -19  -5   8-12.5260 40.9743   1
 -18  -5   8 2.66199 35.5982   1
  18  -5  -8 6.55130 21.4579   2
 -17  -5   8 140.815 44.1728   1
  17  -5  -8 130.718 46.7987   2
 -17  -5   8 208.674 44.2434   2
 -16  -5   8 53.5534 42.1146   1
 -16  -5   8 79.0706 26.6447   2
  16  -5  -8 55.1799 23.4636   2
 -15  -5   8 1749.01 165.849   1
 -15  -5   8 1488.28 94.7908   2
  15  -5  -8 1634.09 148.855   2
 -14  -5   8 1767.90 164.005   1
 -14  -5   8 1737.34 96.0437   2
  14  -5  -8 1772.01 152.614   2
  13  -5  -8 478.126 80.2565   2
 -13  -5   8 489.900 88.1923   1
 -13  -5   8 368.945 40.8439   2
  12  -5  -8 1073.29 118.290   2
 -12  -5   8 1231.32 131.978   1
 -12  -5   8 1141.29 65.4232   2
 -11  -5   8 1961.68 161.814   1
 -11  -5   8 1876.49 78.7376   2
  10   5  -8 1628.33 123.778   1
 -10  -5   8 1656.72 146.953   1
 -10  -5   8 1593.97 69.2865   2
  -9  -5   8 239.202 57.2856   1
  -9   5   8 246.690 28.9652   1
   9   5  -8 254.721 49.8707   1
  -8  -5   8 1371.25 128.722   1
  -8  -5   8 1419.75 86.9444   2
   8   5  -8 1666.20 133.046   1
  -8   5   8 1432.78 64.0811   1
   7   5  -8 544.609 78.0677   1
  -7  -5   8 523.755 56.7515   2
  -7   5   8 447.042 31.2719   1
  -7  -5   8 509.036 75.4380   1
  -6  -5   8 681.054 88.4790   1
  -6  -5   8 642.266 63.8260   2
  -5  -5   8 1454.04 127.666   1
  -5  -5   8 1358.92 100.034   2
  -5  -5   8 1301.05 87.9050   3
  -4  -5   8 2727.49 172.352   1
  -4  -5   8 2880.37 151.299   2
  -4  -5   8 2625.25 131.811   3
  -3  -5   8 1732.36 123.908   2
  -3  -5   8 1651.79 111.164   3
  -3  -5   8 1811.17 139.128   1
  -2  -5   8 3670.79 186.072   2
  -2  -5   8 3655.36 196.793   1
  -2  -5   8 3319.48 162.957   3
   1  -5  -8 1567.92 47.0416   1
  -1  -5   8 1898.49 138.198   2
  -1  -5   8 1607.38 119.727   3
   1  -5  -8 1614.34 59.3426   1
  -1  -5   8 2008.35 144.558   1
   0  -5   8 95.2485 36.4706   2
   0  -5   8 58.0642 27.8849   3
   0  -5   8 94.7280 35.5612   1
   1  -5   8 953.412 105.691   2
  -1   5  -8 1181.53 130.579   2
   1  -5   8 881.943 95.5083   3
   1  -5   8 978.913 102.566   1
  -1  -5  -8 1107.93 106.701   2
  -2   5  -8 201.553 55.4874   1
   2  -5   8 297.801 62.1691   2
   2  -5   8 209.021 49.8535   3
  -2   5  -8 263.695 66.8825   2
  -2  -5  -8 271.539 57.8939   2
   3  -5   8 1488.98 140.442   2
  -3   5  -8 1280.90 145.638   2
   3  -5   8 1243.42 119.550   3
  -3  -5  -8 1355.92 127.596   2
  -3   5  -8 1281.51 131.717   1
   4  -5   8 1113.90 127.519   2
   4  -5   8 987.262 110.052   3
  -4   5  -8 1101.73 139.559   2
  -4   5  -8 1022.37 120.266   1
  -4  -5  -8 886.187 106.389   2
   5  -5   8 1342.51 145.181   2
  -5   5  -8 1345.08 159.525   2
  -5   5  -8 1286.93 140.191   1
  -5  -5  -8 1231.96 130.691   2
   6  -5   8 2887.36 214.705   2
   7  -5   8 191.028 60.3055   2
  -8  -5  -8 334.508 68.2434   3
   8  -5   8 368.618 82.1754   2
   9  -5   8 154.758 55.1403   2
  -9  -5  -8 164.439 49.4073   3
 -10  -5  -8-22.2499 26.1170   3
  10  -5   8-12.0934 25.4457   2
  11  -5   8 300.766 80.8822   2
 -11  -5  -8 261.163 64.1789   3
  12  -5   8 61.1175 43.0548   2
 -12  -5  -8 25.1335 22.7066   3
 -13  -5  -8 627.668 103.324   3
  13  -5   8 771.748 133.099   2
  14  -5   8 57.1319 44.2503   2
 -14  -5  -8-16.4543 26.3286   3
  15  -5   8 122.746 66.0185   2
 -15  -5  -8-23.7015 26.4398   3
 -16  -5  -8 26.6105 29.3858   3
 -17  -5  -8 2.71232 33.1424   3
 -21  -6   8-41.9297 28.1988   1
 -20  -6   8 11.8318 34.9177   1
  20  -6  -8 72.6048 39.2513   2
 -19  -6   8-35.0639 41.8505   1
  19  -6  -8 19.8992 25.2146   2
  18  -6  -8 330.565 75.4176   2
 -18  -6   8 359.379 86.6307   1
  17  -6  -8-16.0785 37.7660   2
 -17  -6   8 1.84218 28.6732   1
 -16  -6   8 130.309 32.4493   2
  16  -6  -8 178.514 56.4747   2
 -16  -6   8 190.710 61.1797   1
 -15  -6   8 5.90087 9.44850   2
  15  -6  -8 7.38951 26.6646   2
 -15  -6   8 5.90821 26.7170   1
 -14  -6   8 91.0303 24.0821   2
  14  -6  -8 85.0295 36.2112   2
 -14  -6   8 45.5083 39.1670   1
  13  -6  -8 1214.57 133.493   2
 -13  -6   8 1224.34 142.255   1
 -13  -6   8 1240.92 81.2024   2
 -12  -6   8 44.9709 35.3391   1
  12  -6  -8 19.6443 21.4568   2
 -12  -6   8 10.9332 8.32335   2
 -11  -6   8 2377.99 100.772   2
 -11  -6   8 2349.40 184.136   1
 -10  -6   8 628.241 96.9551   1
  10   6  -8 619.491 82.4034   1
  -9  -6   8 431.505 80.6155   1
   9   6  -8 307.888 61.2174   1
  -8   6   8 431.401 31.2582   1
   8   6  -8 459.578 75.1700   1
  -8   6   8 449.207 37.0710   1
  -8  -6   8 430.278 76.8326   1
   7   6  -8 104.334 35.0925   1
  -7  -6   8 116.038 29.2415   2
  -7  -6   8 75.9899 37.1579   1
  -6  -6   8 201.300 35.9875   3
  -6  -6   8 189.128 40.6354   2
  -6  -6   8 120.054 42.6452   1
   6   6  -8 170.740 47.1363   1
  -5  -6   8 268.407 60.3136   1
  -5  -6   8 228.317 47.1978   2
  -5  -6   8 239.424 42.2123   3
  -4  -6   8 3915.44 171.955   3
  -4  -6   8 3952.08 193.030   2
  -4  -6   8 3926.69 216.974   1
  -3  -6   8 1368.65 119.471   2
  -3  -6   8 1457.26 109.754   3
  -3  -6   8 1438.09 129.062   1
  -2  -6   8 524.424 82.2546   1
  -2  -6   8 632.411 85.1210   2
  -2  -6   8 510.371 66.8242   3
   1  -6  -8 72.7874 11.7746   1
  -1  -6   8 58.2860 26.6460   2
   1  -6  -8 47.6883 9.35629   1
  -1  -6   8 97.7922 35.5721   3
  -1  -6   8 156.940 51.4441   1
   0  -6  -8 668.885 43.0847   1
   0  -6   8 705.402 96.5568   2
   0  -6   8 640.899 82.0400   3
   0  -6   8 651.181 87.3184   1
  -1  -6  -8 290.396 30.3132   1
   1  -6   8 189.022 52.9017   2
  -1   6  -8 206.333 55.5903   1
   1  -6   8 221.886 51.7651   3
   1  -6   8 274.880 56.6053   1
  -2   6  -8 383.283 76.2323   1
   2  -6   8 381.782 76.0996   2
   2  -6   8 354.353 62.4806   3
  -2  -6  -8 465.264 76.4519   2
   3  -6   8 1373.88 128.542   3
   3  -6   8 1314.06 139.783   2
  -3  -6  -8 1468.07 138.356   2
  -3   6  -8 1188.70 133.098   1
  -4   6  -8 280.271 72.0401   2
   4  -6   8 212.844 58.5552   2
   5  -6   8 1305.81 147.605   2
   6  -6   8 151.908 57.3690   2
   7  -6   8 151.833 62.7127   2
   8  -6   8 1376.37 160.422   2
   9  -6   8 30.9363 26.7716   2
  -9  -6  -8 91.8459 35.6647   3
  10  -6   8 437.237 99.8755   2
 -10  -6  -8 361.422 73.2280   3
  11  -6   8 161.246 65.3499   2
 -11  -6  -8 256.411 65.1424   3
  12  -6   8 241.154 77.5306   2
 -12  -6  -8 152.565 52.9080   3
  13  -6   8 31.7801 29.8357   2
 -13  -6  -8-43.0125 41.5597   3
  14  -6   8-22.9960 33.6843   2
 -14  -6  -8 6.92551 24.7710   3
  15  -6   8-1.40133 33.9043   2
 -15  -6  -8 23.8917 33.3994   3
 -16  -6  -8 61.9672 34.2427   3
  20  -7  -8 17.0056 25.7634   2
 -20  -7   8 41.2612 44.1674   1
  19  -7  -8-35.3996 32.6257   2
 -19  -7   8 39.0732 45.4684   1
  18  -7  -8 21.1651 23.3403   2
 -18  -7   8 33.8448 33.3340   1
  17  -7  -8-35.2570 38.7809   2
 -17  -7   8 30.0463 44.4459   1
  16  -7  -8 214.162 67.3997   2
 -16  -7   8 285.106 80.7449   1
  15  -7  -8 477.037 92.8929   2
 -15  -7   8 457.445 92.3994   1
 -15  -7   8 424.637 55.5275   2
  14  -7  -8 120.295 48.1716   2
 -14  -7   8 76.7428 45.9648   1
 -14  -7   8 69.9908 22.7837   2
  13  -7  -8 1364.80 148.300   2
 -13  -7   8 1355.96 150.534   1
 -13  -7   8 1315.14 90.1433   2
 -12  -7   8 705.882 111.711   1
  12  -7  -8 606.788 98.5880   2
 -12  -7   8 659.261 61.5389   2
 -11  -7   8 1733.84 166.347   1
 -10  -7   8 1650.47 160.887   1
  -9   7   8 83.0486 22.3550   1
  -9  -7   8 76.5694 37.0482   1
   8   7  -8 541.828 85.4950   1
  -8  -7   8 429.324 77.9466   1
  -8   7   8 459.525 40.3873   1
  -8  -7   8 538.334 54.2645   3
   7   7  -8 361.460 69.4112   1
  -7  -7   8 334.401 45.9554   3
  -7  -7   8 347.212 72.8507   1
  -6  -7   8 15.4288 14.4198   3
  -6  -7   8-37.4074 38.2152   1
  -6  -7   8-19.9374 22.3556   2
   6   7  -8-63.9983 32.6346   1
  -5  -7   8 132.138 41.5717   1
   5   7  -8 155.654 43.3015   1
  -5  -7   8 117.607 33.4170   3
  -5  -7   8 116.236 36.3998   2
   4   7  -8 187.748 54.8031   1
  -4  -7   8 270.818 64.2122   1
  -4  -7   8 232.316 53.6857   2
  -4  -7   8 211.298 43.5000   3
   3   7  -8-8.12047 28.4436   1
  -3  -7   8-3.90672 27.3937   1
  -3  -7   8-13.1268 23.9645   3
  -3  -7   8-11.1144 27.1733   2
  -2  -7   8 205.072 56.0008   1
  -2  -7   8 184.872 45.0165   3
  -2  -7   8 173.119 49.3947   2
   2   7  -8 206.978 52.3229   1
  -1  -7   8-5.74273 27.0208   1
   1  -7  -8 4.20330 4.76472   1
  -1  -7   8 6.40509 22.9501   2
  -1  -7   8 8.61253 16.0796   3
   1   7  -8-9.61795 29.1271   1
   0  -7  -8 25.4965 12.1072   1
   0  -7   8-6.79125 27.9590   2
   0   7  -8 51.3436 31.0605   1
   0  -7   8 6.24182 24.0502   1
   0  -7   8 25.6609 18.6881   3
  -1  -7  -8 75.0198 19.3016   1
   1  -7   8 122.713 43.3288   2
  -1   7  -8 97.2536 43.8617   1
   1  -7   8 66.0116 28.9238   3
   1  -7   8 101.023 35.8696   1
  -2   7  -8 1271.94 139.727   1
   2  -7   8 1199.74 137.372   2
  -2  -7  -8 1273.72 78.7602   1
   2  -7   8 1240.85 125.294   3
  -3  -7  -8 977.972 72.5647   1
   3  -7   8 926.034 122.377   2
  -4  -7  -8 66.8436 25.9896   1
   4  -7   8 90.3433 48.7580   2
   5  -7   8 1117.96 143.724   2
  -5  -7  -8 1403.47 96.0332   1
   6  -7   8 1772.27 183.121   2
   7  -7   8 380.941 88.8976   2
   8  -7   8 77.1909 49.0781   2
   9  -7   8 70.8504 48.4441   2
  10  -7   8 58.6783 45.5703   2
 -10  -7  -8 38.4536 28.8468   3
  11  -7   8 262.636 83.6873   2
 -11  -7  -8 249.268 64.1801   3
  12  -7   8 75.2425 44.3589   2
 -12  -7  -8 9.82452 23.4939   3
  13  -7   8-1.35853 36.6585   2
 -13  -7  -8-88.0990 43.0164   3
  14  -7   8 156.352 69.5313   2
 -14  -7  -8 87.1138 47.9513   3
 -15  -7  -8 91.3244 47.0370   3
 -20  -8   8 184.285 83.3628   1
  20  -8  -8 118.489 55.1459   2
  19  -8  -8-43.9038 40.8228   2
 -19  -8   8 63.5957 42.4123   1
 -18  -8   8 49.9458 45.2179   1
  18  -8  -8-12.6635 37.0227   2
 -17  -8   8 34.7514 43.2362   1
  17  -8  -8 29.5416 30.8431   2
 -16  -8   8 123.570 55.8536   1
  16  -8  -8 109.520 49.7099   2
 -15  -8   8 85.2545 47.4741   1
  15  -8  -8 66.4220 38.6487   2
 -15  -8   8 3.67632 9.21852   2
 -14  -8   8 326.850 79.8316   1
  14  -8  -8 327.539 80.8267   2
 -14  -8   8 269.081 46.2142   2
 -13  -8   8 115.596 47.6393   1
  13  -8  -8 161.909 53.9521   2
 -13  -8   8 154.522 34.6258   2
 -12  -8   8 147.834 64.3429   1
 -12   8   8 159.100 38.7043   1
 -11  -8   8 79.7400 40.9103   1
 -11   8   8 189.801 37.5103   1
 -10  -8   8 78.1471 44.3539   1
 -10   8   8 275.501 42.8648   1
  -9  -8   8 1484.46 155.860   1
  -9  -8   8 1607.33 91.8536   3
  -9   8   8 1253.78 78.4235   1
  -8  -8   8 1117.34 86.2733   3
  -8   8   8 1046.51 57.4666   1
  -8  -8   8 930.123 123.514   1
  -7  -8   8 787.037 112.809   1
  -7  -8   8 775.596 76.4963   3
  -6  -8   8-27.8031 29.2644   1
  -6  -8   8 6.05190 15.3242   3
  -5  -8   8 890.656 113.883   1
  -5  -8   8 812.932 99.5291   2
  -5  -8   8 787.392 83.7342   3
  -4  -8   8 839.599 104.843   2
  -4  -8   8 1046.81 99.1469   3
   4   8  -8 1044.86 125.064   1
  -4  -8   8 818.931 110.738   1
  -3  -8   8 729.125 99.6304   2
  -3  -8   8 636.734 80.0538   3
   3   8  -8 640.582 100.349   1
  -3  -8   8 670.288 97.0941   1
  -2  -8   8 2657.80 193.101   2
   2   8  -8 2409.79 194.463   1
  -2  -8   8 2654.17 168.445   3
  -2  -8   8 2796.70 195.950   1
  -1  -8   8 211.606 56.2783   2
  -1  -8   8 86.9337 34.2055   3
  -1  -8   8 89.7819 36.1531   1
   0  -8   8-1.94294 26.9116   2
   0  -8   8 3.80179 17.8724   3
   0  -8  -8-11.2641 13.9866   1
   0  -8   8-50.4259 48.7701   1
   1  -8   8 1160.03 138.162   2
   1  -8   8 1151.57 120.684   3
  -1  -8  -8 1191.08 78.1308   1
   1  -8   8 1177.18 127.476   1
  -2  -8  -8 759.260 67.6912   1
   2  -8   8 845.434 122.604   2
   3  -8   8 83.5251 29.1432   2
  -3  -8  -8 51.3954 20.9098   1
   4  -8   8 2335.48 206.781   2
  -4  -8  -8 2269.06 129.854   1
   5  -8   8 2271.64 207.931   2
  -5  -8  -8 2891.60 151.320   1
  -6  -8  -8 926.902 89.9002   1
   6  -8   8 985.837 142.204   2
   7  -8   8 32.4577 45.1747   2
  -7  -8  -8 36.7413 22.1584   1
   8  -8   8 48.2699 40.8901   2
  -8  -8  -8 29.0469 25.2792   1
   9  -8   8 295.578 86.5464   2
  -9  -8  -8 262.828 54.7256   1
  10  -8   8 154.542 60.0043   2
 -10  -8  -8 206.195 61.6676   3
 -10  -8  -8 265.292 55.2146   1
  11  -8   8 90.2513 59.2551   2
 -11  -8  -8 11.7364 23.4151   3
 -11  -8  -8 52.7135 33.5174   1
 -12  -8  -8 28.2034 24.7088   1
  12  -8   8 46.4978 41.1993   2
 -12  -8  -8 33.7032 17.8501   3
 -13  -8  -8 29.9791 30.6085   1
  13  -8   8 16.6546 39.7259   2
 -13  -8  -8-11.3851 23.5408   3
  14  -8   8 29.9602 31.0809   2
 -14  -8  -8 81.5913 43.9277   3
 -14  -8  -8 75.5865 37.6390   1
 -15  -8  -8 21.8293 24.9464   1
 -15  -8  -8 4.45152 24.1477   3
 -16  -8  -8 15.7204 27.4079   1
  20  -9  -8-7.61940 21.9423   2
  19  -9  -8 56.1707 26.2163   2
 -19  -9   8 152.945 72.4461   1
  18  -9  -8-4.58175 21.8526   2
 -18  -9   8 40.0186 41.0211   1
 -17  -9   8 131.000 60.1723   1
  17  -9  -8 54.5133 38.8291   2
 -16  -9   8-33.7221 37.7253   1
  16  -9  -8 94.4669 48.6961   2
 -15  -9   8-32.1925 39.2216   1
  15  -9  -8-34.8482 33.7920   2
 -14  -9   8 1.65341 41.2813   1
  14  -9  -8-62.1828 40.9498   2
 -14   9   8 16.4045 16.0478   1
 -13  -9   8 28.5720 37.3408   1
  13  -9  -8-29.8536 48.9547   2
 -12  -9   8 921.179 134.344   1
 -12   9   8 873.294 88.1016   1
 -11  -9   8 13.6313 33.9265   1
 -11   9   8 45.0009 26.0967   1
 -10   9   8 256.369 42.1110   1
 -10  -9   8 320.867 42.1413   3
 -10  -9   8 293.592 77.0072   1
  -9   9   8 234.429 34.8276   1
  -9  -9   8 260.675 65.2562   1
  -9  -9   8 268.595 42.9482   3
  -8   9   8 36.7050 13.2290   1
  -8  -9   8 91.9254 52.3911   1
  -8  -9   8 50.3540 22.3857   3
  -7  -9   8 177.893 63.3326   1
  -7  -9   8 83.6261 31.7862   3
  -6  -9   8 897.922 120.613   1
  -6  -9   8 934.486 94.0188   3
  -5  -9   8 76.5650 39.8156   1
  -5  -9   8 64.3234 26.6629   3
  -5  -9   8 100.889 39.7827   2
  -4  -9   8 236.035 62.8557   1
  -4  -9   8 250.299 63.6479   2
  -4  -9   8 242.034 53.0265   3
  -3  -9   8-9.42253 27.6317   1
  -3  -9   8-6.48446 19.6070   3
  -3  -9   8-29.4995 38.7002   2
  -2  -9   8 571.102 93.0588   1
  -2  -9   8 572.686 98.3493   2
  -2  -9   8 533.270 80.2983   3
  -1  -9   8 562.135 98.3478   2
  -1  -9   8 581.178 84.8909   3
  -1  -9   8 697.652 102.868   1
   1  -9  -8 571.014 38.8883   1
   0  -9  -8 188.528 30.3456   1
   0  -9   8 200.195 61.6694   2
   0  -9   8 170.067 55.4008   1
   1  -9   8 113.335 46.4839   2
   1  -9   8 195.285 57.7200   1
  -1  -9  -8 103.877 23.9565   1
   2  -9   8 774.458 122.059   2
  -2  -9  -8 872.401 77.4274   1
   3  -9   8 186.984 72.6982   2
  -3  -9  -8 132.774 35.8095   1
  -4  -9  -8 8.41665 29.4246   1
   4  -9   8 74.3272 43.4090   2
   5  -9   8 424.832 95.6973   2
  -5  -9  -8 443.817 66.9801   1
   6  -9   8 167.038 70.9503   2
  -6  -9  -8 17.1920 22.4796   1
  -7  -9  -8 126.154 39.9309   1
   7  -9   8 163.730 61.4517   2
   8  -9   8 174.081 67.9602   2
  -8  -9  -8 100.864 37.5346   1
   9  -9   8-41.7640 31.3165   2
  -9  -9  -8-9.74567 20.3385   1
  10  -9   8 66.5089 46.8503   2
 -10  -9  -8 99.9859 44.3984   1
  11  -9   8-25.3008 38.7399   2
 -11  -9  -8-4.71614 18.0668   1
 -11  -9  -8 16.7640 27.2480   3
 -12  -9  -8-25.1323 31.0108   1
  12  -9   8-27.2101 52.9489   2
 -12  -9  -8 29.5220 29.4308   3
 -13  -9  -8 3.75254 27.8514   1
 -13  -9  -8-18.0989 26.4399   3
 -14  -9  -8-2.92776 26.6279   1
 -14  -9  -8-59.8426 36.5394   3
 -15  -9  -8 16.1571 23.6698   1
 -16  -9  -8 17.2823 25.0707   1
  20 -10  -8 53.6518 40.2948   2
  19 -10  -8 126.598 56.5845   2
 -18 -10   8 68.0005 42.3664   1
  18 -10  -8 22.1852 33.1325   2
 -17 -10   8 141.524 62.4378   1
  17 -10  -8 143.952 67.5240   2
 -16 -10   8 75.6673 45.9409   1
  16 -10  -8 141.032 61.3324   2
 -15 -10   8 53.3867 39.0718   1
  15 -10  -8-23.6535 41.1202   2
 -14 -10   8-27.5536 49.9118   1
  14 -10  -8-11.2121 41.5924   2
 -13 -10   8-20.0447 29.6429   1
  13 -10  -8-3.32198 36.9482   2
 -12  10   8 33.8496 21.6776   1
 -12 -10   8 16.2749 31.7578   1
 -11 -10   8 618.595 112.760   1
 -11  10   8 450.773 61.8313   1
 -10 -10   8 158.407 56.3203   1
 -10  10   8 134.774 27.1427   1
 -10 -10   8 200.616 37.6778   3
  -9 -10   8 97.6911 29.4315   3
  -9 -10   8 130.584 59.4164   1
  -9  10   8 57.2404 17.0442   1
  -8  10   8 475.268 41.2115   1
  -8 -10   8 546.560 71.2369   3
  -8 -10   8 665.515 115.638   1
  -7 -10   8 38.5186 41.8748   1
  -7 -10   8 8.12953 18.0596   3
  -6 -10   8 23.9519 35.6951   1
  -6 -10   8 27.6738 23.8954   3
  -5 -10   8-41.1764 38.2639   1
  -5 -10   8-25.7387 33.0456   2
  -5 -10   8 20.5746 31.2762   3
  -4 -10   8 383.714 81.8031   1
  -4 -10   8 324.951 74.1842   2
  -4 -10   8 379.360 66.9454   3
  -3 -10   8-27.5008 39.4261   1
  -3 -10   8-39.2547 42.3810   2
  -2 -10   8 66.1812 37.1964   1
  -2 -10   8 42.1300 30.8286   2
  -2 -10   8 84.7993 39.2832   3
  -1 -10   8 4.87822 32.2848   2
   1 -10  -8 38.5878 12.1049   1
  -1 -10   8 49.0618 35.7113   1
   0 -10  -8 65.0306 19.6275   1
   0 -10   8 33.2135 28.5232   2
   0 -10   8 58.0366 35.0203   1
  -1 -10  -8 27.9632 17.9800   1
   1 -10   8 30.1763 31.0126   1
   1 -10   8 31.7046 26.4589   2
   2 -10   8 850.202 133.272   2
  -2 -10  -8 660.387 70.2528   1
   3 -10   8 513.411 108.224   2
  -3 -10  -8 487.016 66.1705   1
   4 -10   8 207.216 73.5453   2
  -4 -10  -8 288.354 55.8943   1
   5 -10   8 29.6476 30.6014   2
  -5 -10  -8 40.0426 24.5808   1
  -6 -10  -8 13.5829 25.6351   1
   6 -10   8 23.5099 28.1882   2
   7 -10   8-38.3134 45.0948   2
  -7 -10  -8-47.5224 36.9826   1
   8 -10   8-11.1208 43.5170   2
  -8 -10  -8 36.4090 27.0459   1
   9 -10   8 16.9037 31.4934   2
  -9 -10  -8 5.32373 21.6112   1
  10 -10   8 123.243 69.5226   2
 -10 -10  -8 137.858 56.2192   1
 -11 -10  -8 191.083 58.6217   1
  11 -10   8 157.647 70.2869   2
 -12 -10  -8 26.3209 31.0098   1
  12 -10   8 7.49353 37.2583   2
 -12 -10  -8 10.7241 23.5304   3
 -13 -10  -8 96.3755 48.8094   1
 -13 -10  -8 61.9501 37.2889   3
 -14 -10  -8 18.5744 26.7170   1
 -15 -10  -8 99.1547 49.2220   1
  20 -11  -8-32.4069 34.0703   2
  19 -11  -8-16.4869 27.5841   2
  18 -11  -8 68.0833 39.9872   2
 -17 -11   8 70.4192 44.9193   1
  17 -11  -8 30.6819 49.9696   2
 -16 -11   8 50.0698 38.2424   1
  16 -11  -8 51.3647 43.3677   2
 -15 -11   8-1.11050 37.3969   1
  15 -11  -8 68.9259 46.7114   2
  14 -11  -8 61.0268 45.1583   2
 -14 -11   8 27.7946 28.2375   1
  13 -11  -8 60.0633 42.8513   2
 -13 -11   8 159.661 61.4867   1
 -12 -11   8 119.617 56.5620   1
 -11 -11   8 123.683 50.5632   1
 -10 -11   8 334.065 89.4397   1
  -9  11   8 28.9228 14.5179   1
  -9 -11   8 78.0218 48.7430   1
  -9 -11   8-26.6374 21.2717   3
  -8 -11   8 20.1539 28.5650   1
  -8 -11   8 39.4928 27.6307   3
  -7 -11   8 18.7830 31.3453   1
  -7 -11   8 45.9510 25.9629   3
  -6 -11   8 753.190 96.4495   3
  -6 -11   8 798.169 124.031   1
  -5 -11   8 140.935 51.6550   1
  -5 -11   8 125.158 41.5434   3
  -4 -11   8 49.1977 33.5115   1
  -4 -11   8 79.9654 41.5358   2
  -4 -11   8 46.8582 31.9496   3
  -3 -11   8 50.5221 33.0390   1
  -3 -11   8 30.2945 31.4758   2
  -2 -11   8 104.330 51.0281   1
  -2 -11   8 35.7443 28.8965   2
  -1 -11   8 62.4622 42.1557   2
   1 -11  -8 15.0878 9.56906   1
  -1 -11   8 48.0133 40.4216   1
   0 -11  -8 39.4679 15.6310   1
   0 -11   8 64.1110 45.0018   2
   0 -11   8 1.39731 31.5427   1
  -1 -11  -8 29.3174 17.6836   1
   1 -11   8 22.9013 25.7108   2
   1 -11   8 61.3324 40.8380   1
  -2 -11  -8 505.014 64.2465   1
   2 -11   8 428.989 98.4329   2
   3 -11   8-29.3392 42.3327   2
  -3 -11  -8 1.17184 18.0990   1
  -4 -11  -8 238.863 51.5293   1
   4 -11   8 202.638 68.7089   2
  -5 -11  -8 28.4801 16.8427   1
   5 -11   8 11.8089 38.4337   2
   6 -11   8 224.837 78.7939   2
  -6 -11  -8 163.951 47.8173   1
   7 -11   8-1.61244 37.5645   2
  -7 -11  -8 52.4776 29.8156   1
   8 -11   8-26.3238 37.9628   2
  -8 -11  -8 31.0405 29.8651   1
  -9 -11  -8 11.3897 23.0494   1
   9 -11   8 60.1928 62.3620   2
  10 -11   8 93.9051 48.8099   2
 -10 -11  -8 4.04813 27.4287   1
  11 -11   8-60.7719 49.1254   2
 -11 -11  -8 25.6164 32.2882   1
 -12 -11  -8 55.0438 39.4827   3
 -12 -11  -8 63.0711 37.7365   1
 -13 -11  -8-26.4694 31.2969   1
  19 -12  -8 84.3811 50.9052   2
  18 -12  -8-56.8249 44.4604   2
  17 -12  -8 7.75435 23.6546   2
  16 -12  -8 35.9087 47.6853   2
 -16 -12   8 15.5060 39.7998   1
 -15 -12   8-24.9957 36.9520   1
  15 -12  -8 13.8074 28.2763   2
  14 -12  -8 57.9962 36.6531   2
 -14 -12   8 47.3207 38.0561   1
  13 -12  -8 62.8806 43.4524   2
 -13 -12   8 18.8617 35.0070   1
 -12 -12   8 52.2182 37.2800   1
 -11 -12   8 364.594 92.1272   1
 -10 -12   8-23.4678 33.3148   1
  -9 -12   8 9.47035 38.8544   1
  -8 -12   8 13.8949 20.2989   3
  -8 -12   8 60.7653 44.2521   1
  -7 -12   8 245.147 72.8307   1
  -7 -12   8 254.923 59.8719   3
  -6 -12   8 47.7984 28.8300   1
  -6 -12   8 6.63141 16.7206   3
  -5 -12   8 140.168 58.7320   1
  -5 -12   8 140.203 46.0097   3
  -4 -12   8-12.7858 41.3811   1
  -4 -12   8 46.9531 39.4957   2
  -3 -12   8 8.52667 21.1510   1
  -3 -12   8-44.3015 37.7677   2
  -2 -12   8 22.2570 28.2833   1
  -2 -12   8-40.7087 39.3305   2
   1 -12  -8 23.7638 9.86103   1
  -1 -12   8 73.8311 41.4194   1
   0 -12  -8 3.25487 7.34224   1
   0 -12   8 70.4304 48.8404   1
   0 -12   8 1.80797 37.6206   2
   1 -12   8 180.006 72.5852   2
  -1 -12  -8 183.562 36.6582   1
   1 -12   8 218.478 67.6644   1
  -2 -12  -8 38.6875 22.8535   1
   2 -12   8 22.0556 29.8938   2
   3 -12   8 53.3046 39.1049   2
  -3 -12  -8 28.0831 23.9993   1
   4 -12   8 16.7028 33.0747   2
  -4 -12  -8 86.6867 35.7875   1
  -5 -12  -8 20.3387 15.1367   1
   5 -12   8 30.6669 38.4703   2
  -6 -12  -8-12.4391 22.1537   1
   6 -12   8-62.6211 46.7279   2
   7 -12   8 37.0602 36.6187   2
  -7 -12  -8 51.9941 31.6772   1
   8 -12   8 235.827 88.1014   2
  -8 -12  -8 260.023 68.1212   1
   9 -12   8 159.157 76.2607   2
  10 -12   8 27.9992 42.7821   2
  17 -13  -8 32.9229 47.1137   2
  16 -13  -8 54.9250 46.6150   2
  15 -13  -8 12.0970 30.4845   2
 -14 -13   8 131.454 69.7427   1
  14 -13  -8 57.9211 54.0732   2
 -13 -13   8-158.660 68.6897   1
  13 -13  -8-148.603 69.5618   2
 -12 -13   8-3.14468 42.8931   1
 -11 -13   8-6.53253 46.7510   1
 -10 -13   8-1.49066 27.6352   1
  -9 -13   8 21.8467 35.3625   1
  -8 -13   8-51.0513 36.9221   1
  -7 -13   8 2.37952 28.3224   1
  -6 -13   8 150.520 63.3839   1
  -5 -13   8-22.6553 44.0471   1
  -5 -13   8-17.3935 28.0357   2
  -4 -13   8 80.1587 53.3507   1
  -4 -13   8-42.2378 39.8346   2
  -3 -13   8-170.885 64.0014   1
  -3 -13   8-49.7995 47.1341   2
  -2 -13   8-12.7932 22.1195   2
  -2 -13   8-10.5212 26.3915   1
  -1 -13   8 15.2467 42.5291   2
  -1 -13   8 7.31187 32.0305   1
   0 -13   8 100.740 58.2094   2
   0 -13   8 139.091 60.9632   1
   1 -13   8 197.990 69.6567   1
   1 -13   8 173.224 68.8795   2
   2 -13   8 32.2971 40.7274   2
   3 -13   8 161.553 60.5380   2
   4 -13   8-42.4252 54.5307   2
   5 -13   8-49.4937 42.9709   2
   6 -13   8 111.135 67.3412   2
   7 -13   8-15.4127 33.8654   2
   8 -13   8 94.1967 54.5758   2
  15 -14  -8-8.26296 26.8997   2
  14 -14  -8-31.0124 39.0962   2
  13 -14  -8 118.688 64.5746   2
 -12 -14   8 113.179 59.4740   1
 -11 -14   8 60.7039 46.1971   1
 -10 -14   8 40.3260 34.1635   1
  -9 -14   8 68.5749 53.0094   1
  -8 -14   8 218.280 83.5470   1
  -7 -14   8-10.6075 42.5446   1
  -6 -14   8 116.446 57.0049   1
  -5 -14   8 147.546 52.6746   1
  -5 -14   8 123.941 64.2158   2
  -4 -14   8 5.08901 26.0820   1
  -4 -14   8 25.9106 36.6968   2
  -3 -14   8 80.4614 55.5457   1
  -3 -14   8 127.657 67.8324   2
  -2 -14   8 46.1122 26.9157   2
  -2 -14   8 7.13201 26.4656   1
  -1 -14   8 267.072 93.9358   2
  -1 -14   8 247.422 72.8194   1
   0 -14   8 42.8689 36.1495   2
   0 -14   8 97.2489 54.1570   1
   1 -14   8-23.0033 36.1070   2
   1 -14   8 1.89602 24.1308   1
   2 -14   8 55.7999 54.4256   2
   3 -14   8-79.3743 53.6870   2
   4 -14   8 5.28341 41.8690   2
   5 -14   8-4.63378 30.4650   2
   6 -14   8 31.3409 49.9209   2
 -10 -15   8 42.4484 41.5274   1
  -9 -15   8-0.47410 23.7643   1
  -8 -15   8 148.757 76.4860   1
  -7 -15   8-20.8276 32.6005   1
  -6 -15   8-43.4021 49.3574   1
  -5 -15   8 61.7050 49.7645   1
  -5 -15   8 17.8016 38.7692   2
  -4 -15   8-26.5630 33.9615   1
  -4 -15   8 34.4939 45.8039   2
  -3 -15   8 13.4544 30.8109   2
  -3 -15   8 88.2199 50.1995   1
  -2 -15   8-15.7192 41.1122   1
  -2 -15   8 21.0382 34.9778   2
  -1 -15   8 134.520 74.0743   2
  -1 -15   8 20.9545 31.2709   1
   0 -15   8 57.8239 45.9210   2
   0 -15   8 22.1567 37.4153   1
   1 -15   8-94.4627 56.9078   2
   2 -15   8 14.9624 32.1656   2
   3 -15   8-4.11099 25.6997   2
   4 -15   8 6.48966 37.4987   2
  -7 -16   8 20.2811 27.6701   1
  -6 -16   8 92.5656 58.9110   1
  -6 -16   8 79.3863 49.8399   2
  -5 -16   8 14.7964 26.5062   1
  -5 -16   8 25.2766 31.9741   2
  -4 -16   8 24.3691 34.4003   1
  -4 -16   8 5.96539 26.0353   2
  -3 -16   8-62.3860 47.5525   2
  -3 -16   8-36.8779 38.8721   1
  -2 -16   8 15.0932 46.9851   2
  -2 -16   8-12.6907 30.2224   1
  -1 -16   8 71.4980 61.0672   2
  -1 -16   8 65.9115 49.3018   1
   0 -16   8 62.9621 33.4105   1
   0 -16   8 80.5781 52.6325   2
   1 -16   8-54.1000 44.0920   2
   2 -16   8 31.7268 38.7734   2
  -6 -17   8-80.2640 50.4886   2
  -5 -17   8 24.0767 43.8125   2
  -4 -17   8 61.5606 48.6531   2
  -3 -17   8 63.1161 46.7430   2
  -2 -17   8 100.004 60.3194   2
 -24   0   9-70.1965 45.2032   1
 -23   0   9-92.8787 48.4537   1
 -22   0   9 36.9255 32.8899   1
 -21   0   9-51.7262 37.0371   1
 -20   0   9-43.4389 38.6063   1
 -19   0   9-20.3982 35.8002   1
 -18   0   9-24.9725 24.8146   1
 -17   0   9-9.13859 18.6447   1
 -16   0   9 17.5551 27.3531   1
  16   0  -9 5.36749 8.28705   2
 -15   0   9-2.81514 27.0637   1
  15   0  -9 4.06962 6.00657   2
 -14   0   9-33.6947 30.8036   1
  14   0  -9 4.94032 5.92670   2
 -13   0   9-44.7198 32.0121   1
 -12   0   9-13.7082 28.9791   1
 -11   0   9 27.0646 22.8657   1
 -10   0   9 17.0879 24.3675   1
  -9   0   9 26.6970 23.5624   1
  -8   0   9 13.2409 21.6186   1
   8   0  -9 19.2380 18.5700   1
   7   0  -9 2.52935 6.28017   2
   7   0  -9-12.7973 12.4803   1
  -7   0   9 15.2353 23.3716   1
   6   0  -9-6.50325 9.51489   2
   6   0  -9-2.40388 17.3271   1
  -6   0   9 4.18411 20.1447   1
   5   0  -9-0.88246 8.67489   2
  -5   0   9-8.23551 13.0257   1
   4   0  -9-7.02063 12.3102   2
  -4   0   9 7.09195 12.6531   1
   4   0  -9 14.0337 16.4150   1
   3   0  -9-1.97716 10.8111   2
   3   0  -9 6.43670 14.8172   1
  -3   0   9 4.81417 14.9464   1
   2   0  -9-12.9058 15.8816   2
   2   0  -9-10.9290 14.5234   1
  -2   0   9 1.41183 11.9872   1
  -2   0   9-0.28748 15.1391   2
   1   0  -9-12.3674 19.4379   2
   1   0  -9-5.09437 15.4749   1
  -1   0   9 7.75151 15.4808   2
   0   0  -9 16.7642 18.4369   1
   0   0  -9 9.12910 20.7607   2
   0   0   9-7.99350 16.8533   2
  -1   0  -9 6.49783 18.0953   1
  -1   0  -9-7.10932 16.8758   2
   1   0   9 16.6728 19.6834   2
  -2   0  -9 24.1317 23.7907   2
  -2   0  -9 2.59353 18.5635   1
   2   0   9 15.3845 24.1938   2
  -3   0  -9-17.0771 19.3199   2
  -3   0  -9 21.9741 21.7901   1
   3   0   9-2.96517 22.8412   2
  -4   0  -9 15.3213 30.0746   2
  -4   0  -9 41.5092 27.1642   3
  -4   0  -9-13.2227 16.0651   1
   4   0   9-9.41826 26.8877   2
  -5   0  -9-27.3125 34.3598   2
  -5   0  -9-41.5601 35.9545   3
   5   0   9-2.40360 22.3207   2
  -6   0  -9-25.6779 29.7271   2
  -6   0  -9-10.8840 35.1159   3
   6   0   9-33.5344 34.2495   2
  -7   0  -9-24.2053 33.9084   3
   7   0   9-16.8841 29.5192   2
  -8   0  -9-26.9863 40.2882   3
   8   0   9 7.37432 28.8882   2
  -9   0  -9-19.3508 31.4352   3
   9   0   9-5.21902 29.9332   2
 -10   0  -9 10.6896 34.8107   3
  10   0   9 14.0205 25.1665   2
 -11   0  -9-29.2075 42.6871   3
  11   0   9-0.61101 23.6900   2
 -12   0  -9-12.4419 31.8606   3
  12   0   9-25.5485 23.9006   2
 -13   0  -9-10.2555 30.9856   3
  13   0   9 2.94509 24.0099   2
  14   0   9-110.419 50.9579   2
  15   0   9 14.7645 23.2033   2
  16   0   9 21.8743 28.5399   2
 -24   1   9 109.351 57.9223   1
 -23  -1   9 271.739 79.4187   1
 -23   1   9 300.818 80.1936   1
 -22  -1   9 181.445 66.0685   1
 -22   1   9 162.612 55.4031   1
 -21  -1   9 208.778 64.2783   1
 -21   1   9 220.400 62.6528   1
 -20  -1   9-1.92109 24.1977   1
 -20   1   9 127.839 48.8980   1
 -19  -1   9 10.7655 28.9635   1
 -19   1   9-31.0190 27.6942   1
  19  -1  -9 14.9485 12.7159   2
 -18   1   9 1725.21 146.499   1
  18  -1  -9 1881.44 108.594   2
 -18  -1   9 1844.05 161.290   1
 -17  -1   9 1501.64 140.993   1
  17   1  -9 1251.86 69.3675   3
  17  -1  -9 1621.03 97.1756   2
 -17   1   9 1697.83 138.419   1
 -16   1   9 428.521 67.8642   1
  16  -1  -9 621.628 57.5661   2
 -16  -1   9 466.369 79.0968   1
 -15   1   9 411.770 63.5341   1
 -15  -1   9 358.285 65.5752   1
  15  -1  -9 376.699 41.5919   2
  14  -1  -9 56.2335 19.2568   2
 -14   1   9 38.7317 25.7399   1
 -14  -1   9-61.7968 39.3002   1
 -13  -1   9 1454.08 126.266   1
 -13   1   9 1742.67 123.107   1
  13  -1  -9 1859.83 82.6648   2
 -12  -1   9 38.1567 20.7377   1
  12  -1  -9 103.427 18.9789   2
 -12   1   9 98.9951 28.7028   1
  11  -1  -9 2562.08 88.2349   2
 -11   1   9 2780.69 150.237   1
 -11  -1   9 2751.89 166.473   1
 -10   1   9 2713.15 145.451   1
  10  -1  -9 2631.29 90.3693   2
 -10  -1   9 2708.78 160.534   1
   9   1  -9 26.1411 19.9822   1
  -9  -1   9 50.3008 30.1376   1
  -9   1   9 31.6944 25.6260   1
   9  -1  -9 10.6911 8.94499   2
   8   1  -9 3888.01 160.284   1
  -8  -1   9 3897.87 183.638   1
  -8   1   9 3987.98 163.126   1
  -7  -1   9 6116.96 226.520   1
  -7   1   9 6332.98 199.888   1
   7  -1  -9 6167.44 158.640   1
   7   1  -9 5998.90 205.624   1
   7  -1  -9 6191.94 135.454   2
   6   1  -9 227.878 42.0070   1
  -6   1   9 267.296 42.8143   1
   6   1  -9 235.674 29.6452   2
  -6  -1   9 291.996 54.6757   1
   6  -1  -9 264.695 35.7433   1
   6  -1  -9 329.510 37.3078   2
   5  -1  -9 252.682 35.6660   1
   5   1  -9 313.604 39.5526   2
  -5  -1   9 313.534 50.5544   1
   5   1  -9 317.654 51.1810   1
   5  -1  -9 400.133 43.1571   2
  -5   1   9 285.270 40.2872   1
   4   1  -9 337.109 53.1041   1
   4   1  -9 412.652 46.2371   2
   4  -1  -9 426.682 48.8342   1
  -4   1   9 364.090 44.2769   1
  -4  -1   9 432.795 40.5735   2
   4  -1  -9 429.854 46.8752   2
  -4  -1   9 432.434 57.2864   1
  -3  -1   9 137.452 33.3442   1
   3   1  -9 120.311 27.7206   2
   3   1  -9 107.550 31.6954   1
   3   1  -9 86.0641 29.8536   3
   3  -1  -9 86.1810 23.8175   1
  -3   1   9 102.476 26.6297   1
  -3  -1   9 104.702 23.6364   2
   3  -1  -9 86.6478 24.0536   2
   2   1  -9 2456.75 135.815   3
   2  -1  -9 2612.78 128.422   1
   2   1  -9 2487.38 135.517   2
   2   1  -9 2632.77 149.561   1
  -2  -1   9 2620.27 137.770   1
  -2  -1   9 2552.16 118.369   2
   2  -1  -9 2350.12 128.280   2
   1   1  -9 4343.48 190.838   2
  -1  -1   9 4310.75 164.930   2
   1  -1  -9 4114.39 178.174   2
   1  -1  -9 4251.96 169.840   1
   1   1  -9 4158.82 190.477   1
   0   1  -9 1979.82 136.828   1
   0   1  -9 1990.99 138.690   2
   0  -1  -9 2092.03 125.399   1
   0  -1   9 2147.85 126.538   2
   0  -1  -9 2056.40 134.602   2
  -1   1  -9 12509.8 364.373   2
  -1  -1  -9 12397.6 309.402   1
   1   1   9 13312.9 315.669   2
  -1   1  -9 12111.2 341.232   1
   1  -1   9 12973.2 325.606   2
  -1  -1  -9 12983.4 352.268   2
   2   1   9 3247.74 165.406   2
  -2   1  -9 3168.12 192.500   2
  -2  -1  -9 3212.63 165.183   1
  -2   1  -9 3336.88 182.498   1
   2  -1   9 3349.70 172.480   2
  -2  -1  -9 3055.97 181.132   2
  -3   1  -9 695.935 96.8580   2
   3  -1   9 586.680 77.9801   2
   3   1   9 601.961 75.1908   2
  -3   1  -9 587.756 79.7633   1
  -3  -1  -9 616.102 85.8620   2
  -4   1  -9 472.224 82.9177   2
  -4  -1  -9 520.922 81.2204   3
  -4   1  -9 495.854 79.9629   3
  -4   1  -9 485.484 77.0340   1
   4   1   9 640.609 83.3534   2
   4  -1   9 578.074 82.0400   2
  -4  -1  -9 535.598 84.2833   2
  -5  -1  -9 127.271 45.4396   3
  -5  -1  -9 107.119 43.5687   2
  -5   1  -9 93.4347 39.7309   2
  -5   1  -9 102.289 40.5762   3
  -5   1  -9 108.774 39.9551   1
   5   1   9 146.716 40.6599   2
   5  -1   9 167.203 46.8869   2
  -6   1  -9 687.049 108.296   2
  -6  -1  -9 712.148 99.0128   3
  -6   1  -9 582.850 88.1981   3
   6   1   9 813.031 99.9199   2
   6  -1   9 607.129 89.7973   2
  -7  -1  -9 1163.08 127.281   3
  -7   1  -9 995.074 120.576   3
   7   1   9 1035.62 116.568   2
   7  -1   9 1021.63 117.196   2
   8   1   9 558.010 91.0426   2
  -8  -1  -9 538.344 86.0378   3
  -8   1  -9 488.208 88.6725   3
   8  -1   9 500.151 87.5633   2
  -9   1  -9 4182.99 262.801   3
  -9  -1  -9 4370.92 258.927   3
   9   1   9 4017.66 242.219   2
   9  -1   9 3866.53 245.657   2
 -10  -1  -9 467.610 91.0508   3
 -10   1  -9 411.731 91.9921   3
  10   1   9 488.254 90.9283   2
  10  -1   9 517.278 95.1649   2
 -11  -1  -9 1437.78 160.323   3
 -11   1  -9 1402.09 163.625   3
  11   1   9 1408.13 154.692   2
  11  -1   9 1506.44 161.397   2
 -12  -1  -9 23.8726 31.7293   3
 -12   1  -9 33.9381 32.8567   3
  12   1   9 20.0798 29.8385   2
  12  -1   9-11.5128 27.0028   2
 -13  -1  -9 477.061 97.9163   3
  13   1   9 404.638 88.5470   2
  13  -1   9 432.019 93.0908   2
 -14  -1  -9 56.1750 43.2865   3
  14   1   9 41.1002 32.8753   2
  14  -1   9-33.2971 35.9355   2
  15   1   9 88.4665 50.8206   2
  15  -1   9 162.273 67.9415   2
  16   1   9-7.95637 32.9124   2
  16  -1   9 95.9810 51.1873   2
 -24   2   9 76.1044 47.2583   1
 -23   2   9 44.4030 24.4373   1
 -23  -2   9 7.96536 29.0505   1
 -22   2   9 32.2481 23.1888   1
 -22  -2   9-24.5635 34.2985   1
 -21   2   9 113.389 47.1553   1
 -21  -2   9 113.205 45.5885   1
 -20   2   9 833.863 109.148   1
 -20  -2   9 820.515 120.092   1
 -19   2   9 619.978 89.9393   1
 -19  -2   9 531.333 94.6334   1
  19  -2  -9 592.383 70.5000   2
  18  -2  -9 4.36161 18.2226   2
 -18   2   9 25.9241 30.0841   1
 -18  -2   9 27.3294 29.8791   1
 -17   2   9 1370.93 121.550   1
 -17  -2   9 1535.90 151.549   1
  17  -2  -9 1522.31 105.707   2
 -16   2   9 638.619 79.4602   1
 -16  -2   9 479.031 84.0427   1
  16  -2  -9 570.215 65.1742   2
 -15  -2   9 1146.97 121.466   1
 -15   2   9 1102.93 99.9274   1
  15  -2  -9 1170.24 86.6456   2
  14  -2  -9 394.006 51.2969   2
 -14  -2   9 353.701 68.9275   1
 -14   2   9 399.210 59.5231   1
 -13  -2   9-10.3120 32.4158   1
  13  -2  -9 39.2952 20.0286   2
 -13   2   9 22.5417 22.8654   1
 -12   2   9 229.165 43.1601   1
  12  -2  -9 195.806 34.7454   2
 -12  -2   9 201.532 46.1100   1
 -11   2   9-5.30596 18.3373   1
 -11  -2   9 27.5898 28.7262   1
  11  -2  -9-5.11353 13.6100   2
 -10   2   9 460.190 57.5828   1
 -10  -2   9 456.333 70.3378   1
  10  -2  -9 353.516 46.0434   2
   9   2  -9 3380.15 156.851   1
  -9  -2   9 3407.87 182.998   1
  -9   2   9 3083.30 140.042   1
  -8  -2   9 1502.79 122.454   1
   8   2  -9 1683.08 89.9934   3
  -8   2   9 1565.13 96.6750   1
   8   2  -9 1703.86 114.563   1
  -7   2   9 414.635 46.0986   1
   7   2  -9 433.474 62.1118   1
   7   2  -9 457.986 49.9063   3
  -7  -2   9 356.290 60.3391   1
   6  -2  -9 21.0979 12.5192   1
  -6  -2   9-21.9301 21.5903   1
   6   2  -9 28.9425 19.9565   3
  -6   2   9-12.7772 17.4392   1
   6   2  -9-23.2406 24.8593   1
  -5  -2   9 4261.39 192.260   1
   5   2  -9 4132.05 141.648   2
   5   2  -9 4337.38 162.689   3
   5  -2  -9 4009.27 119.556   1
   5   2  -9 4462.25 199.378   1
   5  -2  -9 4373.27 145.200   2
  -5  -2   9 4228.04 115.344   2
  -5   2   9 4201.35 134.985   1
   4   2  -9 985.858 81.4838   2
   4   2  -9 1044.50 86.3041   3
   4   2  -9 816.868 86.5133   1
  -4   2   9 916.102 61.1418   1
   4  -2  -9 1094.00 79.2742   2
  -4  -2   9 1081.99 69.3635   2
   4  -2  -9 767.061 57.1241   1
  -4  -2   9 932.401 93.8652   1
   3   2  -9 8350.89 244.883   2
   3   2  -9 8530.97 283.160   1
   3  -2  -9 8468.97 198.393   1
   3   2  -9 8279.82 243.506   3
   3  -2  -9 8268.00 226.746   2
  -3  -2   9 8412.69 267.010   1
  -3  -2   9 8479.76 210.044   2
   2  -2  -9 3473.42 133.270   1
   2   2  -9 3736.18 190.881   1
   2   2  -9 3772.43 178.089   2
   2   2  -9 3871.48 173.449   3
  -2  -2   9 3691.42 177.390   1
   2  -2  -9 3792.00 162.020   2
  -2  -2   9 3841.50 154.298   2
  -1  -2   9 282.124 43.4672   2
   1  -2  -9 242.868 38.9865   1
   1   2  -9 256.128 50.6007   2
   1   2  -9 270.603 53.4293   1
   1   2  -9 300.461 50.6821   3
  -1  -2   9 312.244 50.5194   1
   1  -2  -9 307.011 49.3946   2
   0  -2   9 45.3434 22.5478   2
   0   2  -9 86.2658 34.0761   1
   0   2  -9 44.7914 27.5867   2
   0  -2  -9 42.2887 26.5319   2
   0  -2  -9 62.9695 21.8335   1
  -1   2  -9 885.705 100.864   2
  -1  -2  -9 822.415 76.2748   1
  -1   2  -9 892.663 97.0136   1
  -1  -2  -9 806.344 89.1458   2
   1  -2   9 931.379 90.9064   2
  -2  -2  -9 94.6282 39.4402   2
   2  -2   9 132.854 40.0189   2
  -2   2  -9 113.897 52.3207   1
  -2   2  -9 102.091 41.3606   2
  -3   2  -9 1850.70 159.581   2
  -3   2  -9 1978.07 153.546   1
   3  -2   9 1817.15 140.684   2
  -3  -2  -9 1927.61 149.930   2
   4  -2   9 28.4963 29.5551   2
  -4  -2  -9 7.78190 15.4042   2
  -4   2  -9 24.2828 28.3622   2
  -4   2  -9 26.8657 31.8938   3
  -4  -2  -9 1.36090 23.5507   3
  -4   2  -9 48.2680 29.7643   1
   5  -2   9 88.3686 36.8180   2
  -5  -2  -9 46.7477 31.0155   2
  -5   2  -9 78.2780 31.9172   2
  -5  -2  -9 64.4193 32.5309   3
  -5   2  -9 51.6196 35.7630   3
  -5   2  -9 83.6744 34.0788   1
  -6  -2  -9 844.316 104.181   3
  -6   2  -9 966.901 116.658   1
  -6   2  -9 888.397 112.527   3
   6  -2   9 930.940 113.602   2
   7  -2   9 135.223 48.6972   2
  -7   2  -9 260.800 65.6429   3
  -7  -2  -9 150.991 48.1418   3
   7   2   9 181.190 49.6298   2
   8  -2   9 49.9779 40.3828   2
  -8  -2  -9 65.2699 41.9982   3
  -8   2  -9 44.8150 39.7276   3
   8   2   9 45.9366 34.7775   2
  -9  -2  -9 2.53879 30.3647   3
  -9   2  -9 92.1934 48.5809   3
   9   2   9 122.682 44.3255   2
   9  -2   9 95.2115 47.3025   2
 -10  -2  -9 64.8399 43.3824   3
 -10   2  -9-5.59352 39.3769   3
  10   2   9 87.1490 40.6732   2
  10  -2   9 63.7596 47.4160   2
 -11  -2  -9 891.592 125.236   3
  11  -2   9 704.733 115.656   2
 -12  -2  -9 10.5477 35.7321   3
  12  -2   9 62.2266 52.4499   2
 -13  -2  -9 55.8260 38.4683   3
  13  -2   9 36.5517 39.9431   2
 -14  -2  -9 418.906 93.5561   3
  14  -2   9 375.175 90.1180   2
 -15  -2  -9-6.59828 42.8653   3
  15  -2   9-114.950 55.2708   2
  16  -2   9 80.3512 51.3103   2
 -24   3   9 44.1531 36.5959   1
 -23  -3   9 382.943 95.0219   1
 -23   3   9 347.079 83.1977   1
 -22  -3   9-75.3991 46.7453   1
 -22   3   9 45.5763 37.6428   1
 -21   3   9 71.7726 42.2013   1
 -21  -3   9-14.8334 28.9833   1
 -20   3   9 370.483 73.8331   1
 -20  -3   9 294.056 74.1298   1
 -19  -3   9 138.822 47.9082   1
  19  -3  -9 103.231 34.9278   2
 -19   3   9 163.523 50.0652   1
  18  -3  -9 49.6501 22.3377   2
 -18   3   9 74.6237 33.7139   1
 -18  -3   9 23.3846 21.8014   1
 -17   3   9-13.4659 21.4393   1
  17  -3  -9 31.4517 22.5770   2
 -17  -3   9 40.9999 26.6323   1
  16  -3  -9 29.1908 19.0378   2
 -16  -3   9-23.9597 28.4799   1
 -16   3   9 35.9055 28.5827   1
 -15  -3   9 30.8341 28.4853   1
  15  -3  -9 70.1188 25.0658   2
 -15   3   9 115.624 35.7062   1
 -14   3   9 2583.88 140.680   1
 -14  -3   9 2398.22 182.270   1
  14  -3  -9 2685.10 150.357   2
 -13  -3   9 538.664 88.6268   1
  13  -3  -9 630.742 74.6033   2
 -13   3   9 622.270 66.3223   1
 -12   3   9 1599.25 103.758   1
  12  -3  -9 1500.08 110.823   2
  12   3  -9 1275.62 55.4106   3
 -12  -3   9 1696.93 144.392   1
  11   3  -9 67.3310 15.0573   3
 -11  -3   9 213.603 56.6873   1
  11  -3  -9 147.788 34.8630   2
 -11   3   9 130.390 29.8727   1
 -10   3   9 1554.19 97.1660   1
  10   3  -9 1779.56 81.1419   3
  10   3  -9 2028.39 127.610   1
 -10  -3   9 1690.31 141.532   1
  -9   3   9 486.749 52.5090   1
  -9  -3   9 503.757 76.4107   1
   9   3  -9 608.277 51.8868   3
   9   3  -9 607.371 73.3535   1
  -8  -3   9 3120.38 181.989   1
   8   3  -9 3106.49 122.471   3
   8   3  -9 3172.93 171.156   1
  -8   3   9 3078.57 122.847   1
   7   3  -9 824.009 90.6977   1
  -7  -3   9 842.431 94.2714   1
  -7   3   9 845.945 59.8203   1
   7   3  -9 853.506 67.9243   3
  -7  -3   9 717.271 33.9545   2
  -6   3   9 3796.47 115.364   1
  -6  -3   9 4074.86 203.606   1
   6   3  -9 3943.50 151.795   3
  -6  -3   9 3898.54 106.658   2
   6   3  -9 4208.83 202.832   1
  -5  -3   9 407.096 65.1749   1
   5   3  -9 477.893 54.8698   3
  -5   3   9 422.342 34.6463   1
  -5  -3   9 467.369 43.3315   2
   5   3  -9 403.251 66.3577   1
   4   3  -9 82.1883 29.2133   1
  -4  -3   9 172.501 31.6754   2
  -4  -3   9 97.2229 36.5063   1
   4  -3  -9 106.642 16.2242   1
   4   3  -9 91.0546 27.5986   2
   4   3  -9 149.743 36.1811   3
  -3  -3   9 432.284 67.4375   1
   3   3  -9 471.120 71.4895   1
   3   3  -9 397.689 58.5530   2
   3  -3  -9 420.719 37.7885   1
   3   3  -9 481.531 61.9264   3
   3  -3  -9 457.082 56.8093   2
  -3  -3   9 450.037 54.0277   2
  -2  -3   9 184.429 37.9758   2
   2  -3  -9 167.749 26.2736   1
   2   3  -9 168.148 41.6933   2
   2   3  -9 235.279 53.8066   1
   2   3  -9 178.152 40.1801   3
   2  -3  -9 169.464 36.5017   2
  -2  -3   9 148.029 38.2203   1
   1   3  -9 441.676 72.8074   1
   1   3  -9 394.062 71.0105   2
   1   3  -9 465.881 70.4729   3
  -1  -3   9 328.601 68.7238   1
   1  -3  -9 371.465 63.4394   2
   1  -3  -9 268.551 35.8240   1
  -1  -3   9 611.843 73.2439   2
   0  -3  -9 535.316 71.5565   2
   0   3  -9 457.031 75.2993   2
   0   3  -9 602.943 80.9163   3
   0  -3  -9 488.925 54.1435   1
   0  -3   9 515.636 71.8142   2
   0   3  -9 509.189 75.8473   1
  -1   3  -9 3107.82 198.827   2
   1  -3   9 2901.26 169.398   2
  -1  -3  -9 2832.79 133.188   1
  -1  -3  -9 2940.87 170.552   2
  -1   3  -9 3035.32 184.009   1
  -2   3  -9 3074.27 206.076   2
  -2   3  -9 2763.02 183.096   1
  -2  -3  -9 2832.08 174.993   2
   2  -3   9 2816.84 174.385   2
  -3   3  -9 2853.32 208.960   2
   3  -3   9 2420.07 159.860   3
  -3   3  -9 2503.08 172.715   3
  -3   3  -9 2819.36 186.775   1
  -3  -3  -9 2544.01 175.296   2
   3  -3   9 2500.93 171.108   2
  -4  -3  -9 82.3728 31.3432   2
   4  -3   9 123.869 43.4934   2
  -4   3  -9 34.1214 34.1224   2
   4  -3   9 82.8442 34.9113   3
  -4   3  -9 61.0596 39.6124   3
  -4   3  -9 49.2987 27.5922   1
  -5  -3  -9 140.148 47.8424   2
   5  -3   9 251.477 64.6055   2
  -5   3  -9 109.521 52.6255   2
   5  -3   9 189.431 53.8250   3
  -5  -3  -9 177.429 52.0240   3
  -5   3  -9 277.630 69.2293   3
  -5   3  -9 170.747 50.4280   1
   6  -3   9 315.009 74.8088   2
  -6  -3  -9 325.283 69.8680   3
  -6   3  -9 473.034 90.7641   3
  -7  -3  -9 3424.69 212.383   3
  -7   3  -9 3834.61 248.157   3
   7  -3   9 3567.44 234.684   2
  -8  -3  -9 6.41030 25.7285   3
   8  -3   9 21.6912 26.6483   2
  -8   3  -9 12.4509 36.3827   3
   9  -3   9 23.2342 26.6926   2
  -9  -3  -9 25.2617 27.4971   3
  10  -3   9 245.322 72.9252   2
 -10  -3  -9 339.041 78.1832   3
  11  -3   9 207.731 62.6667   2
 -11  -3  -9 157.587 55.7539   3
 -12  -3  -9 759.132 118.346   3
  12  -3   9 737.463 124.528   2
 -13  -3  -9 12.2503 35.2239   3
  13  -3   9 23.9137 29.6506   2
 -14  -3  -9 50.6369 49.6745   3
  14  -3   9 51.2201 49.2057   2
 -15  -3  -9-2.85979 25.6543   3
  15  -3   9-28.5837 41.3384   2
 -16  -3  -9 72.6129 48.8018   3
 -24   4   9 241.181 80.4802   1
 -23   4   9 26.1652 40.5823   1
 -22  -4   9-29.2850 42.4615   1
 -22   4   9 66.6501 40.0906   1
 -21   4   9 436.414 82.9067   1
 -21  -4   9 226.651 70.1984   1
  20  -4  -9-23.3499 21.0393   2
 -20  -4   9 10.7612 29.3716   1
  19  -4  -9 81.2267 32.7948   2
 -19  -4   9 91.6821 40.6159   1
 -19   4   9 142.016 49.8153   1
  18  -4  -9 102.471 37.5627   2
 -18  -4   9 64.5436 38.6195   1
 -18   4   9 83.0025 34.3836   1
 -17  -4   9 193.049 32.2921   2
 -17  -4   9 197.155 58.6684   1
  17  -4  -9 134.499 41.6265   2
 -17   4   9 275.546 54.4318   1
 -16  -4   9-43.9516 41.1603   1
 -16   4   9 23.1668 19.6636   1
  16  -4  -9 8.56764 24.9613   2
 -15  -4   9 1290.91 143.301   1
  15  -4  -9 1564.88 130.958   2
 -15   4   9 1452.34 107.090   1
  14  -4  -9 830.496 96.5077   2
 -14   4   9 817.332 77.1821   1
 -14  -4   9 749.361 110.606   1
 -13   4   9 2999.77 137.888   1
  13  -4  -9 3141.96 180.048   2
 -13  -4   9 3105.04 208.828   1
  12  -4  -9-2.33246 17.4745   2
 -12   4   9 16.7939 15.3323   1
 -11   4   9 53.8446 21.0030   1
 -11  -4   9 79.5719 44.4026   1
  11   4  -9 165.595 42.8257   1
  10   4  -9 1961.26 135.387   1
 -10   4   9 1699.32 93.5289   1
 -10  -4   9 1769.01 148.743   1
  10   4  -9 1668.09 78.5403   3
  -9   4   9 45.3834 16.0163   1
  -9  -4   9 25.0535 29.3334   1
   9   4  -9 107.538 32.7888   1
   9   4  -9 73.1306 21.2782   3
  -8  -4   9 348.722 28.3210   2
   8   4  -9 379.306 45.0765   3
  -8   4   9 430.374 41.5599   1
   8   4  -9 412.170 65.7175   1
  -8  -4   9 354.040 65.2644   1
  -7  -4   9 232.892 29.2353   2
   7   4  -9 172.737 43.1843   1
   7   4  -9 236.994 39.6205   3
  -7  -4   9 120.239 46.1690   1
  -7   4   9 110.312 18.5380   1
  -6  -4   9 2194.84 101.513   2
  -6  -4   9 2235.65 159.606   1
   6   4  -9 2215.82 118.539   3
   6   4  -9 2298.17 158.705   1
  -5  -4   9 972.975 103.727   1
  -5  -4   9 1025.32 76.8820   2
   5   4  -9 963.797 82.7925   3
   5   4  -9 1034.54 107.004   1
  -4  -4   9 6972.38 214.491   2
   4   4  -9 7302.15 287.277   1
   4   4  -9 7139.23 229.960   3
  -4  -4   9 6824.32 271.854   1
  -3  -4   9 7740.65 240.255   2
   3   4  -9 6769.85 281.416   1
   3   4  -9 6806.13 235.729   3
  -3  -4   9 6493.26 258.412   1
  -2  -4   9 2068.91 131.861   2
   2  -4  -9 1742.28 67.6051   1
   2   4  -9 1973.11 151.472   1
   2   4  -9 1749.72 138.345   2
   2   4  -9 1920.10 130.692   3
  -2  -4   9 1988.90 144.658   1
  -1  -4   9 1894.72 133.425   2
   1   4  -9 1786.19 131.580   3
   1   4  -9 1647.07 140.381   1
   1   4  -9 1690.95 141.225   2
  -1  -4   9 1834.99 138.838   1
  -1  -4   9 1700.77 122.593   3
   1  -4  -9 1878.02 130.979   2
   1  -4  -9 1578.16 77.4271   1
   0   4  -9 2657.72 179.282   1
   0  -4   9 2605.77 161.621   2
   0   4  -9 2452.76 176.299   2
   0  -4   9 2400.50 149.692   3
   0   4  -9 2393.18 157.065   3
   0  -4   9 2404.72 154.878   1
   0  -4  -9 2491.84 109.008   1
   0  -4  -9 2551.26 156.407   2
   1  -4   9 97.0076 32.5160   2
  -1   4  -9 88.7556 34.7711   1
   1  -4   9 69.2684 28.3276   3
  -1   4  -9 68.4162 30.2239   3
  -1   4  -9 69.7921 39.7941   2
  -1  -4  -9 44.1181 23.8990   2
  -2   4  -9 347.805 73.9868   2
   2  -4   9 388.256 68.4706   2
  -2   4  -9 415.404 73.5896   1
   2  -4   9 471.665 71.8317   3
  -2   4  -9 338.313 66.5721   3
  -2  -4  -9 329.948 61.4318   2
  -3   4  -9 169.842 49.0725   1
   3  -4   9 147.567 48.6974   2
   3  -4   9 94.1355 35.3226   3
  -3   4  -9 155.450 56.0444   2
  -3   4  -9 173.088 54.4414   3
  -3  -4  -9 144.625 48.4233   2
  -4   4  -9-0.51911 24.9393   1
   4  -4   9 13.6060 34.3051   2
  -4   4  -9-16.7705 34.8868   2
   4  -4   9 6.01779 18.2670   3
  -4   4  -9-1.11307 26.9061   3
  -4  -4  -9 10.9226 15.0261   2
  -5   4  -9 594.623 107.282   2
  -5   4  -9 710.111 105.615   3
   5  -4   9 658.910 101.921   2
  -6  -4  -9 1568.38 141.747   3
  -6   4  -9 1657.34 166.273   3
   6  -4   9 1541.28 157.475   2
   7  -4   9 183.441 56.2191   2
  -7  -4  -9 165.888 51.5527   3
  -8  -4  -9 2506.56 187.305   3
   8  -4   9 2284.57 198.698   2
   9  -4   9 385.545 84.4195   2
  -9  -4  -9 604.852 95.8995   3
  10  -4   9-35.3470 41.4085   2
 -10  -4  -9-30.9231 34.1181   3
  11  -4   9 169.099 66.8232   2
 -11  -4  -9 32.4811 30.8366   3
  12  -4   9 327.958 90.6541   2
 -12  -4  -9 260.542 68.1635   3
  13  -4   9 44.8838 56.0076   2
 -13  -4  -9 32.8424 36.9423   3
 -14  -4  -9 43.4043 35.8315   3
  14  -4   9 117.611 67.1120   2
 -15  -4  -9-6.10387 25.7694   3
  15  -4   9 67.7922 51.0452   2
 -16  -4  -9 133.361 55.9779   3
 -17  -4  -9 19.0755 37.2574   3
 -24   5   9 16.6622 42.0730   1
 -23   5   9 173.499 63.0925   1
 -22  -5   9-22.3703 36.6076   1
 -22   5   9 111.608 51.1633   1
 -21  -5   9-29.5170 52.7702   1
 -20  -5   9-41.9092 52.8317   1
  20  -5  -9 40.0727 21.6451   2
 -19  -5   9-31.4486 32.3736   1
  19  -5  -9 50.7046 37.8730   2
  18  -5  -9 241.979 57.2322   2
 -18  -5   9 171.702 62.1590   1
  17  -5  -9-1.64634 18.6461   2
 -17  -5   9 2.57385 26.0862   1
  16  -5  -9 889.938 106.072   2
 -16  -5   9 744.616 60.1282   2
 -16  -5   9 876.596 124.035   1
 -15  -5   9 6.95946 7.19376   2
  15  -5  -9 34.0089 32.0956   2
 -15  -5   9 19.8095 34.0774   1
  14  -5  -9 678.676 94.8219   2
 -14  -5   9 634.285 103.060   1
 -14   5   9 696.574 68.3178   1
 -13  -5   9 974.013 49.9973   2
  13  -5  -9 1165.73 124.734   2
 -13   5   9 1156.36 83.2820   1
 -13  -5   9 1129.37 130.938   1
 -12  -5   9 24.8578 8.73345   2
 -12  -5   9 89.8170 48.5776   1
  12  -5  -9 89.4276 37.0896   2
 -12   5   9 77.9635 23.9630   1
 -11  -5   9 827.482 50.3544   2
 -11  -5   9 627.881 36.5227   2
 -11  -5   9 828.682 109.095   1
 -11   5   9 754.201 60.8633   1
 -10   5   9 196.739 31.7552   1
  10   5  -9 226.650 52.5985   1
 -10  -5   9 186.416 50.1328   1
 -10  -5   9 218.446 27.8772   2
 -10  -5   9 178.763 20.1725   2
  -9   5   9 1300.68 72.0215   1
  -9  -5   9 1218.09 70.7281   2
  -9  -5   9 1245.77 127.872   1
   9   5  -9 1291.55 119.819   1
  -8  -5   9 263.023 58.2457   1
  -8  -5   9 322.508 40.8256   2
   8   5  -9 313.145 62.1765   1
  -8   5   9 284.793 29.4466   1
   7   5  -9 2061.67 157.352   1
  -7  -5   9 2065.12 160.430   1
  -7  -5   9 1966.08 104.998   2
  -6  -5   9 390.193 52.5040   2
   6   5  -9 448.082 58.9853   3
  -6  -5   9 395.596 71.0420   1
   6   5  -9 507.200 79.0546   1
   5   5  -9 214.039 49.9710   3
  -5  -5   9 276.709 52.5257   2
  -5  -5   9 54.3265 54.3838   1
   5   5  -9 51.6386 40.8441   1
  -4  -5   9 3422.62 166.809   2
  -4  -5   9 3310.86 157.607   3
   4   5  -9 3618.25 210.090   1
   4   5  -9 3292.20 165.967   3
  -4  -5   9 3361.67 200.099   1
  -3  -5   9 1936.13 132.648   2
   3   5  -9 1666.57 147.026   1
  -3  -5   9 1595.02 114.085   3
   3   5  -9 1874.47 131.450   3
  -3  -5   9 1755.96 142.689   1
  -2  -5   9 4384.61 208.842   2
   2   5  -9 4488.86 239.007   1
  -2  -5   9 4295.11 194.900   3
   2   5  -9 4349.88 204.587   3
  -2  -5   9 4288.58 219.720   1
   1  -5  -9 99.5476 17.7125   1
  -1  -5   9 174.127 44.6200   2
  -1  -5   9 112.695 34.9809   3
   1   5  -9 105.977 40.4858   1
   1   5  -9 115.627 43.5423   3
  -1  -5   9 90.3675 40.4966   1
   0  -5   9 211.391 55.8194   2
   0   5  -9 139.362 43.3833   1
   0  -5  -9 90.2062 39.8533   2
   0  -5   9 122.684 38.7042   3
   0   5  -9 174.987 56.8881   2
   0   5  -9 161.672 49.7589   3
   0  -5   9 98.3156 48.8803   1
   1  -5   9 154.693 44.2501   2
  -1   5  -9 198.690 52.7748   1
   1  -5   9 183.542 44.4143   3
  -1   5  -9 142.317 49.8263   2
  -1   5  -9 134.162 43.3269   3
  -1  -5  -9 214.073 49.7670   2
   2  -5   9 181.840 55.0661   2
  -2   5  -9 187.321 53.9531   1
   2  -5   9 139.926 42.5111   3
  -2   5  -9 167.917 58.1890   2
  -2   5  -9 194.000 58.8740   3
  -2  -5  -9 198.134 50.9540   2
   3  -5   9 990.726 117.217   2
  -3   5  -9 1014.70 132.781   2
   3  -5   9 1112.72 116.167   3
  -3  -5  -9 1044.66 116.289   2
  -3   5  -9 964.184 119.426   1
   4  -5   9 3931.54 242.106   2
  -4   5  -9 3766.30 268.914   2
   5  -5   9 1004.48 126.834   2
   6  -5   9 4149.60 262.518   2
   7  -5   9 159.284 53.5134   2
  -7  -5  -9 115.003 45.0522   3
   8  -5   9 47.9981 39.5855   2
  -8  -5  -9 21.3574 24.1411   3
   9  -5   9 27.3027 34.6568   2
  -9  -5  -9-1.05572 24.5069   3
  10  -5   9-99.8458 52.1847   2
 -10  -5  -9-27.7286 41.4281   3
  11  -5   9-73.1314 45.6222   2
 -11  -5  -9-7.91753 25.1512   3
  12  -5   9-16.2206 29.8527   2
 -12  -5  -9-44.3851 34.5906   3
  13  -5   9 458.814 109.548   2
 -13  -5  -9 332.051 79.7327   3
  14  -5   9 44.4927 44.8573   2
 -14  -5  -9 68.8035 49.6448   3
  15  -5   9 155.291 65.4585   2
 -15  -5  -9 70.5295 48.9537   3
 -16  -5  -9 25.3123 28.1243   3
 -24   6   9 79.5602 58.1568   1
 -21  -6   9 356.605 93.6771   1
  20  -6  -9 16.4268 31.8223   2
 -20  -6   9 1.19884 40.7410   1
  19  -6  -9 19.2213 29.5354   2
 -19  -6   9 31.1139 30.5244   1
  18  -6  -9 86.4994 40.8563   2
 -18  -6   9 86.8044 47.9328   1
  17  -6  -9 39.9831 28.3674   2
 -17  -6   9-22.6368 32.0361   1
 -16  -6   9 2.86868 10.1473   2
  16  -6  -9 24.7637 27.1928   2
 -16  -6   9 7.02850 21.1875   1
 -15  -6   9 737.516 60.8750   2
  15  -6  -9 845.647 113.456   2
 -15  -6   9 917.983 127.635   1
  14  -6  -9 840.164 110.354   2
 -14  -6   9 876.766 123.734   1
 -14  -6   9 822.016 60.3176   2
  13  -6  -9 2285.15 179.315   2
 -13  -6   9 2113.85 91.4753   2
 -13  -6   9 2267.96 192.145   1
 -12  -6   9 329.399 80.9975   1
 -12   6   9 310.598 42.6270   1
 -12  -6   9 220.163 29.0722   2
 -11  -6   9 4045.05 248.066   1
 -11   6   9 3939.09 127.543   1
 -11  -6   9 4008.04 118.625   2
 -10  -6   9 646.698 61.7850   2
 -10   6   9 642.300 49.2867   1
 -10  -6   9 732.374 105.287   1
   9   6  -9 298.028 61.4206   1
  -9   6   9 255.203 28.8940   1
  -9  -6   9 328.078 46.8912   2
  -9  -6   9 262.728 56.8190   1
  -8   6   9 408.439 27.6084   1
  -8   6   9 391.256 27.7776   1
  -8  -6   9 504.249 58.6804   2
   8   6  -9 663.656 93.6439   1
  -8  -6   9 440.710 73.6197   1
   7   6  -9 36.2873 16.6047   1
  -7  -6   9 1.57829 16.8388   2
  -7  -6   9 10.1479 27.5255   1
  -6  -6   9 110.333 48.4592   1
  -6  -6   9 145.725 39.9920   2
   6   6  -9 94.2219 44.2413   1
  -5  -6   9 138.092 47.8590   1
   5   6  -9 108.883 40.7013   1
  -5  -6   9 202.485 49.0960   2
  -5  -6   9 99.1929 27.8723   3
  -4  -6   9 1155.70 106.078   2
   4   6  -9 1446.98 141.265   1
  -4  -6   9 1235.62 100.753   3
  -4  -6   9 1195.43 123.723   1
  -3  -6   9 755.819 94.0718   2
   3   6  -9 618.223 93.9353   1
  -3  -6   9 717.505 80.7210   3
  -3  -6   9 664.604 94.7878   1
  -2  -6   9 559.584 83.7243   1
  -2  -6   9 698.985 90.3609   2
   2   6  -9 674.978 97.4851   1
  -2  -6   9 618.444 78.0166   3
   1  -6  -9 367.133 25.4963   1
   1   6  -9 479.086 84.5075   1
  -1  -6   9 463.210 75.4082   2
  -1  -6   9 398.281 65.4998   3
   1  -6  -9 386.886 27.7654   1
  -1  -6   9 424.000 71.6027   1
   0  -6   9 92.6864 39.0010   2
   0   6  -9 36.0293 22.9984   1
   0  -6   9 10.0844 16.9976   3
   0  -6  -9 71.4436 15.1187   1
   0  -6   9 35.4372 35.6545   1
   1  -6   9 15.6276 26.2253   2
  -1   6  -9 2.27241 23.6591   1
   1  -6   9 23.1277 16.8531   3
  -1  -6  -9 39.4685 23.3879   2
   2  -6   9 1030.59 121.187   2
   2  -6   9 810.519 100.621   3
  -2  -6  -9 1000.15 116.025   2
  -2   6  -9 791.088 111.573   1
   3  -6   9 47.6844 44.1633   2
  -3   6  -9 61.5475 42.4945   2
   4  -6   9 290.448 77.7503   2
   5  -6   9 803.406 119.862   2
   6  -6   9 68.6710 46.2209   2
   7  -6   9 175.488 62.5342   2
  -8  -6  -9 681.746 100.064   3
   8  -6   9 838.614 129.617   2
   9  -6   9 504.980 103.027   2
  -9  -6  -9 575.842 93.7062   3
  10  -6   9-22.7250 42.2255   2
 -10  -6  -9 7.16155 23.4692   3
  11  -6   9 211.192 73.3571   2
 -11  -6  -9 117.949 46.3636   3
  12  -6   9 389.367 104.042   2
 -12  -6  -9 305.665 73.0995   3
  13  -6   9 515.988 113.704   2
 -13  -6  -9 404.086 85.7938   3
  14  -6   9 117.494 68.4826   2
 -14  -6  -9 86.1063 46.7662   3
 -15  -6  -9 9.74613 29.2976   3
 -16  -6  -9 14.8374 26.2437   3
  20  -7  -9 81.6213 44.0487   2
 -20  -7   9 90.8255 54.7250   1
  19  -7  -9 117.723 51.6052   2
 -19  -7   9 130.230 65.0636   1
  18  -7  -9-145.455 52.9714   2
 -18  -7   9 45.9459 45.3335   1
  17  -7  -9 64.2775 36.3937   2
 -17  -7   9 83.7379 52.4082   1
 -16  -7   9 56.3492 43.2759   1
  16  -7  -9 21.1333 31.6267   2
  15  -7  -9 697.590 108.925   2
 -15  -7   9 617.198 111.856   1
 -15  -7   9 623.445 61.8001   2
  14  -7  -9 121.351 51.7939   2
 -14  -7   9 106.021 25.2774   2
 -14  -7   9 184.431 62.5271   1
  13  -7  -9 688.135 105.587   2
 -13  -7   9 654.750 109.585   1
 -13  -7   9 770.435 63.3830   2
 -12  -7   9 1163.53 140.505   1
 -12  -7   9 1102.25 73.5894   2
 -11  -7   9 27.7960 34.7910   1
 -10   7   9 2147.39 81.6469   1
 -10  -7   9 2345.28 194.634   1
 -10   7   9 2216.94 100.249   1
  -9   7   9-2.82041 5.48240   1
  -9  -7   9 10.1507 17.2857   2
  -9   7   9 0.60841 6.66491   1
  -8  -7   9 2737.34 204.051   1
  -8  -7   9 2669.32 154.343   2
  -7  -7   9 71.7513 24.6080   3
  -7  -7   9 61.0322 33.5276   1
  -7  -7   9 44.9743 30.4430   2
  -6  -7   9-40.9619 38.4678   1
  -6  -7   9 0.90824 13.7387   3
  -6  -7   9 43.8747 39.5118   2
   6   7  -9 4.01360 21.2210   1
  -5  -7   9 728.699 91.5129   2
  -5  -7   9 754.094 81.2865   3
   5   7  -9 620.286 99.1908   1
  -5  -7   9 787.696 111.346   1
  -4  -7   9 10.9492 12.4090   3
   4   7  -9-19.3723 30.4544   1
  -4  -7   9 25.1879 26.2145   2
   3   7  -9 122.238 46.1210   1
  -3  -7   9 143.557 48.0400   1
  -3  -7   9 111.770 39.7559   2
  -3  -7   9 126.720 37.3497   3
  -2  -7   9 961.114 110.850   2
   2   7  -9 842.388 112.629   1
  -2  -7   9 957.861 100.916   3
  -2  -7   9 818.461 107.020   1
  -1  -7   9 1251.90 134.275   2
   1   7  -9 1341.42 145.199   1
  -1  -7   9 1377.76 125.017   3
  -1  -7   9 1434.05 139.048   1
   0  -7   9 215.333 56.6720   2
   0  -7   9 130.309 39.5891   3
   0  -7   9 162.338 45.6012   1
   0  -7  -9 173.747 24.4767   1
   1  -7   9 454.232 87.1783   2
  -1  -7  -9 321.611 36.5479   1
   1  -7   9 340.282 66.8163   3
   1  -7   9 434.453 88.4472   1
   2  -7   9 88.8423 46.0441   2
  -2  -7  -9 112.336 25.4684   1
   3  -7   9 174.834 61.0046   2
  -3  -7  -9 33.3942 21.8890   1
   4  -7   9 175.627 65.7618   2
   5  -7   9 426.368 91.5247   2
   6  -7   9 321.295 86.6024   2
   7  -7   9 108.724 55.5636   2
   8  -7   9 22.7066 28.4296   2
   9  -7   9 96.1074 49.9556   2
  -9  -7  -9 47.8909 33.3446   3
 -10  -7  -9 335.260 78.4664   3
  10  -7   9 427.667 100.504   2
  11  -7   9 113.657 57.5167   2
 -11  -7  -9-33.9232 32.2615   3
  12  -7   9 734.184 141.890   2
 -12  -7  -9 718.237 111.898   3
  13  -7   9 99.1067 58.9731   2
 -13  -7  -9 111.591 44.5082   3
 -14  -7  -9 10.9007 26.0457   3
 -15  -7  -9 82.2983 52.7767   3
  20  -8  -9-57.5739 36.4296   2
 -20  -8   9 9.83756 31.5087   1
  19  -8  -9 165.807 62.5016   2
 -19  -8   9 45.5618 32.5534   1
  18  -8  -9-9.11151 25.0404   2
 -18  -8   9-38.2892 26.4072   1
 -17  -8   9 20.9092 31.0307   1
  17  -8  -9 8.84278 26.8265   2
 -16  -8   9 230.582 74.3831   1
  16  -8  -9 164.997 60.5205   2
 -15  -8   9 82.4339 49.6518   1
  15  -8  -9 130.937 58.1449   2
 -14  -8   9 260.562 73.6503   1
  14  -8  -9 127.835 47.0197   2
 -14  -8   9 154.950 34.7872   2
 -13  -8   9 577.275 105.384   1
  13  -8  -9 513.794 94.5606   2
 -13  -8   9 545.960 58.9965   2
 -12  -8   9 1735.51 179.089   1
 -12   8   9 1445.36 101.750   1
 -11  -8   9 1535.16 166.602   1
 -11   8   9 1526.37 95.8127   1
 -10   8   9 135.674 25.8279   1
 -10   8   9 172.836 23.3294   1
 -10  -8   9 101.453 41.1805   1
  -9   8   9 136.984 19.2854   1
  -9   8   9 124.793 15.6922   1
  -9  -8   9 121.651 42.0974   1
  -8  -8   9 21.4841 15.4908   3
  -8  -8   9 41.9526 26.5460   1
  -8  -8   9 24.2109 19.4923   2
  -7  -8   9 692.609 89.8691   2
  -7  -8   9 591.401 70.2963   3
  -7  -8   9 572.894 95.4546   1
  -6  -8   9 395.312 81.0294   1
  -6  -8   9 536.702 69.7816   3
  -6  -8   9 489.083 75.8284   2
  -5  -8   9 276.841 68.9118   1
  -5  -8   9 299.409 63.4853   2
  -5  -8   9 261.851 50.8915   3
  -4  -8   9 36.0559 31.4467   1
  -4  -8   9 78.7139 30.1803   3
  -4  -8   9 84.7704 37.7588   2
  -3  -8   9 121.962 45.5781   1
  -3  -8   9 134.712 44.6216   2
  -3  -8   9 100.268 37.1306   3
  -2  -8   9 276.847 65.1387   1
  -2  -8   9 281.262 57.5040   3
  -2  -8   9 272.526 68.4608   2
  -1  -8   9 144.001 46.8509   3
  -1  -8   9 198.176 56.9918   2
  -1  -8   9 177.151 62.2276   1
   0  -8   9 1063.26 135.645   2
   0  -8  -9 850.369 54.2785   1
   0  -8   9 888.120 105.630   3
   0  -8   9 1157.78 129.310   1
   1  -8   9 632.845 106.492   2
   1  -8   9 658.989 99.1778   1
  -1  -8  -9 662.627 56.7003   1
  -2  -8  -9 341.963 44.2367   1
   2  -8   9 256.860 68.6800   2
   3  -8   9 217.755 67.6410   2
  -3  -8  -9 240.999 39.8617   1
   4  -8   9 2002.94 195.113   2
  -4  -8  -9 2320.33 130.135   1
   5  -8   9 132.732 56.2534   2
  -5  -8  -9 9.48276 20.3852   1
  -6  -8  -9 451.946 64.0781   1
   6  -8   9 419.019 94.9936   2
  -7  -8  -9 44.7685 24.2981   1
   7  -8   9 61.2280 44.3835   2
   8  -8   9 746.297 130.878   2
  -8  -8  -9 615.888 78.3308   1
   9  -8   9 511.815 110.262   2
  -9  -8  -9 764.450 90.4574   1
  10  -8   9 22.4234 32.1433   2
 -10  -8  -9 77.3461 38.8020   3
 -10  -8  -9 70.8598 34.7011   1
  11  -8   9 78.9362 55.8174   2
 -11  -8  -9 88.9272 41.3776   3
 -11  -8  -9 168.740 46.2673   1
  12  -8   9 35.6227 35.5877   2
 -12  -8  -9 29.9291 36.4885   3
 -12  -8  -9 77.8984 39.0557   1
  13  -8   9-46.9063 42.7165   2
 -13  -8  -9 37.2060 28.7551   1
 -13  -8  -9 1.13335 21.1422   3
 -14  -8  -9 213.730 58.0516   1
 -14  -8  -9 5.96974 20.0882   3
 -15  -8  -9 33.2268 26.4880   1
  20  -9  -9 122.650 54.3445   2
 -19  -9   9 194.327 75.1425   1
  19  -9  -9 47.4958 39.7652   2
 -18  -9   9 190.975 74.0778   1
  18  -9  -9 167.515 64.7479   2
 -17  -9   9 86.2396 51.7183   1
  17  -9  -9 97.5166 48.2803   2
 -16  -9   9 158.300 66.7702   1
  16  -9  -9 167.869 60.1207   2
 -15  -9   9 39.1963 44.1477   1
  15  -9  -9 23.2663 30.2686   2
 -14  -9   9 260.517 75.2675   1
  14  -9  -9 334.026 82.6560   2
 -13  -9   9 60.3362 49.0749   1
 -13   9   9 99.6182 31.3124   1
 -12   9   9 185.885 38.8045   1
 -12  -9   9 117.002 54.5282   1
 -11   9   9 98.5303 25.4088   1
 -11  -9   9 92.6572 49.8221   1
 -10   9   9 175.008 27.2772   1
 -10  -9   9 236.792 71.2470   1
  -9  -9   9 1590.21 177.332   1
  -9  -9   9 1574.19 107.895   3
  -8  -9   9 1198.19 145.742   1
  -8  -9   9 1389.79 107.988   3
  -7  -9   9-6.57617 31.9070   1
  -7  -9   9 17.1623 18.1366   3
  -7  -9   9 60.9059 27.5414   2
  -6  -9   9 17.0610 20.5424   2
  -6  -9   9-24.3843 36.5900   1
  -6  -9   9 17.4217 21.1030   3
  -5  -9   9 56.6991 36.3515   1
  -5  -9   9 42.9648 38.5609   2
  -5  -9   9-3.85815 16.6986   3
  -4  -9   9 83.3971 36.9925   1
  -4  -9   9 93.7036 30.4753   3
  -4  -9   9 150.364 52.3232   2
  -3  -9   9 21.6079 27.9274   3
  -3  -9   9 15.1166 26.6363   2
  -2  -9   9 1202.09 138.630   2
  -2  -9   9 1001.99 111.951   3
  -2  -9   9 1257.31 141.209   1
  -1  -9   9 396.690 84.9482   2
  -1  -9   9 414.083 82.0790   1
   0  -9  -9 31.4245 13.4383   1
   0  -9   9 31.3338 31.0250   2
   0  -9   9-0.97153 26.7541   1
  -1  -9  -9 178.819 32.8421   1
   1  -9   9 237.732 73.5676   2
   1  -9   9 392.199 83.9396   1
   2  -9   9 3223.57 248.989   2
  -2  -9  -9 3041.60 141.035   1
  -3  -9  -9 2099.77 127.137   1
   3  -9   9 2018.91 201.170   2
  -4  -9  -9 667.601 77.0319   1
   4  -9   9 636.076 118.729   2
   5  -9   9 1073.67 154.113   2
  -5  -9  -9 1045.33 99.5110   1
  -6  -9  -9 10.9476 21.0042   1
   6  -9   9 1.18817 38.8786   2
   7  -9   9 30.9959 40.0567   2
  -7  -9  -9 12.9359 20.9022   1
   8  -9   9 228.383 82.4847   2
  -8  -9  -9 262.767 59.6004   1
   9  -9   9 159.189 62.1846   2
  -9  -9  -9 167.047 48.4038   1
 -10  -9  -9 108.027 44.3853   1
  10  -9   9 124.674 63.1881   2
 -11  -9  -9 86.0738 40.2857   1
  11  -9   9 64.3077 55.8037   2
 -11  -9  -9 43.6879 22.8575   3
  12  -9   9-25.8649 38.2687   2
 -12  -9  -9 27.3097 28.7823   3
 -13  -9  -9 133.980 46.9346   1
 -13  -9  -9 75.6610 41.2793   3
 -14  -9  -9-43.9959 30.7853   1
 -14  -9  -9-11.6348 24.6532   3
 -15  -9  -9 0.62310 17.6222   1
  19 -10  -9 24.9813 24.1004   2
 -18 -10   9-9.14863 40.6180   1
  18 -10  -9-23.3588 32.3897   2
 -17 -10   9 498.679 115.932   1
  17 -10  -9 327.238 89.3210   2
 -16 -10   9 92.9554 51.5740   1
  16 -10  -9-93.0240 49.4439   2
 -15 -10   9-2.54585 30.7102   1
  15 -10  -9-8.26246 34.1974   2
  14 -10  -9-22.7776 31.3212   2
 -14 -10   9 64.9164 35.7648   1
 -13 -10   9-21.1640 27.9090   1
 -12 -10   9 6.46588 30.6037   1
 -11  10   9 22.2301 9.04678   1
 -11 -10   9 108.715 49.4517   1
 -10  10   9 225.054 30.7780   1
 -10 -10   9 289.839 45.7532   3
 -10 -10   9 358.397 85.9645   1
  -9 -10   9 176.879 61.5889   1
  -9 -10   9 124.700 34.7644   3
  -8 -10   9 621.819 79.4888   3
  -8 -10   9 512.867 100.201   1
  -7 -10   9 138.726 55.1427   1
  -7 -10   9 92.5391 33.1824   3
  -7 -10   9 162.207 53.0977   2
  -6 -10   9 618.347 107.857   1
  -6 -10   9 545.618 78.8214   3
  -6 -10   9 521.956 89.1575   2
  -5 -10   9-1.07198 24.3276   3
  -5 -10   9 1.42991 39.2200   1
  -5 -10   9 37.8471 27.1597   2
  -4 -10   9 50.0771 33.8910   1
  -4 -10   9 108.171 47.7588   2
  -4 -10   9 65.8337 31.5404   3
  -3 -10   9 178.446 62.2915   1
  -3 -10   9 222.229 64.4397   2
  -3 -10   9 159.409 44.8069   3
  -2 -10   9 12.7969 31.3027   1
  -2 -10   9 47.4491 35.4658   2
  -1 -10   9 18.7715 35.2165   2
  -1 -10   9 7.13145 27.6802   1
   0 -10   9 308.688 74.6594   2
   0 -10   9 436.561 86.9918   1
   0 -10  -9 294.048 32.5012   1
  -1 -10  -9 134.583 28.7078   1
   1 -10   9 213.644 68.1940   2
   1 -10   9 239.187 67.5115   1
   2 -10   9 67.1553 46.2558   2
  -2 -10  -9 96.5151 30.2684   1
  -3 -10  -9-17.4552 17.9333   1
   3 -10   9-12.4992 34.1615   2
   4 -10   9 870.824 138.892   2
  -4 -10  -9 1025.94 100.751   1
   5 -10   9 122.251 48.8934   2
  -5 -10  -9 116.865 35.1056   1
  -6 -10  -9-37.8937 33.4489   1
   6 -10   9-5.09760 31.1905   2
   7 -10   9 23.8112 40.8745   2
  -7 -10  -9 102.291 40.3323   1
   8 -10   9 97.2751 53.4290   2
  -8 -10  -9 179.087 54.5995   1
   9 -10   9 299.780 95.7774   2
  -9 -10  -9 341.448 76.0890   1
 -10 -10  -9-8.00223 25.8992   1
  10 -10   9 27.9524 52.1197   2
 -11 -10  -9 52.7037 34.9224   1
  11 -10   9-3.56167 35.5444   2
 -11 -10  -9 3.89390 20.3163   3
 -12 -10  -9 126.178 51.9664   1
 -12 -10  -9 120.355 55.2746   3
 -13 -10  -9 172.053 61.2771   1
 -13 -10  -9 134.522 54.2357   3
  19 -11  -9 83.0131 53.9387   2
  18 -11  -9-9.90192 26.2221   2
 -17 -11   9 37.0720 34.1475   1
  17 -11  -9 30.0464 38.3958   2
  16 -11  -9-5.81811 34.6168   2
 -16 -11   9-108.757 60.5907   1
  15 -11  -9-85.0849 51.8167   2
 -15 -11   9-41.4369 39.5184   1
  14 -11  -9 100.924 52.1317   2
 -14 -11   9 25.6041 28.1181   1
 -13 -11   9-83.1493 51.8340   1
 -12 -11   9-30.6629 48.9130   1
 -11 -11   9-16.9530 26.7796   1
 -10 -11   9 231.490 68.8750   1
  -9 -11   9 1095.48 150.571   1
  -9 -11   9 1241.60 114.366   3
  -8 -11   9 257.853 73.9336   1
  -8 -11   9 293.558 58.4058   3
  -7 -11   9 593.974 109.724   1
  -7 -11   9 416.974 73.7360   3
  -7 -11   9 413.912 82.0526   2
  -6 -11   9 23.7433 43.5668   1
  -6 -11   9 3.08968 19.4289   3
  -6 -11   9 16.2204 33.7074   2
  -5 -11   9 186.883 65.4115   1
  -5 -11   9 129.017 45.1965   3
  -5 -11   9 106.857 49.7813   2
  -4 -11   9-27.9309 40.4244   1
  -4 -11   9 25.2282 24.2212   2
  -3 -11   9 44.4177 34.1223   1
  -3 -11   9 57.4626 39.6318   2
  -2 -11   9 589.088 108.466   2
  -2 -11   9 515.798 102.813   1
  -1 -11   9 469.793 96.1094   2
  -1 -11   9 445.211 93.2974   1
   0 -11   9 601.869 115.214   2
   0 -11  -9 416.305 39.0198   1
   0 -11   9 538.653 102.423   1
  -1 -11  -9 85.0527 22.0610   1
   1 -11   9 163.102 62.9847   2
   1 -11   9 69.8553 42.1087   1
   2 -11   9-4.87278 42.0776   2
  -2 -11  -9 27.6057 22.8750   1
  -3 -11  -9 749.810 82.1246   1
   3 -11   9 782.220 135.184   2
  -4 -11  -9 20.3383 19.7933   1
   4 -11   9-99.4519 65.0593   2
   5 -11   9 352.461 93.3172   2
  -5 -11  -9 288.735 61.3135   1
   6 -11   9-7.46936 30.5957   2
  -6 -11  -9 25.0978 26.5743   1
   7 -11   9 27.9005 37.2552   2
  -7 -11  -9 31.3036 30.5715   1
  -8 -11  -9 31.7107 23.7782   1
   8 -11   9 76.4109 39.8680   2
  -9 -11  -9 199.685 57.1919   1
   9 -11   9 178.189 77.0703   2
  10 -11   9 61.1439 60.2709   2
 -12 -11  -9-24.6228 27.7932   3
  19 -12  -9-26.0991 31.5019   2
  18 -12  -9-76.7600 50.3210   2
  17 -12  -9 31.3491 50.2333   2
  16 -12  -9-21.9643 34.3251   2
  15 -12  -9-50.6970 44.2682   2
 -15 -12   9 3.86354 30.8174   1
 -14 -12   9 63.5609 43.5734   1
  14 -12  -9 70.8106 51.1297   2
 -13 -12   9 2.45473 37.5335   1
 -12 -12   9-47.9595 40.6638   1
 -11 -12   9 298.467 86.2032   1
 -10 -12   9 48.0238 43.4958   1
  -9 -12   9 49.6977 28.5759   1
  -8 -12   9-20.3739 42.5103   1
  -7 -12   9 3.13521 23.8861   2
  -7 -12   9 26.5268 38.0414   1
  -7 -12   9 15.2671 20.2764   3
  -6 -12   9 386.349 93.7604   1
  -6 -12   9 292.981 75.0758   2
  -6 -12   9 297.714 67.3656   3
  -5 -12   9 152.420 55.2133   1
  -5 -12   9 104.321 52.0060   2
  -4 -12   9 160.512 61.0133   1
  -4 -12   9 64.3188 41.4886   2
  -3 -12   9 251.992 71.7753   1
  -3 -12   9 319.808 85.0754   2
  -2 -12   9-33.8701 36.2883   2
  -2 -12   9 35.7623 29.0305   1
  -1 -12   9 41.4952 34.7854   2
  -1 -12   9 14.9588 31.8665   1
   0 -12   9 717.926 119.321   1
   0 -12   9 584.185 116.639   2
   1 -12   9 59.4276 38.5571   2
   1 -12   9 123.061 56.6358   1
   2 -12   9 875.068 147.803   2
   3 -12   9 237.831 84.6537   2
   4 -12   9 69.0749 57.3313   2
   5 -12   9 103.752 60.1501   2
   6 -12   9 11.2046 47.9517   2
   7 -12   9 15.8374 38.6197   2
   8 -12   9 137.937 69.4607   2
   9 -12   9 157.616 78.0704   2
  17 -13  -9 52.5344 53.6018   2
  16 -13  -9 22.5346 32.3610   2
  15 -13  -9-8.67683 29.2046   2
  14 -13  -9-19.9653 27.7517   2
 -14 -13   9-8.87694 34.9004   1
 -13 -13   9 110.759 60.4500   1
 -12 -13   9 34.4862 38.1866   1
 -11 -13   9 176.829 66.3408   1
 -10 -13   9-33.8831 44.2445   1
  -9 -13   9 31.2060 40.3628   1
  -8 -13   9-8.74482 31.2594   1
  -7 -13   9 104.622 53.9261   1
  -7 -13   9 86.1752 50.3356   2
  -6 -13   9 89.8541 39.3917   1
  -6 -13   9 88.0389 44.3030   2
  -5 -13   9 200.758 73.6375   1
  -5 -13   9 140.052 52.6342   2
  -4 -13   9 53.7054 39.1566   1
  -4 -13   9 35.6160 37.3324   2
  -3 -13   9 36.7111 35.4059   1
  -3 -13   9 22.6293 45.3949   2
  -2 -13   9 33.2976 33.1934   2
  -2 -13   9 45.0487 43.5281   1
  -1 -13   9 17.3700 30.9125   2
  -1 -13   9 144.607 61.3187   1
   0 -13   9 90.8849 51.0272   2
   0 -13   9 148.166 66.3558   1
   1 -13   9 289.319 89.8937   2
   2 -13   9 23.0844 35.6775   2
   3 -13   9 629.096 135.478   2
   4 -13   9 98.9618 57.9760   2
   5 -13   9-147.805 70.4960   2
   6 -13   9 33.6816 40.7634   2
   7 -13   9 49.6071 46.4645   2
  15 -14  -9-94.2564 57.6222   2
  14 -14  -9 10.7175 30.4644   2
 -12 -14   9 38.4977 39.5513   1
 -11 -14   9-19.3053 31.9131   1
 -10 -14   9 81.7996 59.1309   1
  -9 -14   9-65.8414 48.4539   1
  -8 -14   9 16.8749 39.8461   1
  -7 -14   9-19.1369 41.2239   1
  -7 -14   9 3.96240 24.8226   2
  -6 -14   9-6.41943 26.0246   1
  -6 -14   9-48.8164 40.2051   2
  -5 -14   9-30.9544 38.1920   1
  -5 -14   9-1.04154 34.9295   2
  -4 -14   9-85.3086 50.1369   1
  -4 -14   9 30.1486 33.7320   2
  -3 -14   9 93.5455 58.3770   2
  -3 -14   9 84.9744 50.8583   1
  -2 -14   9 135.077 62.0389   2
  -2 -14   9 80.2582 41.8846   1
  -1 -14   9 64.7993 45.3702   2
  -1 -14   9 176.027 71.1470   1
   0 -14   9 79.9808 49.0690   2
   0 -14   9 27.5256 25.1915   1
   1 -14   9 11.2517 32.1228   2
   2 -14   9 56.7659 39.2149   2
   3 -14   9-144.425 69.2019   2
   4 -14   9-42.4608 44.1455   2
   5 -14   9-2.72413 26.8344   2
   6 -14   9 33.2446 47.3470   2
  -9 -15   9 62.5948 50.3082   1
  -8 -15   9 4.96161 36.2631   1
  -8 -15   9 13.9872 29.2702   2
  -7 -15   9-114.482 59.3980   1
  -7 -15   9-50.1061 40.3880   2
  -6 -15   9 152.063 65.0773   1
  -6 -15   9 118.487 55.2093   2
  -5 -15   9 128.632 62.8144   1
  -5 -15   9 125.665 61.6983   2
  -4 -15   9-87.0353 51.4426   1
  -4 -15   9 3.70005 23.0397   2
  -3 -15   9 38.7954 40.5151   2
  -3 -15   9 34.6690 48.4227   1
  -2 -15   9 59.4518 44.9181   2
  -2 -15   9-17.4947 33.6670   1
  -1 -15   9 55.7692 42.2717   2
  -1 -15   9 124.966 60.5346   1
   0 -15   9 83.0608 58.8336   2
   0 -15   9 91.9601 54.7486   1
   1 -15   9 37.6352 38.3968   2
   2 -15   9 93.1920 62.4167   2
   3 -15   9-27.9423 37.9744   2
  -8 -16   9-10.9724 32.9448   2
  -7 -16   9-84.7337 49.9481   2
  -6 -16   9 31.8424 42.4503   2
  -5 -16   9 50.6655 30.9972   2
  -4 -16   9 65.6403 50.8991   2
  -3 -16   9 124.164 69.4030   2
  -2 -16   9 13.8136 29.5940   2
  -1 -16   9 38.9815 40.7432   2
   0 -16   9-0.27362 38.1456   2
   1 -16   9-55.6931 47.9441   2
  -7 -17   9 7.77520 43.4519   2
  -6 -17   9 12.0324 30.2523   2
  -5 -17   9-30.8422 33.9907   2
  -4 -17   9 83.7395 53.3850   2
  -3 -17   9 17.4374 40.0760   2
 -24   0  10 118.863 55.6975   1
 -23   0  10-15.6920 30.9537   1
 -22   0  10 38.0090 23.6632   1
 -21   0  10 94.8391 46.2281   1
 -20   0  10 118.729 50.0293   1
 -19   0  10 243.466 64.3053   1
 -18   0  10 126.695 43.2567   1
 -17   0  10 67.6986 33.2004   1
 -16   0  10 3761.07 216.212   1
 -15   0  10 195.476 47.3325   1
 -14   0  10 2977.53 183.659   1
 -13   0  10 1021.43 105.881   1
 -12   0  10 2221.90 152.272   1
 -11   0  10 613.294 78.4010   1
 -10   0  10 11475.9 322.465   1
  -9   0  10 380.233 60.0108   1
   8   0 -10 3864.11 149.469   1
  -8   0  10 3931.68 181.077   1
  -7   0  10 3907.25 175.599   1
   7   0 -10 3933.24 160.501   1
   7   0 -10 3564.84 106.291   2
  -6   0  10 524.237 64.7615   1
   6   0 -10 411.748 55.1491   1
   6   0 -10 466.719 44.7412   2
   5   0 -10 520.797 62.6519   1
  -5   0  10 544.020 63.6751   1
   5   0 -10 567.919 54.4200   2
  -4   0  10 23.6561 17.0581   1
   4   0 -10 30.0940 17.4551   1
   4   0 -10 65.2765 22.7532   2
   3   0 -10 2296.80 137.060   1
  -3   0  10 2094.58 122.201   1
   3   0 -10 2039.80 120.050   2
   2   0 -10 250.835 45.9869   2
   2   0 -10 267.862 48.5774   1
   1   0 -10 2360.10 146.557   2
  -1   0  10 2358.09 127.415   2
   1   0 -10 2314.79 142.672   1
   0   0 -10 1386.76 118.301   2
   0   0  10 1445.86 106.808   2
   0   0 -10 1407.57 114.334   1
  -1   0 -10 4926.20 235.171   2
  -1   0 -10 5000.59 222.630   1
   1   0  10 5257.53 211.616   2
  -2   0 -10 1369.50 132.277   2
   2   0  10 1438.30 116.863   2
  -2   0 -10 1250.52 116.349   1
  -3   0 -10 64.6697 32.6660   2
  -3   0 -10 6.76086 20.8068   3
  -3   0 -10 60.8594 27.6908   1
   3   0  10 61.8525 35.6216   2
  -4   0 -10 2928.96 207.024   2
  -4   0 -10 3294.53 203.532   3
   4   0  10 3114.29 188.124   2
  -4   0 -10 3390.02 202.031   1
  -5   0 -10 3910.29 249.848   2
  -5   0 -10 4554.85 244.407   3
  -5   0 -10 4393.94 239.415   1
   5   0  10 4300.88 229.678   2
  -6   0 -10 726.307 104.811   3
   6   0  10 691.666 96.2912   2
  -7   0 -10 4588.48 264.491   3
   7   0  10 4720.84 258.673   2
  -8   0 -10 123.956 60.5618   3
   8   0  10 226.710 67.4089   2
  -9   0 -10 746.958 117.478   3
   9   0  10 871.783 120.221   2
 -10   0 -10 742.630 118.585   3
  10   0  10 776.690 115.036   2
 -11   0 -10 690.111 117.712   3
  11   0  10 583.160 105.884   2
 -12   0 -10 165.183 65.8080   3
  12   0  10 139.377 53.4609   2
 -13   0 -10-33.6505 39.2133   3
  13   0  10-47.5156 47.4426   2
  14   0  10-38.5585 35.9962   2
  15   0  10 15.6349 29.1135   2
 -24   1  10 17.6705 22.3443   1
 -23   1  10 210.899 65.5624   1
 -23  -1  10 219.880 69.5474   1
 -22   1  10 36.5614 37.0913   1
 -22  -1  10 49.0127 46.3027   1
 -21   1  10-40.6591 43.9147   1
 -21  -1  10-17.7760 28.9595   1
 -20   1  10 249.019 61.9398   1
 -20  -1  10 146.816 50.1996   1
 -19   1  10 182.220 54.6524   1
 -19  -1  10 244.663 66.3508   1
 -18   1  10 262.297 62.1780   1
 -18  -1  10 304.771 72.7908   1
  18  -1 -10 286.360 37.8363   2
 -17   1  10 133.831 37.8736   1
 -17  -1  10 76.3044 34.0589   1
  17  -1 -10 117.723 23.4374   2
 -16   1  10 660.226 89.7029   1
 -16  -1  10 611.797 92.2404   1
  16  -1 -10 670.236 50.5998   2
 -15  -1  10 1244.17 127.381   1
 -15   1  10 1452.79 125.754   1
  15  -1 -10 1381.32 66.8157   2
  14  -1 -10 10.1594 8.52117   2
 -14  -1  10-24.5297 31.0470   1
 -14   1  10-9.70870 27.5117   1
 -13  -1  10 4021.55 215.116   1
 -13   1  10 3984.06 198.505   1
  13  -1 -10 3803.50 94.7730   2
  12  -1 -10 14.1065 7.02007   2
 -12  -1  10 49.0984 35.3526   1
 -12   1  10-23.6232 27.6174   1
  11  -1 -10 234.485 23.9061   2
 -11  -1  10 266.301 56.5495   1
 -11   1  10 293.205 54.2650   1
  10  -1 -10 1154.22 58.2925   2
 -10  -1  10 1273.08 117.320   1
 -10   1  10 1341.08 106.403   1
  10  -1 -10 1153.15 47.6998   2
  -9  -1  10 238.695 51.1320   1
  -9   1  10 274.691 48.7400   1
   9   1 -10 327.738 49.7794   1
   9  -1 -10 246.443 24.8342   2
   8   1 -10 151.572 34.2673   1
   8  -1 -10 172.150 23.0902   2
  -8  -1  10 145.234 35.8787   1
  -8   1  10 140.327 36.9970   1
  -7   1  10 877.870 79.5285   1
  -7  -1  10 917.460 91.5505   1
   7   1 -10 697.824 43.5744   2
   7   1 -10 792.658 80.5217   1
   7  -1 -10 795.652 54.1527   2
   7  -1 -10 894.195 66.0335   1
   6   1 -10 4115.84 185.952   1
  -6  -1  10 4109.78 188.915   1
   6   1 -10 3748.62 125.417   2
   6  -1 -10 4107.52 151.256   1
   6  -1 -10 3895.97 131.136   2
  -6   1  10 4165.55 164.371   1
   5   1 -10 1269.40 82.1419   2
   5   1 -10 1265.56 103.966   1
  -5   1  10 1230.48 88.9297   1
   5  -1 -10 1194.12 79.5445   2
  -5  -1  10 1372.55 107.822   1
   5  -1 -10 1247.68 87.9909   1
   4  -1 -10 1.48969 12.7628   2
   4   1 -10-10.1667 18.3388   1
  -4  -1  10-21.4822 19.3739   1
   4  -1 -10 3.59982 13.2862   1
   4   1 -10 6.18242 13.2037   2
   4   1 -10-6.68638 19.5495   3
  -4  -1  10 11.0531 10.5094   2
  -4   1  10 10.1510 10.7677   1
   3  -1 -10 20.1901 13.8826   2
   3   1 -10 23.4825 16.8413   2
   3   1 -10 46.0741 26.3188   3
   3   1 -10 32.6160 20.9414   1
   3  -1 -10 33.5288 16.7790   1
  -3  -1  10 17.3578 11.4012   2
  -3  -1  10 12.2880 13.5678   1
   2  -1 -10 7145.50 229.770   1
   2   1 -10 7015.78 244.016   2
   2   1 -10 7270.59 262.253   1
   2   1 -10 7540.90 252.534   3
  -2  -1  10 6832.93 230.784   1
  -2  -1  10 7159.66 212.321   2
   2  -1 -10 7055.76 235.706   2
   1  -1 -10 10.4084 14.9879   2
   1  -1 -10-3.51475 12.5422   1
   1   1 -10-2.68131 21.2070   2
   1   1 -10 7.67906 15.4955   1
   1   1 -10-1.72515 20.4552   3
  -1  -1  10-3.41984 16.7730   2
   0  -1 -10 26.9175 17.8459   2
   0  -1 -10 34.1350 18.6541   1
   0   1 -10 59.2737 24.9529   1
   0   1 -10 20.2183 18.0234   2
   0  -1  10 48.8606 20.4079   2
  -1   1 -10 0.97259 14.1267   1
  -1  -1 -10 10.7298 17.3854   2
  -1   1 -10-19.3269 21.4391   2
   1  -1  10-2.17187 15.9895   2
  -1  -1 -10 8.08907 11.3807   1
  -2   1 -10 1481.79 140.375   2
  -2  -1 -10 1692.03 127.904   1
  -2   1 -10 1653.13 137.043   1
   2   1  10 1515.07 119.138   2
   2  -1  10 1448.46 119.787   2
  -2  -1 -10 1493.63 134.602   2
  -3   1 -10 1536.00 147.207   2
  -3   1 -10 1625.69 142.096   1
  -3  -1 -10 1468.77 130.488   3
  -3   1 -10 1483.10 133.922   3
  -3  -1 -10 1570.45 129.119   1
   3   1  10 1368.97 117.699   2
   3  -1  10 1563.41 129.467   2
  -3  -1 -10 1511.72 140.495   2
  -4  -1 -10 653.101 96.6213   2
  -4   1 -10 636.362 100.107   2
  -4   1 -10 626.166 92.1604   3
  -4  -1 -10 556.588 85.6204   3
  -4   1 -10 753.891 99.0451   1
   4   1  10 622.507 85.6956   2
   4  -1  10 608.468 84.6541   2
  -5   1 -10 34.7440 37.3171   2
  -5  -1 -10 78.0064 44.1322   3
  -5   1 -10 105.101 47.8203   3
  -5   1 -10 64.2784 34.0596   1
   5   1  10 122.270 46.8145   2
   5  -1  10 53.0998 36.0837   2
  -6  -1 -10 760.954 105.098   3
  -6   1 -10 727.769 104.931   3
  -6   1 -10 611.195 97.6779   1
   6   1  10 846.630 105.795   2
   6  -1  10 677.890 97.0366   2
  -7   1 -10 828.183 121.261   3
  -7  -1 -10 665.805 102.806   3
   7   1  10 645.748 96.5453   2
   7  -1  10 762.579 105.915   2
  -8  -1 -10 911.746 122.498   3
  -8   1 -10 825.527 121.428   3
   8   1  10 882.903 114.908   2
   8  -1  10 842.073 114.996   2
  -9  -1 -10 547.723 98.8711   3
  -9   1 -10 577.011 106.215   3
   9   1  10 603.219 99.0475   2
   9  -1  10 559.881 97.9189   2
 -10  -1 -10 784.106 120.909   3
 -10   1 -10 674.321 118.421   3
  10  -1  10 762.335 115.489   2
  10   1  10 656.346 106.039   2
 -11  -1 -10 253.587 66.3145   3
 -11   1 -10 253.255 78.4933   3
  11   1  10 190.980 64.6777   2
  11  -1  10 163.798 58.4766   2
 -12  -1 -10-25.6960 44.8580   3
 -12   1 -10 65.5100 49.1484   3
  12   1  10-7.19312 29.4324   2
  12  -1  10 56.2564 36.1318   2
 -13  -1 -10 65.1757 45.0090   3
  13   1  10-30.2090 29.3841   2
  13  -1  10 103.608 50.5383   2
 -14  -1 -10 52.2642 40.0457   3
  14   1  10 89.2360 56.7057   2
  14  -1  10 1.39251 20.6647   2
 -15  -1 -10-15.8449 32.7287   3
  15   1  10 5.75445 26.2947   2
  15  -1  10 32.4330 39.1863   2
 -24   2  10 73.7816 46.2106   1
 -23  -2  10-44.5619 38.1315   1
 -23   2  10-38.4793 36.0256   1
 -22  -2  10 4.57184 27.7755   1
 -22   2  10 30.8588 27.0681   1
 -21  -2  10 20.8212 27.7271   1
 -21   2  10 11.5717 20.2037   1
 -20   2  10 8.74596 28.8703   1
 -20  -2  10 97.2670 47.2811   1
 -19  -2  10-35.2192 36.0048   1
 -19   2  10 9.25902 21.9068   1
 -18  -2  10 1527.06 158.405   1
 -18   2  10 1631.87 140.415   1
  18  -2 -10 1528.62 99.8151   2
 -17  -2  10 406.048 82.6151   1
 -17   2  10 445.441 73.2929   1
  17  -2 -10 538.454 57.2108   2
 -16  -2  10 2904.43 207.604   1
 -16   2  10 2885.36 173.605   1
  16  -2 -10 3436.22 141.042   2
 -15   2  10 338.246 61.4134   1
  15   2 -10 266.474 28.1347   3
 -15  -2  10 265.892 62.7412   1
  15  -2 -10 364.696 44.8897   2
 -14  -2  10 1583.49 144.862   1
  14  -2 -10 1613.89 91.8445   2
 -14   2  10 1610.47 122.404   1
  13  -2 -10 60.5793 19.7766   2
 -13   2  10 70.6265 28.7176   1
 -13  -2  10 126.783 45.8274   1
 -12   2  10 1127.00 98.6612   1
  12  -2 -10 1171.76 78.8426   2
 -12  -2  10 1286.59 126.636   1
 -11   2  10 1777.73 119.592   1
  11  -2 -10 1773.13 97.6844   2
 -11  -2  10 1981.01 151.079   1
 -10  -2  10 12.9789 22.3011   1
 -10   2  10 30.4492 19.9234   1
  10   2 -10 67.8520 27.1770   1
  -9   2  10 30.2050 21.5484   1
   9   2 -10 8.34922 12.7566   3
   9   2 -10 11.6448 19.1020   1
  -9  -2  10 10.8414 21.2267   1
   8   2 -10 1204.30 103.981   1
  -8  -2  10 1014.24 103.815   1
  -8   2  10 934.261 78.6019   1
   8   2 -10 999.114 76.4385   3
   7   2 -10 261.035 50.1232   1
  -7   2  10 218.564 36.1472   1
   7   2 -10 214.629 37.7591   3
  -7  -2  10 222.135 50.4240   1
  -6  -2  10 2349.22 149.937   1
   6   2 -10 2301.89 102.237   2
   6   2 -10 2395.16 126.540   3
   6  -2 -10 2293.73 107.885   2
   6  -2 -10 2376.02 94.1864   1
  -6   2  10 2276.33 109.129   1
   6   2 -10 2477.80 154.117   1
   5  -2 -10-6.08339 16.0372   1
  -5  -2  10-9.07262 28.7302   1
   5   2 -10-13.0357 25.3346   1
   5   2 -10-20.8449 19.2222   3
   5   2 -10-4.01480 11.8454   2
   5  -2 -10 8.75657 10.0477   2
  -5  -2  10 8.04087 8.57599   2
  -5   2  10 0.91776 10.7608   1
   4   2 -10 2003.53 119.991   2
   4   2 -10 2113.98 148.562   1
   4  -2 -10 2048.80 102.602   1
  -4   2  10 2093.34 96.3396   1
   4  -2 -10 2107.58 115.979   2
  -4  -2  10 2125.09 101.155   2
  -4  -2  10 2209.42 143.443   1
   4   2 -10 2043.75 125.518   3
   3   2 -10 1836.93 123.210   2
   3   2 -10 2051.25 145.014   1
   3  -2 -10 1766.21 99.0957   1
   3   2 -10 1932.83 127.042   3
  -3  -2  10 1776.17 128.237   1
   3  -2 -10 1701.30 109.802   2
  -3  -2  10 1841.93 103.262   2
   2  -2 -10 2128.54 114.887   1
   2   2 -10 1873.37 143.053   1
   2   2 -10 2063.22 138.654   2
   2   2 -10 2152.71 138.475   3
  -2  -2  10 1981.78 133.898   1
   2  -2 -10 2096.21 129.134   2
  -2  -2  10 2138.34 120.469   2
   1   2 -10 841.205 96.9218   1
   1   2 -10 924.875 99.2214   2
   1   2 -10 1053.27 100.379   3
  -1  -2  10 941.814 93.4504   1
   1  -2 -10 864.236 89.5768   2
  -1  -2  10 838.907 81.6840   2
   1  -2 -10 923.725 79.4121   1
   0  -2  10 318.104 53.2510   2
   0  -2 -10 320.237 58.4011   2
   0   2 -10 331.788 60.8729   1
   0   2 -10 381.843 67.4556   2
   0   2 -10 358.334 61.1272   3
   0  -2 -10 358.628 51.9101   1
   1  -2  10 140.490 38.2132   2
  -1  -2 -10 105.653 34.9363   2
  -1   2 -10 90.9143 33.5635   1
  -1   2 -10 104.886 38.8641   2
  -1   2 -10 91.4062 35.3285   3
  -1  -2 -10 131.470 34.4875   1
  -2   2 -10 560.344 88.4195   2
  -2   2 -10 583.381 84.6887   3
  -2  -2 -10 518.964 68.7799   1
  -2   2 -10 521.322 81.2524   1
   2  -2  10 611.440 80.1384   2
  -2  -2 -10 592.652 84.1972   2
  -3   2 -10 1408.44 145.074   2
  -3  -2 -10 1521.11 132.598   3
  -3   2 -10 1480.31 135.970   3
  -3   2 -10 1573.21 145.854   1
   3  -2  10 1452.08 129.750   2
  -3  -2 -10 1500.46 141.327   2
   4  -2  10 23.0492 23.8181   2
  -4  -2 -10 12.2982 17.9312   2
  -4   2 -10 41.1348 28.9621   2
  -4  -2 -10 57.3300 31.0472   3
  -4   2 -10 65.1057 36.1462   3
  -4   2 -10 35.4790 29.7905   1
   5  -2  10 6.62555 30.1730   2
  -5  -2 -10-17.1544 33.9747   3
  -5   2 -10 42.2834 31.0761   1
  -5   2 -10 27.9809 34.6394   3
  -6  -2 -10 356.983 73.5594   3
  -6   2 -10 331.566 77.2361   3
   6  -2  10 317.544 67.1537   2
  -7  -2 -10 2789.58 203.862   3
  -7   2 -10 2659.95 208.682   3
   7  -2  10 2636.82 202.670   2
  -8  -2 -10 3630.34 239.707   3
  -8   2 -10 3951.44 263.418   3
   8  -2  10 3797.20 247.097   2
  -9  -2 -10 2404.64 200.279   3
  -9   2 -10 2590.26 221.397   3
   9  -2  10 2685.22 214.453   2
 -10  -2 -10 1710.89 172.856   3
 -10   2 -10 1667.55 184.740   3
  10  -2  10 1790.56 179.891   2
 -11  -2 -10 51.8979 44.0722   3
 -11   2 -10-73.1602 57.1191   3
  11  -2  10 12.6651 32.2347   2
 -12  -2 -10 238.403 70.2113   3
  12  -2  10 214.264 65.4639   2
 -13  -2 -10 17.2673 27.7891   3
  13  -2  10-80.4524 59.1991   2
 -14  -2 -10 68.9558 55.4720   3
  14  -2  10-44.4863 38.8831   2
 -15  -2 -10 6.00697 30.9749   3
  15  -2  10 4.31207 21.6402   2
 -24   3  10 48.3004 38.4402   1
 -23  -3  10-34.8660 37.0205   1
 -23   3  10 51.8127 33.9413   1
 -22  -3  10-0.19997 36.3027   1
 -22   3  10 64.2550 42.7915   1
 -21   3  10-16.1267 30.1036   1
 -21  -3  10-49.3802 44.9233   1
 -20   3  10 18.3028 27.8532   1
 -20  -3  10-52.8620 53.7079   1
  19  -3 -10 159.979 39.0202   2
 -19  -3  10 121.050 47.4539   1
 -19   3  10 181.141 48.9849   1
  18  -3 -10 199.483 40.3443   2
 -18  -3  10 155.459 56.5363   1
 -18   3  10 276.791 59.3293   1
  17  -3 -10 1385.22 105.117   2
 -17  -3  10 1140.30 137.754   1
 -17   3  10 1251.45 114.660   1
  16  -3 -10 187.812 39.6340   2
 -16   3  10 199.502 44.8315   1
 -16  -3  10 185.121 57.5476   1
  15  -3 -10 2964.33 151.163   2
 -15   3  10 2809.96 159.991   1
 -15  -3  10 2872.03 205.994   1
  14  -3 -10 788.846 78.6497   2
 -14   3  10 739.732 79.9789   1
 -14  -3  10 940.103 119.290   1
  13  -3 -10 360.148 55.2656   2
  13   3 -10 282.970 28.6889   3
 -13  -3  10 315.964 68.7371   1
 -13   3  10 287.844 46.7141   1
 -12   3  10 472.084 59.9112   1
  12  -3 -10 466.287 61.6724   2
 -12  -3  10 494.831 82.2476   1
  12   3 -10 402.451 38.4268   3
 -11   3  10 1049.03 87.6655   1
  11   3 -10 1102.33 68.2125   3
 -11  -3  10 1207.13 125.016   1
  11   3 -10 1366.01 109.578   1
  10   3 -10 1240.64 106.666   1
  10   3 -10 1142.50 73.8970   3
 -10  -3  10 1082.98 117.279   1
 -10   3  10 1047.66 84.0209   1
  -9   3  10 99.1226 24.2186   1
   9   3 -10 63.5357 30.8837   1
   9   3 -10 65.5827 22.5122   3
  -9  -3  10 32.3001 19.1225   1
   8   3 -10 82.3280 22.9499   3
   8   3 -10 68.5388 28.8048   1
  -8  -3  10 74.2486 35.1411   1
  -8   3  10 52.9006 17.4154   1
   7   3 -10 3.66312 21.1316   1
  -7   3  10 10.4310 12.1102   1
  -7  -3  10-0.39741 23.4809   1
   7   3 -10 15.5853 15.2324   3
  -7  -3  10 9.69123 6.09637   2
  -6  -3  10 1180.46 112.917   1
   6   3 -10 1129.11 88.1740   3
  -6   3  10 1174.95 66.4829   1
  -6  -3  10 1222.74 64.3635   2
   6   3 -10 1389.74 121.729   1
   5   3 -10 1774.12 113.938   3
  -5   3  10 1745.23 74.3414   1
   5   3 -10 1927.88 144.857   1
  -5  -3  10 1751.57 90.3780   2
   5  -3 -10 1783.53 65.7354   1
  -5  -3  10 1876.62 142.487   1
   4  -3 -10 610.124 45.6410   1
   4   3 -10 518.767 65.6049   2
   4   3 -10 530.714 77.7827   1
   4   3 -10 576.772 67.8953   3
   4  -3 -10 641.685 66.7651   2
  -4  -3  10 614.989 79.4220   1
  -4  -3  10 582.307 58.0236   2
   3   3 -10 723.207 91.6193   1
   3   3 -10 709.813 81.1585   2
   3  -3 -10 716.135 55.5642   1
   3   3 -10 700.633 79.0983   3
  -3  -3  10 841.508 92.2930   1
   3  -3 -10 744.730 76.7966   2
  -3  -3  10 746.934 70.8717   2
  -2  -3  10 28.2865 17.3589   2
   2   3 -10 51.5632 22.9126   2
   2  -3 -10 47.0378 17.5122   1
   2   3 -10 45.0833 32.4551   1
   2   3 -10 59.9010 29.5515   3
   2  -3 -10 14.7625 12.4079   2
  -2  -3  10 17.3909 23.9342   1
  -1  -3  10-6.80760 20.0226   2
   1  -3 -10 30.3487 15.4593   1
   1   3 -10 39.8526 27.8979   1
   1   3 -10 1.86841 18.9608   2
   1   3 -10 12.7034 20.0074   3
  -1  -3  10 32.2941 21.4084   1
   1  -3 -10 8.62370 16.9405   2
   0  -3  10 82.1168 29.2120   2
   0   3 -10 120.594 43.3482   1
   0   3 -10 111.472 41.0791   2
   0   3 -10 37.6884 26.6295   3
   0  -3 -10 80.6660 27.2139   2
   0  -3 -10 79.4387 24.9118   1
   1  -3  10 238.385 51.9296   2
  -1   3 -10 273.518 60.7926   1
  -1   3 -10 212.035 58.2673   2
  -1   3 -10 146.511 45.3632   3
  -1  -3 -10 177.746 37.9424   1
  -1  -3 -10 233.958 54.1491   2
  -2  -3 -10 12.5131 21.8953   2
   2  -3  10 28.1271 18.7702   2
  -2   3 -10-1.55709 18.4060   1
  -2   3 -10 21.7827 21.5000   2
  -2   3 -10 52.0679 36.2516   3
  -2  -3 -10 4.10118 12.6596   1
  -3  -3 -10 201.289 55.3206   2
   3  -3  10 213.516 54.6604   2
  -3   3 -10 130.219 46.3065   1
  -3   3 -10 165.591 51.3331   2
  -3   3 -10 226.957 61.1846   3
  -4   3 -10 245.979 59.3843   1
  -4  -3 -10 267.245 62.9290   2
   4  -3  10 239.278 59.4277   2
  -4   3 -10 219.582 62.4183   2
  -4   3 -10 231.242 60.0465   3
   5  -3  10 128.099 49.3580   2
  -5  -3 -10 153.152 52.1123   3
  -5   3 -10 173.997 60.0460   3
  -6  -3 -10 11887.5 401.003   3
  -6   3 -10 12031.0 437.118   3
   6  -3  10 11353.4 414.115   2
   7  -3  10 564.501 97.6642   2
  -7  -3 -10 433.072 83.0773   3
  -7   3 -10 542.910 102.201   3
   8  -3  10 36.7501 39.9466   2
  -8  -3 -10-7.24572 27.4615   3
  -8   3 -10 47.4174 42.1173   3
   9  -3  10 474.020 94.6672   2
  -9  -3 -10 435.560 87.3840   3
  -9   3 -10 510.650 103.839   3
 -10  -3 -10-36.0382 32.7516   3
  10  -3  10 47.2892 40.8660   2
 -11  -3 -10-1.29433 25.1077   3
  11  -3  10 72.1163 44.6135   2
 -12  -3 -10 79.1754 50.2533   3
  12  -3  10 32.7193 32.1169   2
 -13  -3 -10 497.404 105.137   3
  13  -3  10 549.713 111.568   2
 -14  -3 -10 218.449 73.9068   3
  14  -3  10 99.1672 55.2214   2
 -15  -3 -10 144.729 59.2789   3
 -16  -3 -10 12.3523 29.3823   3
 -24   4  10 60.2582 47.9330   1
 -23   4  10 49.6994 42.6568   1
 -22  -4  10-40.8612 40.6353   1
 -22   4  10 26.7778 31.7523   1
 -21  -4  10 10.0194 28.2329   1
 -21   4  10 83.2641 37.8057   1
 -20  -4  10 9.96500 32.2662   1
 -20   4  10 43.3703 32.7905   1
  19  -4 -10 46.4684 25.8556   2
 -19   4  10-1.75852 17.1961   1
 -19  -4  10-46.9692 50.2399   1
  18  -4 -10 67.6544 31.2886   2
 -18   4  10 89.3903 36.0542   1
 -18  -4  10 63.0370 50.3949   1
 -17   4  10 685.867 83.0883   1
  17  -4 -10 501.354 72.4161   2
 -17  -4  10 589.803 104.161   1
  16  -4 -10 141.654 41.6609   2
 -16  -4  10 312.980 75.3116   1
 -16   4  10 222.890 48.8612   1
  15  -4 -10 803.557 92.4866   2
 -15  -4  10 890.535 120.707   1
 -15   4  10 1020.99 92.5772   1
  14  -4 -10 2695.45 163.519   2
 -14   4  10 2689.88 143.639   1
 -14  -4  10 2821.58 206.310   1
 -13   4  10 54.4406 24.4047   1
 -13  -4  10 62.3358 41.3218   1
  13  -4 -10 5.48113 18.5368   2
 -12   4  10 2099.77 120.429   1
  12  -4 -10 2026.02 139.908   2
 -12  -4  10 2304.45 178.894   1
 -11  -4  10 17.8847 27.8503   1
 -11   4  10 41.6848 19.0806   1
  11   4 -10 68.1807 36.0807   1
  11   4 -10 58.9117 18.0314   3
 -10  -4  10 0.95843 23.7945   1
 -10   4  10 0.97313 11.9445   1
  10   4 -10-15.5738 15.5605   3
  10   4 -10-7.16669 17.6605   1
   9   4 -10 127.669 37.5436   1
  -9   4  10 196.171 30.9429   1
   9   4 -10 184.148 33.5293   3
  -9  -4  10 118.208 31.7884   1
  -8   4  10 286.272 34.1708   1
   8   4 -10 345.008 64.9646   1
   8   4 -10 330.747 46.3499   3
  -8  -4  10 260.188 57.8848   1
  -8  -4  10 286.418 24.6051   2
   7   4 -10 2026.20 153.921   1
  -7  -4  10 1933.44 153.646   1
   7   4 -10 1791.33 110.563   3
  -7   4  10 1600.68 67.3600   1
  -7  -4  10 1722.69 77.9483   2
  -6  -4  10 280.387 56.4660   1
   6   4 -10 426.724 70.3876   1
   6   4 -10 363.281 51.8814   3
  -6  -4  10 404.967 43.9247   2
  -5  -4  10 12.7119 16.2214   2
  -5  -4  10 9.94394 27.5051   1
   5   4 -10 2.59113 21.4971   1
   5   4 -10 41.5917 23.6712   3
   4   4 -10 5528.29 262.414   1
   4   4 -10 5263.48 212.402   3
  -4  -4  10 4813.64 231.762   1
  -4  -4  10 4858.10 182.326   2
  -3  -4  10 3008.57 153.945   2
   3   4 -10 2900.60 189.913   1
   3   4 -10 3040.41 165.799   3
   3   4 -10 2900.86 175.236   2
   3  -4 -10 2661.01 78.3690   1
  -3  -4  10 3001.85 182.584   1
   2  -4 -10 212.172 27.9870   1
  -2  -4  10 224.492 46.7520   2
   2   4 -10 187.816 50.4684   1
   2   4 -10 185.562 47.8942   2
   2  -4 -10 251.932 49.9886   2
  -2  -4  10 177.298 41.4927   1
   2   4 -10 198.788 45.8009   3
   1   4 -10 708.177 98.4974   1
   1   4 -10 673.808 93.1331   2
   1   4 -10 580.755 78.3740   3
  -1  -4  10 582.666 81.6147   1
   1  -4 -10 708.276 84.2780   2
   1  -4 -10 659.219 55.5318   1
  -1  -4  10 724.442 85.2029   2
   0  -4  10 137.451 42.0527   2
   0   4 -10 166.587 47.6823   1
   0   4 -10 112.600 47.7282   2
   0   4 -10 99.7307 35.2310   3
   0  -4 -10 155.616 41.2406   2
   0  -4 -10 127.796 29.6446   1
  -1   4 -10 754.547 107.856   2
  -1   4 -10 891.013 105.647   3
  -1  -4 -10 850.040 76.3929   1
  -1  -4 -10 999.667 107.356   2
  -1   4 -10 927.583 114.029   1
   1  -4  10 1052.34 113.852   2
  -2   4 -10 866.731 119.667   2
   2  -4  10 900.901 101.382   3
  -2   4 -10 870.149 109.305   3
  -2  -4 -10 859.075 103.960   2
  -2   4 -10 827.284 106.917   1
   2  -4  10 826.752 104.619   2
  -3   4 -10 3329.51 241.283   2
  -3   4 -10 3580.05 224.467   3
  -3   4 -10 3324.84 223.640   1
  -3  -4 -10 3351.07 213.843   2
   3  -4  10 3431.13 215.575   2
  -4   4 -10 731.642 119.672   2
  -4   4 -10 705.888 103.489   3
   4  -4  10 736.764 106.534   2
  -5   4 -10 3017.05 220.539   3
   5  -4  10 2715.85 204.662   2
   6  -4  10 33.3109 31.7305   2
  -6  -4 -10-26.9620 34.3964   3
  -6   4 -10 57.7723 46.8941   3
   7  -4  10 50.4954 37.0151   2
  -7   4 -10 38.5577 43.8215   3
  -7  -4 -10 78.0888 38.7949   3
   8  -4  10 13.1020 31.7943   2
  -8  -4 -10-24.3328 35.3501   3
  -9  -4 -10 1246.95 144.122   3
   9  -4  10 1122.65 146.515   2
  10  -4  10-29.0571 33.7345   2
 -10  -4 -10 17.4695 27.4072   3
  11  -4  10 146.789 60.7949   2
 -11  -4 -10 58.9062 40.3881   3
  12  -4  10-3.21731 24.3479   2
 -12  -4 -10 15.7982 26.9936   3
 -13  -4 -10 87.6469 47.9483   3
  13  -4  10 44.6535 30.2224   2
 -14  -4 -10-22.3679 31.2603   3
  14  -4  10-40.4092 35.9314   2
 -15  -4 -10 42.4646 37.1247   3
 -16  -4 -10-0.21199 26.7938   3
 -17  -4 -10-129.801 61.9913   3
 -24   5  10-19.6354 27.9106   1
 -23   5  10 29.7042 27.4856   1
 -22   5  10 227.010 68.5856   1
 -22  -5  10 32.6055 46.8792   1
 -21   5  10 67.7797 38.5478   1
 -21  -5  10 302.504 93.2787   1
 -20  -5  10 286.762 79.7119   1
 -20   5  10 256.884 59.9757   1
  19  -5 -10 125.932 43.9112   2
 -19  -5  10 161.256 64.5560   1
 -19   5  10 245.773 56.7593   1
  18  -5 -10 42.3495 24.5290   2
 -18  -5  10 29.5659 36.2965   1
 -18   5  10-0.28788 14.8746   1
  17  -5 -10 84.0532 36.0865   2
 -17  -5  10 106.049 53.1686   1
 -17   5  10 50.5221 23.7512   1
  16  -5 -10 165.024 45.3198   2
 -16  -5  10 163.528 61.5015   1
 -16   5  10 142.364 35.9381   1
 -15   5  10 35.8593 24.1019   1
  15  -5 -10 4.07350 20.0000   2
 -15  -5  10 17.0667 32.9786   1
 -14  -5  10 178.027 56.8671   1
  14  -5 -10 135.096 43.5255   2
 -14   5  10 164.557 35.4841   1
 -13  -5  10 281.209 71.2961   1
 -13   5  10 204.155 38.6136   1
  13  -5 -10 137.193 38.8870   2
 -12  -5  10 263.422 66.2628   1
 -12   5  10 139.042 29.7920   1
 -11   5  10 599.939 58.7625   1
 -11  -5  10 712.290 104.528   1
 -10  -5  10 605.850 94.2708   1
  10   5 -10 780.239 96.4044   1
 -10   5  10 648.352 57.1269   1
  -9   5  10 65.5812 18.1239   1
  -9  -5  10 85.0246 17.7329   2
  -9  -5  10 78.2979 30.2639   1
   9   5 -10 146.177 42.6262   1
  -8  -5  10 31.7263 14.4178   2
   8   5 -10 21.8699 24.1448   1
  -8   5  10 41.7344 10.2390   1
  -8  -5  10 57.3239 31.9203   1
   8   5 -10 68.4561 27.0846   3
   7   5 -10 741.891 97.9869   1
  -7  -5  10 708.196 62.4729   2
  -7  -5  10 693.798 98.4053   1
   7   5 -10 704.666 72.8383   3
  -6  -5  10 30.1621 16.3318   2
  -6  -5  10-26.5452 35.4240   1
   6   5 -10 9.00409 25.8061   1
   6   5 -10 40.5101 25.9332   3
  -5  -5  10 597.408 68.3133   2
   5   5 -10 533.777 69.2512   3
   5   5 -10 622.292 91.8535   1
  -5  -5  10 580.028 85.4623   1
  -4  -5  10 437.474 61.3638   2
   4   5 -10 404.644 78.9961   1
  -4  -5  10 402.671 74.2023   1
   4   5 -10 458.238 67.8876   3
  -3  -5  10 329.187 65.0089   1
  -3  -5  10 420.641 64.0000   2
   3   5 -10 368.766 64.7209   3
   3   5 -10 370.117 70.9246   1
  -2  -5  10 346.923 59.9168   2
   2  -5 -10 190.233 19.2641   1
  -2  -5  10 220.648 50.8586   3
   2   5 -10 248.371 59.4399   1
   2   5 -10 260.466 54.2868   3
  -2  -5  10 259.606 58.3567   1
  -1  -5  10 2711.62 175.156   2
   1   5 -10 2557.20 191.182   1
  -1  -5  10 2895.09 172.119   3
   1   5 -10 2689.95 177.479   3
  -1  -5  10 2685.41 177.374   1
   1  -5 -10 3039.60 181.826   2
   1  -5 -10 2517.86 95.2425   1
   0  -5  10 1200.33 120.363   2
   0   5 -10 962.527 119.204   1
   0   5 -10 1102.58 129.081   2
   0  -5  10 1201.02 115.324   3
   0   5 -10 1121.06 117.230   3
   0  -5  10 1071.58 114.215   1
   0  -5 -10 1131.06 75.9343   1
   0  -5 -10 1356.85 126.475   2
  -1   5 -10 1087.23 128.241   1
   1  -5  10 1080.08 119.689   2
  -1   5 -10 1027.03 129.433   2
   1  -5  10 1087.31 113.670   3
  -1   5 -10 1099.03 120.947   3
  -1  -5 -10 1111.42 119.089   2
   2  -5  10 41.0084 37.4825   2
  -2   5 -10 2.08826 22.8050   1
  -2   5 -10-12.8102 31.6516   2
  -2   5 -10-0.63544 26.2350   3
  -2  -5 -10 8.66697 20.5442   2
   3  -5  10 162.375 55.1951   2
  -3   5 -10 296.632 78.8406   2
  -3   5 -10 230.662 63.6651   3
   4  -5  10 562.182 96.6658   2
   5  -5  10 162.548 61.4781   2
   6  -5  10 0.31219 34.4217   2
   7  -5  10 205.173 65.0639   2
  -7  -5 -10 258.076 65.7737   3
   8  -5  10 147.049 56.2431   2
  -8  -5 -10 173.633 55.7459   3
   9  -5  10 66.8981 41.9325   2
  -9  -5 -10 91.1980 46.9055   3
  10  -5  10 316.693 81.9904   2
 -10  -5 -10 263.513 66.1281   3
  11  -5  10 332.200 89.1083   2
 -11  -5 -10 214.213 62.8844   3
  12  -5  10 192.990 69.9478   2
 -12  -5 -10 157.788 59.1786   3
  13  -5  10 104.433 59.4799   2
 -13  -5 -10 126.765 58.8633   3
  14  -5  10 146.005 57.1477   2
 -14  -5 -10 253.336 78.2004   3
 -15  -5 -10-12.8530 28.6783   3
 -16  -5 -10 208.330 77.6535   3
 -23   6  10 45.9122 31.3076   1
 -22   6  10 41.3833 40.0387   1
 -21   6  10 204.473 55.7464   1
 -21  -6  10 286.501 83.7293   1
 -20  -6  10 30.5576 32.0580   1
 -20   6  10 80.2781 40.0758   1
  19  -6 -10 266.172 64.0034   2
 -19  -6  10 222.834 77.2436   1
 -19   6  10 306.628 62.7803   1
  18  -6 -10 0.65493 18.7005   2
 -18  -6  10 135.024 62.3245   1
 -18   6  10 148.081 43.4733   1
  17  -6 -10 71.7110 30.3197   2
 -17  -6  10 111.260 52.9672   1
 -17   6  10 124.980 35.9000   1
 -16   6  10 347.966 54.2694   1
 -16  -6  10 266.959 74.4738   1
  16  -6 -10 325.570 70.4545   2
 -15  -6  10 144.752 58.3911   1
  15  -6 -10 72.0137 39.8546   2
 -15   6  10 93.3221 30.8064   1
 -14   6  10 120.053 30.0981   1
 -14  -6  10 88.3389 48.2874   1
  14  -6 -10 51.4955 28.0581   2
 -13  -6  10 20.7802 7.54122   2
 -13  -6  10 24.0997 38.3529   1
 -13  -6  10 11.8661 7.31221   2
  13  -6 -10-20.8562 36.3779   2
 -13   6  10 48.0391 20.4091   1
 -12  -6  10-48.0144 41.7449   1
 -12   6  10-2.54807 13.8173   1
 -12  -6  10-13.8269 7.89505   2
 -12  -6  10-4.13368 5.69918   2
 -11  -6  10 995.738 63.3017   2
 -11   6  10 1062.75 71.7460   1
 -11  -6  10 1150.50 136.525   1
 -11  -6  10 1046.11 53.1275   2
 -10  -6  10 295.936 38.7130   2
 -10  -6  10 258.996 69.2404   1
 -10   6  10 280.430 34.2642   1
  -9  -6  10 168.422 33.2364   2
  -9  -6  10 99.4606 37.8737   1
  -9   6  10 124.092 17.0806   1
  -8  -6  10 248.525 40.4462   2
  -8  -6  10 232.751 59.9134   1
   7   6 -10 990.419 117.408   1
  -7  -6  10 937.009 117.958   1
  -7  -6  10 913.153 84.1721   2
  -6  -6  10 2332.95 183.705   1
  -6  -6  10 2153.86 136.818   2
   6   6 -10 2266.91 179.142   1
  -5  -6  10-8.12770 35.9284   1
   5   6 -10-6.79883 27.7193   1
  -5  -6  10 37.5888 20.6364   2
  -4  -6  10 1493.41 125.073   2
  -4  -6  10 1727.64 124.689   3
   4   6 -10 1589.76 153.094   1
  -4  -6  10 1643.39 148.857   1
  -3  -6  10 3896.87 206.109   2
   3   6 -10 4272.82 250.966   1
  -3  -6  10 4135.44 201.660   3
  -3  -6  10 4042.46 233.127   1
  -2  -6  10-9.53929 24.2073   2
  -2  -6  10 0.84259 16.4002   3
   2   6 -10-23.5654 30.3693   1
  -2  -6  10-16.1221 40.2398   1
  -1  -6  10 740.813 100.130   2
   1   6 -10 573.015 97.0268   1
  -1  -6  10 657.308 85.6501   3
   1  -6 -10 561.247 32.2869   1
   1  -6 -10 498.668 34.8453   1
  -1  -6  10 513.044 82.2923   1
   0  -6  10 1974.83 164.047   2
   0  -6  10 1921.03 150.434   3
   0  -6  10 2183.51 167.366   1
   0  -6 -10 1918.09 89.0347   1
   0  -6 -10 2088.61 163.445   2
   1  -6  10-27.0841 35.4714   2
  -1  -6 -10 10.3896 20.2824   2
   2  -6  10 31.5376 31.8541   2
  -2   6 -10 45.1776 34.8109   2
   3  -6  10 1529.17 157.015   2
   4  -6  10-9.74937 29.3681   2
   5  -6  10 34.6684 25.2242   2
   6  -6  10 74.7059 48.7040   2
   7  -6  10-18.2895 26.3569   2
   8  -6  10-19.1035 40.9080   2
  -8  -6 -10-5.26571 26.1625   3
   9  -6  10 102.042 55.0812   2
  -9  -6 -10 108.846 49.0754   3
  10  -6  10-17.3510 24.3233   2
 -10  -6 -10-28.5602 39.7571   3
  11  -6  10 275.540 85.5502   2
 -11  -6 -10 184.156 62.1308   3
  12  -6  10 374.127 100.411   2
 -12  -6 -10 180.466 60.2675   3
  13  -6  10 376.569 99.1206   2
 -13  -6 -10 231.730 71.9380   3
 -14  -6 -10 231.527 70.9272   3
 -15  -6 -10 27.1976 42.5626   3
 -16  -6 -10-67.6765 42.5109   3
 -21   7  10 170.396 56.8615   1
 -20   7  10 313.646 65.6764   1
 -20  -7  10 261.955 82.7513   1
  19  -7 -10 49.9526 25.2318   2
 -19  -7  10 37.4239 28.1399   1
 -19   7  10 136.444 45.5911   1
  18  -7 -10 91.2640 37.4303   2
 -18  -7  10 61.5578 42.2123   1
 -18   7  10 184.148 44.2544   1
 -17   7  10 64.9001 27.2684   1
 -17  -7  10 164.586 66.2431   1
  17  -7 -10 20.1697 29.2744   2
  16  -7 -10 191.395 56.8766   2
 -16  -7  10 182.546 65.6267   1
 -16   7  10 292.788 50.7580   1
 -15  -7  10 176.141 64.5485   1
  15  -7 -10 115.315 49.2311   2
 -15   7  10 245.727 42.9225   1
 -14  -7  10 3.98361 6.06867   2
 -14  -7  10 10.6730 30.2753   1
  14  -7 -10-14.5883 23.4604   2
 -14   7  10 14.9717 18.4855   1
 -13   7  10 270.638 38.4946   1
 -13  -7  10 199.849 60.8400   1
 -13  -7  10 193.473 28.7020   2
 -12  -7  10 296.534 42.3040   2
 -12   7  10 284.352 37.8671   1
 -12  -7  10 296.448 34.2112   2
 -12  -7  10 244.127 68.7945   1
 -11  -7  10-23.1712 13.7281   2
 -11   7  10-16.4281 13.9974   1
 -11  -7  10-32.4897 48.7583   1
 -10   7  10 56.2494 14.9799   1
 -10  -7  10 41.5741 22.9208   2
 -10  -7  10 11.3584 42.1753   1
 -10   7  10 57.0578 14.0256   1
  -9  -7  10 748.426 110.901   1
  -9  -7  10 817.549 82.3749   2
  -8  -7  10 489.644 89.8435   1
  -8  -7  10 286.439 49.6443   2
  -7  -7  10 218.793 59.7549   1
  -7  -7  10 230.697 47.6051   2
  -6  -7  10 506.141 73.4041   2
  -6  -7  10 578.893 92.8869   1
  -6  -7  10 544.827 69.1607   3
  -5  -7  10 411.163 78.4789   1
  -5  -7  10 267.356 57.3839   2
  -5  -7  10 289.850 52.8608   3
  -4  -7  10 834.719 100.289   2
  -4  -7  10 630.585 79.2351   3
  -4  -7  10 736.679 105.498   1
  -3  -7  10 4978.89 248.085   2
  -3  -7  10 4902.15 228.104   3
  -3  -7  10 4852.12 263.788   1
  -2  -7  10-10.3636 20.3767   3
  -2  -7  10-9.40842 25.4830   2
  -2  -7  10-1.78595 28.1784   1
  -1  -7  10 934.434 114.996   2
  -1  -7  10 778.468 96.8278   3
  -1  -7  10 917.234 114.309   1
   0  -7 -10 57.5148 14.3201   1
   0  -7 -10 63.4374 15.7195   1
   0  -7  10 53.5820 33.5301   2
   0  -7  10 58.2375 38.5440   1
   1  -7  10-18.1725 27.8676   2
  -1  -7 -10-9.84041 10.9186   1
  -2  -7 -10 673.861 56.4671   1
   2  -7  10 587.867 101.289   2
   3  -7  10 817.244 121.697   2
   4  -7  10 3178.00 239.923   2
   5  -7  10 38.4975 33.6844   2
   6  -7  10 771.226 123.856   2
   7  -7  10-17.1594 34.7820   2
   8  -7  10-13.4022 24.8520   2
  -9  -7 -10 1220.44 142.564   3
   9  -7  10 1079.72 159.039   2
  10  -7  10 472.633 106.564   2
 -10  -7 -10 377.927 84.4546   3
  11  -7  10-87.5739 50.7072   2
 -11  -7 -10 30.9519 33.5934   3
  12  -7  10 23.1610 43.9963   2
 -12  -7 -10-36.4636 41.0895   3
  13  -7  10-15.9314 34.5021   2
 -13  -7 -10 16.5057 29.8741   3
 -14  -7 -10 31.7808 45.2584   3
 -15  -7 -10 155.334 64.7897   3
  19  -8 -10-37.1916 30.8978   2
 -19  -8  10 141.178 61.9672   1
 -18  -8  10 19.5855 36.9144   1
  18  -8 -10 87.6115 49.2102   2
 -17  -8  10 280.566 82.6104   1
  17  -8 -10 163.014 63.8101   2
 -16  -8  10 96.1811 55.2554   1
  16  -8 -10 12.7536 30.0467   2
 -15  -8  10 444.558 99.9183   1
  15  -8 -10 488.606 96.1088   2
 -14  -8  10 263.211 76.7546   1
 -14   8  10 275.674 39.4909   1
  14  -8 -10 220.170 59.7891   2
 -13   8  10 416.168 45.0661   1
 -13   8  10 335.196 48.5775   1
 -13  -8  10 319.926 41.7745   2
 -13  -8  10 514.767 99.5283   1
 -12   8  10 74.4150 20.9044   1
 -12   8  10 65.3272 20.3378   1
 -12  -8  10 35.4748 29.5271   1
 -11  -8  10 1138.34 145.281   1
 -11  -8  10 1151.50 101.481   2
 -11   8  10 1112.36 61.5179   1
 -11   8  10 945.582 64.5729   1
 -10  -8  10 81.9609 29.9760   2
 -10  -8  10 68.3918 55.5898   1
  -9  -8  10 317.460 55.9241   2
  -9  -8  10 361.151 77.6482   1
  -8  -8  10 259.292 70.6271   1
  -8  -8  10 181.481 45.9641   2
  -7  -8  10 2998.52 223.863   1
  -7  -8  10 2645.37 172.907   2
  -7  -8  10 2956.85 160.507   3
  -6  -8  10 207.747 64.2858   1
  -6  -8  10 300.476 64.1172   2
  -6  -8  10 239.717 49.6862   3
  -5  -8  10 192.945 52.6147   1
  -5  -8  10 237.298 56.1923   2
  -5  -8  10 205.844 45.2626   3
  -4  -8  10 290.830 70.5939   1
  -4  -8  10 380.012 73.3189   2
  -4  -8  10 329.356 61.9535   3
  -3  -8  10 688.234 101.391   2
  -3  -8  10 667.654 88.7500   3
  -3  -8  10 691.178 105.183   1
  -2  -8  10 2622.88 199.106   2
  -2  -8  10 2594.21 179.716   3
  -2  -8  10 2805.52 209.981   1
  -1  -8  10 1451.27 152.420   2
  -1  -8  10 1690.39 159.795   1
   0  -8  10 2816.14 213.763   2
   0  -8 -10 2608.26 89.0705   1
   0  -8  10 2768.23 205.424   1
   1  -8  10 112.742 47.3275   2
  -1  -8 -10 66.4218 19.3472   1
   2  -8  10 889.463 125.648   2
  -2  -8 -10 1050.20 78.0187   1
  -3  -8 -10 122.423 33.2478   1
   3  -8  10-40.1208 41.9996   2
   4  -8  10 475.755 97.2999   2
  -4  -8 -10 490.971 60.0017   1
  -5  -8 -10 410.427 57.5743   1
   5  -8  10 414.030 97.3095   2
  -6  -8 -10 87.5738 33.5257   1
   6  -8  10 49.4459 43.3925   2
   7  -8  10 154.544 62.0004   2
  -7  -8 -10 218.652 49.2846   1
   8  -8  10-11.6329 28.8016   2
  -8  -8 -10-5.41928 14.8359   1
   9  -8  10 44.0409 49.1336   2
  -9  -8 -10 130.527 38.8293   1
  -9  -8 -10 32.1438 37.9300   3
 -10  -8 -10 181.334 48.0978   1
  10  -8  10 139.056 61.4354   2
 -10  -8 -10 98.6761 47.0122   3
  11  -8  10 30.5124 48.3672   2
 -11  -8 -10 83.3839 35.5916   1
 -11  -8 -10 26.8507 28.5987   3
  12  -8  10 216.834 82.2903   2
 -12  -8 -10 109.876 47.1386   3
 -12  -8 -10 89.7434 37.6657   1
 -13  -8 -10 5.75062 27.4891   1
 -13  -8 -10-23.5375 29.3498   3
 -14  -8 -10 25.1741 30.7913   3
 -14  -8 -10 2.90871 17.1821   1
 -15  -8 -10 59.6906 34.3702   1
 -19  -9  10 71.7617 49.0365   1
  19  -9 -10 40.6970 30.4791   2
 -18  -9  10 15.9603 35.0469   1
  18  -9 -10-46.2463 36.0970   2
 -17  -9  10 29.3365 29.6344   1
  17  -9 -10-27.1380 30.8053   2
 -16  -9  10 33.5770 33.1724   1
  16  -9 -10 89.0846 45.5599   2
 -15  -9  10 59.6482 40.1083   1
  15  -9 -10 56.7200 39.9951   2
  14  -9 -10 152.311 57.7644   2
 -14  -9  10 136.052 58.7447   1
 -13  -9  10-32.6226 40.3165   1
 -13   9  10 17.8071 11.9838   1
 -12   9  10 57.9445 22.8036   1
 -12  -9  10-73.3206 46.0434   1
 -12   9  10 55.3026 15.5934   1
 -11   9  10 74.2534 15.0502   1
 -11  -9  10 111.086 47.6399   1
 -10  -9  10 15.5276 31.0179   1
 -10  -9  10 39.2536 24.2646   2
  -9  -9  10 455.056 95.7989   1
  -9  -9  10 364.323 66.7512   2
  -8  -9  10 42.4468 36.6843   1
  -8  -9  10 19.9756 16.5904   3
  -8  -9  10 31.9036 25.4334   2
  -7  -9  10 220.050 66.8591   1
  -7  -9  10 246.902 51.2213   3
  -7  -9  10 286.252 61.9559   2
  -6  -9  10 2.51669 30.0033   1
  -6  -9  10 28.6665 24.3376   2
  -6  -9  10-5.75391 18.1180   3
  -5  -9  10 1045.05 123.564   2
  -5  -9  10 927.354 102.970   3
  -5  -9  10 950.135 127.461   1
  -4  -9  10 449.490 89.4096   1
  -4  -9  10 524.394 88.5448   2
  -4  -9  10 510.839 79.8620   3
  -3  -9  10 172.456 61.6380   1
  -3  -9  10 360.478 76.2684   2
  -3  -9  10 261.511 59.3989   3
  -2  -9  10 250.438 64.5299   2
  -2  -9  10 242.533 68.2399   1
  -1  -9  10 724.596 113.396   2
  -1  -9  10 740.841 111.751   1
   0  -9  10 97.2015 58.1194   2
   0  -9 -10 20.7836 7.53586   1
   0  -9  10 80.5267 46.6376   1
  -1  -9 -10 213.065 33.0968   1
   1  -9  10 186.813 58.3763   2
   2  -9  10 32.5496 31.1387   2
  -2  -9 -10 28.3351 19.0720   1
  -3  -9 -10 94.6141 28.9380   1
   3  -9  10 23.4709 24.4690   2
   4  -9  10 114.874 53.8554   2
  -4  -9 -10 117.426 33.1138   1
   5  -9  10 252.287 76.4915   2
  -5  -9 -10 315.216 56.0373   1
   6  -9  10-15.9832 40.5982   2
  -6  -9 -10 50.4867 26.7928   1
   7  -9  10 100.821 61.2328   2
  -7  -9 -10 44.3288 28.6685   1
   8  -9  10 170.525 66.9058   2
  -8  -9 -10 247.909 55.6070   1
  -9  -9 -10 95.1249 39.2897   1
   9  -9  10 64.6229 39.8428   2
  10  -9  10 57.9672 46.9408   2
 -10  -9 -10 50.4056 34.1088   1
 -10  -9 -10 33.9886 34.0621   3
  11  -9  10 17.7019 32.3191   2
 -11  -9 -10 0.64741 15.2805   1
 -11  -9 -10-21.0080 29.6106   3
 -12  -9 -10 95.8816 38.4811   1
 -12  -9 -10 9.50671 24.7648   3
 -13  -9 -10 55.9005 28.3394   1
 -13  -9 -10 82.1586 47.6632   3
 -14  -9 -10 136.218 50.6755   1
  19 -10 -10 74.3913 45.7977   2
  18 -10 -10 18.0186 31.9831   2
 -17 -10  10 16.2162 48.9354   1
  17 -10 -10-45.0969 36.0804   2
 -16 -10  10 15.9717 28.5059   1
  16 -10 -10 102.602 49.6354   2
  15 -10 -10 24.0275 23.2065   2
 -15 -10  10-56.1219 44.8854   1
  14 -10 -10-16.9469 38.8412   2
 -14 -10  10-41.0211 45.6596   1
 -13 -10  10-18.8151 56.0378   1
 -12 -10  10-27.0251 39.8748   1
 -11 -10  10 43.2110 39.9863   1
 -10 -10  10 90.1792 51.4803   1
 -10 -10  10 34.6021 19.9197   2
  -9 -10  10 405.654 92.5131   1
  -9 -10  10 382.086 61.1099   3
  -9 -10  10 412.057 75.7187   2
  -8 -10  10-17.6618 34.8562   1
  -8 -10  10 22.5812 18.8579   3
  -8 -10  10 25.1980 24.9489   2
  -7 -10  10 307.340 83.9190   1
  -7 -10  10 200.916 47.6689   3
  -7 -10  10 288.868 65.2144   2
  -6 -10  10-10.2963 46.3221   1
  -6 -10  10 103.618 46.1540   2
  -6 -10  10 19.6940 24.6341   3
  -5 -10  10 156.511 51.9289   1
  -5 -10  10 67.1989 36.3301   2
  -5 -10  10 42.4028 25.5063   3
  -4 -10  10 868.596 119.328   2
  -4 -10  10 734.167 100.195   3
  -4 -10  10 976.425 136.075   1
  -3 -10  10 60.9785 40.6590   1
  -3 -10  10 45.2204 35.3635   2
  -2 -10  10 122.433 49.6738   2
  -2 -10  10 142.790 56.0234   1
  -1 -10  10 731.291 119.538   2
  -1 -10  10 728.613 114.318   1
   0 -10 -10 40.2555 9.21205   1
   0 -10  10 46.7715 36.6227   2
   0 -10  10 25.8007 32.4496   1
  -1 -10 -10 431.647 44.7391   1
   1 -10  10 438.890 101.652   2
  -2 -10 -10 23.2805 17.4828   1
   2 -10  10 31.3606 31.3850   2
   3 -10  10 81.2387 54.3853   2
  -3 -10 -10-1.06833 19.1906   1
   4 -10  10-34.7302 41.8017   2
  -4 -10 -10 38.6027 24.7076   1
  -5 -10 -10 1.45858 18.4358   1
   5 -10  10 45.6854 37.5903   2
   6 -10  10 68.8900 49.4330   2
  -6 -10 -10-26.8085 30.0992   1
   7 -10  10 119.706 53.3988   2
  -7 -10 -10 162.737 47.6104   1
   8 -10  10 108.115 58.3024   2
  -8 -10 -10-2.53773 19.4911   1
  -9 -10 -10-12.6812 23.4100   1
   9 -10  10 42.6708 36.7251   2
 -10 -10 -10 117.455 49.3392   1
  10 -10  10 115.167 56.4260   2
 -11 -10 -10-4.43943 19.5289   3
 -12 -10 -10 8.84327 25.9828   3
 -13 -10 -10 11.1087 31.1591   3
  19 -11 -10-19.3750 22.8734   2
  18 -11 -10-10.8634 23.9206   2
  17 -11 -10 96.9246 56.3377   2
  16 -11 -10 24.6357 28.5956   2
 -16 -11  10-54.6692 50.6372   1
  15 -11 -10-38.0448 37.4441   2
 -15 -11  10-20.3592 50.4627   1
  14 -11 -10-58.4663 42.2953   2
 -14 -11  10 14.6849 29.8887   1
 -13 -11  10-10.5021 38.0485   1
 -12 -11  10 137.135 60.9337   1
 -11 -11  10 134.090 56.1723   1
 -10 -11  10 69.7748 45.6347   1
 -10 -11  10-5.79202 36.3864   2
  -9 -11  10-41.3028 35.2599   1
  -9 -11  10 88.5233 46.9209   2
  -8 -11  10 32.8609 43.4213   1
  -8 -11  10 56.9554 28.9762   3
  -8 -11  10-7.04991 26.1566   2
  -7 -11  10-33.7119 31.4014   1
  -7 -11  10-0.82426 13.1509   3
  -7 -11  10 25.0315 24.7007   2
  -6 -11  10 121.149 54.4429   1
  -6 -11  10 91.6760 42.6309   2
  -6 -11  10 71.7306 32.0907   3
  -5 -11  10 30.5707 25.1356   1
  -5 -11  10 135.537 49.2002   2
  -4 -11  10 117.816 51.5459   1
  -4 -11  10 153.913 53.3135   2
  -3 -11  10 117.828 52.0390   1
  -3 -11  10 158.232 55.0619   2
  -2 -11  10 68.7249 33.7354   2
  -2 -11  10 128.533 50.8611   1
  -1 -11  10 89.3216 43.5824   2
  -1 -11  10 47.3483 35.7381   1
   0 -11  10 148.920 63.2822   2
   0 -11  10 126.653 56.3210   1
   1 -11  10 110.890 58.2227   2
   2 -11  10 415.426 97.3985   2
   3 -11  10 15.3542 36.5783   2
   4 -11  10 272.334 86.0254   2
   5 -11  10 52.6004 38.4242   2
   6 -11  10-5.81647 40.0566   2
   7 -11  10 44.4195 45.2077   2
   8 -11  10-73.2439 56.8404   2
   9 -11  10 371.280 104.473   2
 -11 -11 -10 32.3731 30.7922   3
 -12 -11 -10 80.3405 54.2115   3
  18 -12 -10 82.1625 55.6303   2
  17 -12 -10-98.5473 53.7448   2
  16 -12 -10 114.444 63.4167   2
  15 -12 -10 15.9077 33.3503   2
 -15 -12  10 20.3623 33.1316   1
  14 -12 -10-21.9583 28.2675   2
 -14 -12  10-5.66531 33.8768   1
 -13 -12  10 39.3805 45.0420   1
 -12 -12  10 3.53488 30.1391   1
 -11 -12  10-7.99920 40.7940   1
 -10 -12  10 245.659 80.6012   1
 -10 -12  10 167.938 57.5674   2
  -9 -12  10 21.7032 32.2190   1
  -9 -12  10 36.9607 28.4546   2
  -8 -12  10 22.3120 33.4327   1
  -8 -12  10-19.1542 30.4928   2
  -7 -12  10 23.6458 40.0647   1
  -7 -12  10 41.9396 35.7215   2
  -6 -12  10 77.0164 47.0106   1
  -6 -12  10 108.395 48.0141   2
  -5 -12  10 9.56261 33.9486   1
  -5 -12  10-36.0299 33.5624   2
  -4 -12  10 104.989 54.5291   1
  -4 -12  10 86.8518 43.1035   2
  -3 -12  10-4.48029 35.6390   1
  -3 -12  10-9.95726 28.1179   2
  -2 -12  10 503.733 105.754   2
  -2 -12  10 458.236 96.6910   1
  -1 -12  10 195.674 73.6242   2
  -1 -12  10 100.381 54.4298   1
   0 -12  10-0.20899 29.3626   2
   0 -12  10-10.0083 30.4663   1
   1 -12  10 216.929 71.4508   2
   2 -12  10 30.5860 35.2291   2
   3 -12  10 163.717 70.7964   2
   4 -12  10 225.336 87.4890   2
   5 -12  10 197.304 69.9654   2
   6 -12  10 147.801 67.8264   2
   7 -12  10-37.3164 42.5288   2
   8 -12  10 98.0400 56.7262   2
  17 -13 -10-67.2650 48.4282   2
  16 -13 -10 92.4415 54.6642   2
  15 -13 -10 26.0660 34.8426   2
  14 -13 -10-76.4865 52.0556   2
 -13 -13  10 24.2730 27.8113   1
 -12 -13  10 48.1459 35.4973   1
 -11 -13  10 163.802 70.0331   1
 -10 -13  10 81.6249 42.0463   1
 -10 -13  10-34.1463 29.4776   2
  -9 -13  10 34.4557 28.9326   1
  -9 -13  10-22.8993 27.2490   2
  -8 -13  10 105.761 59.2937   1
  -8 -13  10 15.3021 21.3632   2
  -7 -13  10 44.6946 38.2501   1
  -7 -13  10-18.3209 28.3639   2
  -6 -13  10-72.9234 44.6216   1
  -6 -13  10 28.1398 36.2227   2
  -5 -13  10-13.1046 24.0611   1
  -5 -13  10 23.0229 33.4838   2
  -4 -13  10 256.725 76.5912   1
  -4 -13  10 186.522 68.6488   2
  -3 -13  10 11.0294 25.1415   2
  -3 -13  10-6.99085 25.2453   1
  -2 -13  10 8.85244 30.9484   2
  -2 -13  10 133.911 51.4303   1
  -1 -13  10-17.1617 32.7925   2
  -1 -13  10 5.66309 35.9681   1
   0 -13  10 4.04405 31.5559   2
   0 -13  10 50.7228 47.4377   1
   1 -13  10 12.7771 29.9433   2
   2 -13  10 16.0110 25.0637   2
   3 -13  10 191.052 77.7341   2
   4 -13  10 105.815 63.4978   2
   5 -13  10 37.0686 34.9101   2
   6 -13  10 5.83054 28.0673   2
  15 -14 -10 1.43342 30.6027   2
  14 -14 -10-11.0931 28.5431   2
 -11 -14  10 23.2163 34.6834   1
 -10 -14  10 55.5074 51.5904   1
 -10 -14  10 16.9039 21.6420   2
  -9 -14  10 47.3965 54.7022   1
  -9 -14  10 47.5072 32.5358   2
  -8 -14  10 108.097 53.3276   1
  -8 -14  10 71.5748 48.1385   2
  -7 -14  10 73.7184 42.9124   1
  -7 -14  10 141.177 57.9865   2
  -6 -14  10 453.524 106.310   1
  -6 -14  10 428.807 100.993   2
  -5 -14  10-83.3183 51.0899   1
  -5 -14  10 7.71568 24.5148   2
  -4 -14  10-78.1658 50.2880   1
  -4 -14  10-37.1112 38.0429   2
  -3 -14  10 20.0829 33.0366   2
  -3 -14  10 25.8051 28.4697   1
  -2 -14  10-91.3075 53.0883   2
  -2 -14  10 8.87314 31.7317   1
  -1 -14  10 102.032 56.3605   2
  -1 -14  10 83.9824 46.5067   1
   0 -14  10 55.7206 44.4927   2
   0 -14  10 0.81768 39.1479   1
   1 -14  10 203.786 79.9583   2
   2 -14  10 24.9096 42.6358   2
   3 -14  10 10.5108 33.3825   2
   4 -14  10 59.1533 50.2930   2
   5 -14  10 68.4628 58.2083   2
  -9 -15  10 3.88264 35.2702   2
  -8 -15  10 33.7659 32.0080   2
  -7 -15  10 0.95740 49.5730   1
  -7 -15  10 33.9455 44.0245   2
  -6 -15  10-12.7696 32.2731   1
  -6 -15  10-0.21981 26.8017   2
  -5 -15  10 18.2070 30.8049   1
  -5 -15  10 6.30851 26.9011   2
  -4 -15  10 11.3411 36.6429   2
  -4 -15  10 33.1219 34.4686   1
  -3 -15  10 32.0783 35.4113   2
  -3 -15  10-73.2984 47.3187   1
  -2 -15  10 0.24403 47.7450   2
  -2 -15  10 81.6623 53.2783   1
  -1 -15  10 55.0515 43.2650   2
  -1 -15  10 51.0201 54.7908   1
   0 -15  10 80.5109 52.8474   2
   1 -15  10-107.037 60.4465   2
   2 -15  10 108.876 59.5549   2
   3 -15  10 44.6896 44.4622   2
  -7 -16  10 69.5406 43.4182   2
  -6 -16  10 141.455 68.3731   2
  -5 -16  10 18.6734 38.2006   2
  -4 -16  10 54.9716 45.5450   2
  -3 -16  10-1.01979 22.9866   2
  -2 -16  10 93.5715 46.0384   2
  -1 -16  10 31.9821 36.7673   2
   0 -16  10-113.458 57.0008   2
  -5 -17  10 6.49879 43.5926   2
  -4 -17  10 0.53177 51.3046   2
 -24   0  11-1.29403 20.4175   1
 -23   0  11 11.8016 26.5364   1
 -22   0  11 32.0520 37.5696   1
 -21   0  11-45.8377 37.3916   1
 -20   0  11 11.8979 25.3859   1
 -19   0  11-31.0533 39.1996   1
 -18   0  11-52.4348 41.9624   1
 -17   0  11-56.4939 42.3486   1
 -16   0  11-10.5049 33.6646   1
 -15   0  11-44.4485 42.1950   1
 -14   0  11 23.3987 27.7389   1
 -13   0  11 9.79278 26.0457   1
 -12   0  11 34.8388 28.5306   1
 -11   0  11 20.1828 27.0287   1
 -10   0  11-14.7739 27.2530   1
  -9   0  11-84.0904 31.4260   1
   9   0 -11 19.9369 15.2139   1
   8   0 -11-3.98293 6.28150   2
   8   0 -11-21.2592 16.7097   1
  -8   0  11 8.25957 15.5896   1
   7   0 -11-2.07455 8.62827   2
  -7   0  11-16.5857 20.7459   1
   7   0 -11-11.6713 19.8446   1
   6   0 -11-3.08311 10.7642   2
  -6   0  11 2.73618 14.8858   1
   6   0 -11-20.9304 21.4896   1
  -5   0  11-0.07151 14.3202   1
   5   0 -11 4.24573 13.6621   2
   5   0 -11 2.02146 13.6357   1
   4   0 -11-15.7556 16.6786   1
   4   0 -11 12.4890 18.0204   2
  -4   0  11-40.6133 20.8933   1
   3   0 -11 6.05405 15.8844   2
   3   0 -11 1.56210 12.4938   1
  -3   0  11-11.2879 13.2423   1
   2   0 -11-7.16404 15.8874   2
   2   0 -11-0.60285 13.2411   1
   2   0 -11 24.5516 23.5985   3
   1   0 -11 3.00965 17.0575   2
   1   0 -11 2.17011 15.9550   1
  -1   0  11 4.92024 15.3204   2
   1   0 -11-5.46776 24.0797   3
   0   0 -11 4.65468 14.9817   2
   0   0 -11 26.8253 20.0618   1
   0   0 -11 8.68986 27.6893   3
   0   0  11 20.8251 18.4168   2
  -1   0 -11-0.40638 15.4226   1
  -1   0 -11-4.65787 21.5640   2
  -1   0 -11-34.0613 34.0699   3
   1   0  11 7.33359 20.1486   2
  -2   0 -11-24.1100 28.2912   1
  -2   0 -11 4.11575 18.2080   2
  -2   0 -11-25.3094 29.9081   3
   2   0  11-25.2350 28.2076   2
  -3   0 -11 12.4244 26.3723   2
   3   0  11 0.10128 27.7743   2
  -3   0 -11 81.4134 42.4524   3
  -3   0 -11 6.86741 20.0796   1
  -4   0 -11-13.5377 33.4775   3
   4   0  11-3.93683 19.7154   2
  -4   0 -11 22.7495 25.3292   1
  -5   0 -11-42.7621 51.9155   3
  -5   0 -11 4.15952 15.3800   1
   5   0  11-42.8239 41.6575   2
  -6   0 -11-32.6931 38.9901   3
   6   0  11-36.0852 41.8082   2
  -7   0 -11-35.6754 37.5860   3
   7   0  11-22.9437 26.2860   2
  -8   0 -11-0.63681 31.8317   3
   8   0  11-5.04109 36.7172   2
  -9   0 -11 69.8688 50.3276   3
   9   0  11-24.5449 36.3804   2
 -10   0 -11 12.2698 30.1530   3
  10   0  11-0.32406 26.4701   2
 -11   0 -11 23.3759 41.2018   3
  11   0  11-27.7440 34.1426   2
 -12   0 -11-24.3367 38.9125   3
  12   0  11 17.9070 25.9345   2
 -13   0 -11 7.02305 34.7658   3
  13   0  11-15.1402 28.1177   2
 -14   0 -11-34.8326 42.1190   3
  14   0  11-36.4988 34.0668   2
 -24   1  11-76.8676 46.7327   1
 -23  -1  11 18.1825 23.9275   1
 -23   1  11 64.7306 47.4881   1
 -22  -1  11 14.1143 24.8304   1
 -22   1  11 88.9391 40.7982   1
 -21  -1  11 78.6486 37.9937   1
 -21   1  11 82.7977 45.0171   1
 -20  -1  11 10.7764 31.4507   1
 -20   1  11 20.8251 26.3718   1
 -19  -1  11 8.92616 29.6128   1
 -19   1  11 35.7671 30.2852   1
 -18  -1  11 1777.94 167.987   1
 -18   1  11 1745.72 156.187   1
 -17  -1  11 84.4557 37.5314   1
 -17   1  11-4.02469 22.0332   1
 -16   1  11 159.427 45.6844   1
  16  -1 -11 190.407 17.9193   2
 -16  -1  11 56.8592 27.5445   1
 -15   1  11-35.8205 36.6572   1
 -15  -1  11 18.8651 29.8230   1
 -14  -1  11 467.340 80.5755   1
 -14   1  11 343.550 62.9240   1
 -13  -1  11 88.2979 33.8190   1
 -13   1  11 86.9358 36.7960   1
 -12  -1  11 27.3455 17.9967   1
 -12   1  11 4.46515 16.3982   1
 -11  -1  11 116.299 40.7724   1
  11  -1 -11 85.9957 13.8017   2
 -11   1  11 172.914 42.8355   1
  11  -1 -11 94.5064 12.5739   2
 -10   1  11 237.020 47.3168   1
  10   1 -11 271.140 45.9386   1
  10  -1 -11 210.690 22.6541   2
 -10  -1  11 195.710 47.1826   1
   9   1 -11 1012.78 88.8703   1
  -9  -1  11 877.668 97.2981   1
  -9   1  11 911.621 88.3161   1
   9  -1 -11 934.429 53.3870   2
   8   1 -11 28.4045 17.1239   1
   8  -1 -11 78.8911 22.8409   1
  -8   1  11 44.4709 26.8332   1
  -8  -1  11 65.9084 29.0557   1
   8  -1 -11 63.1959 17.2512   2
   7  -1 -11 181.759 29.8684   2
   7   1 -11 157.485 40.3190   1
   7  -1 -11 201.220 35.3449   1
  -7   1  11 181.474 40.3429   1
  -7  -1  11 149.037 36.8512   1
   7   1 -11 134.270 23.3389   2
   6   1 -11 598.333 56.8498   2
   6  -1 -11 678.277 67.2678   1
  -6   1  11 694.898 70.1356   1
   6  -1 -11 720.061 63.2511   2
   6   1 -11 675.175 80.2508   1
  -6  -1  11 652.326 79.4597   1
  -5  -1  11 317.246 54.1104   1
   5   1 -11 274.542 51.8552   1
   5   1 -11 260.089 41.4110   2
   5  -1 -11 312.431 47.3038   1
   5   1 -11 376.972 56.6373   3
   5  -1 -11 309.585 44.8083   2
  -5   1  11 258.502 42.2220   1
  -4  -1  11 385.436 58.4133   1
   4   1 -11 362.635 62.2788   1
   4   1 -11 362.248 52.7400   2
   4  -1 -11 339.745 50.3836   1
   4   1 -11 388.230 57.7014   3
  -4   1  11 373.301 50.1595   1
   4  -1 -11 350.900 50.8723   2
   3   1 -11 1578.82 118.594   2
   3   1 -11 1762.27 134.875   1
   3  -1 -11 1675.02 115.841   1
   3   1 -11 1696.80 124.194   3
  -3  -1  11 1745.51 123.815   1
  -3  -1  11 1718.03 103.269   2
   3  -1 -11 1586.14 113.591   2
   2  -1 -11 1047.39 94.7119   1
   2   1 -11 971.832 98.0201   2
   2   1 -11 1087.82 110.058   1
   2   1 -11 982.693 98.4389   3
  -2  -1  11 982.728 83.4245   2
   2  -1 -11 896.180 91.6371   2
   1  -1 -11 21.1458 20.1063   2
   1   1 -11 78.2091 37.3572   2
   1  -1 -11 34.5249 20.5064   1
   1   1 -11 18.9804 28.1497   1
   1   1 -11 64.5597 34.8131   3
  -1  -1  11 45.2108 25.7932   2
   0   1 -11 1073.65 115.318   2
   0   1 -11 1107.27 113.874   3
   0  -1  11 1065.31 97.6156   2
   0  -1 -11 1087.57 101.855   1
   0   1 -11 1216.76 118.550   1
   0  -1 -11 1141.21 113.911   2
  -1   1 -11 2720.85 189.501   2
  -1  -1 -11 2969.60 183.577   3
  -1   1 -11 2896.29 185.368   3
   1  -1  11 2878.20 167.674   2
  -1   1 -11 3031.34 192.414   1
  -1  -1 -11 2897.18 174.874   1
  -1  -1 -11 2872.09 186.935   2
  -2   1 -11 1713.36 158.099   2
  -2   1 -11 1761.38 149.576   3
  -2  -1 -11 1839.18 143.803   1
  -2  -1 -11 1867.25 152.973   3
  -2   1 -11 1787.65 151.715   1
   2  -1  11 1709.51 136.344   2
  -2  -1 -11 1925.14 162.200   2
  -3  -1 -11 995.109 120.343   2
  -3   1 -11 905.954 119.768   2
  -3  -1 -11 1052.33 117.485   3
  -3   1 -11 943.821 112.731   3
  -3  -1 -11 1156.65 118.420   1
  -3   1 -11 1077.07 119.829   1
   3   1  11 1007.16 105.305   2
   3  -1  11 888.441 102.173   2
  -4  -1 -11 1475.98 143.062   3
  -4   1 -11 1545.75 148.535   3
  -4  -1 -11 1702.62 148.400   1
  -4   1 -11 1533.00 148.073   1
   4   1  11 1465.14 131.130   2
   4  -1  11 1461.16 136.493   2
  -5   1 -11 19.8699 27.0402   3
  -5  -1 -11 47.0346 33.2231   3
  -5  -1 -11 47.7593 27.4965   1
   5   1  11 11.2736 21.0416   2
   5  -1  11-20.9147 38.3551   2
  -6  -1 -11-15.8870 35.9547   3
  -6   1 -11-18.9403 37.3051   3
   6   1  11 17.0628 26.7015   2
   6  -1  11 8.55182 24.6636   2
  -7  -1 -11-43.7152 46.6124   3
  -7   1 -11-3.84854 35.4867   3
   7   1  11 17.7185 31.4500   2
   7  -1  11-9.69389 23.3553   2
  -8  -1 -11 1218.65 144.288   3
  -8   1 -11 1179.96 146.641   3
   8   1  11 1176.64 134.438   2
   8  -1  11 1283.65 146.302   2
  -9  -1 -11-43.6863 42.3410   3
  -9   1 -11-23.6465 44.7722   3
   9   1  11-13.4954 31.2416   2
   9  -1  11 13.3530 29.4892   2
 -10  -1 -11-17.3342 33.2501   3
 -10   1 -11-10.6242 29.5824   3
  10   1  11 8.99143 23.0346   2
  10  -1  11-0.66746 33.8815   2
 -11  -1 -11 1028.05 151.304   3
 -11   1 -11 1098.37 159.692   3
  11   1  11 1011.76 137.637   2
  11  -1  11 945.552 138.555   2
 -12  -1 -11 160.346 66.1801   3
 -12   1 -11 241.695 77.5762   3
  12   1  11 77.4424 48.2835   2
  12  -1  11 177.360 64.8365   2
 -13  -1 -11 18.8301 37.0636   3
  13   1  11-26.5868 36.1341   2
  13  -1  11 4.77060 31.4546   2
 -14  -1 -11 126.492 69.5296   3
  14  -1  11 17.1169 39.1336   2
 -15  -1 -11 99.3676 61.0753   3
 -24   2  11 1.85877 36.2671   1
 -23   2  11-11.3733 39.7405   1
 -23  -2  11-6.39578 28.6067   1
 -22  -2  11 663.655 120.496   1
 -22   2  11 786.661 120.144   1
 -21   2  11 209.746 60.7559   1
 -21  -2  11 18.7419 34.3952   1
 -20   2  11 184.787 52.9783   1
 -20  -2  11 111.518 47.3764   1
 -19  -2  11 109.325 43.3048   1
 -19   2  11 154.700 46.1192   1
 -18  -2  11 693.666 107.866   1
 -18   2  11 799.555 102.606   1
  17  -2 -11 4.86293 8.38386   2
 -17   2  11-42.4674 37.6292   1
 -17  -2  11 1.57185 32.8477   1
  16  -2 -11 20.6307 10.4041   2
 -16   2  11 19.7773 24.5570   1
  16   2 -11 15.4372 8.78280   3
 -16  -2  11 54.5572 38.5738   1
 -15   2  11 725.567 88.4532   1
  15   2 -11 613.093 48.2192   3
 -15  -2  11 611.431 96.1297   1
  15  -2 -11 618.459 51.8600   2
  14  -2 -11 742.815 56.6034   2
 -14   2  11 679.544 86.1807   1
  14   2 -11 783.946 59.2686   3
 -14  -2  11 825.521 108.147   1
  13  -2 -11-4.05975 14.0517   2
 -13  -2  11 24.4901 33.0048   1
 -13   2  11-27.2548 34.9006   1
 -12  -2  11 238.999 59.7671   1
  12  -2 -11 140.642 26.5612   2
 -12   2  11 172.085 42.4123   1
  12   2 -11 155.530 29.8915   3
 -11  -2  11 22.4654 29.6010   1
 -11   2  11 34.9436 23.0436   1
  11  -2 -11 16.7654 12.6796   2
  11   2 -11-2.45983 10.8849   3
  10   2 -11 891.990 88.4420   1
 -10  -2  11 1019.47 110.962   1
  10   2 -11 830.957 71.8373   3
 -10   2  11 900.482 85.4154   1
   9   2 -11 310.761 45.8006   3
  -9  -2  11 313.866 60.4573   1
   9   2 -11 394.916 62.1903   1
  -9   2  11 350.407 51.6068   1
  -8   2  11 1014.55 83.9202   1
  -8  -2  11 1008.56 105.710   1
   8   2 -11 1080.54 105.933   1
   8   2 -11 1079.92 86.4880   3
   8  -2 -11 1083.84 70.9996   2
  -7  -2  11 1004.53 106.253   1
   7   2 -11 1182.84 110.492   1
   7  -2 -11 1147.66 67.2041   1
   7   2 -11 1100.75 93.2423   3
   7  -2 -11 1095.29 77.6068   2
  -7   2  11 1015.96 80.0320   1
   6  -2 -11 11.3601 11.8329   1
  -6   2  11-7.63403 15.0485   1
  -6  -2  11-3.56653 25.3082   1
   6   2 -11 2.31366 13.4193   2
   6   2 -11 47.8536 27.5280   1
   6   2 -11 19.1419 21.0949   3
   6  -2 -11 21.0364 15.6972   2
  -5  -2  11-15.3173 25.0261   1
   5   2 -11-10.1258 19.8059   1
   5   2 -11-10.8696 17.0286   2
   5   2 -11 13.9701 21.4408   3
  -5  -2  11-13.5821 13.6009   2
  -5   2  11-13.6193 13.2675   1
   5  -2 -11-7.82127 19.9364   1
   5  -2 -11-7.05627 12.6949   2
   4   2 -11 511.899 65.9815   2
   4   2 -11 532.876 77.1331   1
   4   2 -11 458.907 66.4171   3
   4  -2 -11 467.992 53.2939   1
  -4  -2  11 484.742 69.4962   1
  -4  -2  11 426.482 48.6947   2
   4  -2 -11 468.220 59.0646   2
   3   2 -11 84.1159 30.2480   2
   3   2 -11 123.035 39.1583   3
   3  -2 -11 70.8576 25.1851   1
   3   2 -11 81.4154 29.0991   1
  -3  -2  11 94.1753 35.0143   1
  -3  -2  11 85.8726 28.7295   2
   3  -2 -11 89.2327 29.0247   2
   2  -2 -11 969.518 84.0886   1
   2   2 -11 943.704 104.104   1
   2   2 -11 876.404 100.528   2
   2   2 -11 913.362 96.9049   3
  -2  -2  11 907.017 94.4074   1
  -2  -2  11 921.369 84.0250   2
   2  -2 -11 1009.79 97.3272   2
   1   2 -11 12704.3 390.781   1
   1   2 -11 11977.7 373.931   2
   1   2 -11 12341.2 362.834   3
  -1  -2  11 11748.9 314.194   2
   1  -2 -11 12326.5 352.385   2
   1  -2 -11 12632.5 315.509   1
   0  -2 -11 6.33363 19.2219   2
   0  -2 -11-11.7730 17.2391   1
   0   2 -11 2.15408 21.7276   1
   0   2 -11-15.3420 23.7331   2
   0   2 -11-5.63329 23.1269   3
   0  -2  11-17.6871 23.0404   2
  -1  -2 -11 95.6400 31.7325   2
  -1   2 -11 113.116 43.2626   1
  -1   2 -11 85.4588 37.7451   2
  -1   2 -11 99.9426 37.9289   3
   1  -2  11 146.016 39.1240   2
  -1  -2 -11 115.637 34.6355   1
  -2  -2 -11 257.802 58.7100   2
  -2   2 -11 195.872 53.5121   1
  -2   2 -11 180.381 53.6148   2
  -2  -2 -11 317.144 65.6631   3
  -2   2 -11 251.557 59.2325   3
  -2  -2 -11 251.940 51.7258   1
   2  -2  11 240.944 53.3598   2
  -3   2 -11 182.116 47.8386   1
  -3  -2 -11 223.144 56.9905   2
  -3   2 -11 229.407 64.9710   2
  -3  -2 -11 147.872 43.6573   3
  -3   2 -11 349.148 75.4854   3
  -3  -2 -11 215.033 50.6898   1
   3  -2  11 220.475 51.7258   2
  -4  -2 -11 448.696 81.7436   3
  -4   2 -11 486.924 85.3453   3
  -4  -2 -11 575.945 84.3600   1
   4  -2  11 578.524 89.3341   2
  -4   2 -11 590.121 94.9639   1
  -5  -2 -11 88.7427 37.6803   3
  -5   2 -11 143.044 51.9695   3
   5  -2  11 62.8255 36.8770   2
  -6  -2 -11 3211.93 221.519   3
  -6   2 -11 3262.06 233.766   3
   6  -2  11 3135.95 216.853   2
  -7  -2 -11-18.9153 34.2108   3
  -7   2 -11 28.3160 33.4519   3
   7  -2  11 40.9538 34.7531   2
  -8  -2 -11 33.1878 31.8207   3
  -8   2 -11 42.1242 39.3770   3
   8  -2  11 59.1803 43.6390   2
  -9  -2 -11 4.00949 30.2520   3
  -9   2 -11 76.3871 37.4137   3
   9  -2  11-6.35902 35.2495   2
 -10  -2 -11-40.1406 33.9685   3
 -10   2 -11 63.9794 49.5945   3
  10  -2  11-40.4604 38.6016   2
 -11  -2 -11 507.163 111.837   3
 -11   2 -11 616.178 126.151   3
  11  -2  11 469.253 97.3845   2
 -12  -2 -11 29.9211 41.4458   3
  12  -2  11 32.3705 37.6593   2
 -13  -2 -11 231.900 75.1840   3
  13  -2  11 247.556 77.7716   2
 -14  -2 -11 58.1685 45.0591   3
  14  -2  11 165.308 69.3074   2
 -15  -2 -11-62.3547 48.6894   3
 -16  -2 -11-43.7376 41.8217   3
 -24   3  11 21.3380 31.4545   1
 -23  -3  11-13.8177 40.9109   1
 -23   3  11 38.9494 20.9006   1
 -22  -3  11-19.2155 44.0960   1
 -22   3  11 5.51062 30.7029   1
 -21  -3  11 222.467 72.7375   1
 -21   3  11 255.220 64.8402   1
 -20   3  11-23.9423 31.6664   1
 -20  -3  11-28.3530 31.4705   1
 -19   3  11 178.844 51.8334   1
 -19  -3  11 130.302 48.7113   1
 -18   3  11 116.336 41.2336   1
  18  -3 -11 66.1010 23.1921   2
 -18  -3  11 80.6170 43.6579   1
  17  -3 -11 95.6779 30.0548   2
 -17  -3  11 124.819 56.7998   1
 -17   3  11 164.618 44.2546   1
  16  -3 -11 93.5774 27.4971   2
 -16  -3  11 208.831 60.1332   1
 -16   3  11 121.216 34.9321   1
  15  -3 -11 80.6856 24.7053   2
 -15   3  11 152.851 40.1957   1
 -15  -3  11 196.961 62.3259   1
  14  -3 -11 917.937 82.1153   2
 -14   3  11 985.051 96.8412   1
  14   3 -11 729.418 48.8019   3
 -14  -3  11 944.973 119.569   1
 -13   3  11-37.8901 35.8260   1
 -13  -3  11-0.12783 20.8461   1
  13  -3 -11 8.20413 14.4861   2
  13   3 -11-1.14809 10.3726   3
 -12  -3  11 19.7309 24.2888   1
  12   3 -11-4.19431 13.2081   3
  12  -3 -11-8.29724 16.0710   2
 -12   3  11 25.4240 22.2052   1
 -11  -3  11 264.254 62.6086   1
 -11   3  11 239.149 46.5323   1
  11   3 -11 299.736 56.6439   1
  11   3 -11 315.678 41.5833   3
 -10   3  11 17.5184 16.4818   1
  10   3 -11 21.8069 15.7074   3
  10   3 -11 18.9741 14.7357   1
 -10  -3  11-20.7906 35.5385   1
  -9  -3  11 3827.76 221.585   1
  -9   3  11 3684.50 151.392   1
   9   3 -11 3503.23 149.509   3
   9   3 -11 4056.48 206.431   1
   8   3 -11 161.718 41.4360   1
  -8   3  11 124.508 27.4691   1
  -8  -3  11 159.610 48.8135   1
   8   3 -11 144.269 35.2096   3
   7   3 -11 2055.29 155.496   1
  -7  -3  11 1861.73 148.018   1
   7   3 -11 1840.65 117.266   3
  -7  -3  11 1825.04 71.0095   2
  -7   3  11 1854.21 93.0625   1
  -6  -3  11 287.210 65.2281   1
   6   3 -11 192.064 51.3013   1
   6   3 -11 149.003 39.8630   3
   6  -3 -11 228.554 39.9984   2
  -6   3  11 185.953 28.9777   1
  -6  -3  11 195.150 28.5012   2
   5   3 -11 710.265 74.8391   2
   5   3 -11 741.100 96.5175   1
   5   3 -11 666.767 75.1223   3
   5  -3 -11 669.001 48.4978   1
   5  -3 -11 676.820 70.1908   2
  -5  -3  11 661.853 58.8458   2
  -5  -3  11 654.257 87.3131   1
  -4  -3  11 281.407 43.7984   2
   4   3 -11 354.523 69.5301   1
  -4  -3  11 277.489 57.8318   1
   4   3 -11 279.275 48.7007   2
   4   3 -11 237.566 48.0945   3
   4  -3 -11 277.775 35.7461   1
   4  -3 -11 294.630 50.0855   2
  -3  -3  11 216.539 43.0665   2
   3   3 -11 288.017 55.0376   2
   3   3 -11 198.691 53.3460   1
   3   3 -11 257.063 52.1593   3
   3  -3 -11 281.441 48.5518   2
   3  -3 -11 255.462 37.7936   1
  -3  -3  11 276.277 54.8227   1
   2  -3 -11 4940.76 175.230   1
   2   3 -11 5075.40 252.875   1
   2   3 -11 4725.85 233.176   2
   2   3 -11 4820.59 222.187   3
  -2  -3  11 4977.83 230.658   1
   2  -3 -11 4840.37 214.387   2
  -2  -3  11 4825.54 202.267   2
  -1  -3  11 22.9657 22.8166   2
   1  -3 -11 37.7683 22.7033   1
   1   3 -11 34.9134 23.0919   1
   1   3 -11 39.7500 22.3838   2
   1   3 -11 72.3321 35.6074   3
  -1  -3  11-3.20768 20.0113   1
   1  -3 -11 2.62949 13.6572   2
   0  -3  11 372.296 62.5306   2
   0  -3 -11 318.970 50.5033   1
   0   3 -11 443.018 79.3742   1
   0   3 -11 375.957 72.7012   2
   0   3 -11 416.116 75.3557   3
   0  -3 -11 406.995 70.5018   2
  -1  -3 -11 456.275 76.5074   2
   1  -3  11 443.244 71.3394   2
  -1   3 -11 462.752 83.7392   1
  -1   3 -11 453.030 84.4128   2
  -1   3 -11 419.712 75.5946   3
  -1  -3 -11 526.987 68.5087   1
  -2  -3 -11 67.5117 26.9705   2
   2  -3  11 112.125 44.3202   2
  -2   3 -11 50.1320 29.2776   1
  -2   3 -11 79.7158 42.0237   2
  -2   3 -11 42.3697 30.3434   3
  -2  -3 -11 60.0572 29.9634   1
   3  -3  11 44.8142 38.2276   2
  -3   3 -11-7.00344 19.5823   1
  -3   3 -11 13.7512 24.3881   2
  -3   3 -11 6.39959 32.6018   3
  -3  -3 -11 6.88328 19.8744   1
   4  -3  11 437.213 83.4751   2
  -4  -3 -11 331.200 64.4553   3
  -4   3 -11 361.214 80.1802   3
  -5  -3 -11 2926.35 205.612   3
  -5   3 -11 2920.82 218.474   3
   5  -3  11 2644.09 198.981   2
   6  -3  11 377.842 80.2505   2
  -6   3 -11 538.756 99.5513   3
  -6  -3 -11 388.043 79.9976   3
   7  -3  11 15.3828 25.1477   2
  -7  -3 -11-59.9841 40.3891   3
  -7   3 -11 19.2859 32.3298   3
  -8  -3 -11-0.15307 31.6208   3
  -8   3 -11 38.3445 34.0619   3
   8  -3  11 67.4464 39.9022   2
  -9  -3 -11 666.085 111.399   3
  -9   3 -11 636.346 121.327   3
   9  -3  11 707.052 117.189   2
 -10  -3 -11 742.287 118.819   3
  10  -3  11 702.465 120.418   2
 -11  -3 -11-2.84081 33.5750   3
  11  -3  11 47.8281 38.0637   2
 -12  -3 -11 37.7740 43.4468   3
  12  -3  11 15.6500 30.7116   2
 -13  -3 -11-3.94415 25.6114   3
  13  -3  11 4.42747 35.1479   2
 -14  -3 -11 10.0144 31.1390   3
 -15  -3 -11 138.131 73.3759   3
 -16  -3 -11 15.0966 32.0887   3
 -24   4  11 69.4380 34.1649   1
 -23   4  11 20.6293 31.2295   1
 -22   4  11 45.1620 27.9063   1
 -22  -4  11 86.9348 47.4612   1
 -21   4  11 143.698 48.4245   1
 -21  -4  11 55.5910 35.2869   1
 -20   4  11-27.4326 29.9774   1
 -20  -4  11 53.1164 38.8038   1
 -19   4  11 189.930 48.7481   1
 -19  -4  11 292.190 78.3853   1
  18  -4 -11 477.558 68.7069   2
 -18   4  11 464.115 74.0474   1
 -18  -4  11 518.699 102.197   1
  17  -4 -11 431.163 64.0020   2
 -17   4  11 357.691 63.0195   1
 -17  -4  11 300.747 77.6738   1
 -16   4  11 440.250 67.8810   1
  16  -4 -11 399.733 61.3937   2
 -16  -4  11 365.651 81.2826   1
  15  -4 -11 112.811 33.9033   2
 -15  -4  11 133.538 50.8197   1
 -15   4  11 95.3435 30.8019   1
  14  -4 -11 715.736 82.8909   2
 -14   4  11 689.908 77.9257   1
 -14  -4  11 658.970 104.830   1
 -13   4  11 615.425 71.7717   1
 -13  -4  11 571.287 94.5402   1
  13  -4 -11 619.377 76.1303   2
  13   4 -11 550.051 43.9196   3
 -12  -4  11 630.636 98.8391   1
  12   4 -11 655.675 54.5615   3
 -12   4  11 713.282 72.6039   1
  11   4 -11 1277.13 117.400   1
 -11  -4  11 1156.97 130.341   1
  11   4 -11 1235.84 80.9095   3
 -11   4  11 1237.59 92.1716   1
 -10   4  11 26.8797 17.0526   1
  10   4 -11 8.71931 21.2120   1
  10   4 -11 31.5435 15.0464   3
 -10  -4  11-64.6273 37.4847   1
  -9   4  11 1.43072 12.5712   1
   9   4 -11 4.01231 15.3747   3
  -9  -4  11 12.3546 27.0936   1
   9   4 -11-29.9673 26.9231   1
  -8  -4  11 2838.86 193.419   1
   8   4 -11 3292.72 202.707   1
   8   4 -11 2963.73 145.046   3
  -8  -4  11 2588.14 77.5340   2
  -8   4  11 2723.94 101.865   1
  -7  -4  11 40.7101 14.5995   2
  -7  -4  11 14.8990 33.3726   1
   7   4 -11 79.9391 34.3704   3
   7   4 -11 16.4459 21.5785   1
  -7   4  11 48.9762 12.5724   1
   6   4 -11 644.466 75.5336   3
   6   4 -11 684.350 94.8204   1
  -6  -4  11 594.000 54.9906   2
  -6  -4  11 647.777 92.6936   1
   5   4 -11 10853.9 308.769   3
   5   4 -11 11491.8 390.650   1
  -5  -4  11 11261.9 370.465   1
  -5  -4  11 11029.0 262.755   2
   4   4 -11 12.3099 23.1109   1
  -4  -4  11 8.97820 15.1106   2
  -4  -4  11 1.62691 24.0603   1
   4   4 -11-4.11280 20.9533   3
   4  -4 -11 8.88619 16.7744   2
   4  -4 -11-2.49907 5.70977   1
  -3  -4  11 88.0609 35.6687   2
   3  -4 -11 70.6463 16.3992   1
   3   4 -11 102.673 37.8277   2
   3   4 -11 135.994 48.1362   3
   3   4 -11 39.1790 29.6432   1
   3  -4 -11 111.227 39.7076   2
  -3  -4  11 45.8599 31.7864   1
  -2  -4  11 219.132 46.5196   2
   2  -4 -11 272.342 36.2406   1
   2   4 -11 295.135 64.3328   2
   2   4 -11 329.729 70.2853   1
   2   4 -11 251.154 57.7481   3
   2  -4 -11 265.005 54.3043   2
  -2  -4  11 240.862 56.2298   1
   1   4 -11 461.042 79.1980   1
   1   4 -11 482.511 84.6672   2
   1   4 -11 504.850 76.8090   3
   1  -4 -11 483.208 72.7233   2
  -1  -4  11 456.659 74.3605   1
   1  -4 -11 499.951 53.1474   1
  -1  -4  11 604.228 81.7156   2
   0   4 -11 746.375 106.968   1
   0   4 -11 748.482 108.838   2
   0   4 -11 674.331 94.2435   3
   0  -4 -11 661.904 66.5735   1
   0  -4 -11 697.341 92.9065   2
   0  -4  11 668.480 87.9032   2
   1  -4  11 20.5097 21.2132   2
  -1   4 -11 13.5710 16.9581   1
  -1   4 -11 28.3084 22.6745   2
  -1   4 -11-18.6656 33.3729   3
  -1  -4 -11 3.56550 13.4501   1
  -1  -4 -11 17.8900 27.3615   2
   2  -4  11 181.289 52.9711   2
  -2   4 -11 123.138 48.2374   2
  -2   4 -11 120.496 50.1046   3
  -2  -4 -11 139.457 34.6735   1
  -2  -4 -11 132.439 47.8625   2
   3  -4  11 609.574 93.0612   2
  -3   4 -11 443.246 94.8017   2
  -3   4 -11 517.578 90.4328   3
   4  -4  11 340.697 76.0976   2
  -4   4 -11 379.972 85.3217   3
   5  -4  11 75.1431 44.0786   2
  -5  -4 -11 9.72713 29.1950   3
  -5   4 -11 149.364 64.8489   3
   6  -4  11 41.5063 30.5327   2
  -6  -4 -11 22.0370 27.1317   3
  -6   4 -11 26.7953 31.0309   3
   7  -4  11 80.9330 45.4467   2
  -7  -4 -11 47.3575 28.9869   3
  -7   4 -11 104.602 51.5222   3
   8  -4  11 316.141 81.3573   2
  -8  -4 -11 54.5482 31.5572   3
   9  -4  11 396.707 91.1842   2
  -9  -4 -11 365.974 83.5566   3
  10  -4  11 109.775 51.0627   2
 -10  -4 -11 84.0227 42.5648   3
 -11  -4 -11-8.55116 29.9472   3
  11  -4  11 16.8239 36.9566   2
 -12  -4 -11 25.0546 37.8683   3
  12  -4  11 37.9797 41.0903   2
 -13  -4 -11 215.008 80.4846   3
  13  -4  11 170.766 65.1200   2
 -14  -4 -11 50.5526 40.8617   3
 -15  -4 -11 35.2060 37.9944   3
 -16  -4 -11 27.4836 22.5728   3
 -23   5  11 167.015 56.5987   1
 -22  -5  11 146.882 69.6971   1
 -22   5  11 37.8838 25.4917   1
 -21  -5  11-70.4408 45.5501   1
 -21   5  11-1.09886 24.1608   1
 -20  -5  11 22.6634 37.7879   1
 -20   5  11 13.7525 26.3251   1
 -19  -5  11 77.7791 51.2968   1
 -19   5  11-15.2918 25.3397   1
  18  -5 -11 54.4940 30.8599   2
 -18   5  11 75.1130 31.6675   1
 -18  -5  11 4.10959 30.6430   1
  17  -5 -11 1261.75 119.805   2
 -17  -5  11 1200.46 151.381   1
 -17   5  11 1394.73 118.230   1
 -16   5  11 253.097 49.0107   1
 -16  -5  11 179.109 63.0608   1
  16  -5 -11 269.178 58.1889   2
 -15  -5  11-7.27741 24.5548   1
  15  -5 -11-8.64895 20.4377   2
 -15   5  11-10.5642 18.7270   1
  14  -5 -11 801.272 97.2777   2
 -14   5  11 668.840 73.8853   1
 -14  -5  11 799.740 118.275   1
 -13  -5  11-9.99395 28.1928   1
 -13   5  11-8.20561 19.3618   1
  13  -5 -11-3.42198 22.6507   2
 -12  -5  11 206.260 61.6702   1
 -12   5  11 238.579 41.2287   1
 -11  -5  11 719.914 105.617   1
 -11   5  11 781.698 68.8207   1
 -10   5  11 298.745 38.1270   1
 -10  -5  11 194.956 53.7773   1
  -9   5  11 334.189 32.9154   1
  -9  -5  11 350.220 73.1919   1
   9   5 -11 443.797 78.3111   1
   9   5 -11 399.902 53.8396   3
  -9  -5  11 308.965 28.7769   2
  -8  -5  11 30.0680 14.6398   2
   8   5 -11 65.2666 30.4765   1
  -8  -5  11 68.1250 39.2984   1
   8   5 -11 57.9449 25.3447   3
  -7  -5  11 18.1843 15.6998   2
  -7  -5  11-40.1920 41.7266   1
   7   5 -11-6.56434 19.1371   3
   7   5 -11-9.01708 21.8454   1
  -6  -5  11 817.768 74.9729   2
   6   5 -11 830.828 86.7142   3
   6   5 -11 844.875 109.230   1
  -6  -5  11 802.523 107.788   1
  -5  -5  11 567.145 66.5632   2
  -5  -5  11 568.851 89.0501   1
   5   5 -11 593.660 93.1251   1
   5   5 -11 612.653 78.0666   3
  -4  -5  11 1919.40 129.684   2
   4   5 -11 1858.96 166.854   1
   4   5 -11 1739.88 133.416   3
  -4  -5  11 1796.58 155.947   1
  -3  -5  11 15.7939 22.9987   1
  -3  -5  11-5.50299 19.6708   2
   3   5 -11-8.35716 25.1491   3
   3   5 -11-25.5614 32.0551   1
  -2  -5  11 678.873 85.1151   2
   2   5 -11 787.130 107.672   1
   2  -5 -11 605.695 41.7374   1
   2   5 -11 684.246 93.5907   3
  -2  -5  11 695.865 96.3878   1
   2  -5 -11 719.483 92.8562   2
  -1  -5  11 1000.23 111.333   2
   1   5 -11 947.788 121.175   1
   1   5 -11 896.819 117.483   2
   1   5 -11 1000.17 112.364   3
  -1  -5  11 893.130 108.048   1
   1  -5 -11 1087.13 114.458   2
   1  -5 -11 900.386 63.1172   1
   0  -5  11 574.032 83.5820   2
   0   5 -11 420.773 81.2975   1
   0   5 -11 606.279 100.911   2
   0   5 -11 653.832 96.0915   3
   0  -5 -11 482.334 53.3456   1
   0  -5 -11 579.729 85.6535   2
  -1   5 -11 5218.99 303.708   2
  -1   5 -11 4866.76 263.021   3
  -1  -5 -11 4998.32 188.530   1
  -1  -5 -11 4778.02 253.381   2
   1  -5  11 4801.83 254.333   2
   2  -5  11 108.974 46.9519   2
  -2   5 -11 136.371 55.9216   2
  -2   5 -11 152.465 58.2931   3
   3  -5  11 44.3299 32.5037   2
  -3   5 -11 91.7359 53.3659   3
   4  -5  11-5.71930 26.5142   2
  -4   5 -11 126.088 66.7845   3
   5  -5  11 55.8097 39.9566   2
  -6  -5 -11 1407.02 148.422   3
   6  -5  11 1198.26 146.530   2
   7  -5  11 621.607 113.205   2
  -7  -5 -11 582.760 100.097   3
   8  -5  11 89.9004 47.6287   2
  -8  -5 -11 21.0773 29.9896   3
   9  -5  11 615.083 113.066   2
  -9  -5 -11 636.036 109.465   3
  10  -5  11 115.046 50.9477   2
 -10  -5 -11 25.0552 29.2607   3
  11  -5  11 8.17533 30.6933   2
 -11  -5 -11 13.9950 38.8446   3
  12  -5  11 107.059 63.3518   2
 -12  -5 -11 40.4634 40.4989   3
  13  -5  11-61.8689 49.5723   2
 -13  -5 -11 12.5954 29.3659   3
 -14  -5 -11 98.0970 55.7424   3
 -15  -5 -11-36.7661 36.0467   3
 -16  -5 -11-35.3646 35.7723   3
 -21   6  11 48.2164 31.1346   1
 -21  -6  11 42.0581 37.0828   1
 -20   6  11 89.7000 38.3129   1
 -20  -6  11 81.8346 46.8331   1
 -19  -6  11 156.686 57.3784   1
 -19   6  11 103.231 36.8978   1
  18  -6 -11 44.2980 28.1181   2
 -18  -6  11 108.138 50.3076   1
 -18   6  11 115.792 38.9516   1
 -17  -6  11 150.432 60.5805   1
  17  -6 -11 62.0061 34.9679   2
 -17   6  11 152.427 40.0855   1
 -16  -6  11 35.5581 35.3872   1
 -16   6  11-10.9046 22.7772   1
  16  -6 -11 13.9205 21.3010   2
 -15   6  11-12.5603 17.7381   1
 -15  -6  11-15.4278 34.3265   1
  15  -6 -11-0.24818 19.8272   2
 -14  -6  11 29.0918 39.7537   1
  14  -6 -11 21.5386 17.1175   2
 -14   6  11 22.7634 17.2680   1
 -13  -6  11 198.977 65.9801   1
 -13   6  11 88.6041 24.0128   1
 -12   6  11 779.584 68.2509   1
 -12  -6  11 809.889 120.349   1
 -11  -6  11-2.53363 4.20016   2
 -11   6  11 8.20080 13.1269   1
 -11  -6  11-15.4631 34.4975   1
 -11  -6  11 0.42788 2.80563   2
 -10  -6  11 49.7329 14.2137   2
 -10  -6  11 24.6465 31.6565   1
 -10   6  11 34.2562 11.3537   1
  -9  -6  11 36.1516 18.0893   2
  -9  -6  11 17.2543 28.7399   1
  -8  -6  11 606.137 62.0198   2
  -8  -6  11 640.617 99.8492   1
  -7  -6  11 226.345 41.5863   2
  -7  -6  11 106.189 38.8344   1
  -6  -6  11 579.746 71.2590   2
  -6  -6  11 610.959 100.430   1
  -5  -6  11 41.7660 36.9519   1
  -5  -6  11 5.29487 18.8887   2
  -4  -6  11 16.6275 26.0080   1
  -4  -6  11 46.3955 25.4762   2
  -3  -6  11 1177.27 115.646   2
  -3  -6  11 1004.64 122.631   1
  -2  -6  11 1687.71 143.677   2
  -2  -6  11 1734.92 139.793   3
  -2  -6  11 1653.33 152.383   1
  -1  -6  11 2459.76 180.117   2
   1  -6 -11 2397.89 67.3247   1
  -1  -6  11 2575.46 173.993   3
  -1  -6  11 2462.66 184.876   1
   1  -6 -11 2705.44 188.632   2
   1  -6 -11 2215.28 82.0501   1
   0  -6  11 547.541 88.4186   2
   0  -6  11 644.899 96.7528   1
   0  -6 -11 620.399 54.7538   1
   1  -6  11 2239.97 183.053   2
  -1  -6 -11 2172.04 116.633   1
   2  -6  11-40.2775 40.3348   2
   3  -6  11 1145.80 139.657   2
   4  -6  11 6160.08 327.146   2
   5  -6  11 425.784 90.5093   2
   6  -6  11 21.2421 25.6577   2
   7  -6  11 55.3528 38.3436   2
  -7  -6 -11 75.7703 44.8534   3
   8  -6  11 54.1608 32.4058   2
  -8  -6 -11 76.1255 36.2763   3
   9  -6  11 70.3223 35.4904   2
  -9  -6 -11 49.5972 56.3911   3
  10  -6  11-6.06807 27.3001   2
 -10  -6 -11 28.4924 29.1963   3
  11  -6  11 46.9775 40.8519   2
 -11  -6 -11-14.0079 28.5259   3
  12  -6  11 185.357 75.0810   2
 -12  -6 -11 159.095 60.6835   3
 -13  -6 -11-23.3373 42.7130   3
 -14  -6 -11 37.4509 36.9119   3
 -15  -6 -11 39.3290 40.7345   3
 -20  -7  11 120.166 55.4496   1
 -19   7  11 68.9620 34.1961   1
 -19  -7  11 113.601 59.3456   1
 -18   7  11 238.867 51.1613   1
 -18  -7  11 192.456 70.6236   1
  18  -7 -11 172.484 58.4567   2
 -17  -7  11 81.8415 49.8234   1
  17  -7 -11 87.6600 45.1791   2
 -17   7  11 79.2402 34.7787   1
 -16  -7  11 8.15423 35.1563   1
  16  -7 -11 8.48298 25.2997   2
 -16   7  11-22.0589 21.5375   1
 -15  -7  11 77.0990 49.2678   1
 -15   7  11 79.0951 27.0375   1
  15  -7 -11 91.6835 43.7574   2
 -14  -7  11 46.8047 36.0797   1
  14  -7 -11 117.621 45.5002   2
 -14   7  11 42.3973 18.8382   1
 -13   7  11 75.3607 20.5888   1
 -13  -7  11 51.8936 15.0085   2
 -13  -7  11 38.8541 37.7835   1
 -12  -7  11 48.6474 16.6796   2
 -12  -7  11 108.148 47.3166   1
 -12   7  11 2.77226 9.39088   1
 -12  -7  11 56.1663 13.4652   2
 -11  -7  11 274.408 40.4287   2
 -11   7  11 292.481 31.1206   1
 -11   7  11 261.196 28.9111   1
 -11  -7  11 347.088 82.5726   1
 -10  -7  11 0.64762 15.0002   2
 -10  -7  11 26.6380 27.1489   1
  -9  -7  11 203.096 41.8087   2
  -9  -7  11 183.089 56.4191   1
  -8  -7  11 54.4461 25.2790   2
  -8  -7  11 1.93288 34.5213   1
  -7  -7  11 1249.25 144.795   1
  -7  -7  11 1271.64 108.047   2
  -6  -7  11 562.445 76.8148   2
  -6  -7  11 528.607 93.6341   1
  -5  -7  11 292.735 69.3732   1
  -5  -7  11 268.949 56.7938   2
  -4  -7  11 175.006 56.5473   1
  -4  -7  11 198.484 47.4897   2
  -4  -7  11 168.094 45.6010   3
  -3  -7  11 25.8529 23.7880   2
  -3  -7  11 6.49294 23.1379   3
  -2  -7  11 781.108 104.696   2
  -2  -7  11 685.588 91.3404   3
  -2  -7  11 821.350 114.134   1
  -1  -7  11 197.686 56.4555   2
  -1  -7  11 107.033 45.2383   1
   0  -7  11 1114.58 132.686   2
   0  -7 -11 1088.49 58.2954   1
   0  -7  11 1260.96 136.962   1
   0  -7 -11 1076.48 64.0122   1
   1  -7  11 88.0460 49.1576   2
  -1  -7 -11 31.6835 15.6787   1
   2  -7  11 15.8342 33.2192   2
  -2  -7 -11 83.4860 24.2177   1
   3  -7  11 293.580 76.9066   2
   4  -7  11 164.956 55.1338   2
   5  -7  11 105.503 43.4658   2
   6  -7  11 516.213 104.120   2
   7  -7  11 556.690 111.239   2
   8  -7  11 32.6719 46.2057   2
  -8  -7 -11-24.0191 30.6162   3
   9  -7  11 99.1423 58.3797   2
  -9  -7 -11 25.8802 26.9565   3
  10  -7  11 463.705 106.962   2
 -10  -7 -11 523.661 102.816   3
  11  -7  11 73.2114 48.6952   2
 -11  -7 -11 40.2807 47.9333   3
  12  -7  11 136.248 61.9324   2
 -12  -7 -11 82.4587 49.6923   3
 -13  -7 -11 44.0372 39.7652   3
 -14  -7 -11 51.8025 38.5423   3
 -15  -7 -11 47.8928 49.0749   3
 -19  -8  11 10.7937 37.5563   1
 -18  -8  11 45.8390 48.2490   1
  18  -8 -11 17.7170 25.1421   2
 -17  -8  11 90.2293 57.6456   1
  17  -8 -11 129.717 58.2406   2
 -16  -8  11 69.3591 39.6475   1
  16  -8 -11 113.764 45.1365   2
 -16   8  11 133.836 34.6739   1
 -15  -8  11-27.7114 43.1880   1
 -15   8  11 9.69639 10.0123   1
  15  -8 -11 4.02110 19.6998   2
 -14   8  11 244.882 38.1669   1
  14  -8 -11 132.655 49.8326   2
 -14  -8  11 162.956 58.6118   1
 -13   8  11-2.97557 12.9984   1
 -13  -8  11 9.01260 12.0017   2
 -13  -8  11 16.5400 34.0633   1
 -12   8  11 108.274 22.7228   1
 -12  -8  11 123.309 30.6311   2
 -12   8  11 131.247 23.5439   1
 -12  -8  11 235.302 68.5318   1
 -11  -8  11 431.754 60.0778   2
 -11  -8  11 445.968 94.4468   1
 -10  -8  11-12.6169 15.3663   2
 -10  -8  11 106.974 57.8690   1
  -9  -8  11 88.6232 32.8627   2
  -9  -8  11 143.976 54.0166   1
  -8  -8  11 1472.83 163.826   1
  -8  -8  11 1348.09 119.521   2
  -7  -8  11 14.4218 30.7722   1
  -7  -8  11 43.3090 27.3811   2
  -6  -8  11 25.3069 27.9650   1
  -6  -8  11 126.565 43.9637   2
  -6  -8  11 174.830 45.3742   3
  -5  -8  11 435.382 82.3467   1
  -5  -8  11 498.040 80.8123   2
  -5  -8  11 464.660 71.2460   3
  -4  -8  11 106.946 48.1129   1
  -4  -8  11 73.0713 32.6287   3
  -4  -8  11 36.4613 34.7256   2
  -3  -8  11 64.9956 37.4024   1
  -3  -8  11 143.561 49.0328   2
  -3  -8  11 59.4764 26.9537   3
  -2  -8  11 739.477 107.770   2
  -2  -8  11 541.900 93.9986   1
  -1  -8  11-18.2815 24.0643   2
  -1  -8  11-23.1872 31.1822   1
   0  -8  11 173.976 61.8775   2
   0  -8 -11 138.401 20.0481   1
   0  -8 -11 126.705 19.3952   1
   0  -8  11 94.9625 46.8702   1
  -1  -8 -11 946.457 65.8360   1
   1  -8  11 905.391 130.145   2
   2  -8  11 402.969 87.2178   2
  -2  -8 -11 520.144 54.3238   1
   3  -8  11 174.650 63.8422   2
  -3  -8 -11 179.830 36.0128   1
  -4  -8 -11 15.5623 16.9920   1
   4  -8  11-20.0339 24.2547   2
   5  -8  11 24.8610 29.4513   2
  -5  -8 -11 64.8055 27.8312   1
   6  -8  11 437.821 102.353   2
  -6  -8 -11 636.163 76.9618   1
   7  -8  11-0.20525 26.6264   2
  -7  -8 -11 86.6337 36.6115   1
   8  -8  11-32.5763 44.4361   2
   9  -8  11 14.2890 36.9018   2
  -9  -8 -11-11.2768 27.9194   3
  10  -8  11 353.537 97.3735   2
 -10  -8 -11 389.060 91.0195   3
  11  -8  11 48.9308 43.6033   2
 -11  -8 -11 37.2775 43.5582   3
 -12  -8 -11 135.130 59.1133   3
 -13  -8 -11 102.415 42.4064   1
 -13  -8 -11 92.0898 49.6967   3
 -14  -8 -11 50.7750 40.2988   3
 -18  -9  11 11.4706 28.9288   1
  18  -9 -11 60.4149 36.6714   2
 -17  -9  11 59.1992 39.0210   1
  17  -9 -11 10.0477 23.4881   2
  16  -9 -11 3.43946 25.7534   2
 -16  -9  11-4.76262 27.0187   1
  15  -9 -11 47.7582 39.7908   2
 -15  -9  11 66.5612 45.8231   1
  14  -9 -11-50.1175 36.6764   2
 -14  -9  11 68.6106 38.6829   1
 -13  -9  11 115.202 30.7486   2
 -13  -9  11 90.6771 42.0852   1
 -12  -9  11-6.86322 15.8451   2
 -12  -9  11-12.4285 25.6338   1
 -11  -9  11 714.020 84.4528   2
 -11  -9  11 651.143 117.239   1
 -10  -9  11 73.6719 30.9118   2
 -10  -9  11 40.1721 35.9923   1
  -9  -9  11 57.1384 42.4348   1
  -9  -9  11 114.576 38.3182   2
  -8  -9  11 948.738 133.340   1
  -8  -9  11 841.159 103.068   2
  -7  -9  11-5.36752 26.0623   1
  -7  -9  11 10.8003 28.2368   2
  -7  -9  11-4.55630 19.0992   3
  -6  -9  11 35.5107 36.9601   1
  -6  -9  11 83.9908 38.7216   2
  -6  -9  11 26.1555 18.8500   3
  -5  -9  11 233.313 66.9327   1
  -5  -9  11 232.886 62.1203   2
  -5  -9  11 151.325 44.3492   3
  -4  -9  11 440.493 90.9790   1
  -4  -9  11 394.300 80.8005   2
  -4  -9  11 312.354 62.2664   3
  -3  -9  11 201.062 60.6517   1
  -3  -9  11 211.745 58.5356   2
  -2  -9  11 95.7753 43.5729   2
  -2  -9  11 69.1808 31.1500   1
  -1  -9  11 420.216 89.1739   2
  -1  -9  11 357.385 83.3799   1
   0  -9  11 545.498 102.046   2
   0  -9  11 584.499 100.854   1
   1  -9  11 427.776 91.9768   2
  -1  -9 -11 311.483 36.6655   1
   2  -9  11 18.7709 30.3259   2
  -2  -9 -11 27.6435 15.2153   1
  -3  -9 -11 482.628 59.6576   1
   3  -9  11 373.299 87.6903   2
   4  -9  11 3.32901 26.4426   2
  -4  -9 -11 37.6902 23.3754   1
  -5  -9 -11 122.566 36.5156   1
   5  -9  11 90.0416 52.6688   2
   6  -9  11 299.944 88.4702   2
  -6  -9 -11 277.997 58.0173   1
   7  -9  11 106.487 52.2555   2
  -7  -9 -11 154.074 45.8708   1
   8  -9  11 378.951 95.3766   2
  -8  -9 -11 285.124 60.1259   1
   9  -9  11 158.482 64.4360   2
  -9  -9 -11 109.241 42.9650   1
  10  -9  11 5.88446 38.6199   2
 -10  -9 -11-27.4317 23.1954   1
 -10  -9 -11-49.3190 37.8506   3
 -11  -9 -11-45.9030 39.2724   3
 -12  -9 -11-22.7735 29.6924   3
 -13  -9 -11 45.7763 38.2057   3
  18 -10 -11-50.1708 38.2827   2
  17 -10 -11 64.7635 42.8568   2
 -17 -10  11 110.945 57.7651   1
  16 -10 -11 5.81770 24.3104   2
 -16 -10  11 124.916 54.9658   1
  15 -10 -11 66.4035 47.0375   2
 -15 -10  11 151.176 67.0577   1
 -14 -10  11 143.242 63.0872   1
 -13 -10  11 109.652 53.4951   1
 -12 -10  11 79.5657 32.4711   2
 -12 -10  11 121.404 53.8884   1
 -11 -10  11 148.230 65.6423   1
 -11 -10  11 91.9172 34.1525   2
 -10 -10  11 32.9317 29.7572   2
 -10 -10  11 12.0338 26.8423   1
  -9 -10  11 65.0243 54.0091   1
  -9 -10  11 22.6155 19.7564   2
  -8 -10  11 11.5194 33.1257   1
  -8 -10  11-6.51811 20.7190   3
  -8 -10  11 3.29959 15.6873   2
  -7 -10  11-2.50215 33.0806   1
  -7 -10  11 21.5596 29.9196   2
  -7 -10  11 15.2928 19.9763   3
  -6 -10  11 455.476 98.5163   1
  -6 -10  11 349.738 74.4125   2
  -6 -10  11 312.153 65.7053   3
  -5 -10  11 177.122 60.5030   1
  -5 -10  11 115.259 44.6975   2
  -5 -10  11 118.499 40.0244   3
  -4 -10  11 34.8564 28.5920   1
  -4 -10  11 65.2902 37.3579   2
  -3 -10  11 898.273 131.263   2
  -3 -10  11 768.415 123.793   1
  -2 -10  11 363.627 86.4241   2
  -2 -10  11 213.402 64.7654   1
  -1 -10  11 240.174 70.2599   2
  -1 -10  11 107.595 47.3091   1
   0 -10  11-16.7823 37.6669   2
   0 -10  11 11.4926 40.1937   1
   1 -10  11 17.9401 37.2255   2
   2 -10  11 74.7937 51.1478   2
   3 -10  11-41.9200 42.5984   2
   4 -10  11-5.01108 38.0652   2
   5 -10  11 26.9353 33.2700   2
   6 -10  11-21.0034 26.8712   2
   7 -10  11 60.7845 54.1369   2
   8 -10  11-61.4934 47.2113   2
   9 -10  11 164.105 70.3024   2
 -10 -10 -11-75.3494 45.7760   3
 -11 -10 -11 46.8496 39.7159   3
 -12 -10 -11 40.2363 34.3789   3
  18 -11 -11 58.9151 41.5259   2
  17 -11 -11 34.0414 28.9621   2
  16 -11 -11 66.1800 40.6908   2
 -16 -11  11 107.005 49.5506   1
  15 -11 -11-0.87622 24.6589   2
 -15 -11  11-27.1206 48.7388   1
 -14 -11  11-71.8031 50.5554   1
 -13 -11  11 398.507 100.449   1
 -12 -11  11 119.251 62.1448   1
 -12 -11  11 157.933 48.9025   2
 -11 -11  11 40.1058 38.6405   1
 -11 -11  11 23.2407 25.9691   2
 -10 -11  11-4.66098 25.2294   1
 -10 -11  11 57.5201 35.6992   2
  -9 -11  11 338.646 90.9374   1
  -9 -11  11 296.363 71.3174   2
  -8 -11  11 41.1703 40.3920   1
  -8 -11  11-0.71522 27.3286   2
  -7 -11  11 226.144 73.7835   1
  -7 -11  11 179.311 60.5603   2
  -7 -11  11 183.429 49.2703   3
  -6 -11  11 7.85682 33.1359   1
  -6 -11  11 20.4639 27.1364   2
  -5 -11  11 531.279 109.184   1
  -5 -11  11 371.611 81.5726   2
  -4 -11  11 139.560 55.8278   1
  -4 -11  11 150.988 58.2371   2
  -3 -11  11 351.758 83.5450   2
  -3 -11  11 456.619 94.6536   1
  -2 -11  11 91.3594 50.7292   2
  -2 -11  11 206.568 67.5231   1
  -1 -11  11 445.660 99.0412   2
  -1 -11  11 365.816 86.4598   1
   0 -11  11 79.5798 45.1362   2
   0 -11  11 51.8313 34.8657   1
   1 -11  11 6.21224 36.4231   2
   2 -11  11-14.4783 31.9011   2
   3 -11  11 104.579 45.7555   2
   4 -11  11 209.835 77.6149   2
   5 -11  11 387.294 104.119   2
   6 -11  11-54.9770 57.2131   2
   7 -11  11-3.73492 19.5765   2
   8 -11  11 183.143 79.6470   2
 -11 -11 -11 0.20404 20.7322   3
  17 -12 -11-30.4971 34.7527   2
  16 -12 -11-14.8172 26.7520   2
  15 -12 -11 37.1008 37.3377   2
 -14 -12  11 58.1450 39.5351   1
 -13 -12  11-34.3690 52.0458   1
 -12 -12  11 132.686 56.9289   1
 -11 -12  11 69.2620 48.1682   1
 -11 -12  11 29.7169 28.3037   2
 -10 -12  11 693.839 128.978   1
 -10 -12  11 686.158 107.583   2
  -9 -12  11-27.2001 40.6431   1
  -9 -12  11 5.22437 18.6770   2
  -8 -12  11 236.330 77.6154   1
  -8 -12  11 230.678 70.5601   2
  -7 -12  11-35.3058 26.8265   1
  -7 -12  11 25.7054 36.1747   2
  -6 -12  11-182.271 67.4200   1
  -6 -12  11 52.1667 37.9687   2
  -5 -12  11 153.405 59.8616   1
  -5 -12  11 185.940 64.3630   2
  -4 -12  11 112.541 57.0411   1
  -4 -12  11 87.6779 48.2061   2
  -3 -12  11 69.3142 39.5995   2
  -3 -12  11 14.1093 43.1396   1
  -2 -12  11-48.5263 35.1292   2
  -2 -12  11-18.3855 44.1685   1
  -1 -12  11 87.9098 46.4058   2
  -1 -12  11 143.641 54.3805   1
   0 -12  11 39.0819 44.6253   2
   0 -12  11 66.5820 46.8462   1
   1 -12  11 133.838 57.6893   2
   2 -12  11-26.7810 44.1466   2
   3 -12  11 14.7245 30.9454   2
   4 -12  11 227.765 87.6635   2
   5 -12  11 39.5207 46.4714   2
   6 -12  11 80.2872 61.4623   2
   7 -12  11-40.9867 42.5100   2
  17 -13 -11 44.4611 39.3433   2
  16 -13 -11-56.0756 45.7274   2
  15 -13 -11 8.44348 27.3921   2
 -12 -13  11-12.8126 49.4670   1
 -11 -13  11-6.83771 35.0419   1
 -10 -13  11 129.882 63.1161   1
 -10 -13  11 152.302 60.0763   2
  -9 -13  11 386.489 101.311   1
  -9 -13  11 274.056 75.3132   2
  -8 -13  11-19.8210 38.9118   1
  -8 -13  11 39.9268 29.0361   2
  -7 -13  11 306.969 84.3932   1
  -7 -13  11 307.494 80.1138   2
  -6 -13  11 112.524 59.4963   1
  -6 -13  11 158.411 57.7037   2
  -5 -13  11 59.3875 34.3163   1
  -5 -13  11-12.3679 36.7502   2
  -4 -13  11-8.37548 34.1210   2
  -4 -13  11-4.60054 27.7757   1
  -3 -13  11 53.0714 40.5935   2
  -3 -13  11 37.0145 44.1839   1
  -2 -13  11-29.5012 34.3517   2
  -2 -13  11-24.7180 26.9402   1
  -1 -13  11 32.9994 48.3196   2
  -1 -13  11-15.2515 36.4115   1
   0 -13  11 51.0572 51.9914   2
   0 -13  11 31.8923 33.6288   1
   1 -13  11 5.59426 32.1472   2
   2 -13  11 65.6646 28.2510   2
   3 -13  11 158.680 65.4407   2
   4 -13  11 48.0506 56.8518   2
   5 -13  11 57.0888 48.4395   2
  -9 -14  11-26.5257 39.4947   1
  -9 -14  11 60.4847 39.4541   2
  -8 -14  11 17.5322 37.0019   1
  -8 -14  11 57.7856 42.1524   2
  -7 -14  11 27.3190 34.5082   1
  -7 -14  11-80.5269 45.8662   2
  -6 -14  11 35.9289 39.0693   1
  -6 -14  11-5.68871 23.2672   2
  -5 -14  11-56.7204 44.2646   1
  -5 -14  11-19.4496 29.1449   2
  -4 -14  11 5.59391 39.1985   2
  -4 -14  11 53.2284 34.0708   1
  -3 -14  11 32.2427 44.7729   2
  -3 -14  11 4.18819 22.9774   1
  -2 -14  11 160.472 65.9382   2
  -2 -14  11 191.460 71.4628   1
  -1 -14  11-42.4121 41.3828   2
  -1 -14  11 92.9710 56.0025   1
   0 -14  11-82.5815 52.9953   2
   1 -14  11 57.9364 46.6542   2
   2 -14  11 17.8852 44.2734   2
   3 -14  11 75.2087 51.0784   2
   4 -14  11-178.384 77.1515   2
  -7 -15  11-71.4384 45.4012   2
  -6 -15  11 87.5868 50.3373   2
  -5 -15  11 80.4719 38.4450   2
  -4 -15  11 10.6875 34.0796   2
  -3 -15  11 8.82513 27.0961   2
  -2 -15  11 51.1009 41.7851   2
  -1 -15  11-115.863 61.1280   2
   0 -15  11-25.3249 32.9089   2
   1 -15  11 71.3645 50.7917   2
   2 -15  11 54.5857 48.1524   2
  -6 -16  11-39.7854 38.1774   2
  -5 -16  11-32.1845 34.2866   2
  -4 -16  11-29.8729 36.4198   2
  -3 -16  11 6.88664 19.0355   2
  -2 -16  11-63.0243 46.5515   2
  -1 -16  11-139.151 67.2556   2
 -24   0  12 220.192 74.6714   1
 -23   0  12 122.936 51.1259   1
 -22   0  12 151.261 59.8039   1
 -21   0  12 15.4680 35.5445   1
 -20   0  12-14.8946 33.1363   1
 -19   0  12 24.2903 26.7220   1
 -18   0  12 590.850 96.7989   1
 -17   0  12 395.685 79.8996   1
 -16   0  12 1203.93 131.747   1
 -15   0  12 853.547 108.418   1
 -14   0  12 56.3979 35.3587   1
 -13   0  12 33.8139 28.8136   1
 -12   0  12 431.290 70.3305   1
 -11   0  12 1145.93 114.673   1
 -10   0  12 970.637 101.786   1
   9   0 -12 5202.01 191.258   1
   9   0 -12 4194.80 100.716   2
  -9   0  12 4973.36 229.490   1
  -8   0  12 2561.89 159.405   1
   8   0 -12 2527.87 101.000   2
   8   0 -12 2803.47 148.252   1
   7   0 -12 4337.32 151.668   2
   7   0 -12 4648.83 199.292   1
  -7   0  12 4312.60 198.929   1
   6   0 -12 2001.62 114.448   2
  -6   0  12 2197.40 140.923   1
   6   0 -12 1800.44 128.021   1
   5   0 -12 2241.49 129.489   2
   5   0 -12 2310.62 146.885   1
  -5   0  12 2216.17 138.644   1
   4   0 -12 42.3276 26.1720   1
   4   0 -12 125.364 37.9745   2
  -4   0  12 93.7833 43.9066   1
   3   0 -12 4210.53 201.190   2
   3   0 -12 4267.56 209.138   1
   2   0 -12 1688.54 134.826   2
   2   0 -12 1517.66 131.584   1
   2   0 -12 1570.03 131.767   3
   1   0 -12 363.547 66.3949   2
   1   0 -12 246.811 56.3309   1
   1   0 -12 321.398 62.1958   3
   0   0 -12 1524.91 141.953   2
   0   0 -12 1413.30 131.731   3
   0   0  12 1447.71 117.820   2
   0   0 -12 1578.03 136.872   1
  -1   0 -12 910.575 115.946   2
  -1   0 -12 950.980 113.573   3
   1   0  12 874.487 102.027   2
  -1   0 -12 983.063 112.406   1
  -2   0 -12 169.431 47.6308   1
  -2   0 -12 93.2572 29.8746   2
  -2   0 -12 94.6799 36.0959   3
   2   0  12 133.213 43.6213   2
  -3   0 -12 218.939 64.2947   3
   3   0  12 228.334 61.1082   2
  -3   0 -12 140.044 51.8686   1
  -4   0 -12 137.378 53.0275   3
   4   0  12 267.546 61.2508   2
  -4   0 -12 244.198 63.4052   1
  -5   0 -12 1154.68 136.559   3
   5   0  12 1290.49 135.177   2
  -6   0 -12 1965.38 184.732   3
   6   0  12 1800.51 163.444   2
  -7   0 -12 148.579 57.5839   3
   7   0  12 119.455 52.4399   2
  -8   0 -12 108.638 52.3210   3
   8   0  12 95.8179 43.7939   2
  -9   0 -12 410.414 93.8025   3
   9   0  12 443.163 93.4890   2
 -10   0 -12 544.275 113.830   3
  10   0  12 504.756 99.7638   2
 -11   0 -12 656.903 125.409   3
  11   0  12 503.069 102.417   2
 -12   0 -12-60.6448 46.4901   3
  12   0  12 31.2567 27.0615   2
 -13   0 -12 46.9579 44.5621   3
  13   0  12 57.5764 41.7856   2
 -14   0 -12 380.315 107.409   3
 -24  -1  12 40.6154 38.6810   1
 -24   1  12 74.1458 51.3363   1
 -23  -1  12-17.7820 41.3542   1
 -23   1  12-12.7580 27.9437   1
 -22  -1  12-12.9738 36.1260   1
 -22   1  12 15.0922 32.3682   1
 -21  -1  12 373.800 82.3893   1
 -21   1  12 355.911 76.5793   1
 -20  -1  12 347.880 83.1326   1
 -20   1  12 411.567 80.4169   1
 -19   1  12 128.953 46.0629   1
 -19  -1  12 114.330 46.2239   1
 -18   1  12 97.7564 37.2649   1
 -18  -1  12-9.94132 34.5514   1
 -17   1  12 13.7614 25.0297   1
 -17  -1  12 72.1425 37.6333   1
 -16  -1  12 277.183 67.1266   1
 -16   1  12 211.930 55.4348   1
 -15  -1  12 57.4854 33.9215   1
 -15   1  12 36.7061 32.4276   1
 -14  -1  12 0.12165 18.8862   1
 -14   1  12 65.4581 33.2426   1
 -13  -1  12 13.5408 23.8403   1
 -13   1  12 2.81458 20.2082   1
 -12  -1  12 103.559 39.0712   1
 -12   1  12 109.515 35.9453   1
 -11  -1  12 128.302 44.2250   1
 -11   1  12 111.649 37.5443   1
 -10  -1  12 785.819 96.7406   1
 -10   1  12 747.347 84.7950   1
  10   1 -12 733.732 76.4335   1
  10  -1 -12 699.318 43.7920   2
   9   1 -12 190.938 41.8583   1
  -9   1  12 203.995 44.5567   1
  -9  -1  12 171.901 47.5308   1
   9  -1 -12 220.820 28.8345   2
  -8   1  12 790.192 82.5285   1
   8  -1 -12 878.317 72.4071   1
  -8  -1  12 875.572 97.5454   1
   8   1 -12 722.488 49.7040   2
   8   1 -12 878.911 92.9978   1
   8  -1 -12 864.544 63.8188   2
   7   1 -12 6754.28 261.694   1
   7   1 -12 6040.75 177.072   2
   7  -1 -12 6492.53 209.383   1
  -7   1  12 6311.42 224.618   1
   7  -1 -12 6624.22 191.931   2
  -7  -1  12 6203.66 255.583   1
   6  -1 -12 5718.01 208.283   1
   6   1 -12 5753.26 193.708   2
   6   1 -12 5726.10 224.698   3
  -6   1  12 6029.46 217.663   1
  -6  -1  12 5965.87 247.692   1
   6   1 -12 5455.87 240.262   1
   6  -1 -12 5884.99 196.201   2
  -5  -1  12 302.423 55.5002   1
   5  -1 -12 309.511 49.3238   2
   5   1 -12 251.645 55.9701   1
   5   1 -12 300.983 50.3588   2
   5  -1 -12 172.573 39.7950   1
   5   1 -12 370.670 60.8932   3
  -5   1  12 318.153 51.3867   1
   4   1 -12 2646.26 153.430   2
   4   1 -12 2883.07 181.867   1
   4  -1 -12 2534.69 147.580   1
   4   1 -12 2665.54 162.575   3
  -4  -1  12 2743.13 161.605   1
   4  -1 -12 2599.42 148.132   2
   3   1 -12 7858.92 280.183   2
   3   1 -12 8525.07 312.270   1
   3  -1 -12 8250.22 274.418   1
   3   1 -12 7680.08 282.044   3
  -3  -1  12 8041.28 272.672   1
  -3  -1  12 7684.73 231.534   2
   3  -1 -12 7771.93 269.723   2
   2  -1 -12 1427.60 116.606   1
   2   1 -12 1532.71 131.533   2
   2   1 -12 1437.33 130.951   1
   2   1 -12 1298.18 121.541   3
  -2  -1  12 1241.28 100.556   2
   2  -1 -12 1530.82 126.746   2
   1   1 -12 1024.20 113.786   1
   1   1 -12 1049.85 115.235   2
   1   1 -12 1063.28 114.003   3
  -1  -1  12 990.556 93.8671   2
   1  -1 -12 1058.75 113.067   2
   1  -1 -12 1171.58 109.821   1
   0  -1 -12 102.667 38.4988   2
   0  -1 -12 148.354 45.2939   1
   0   1 -12 110.631 38.8338   1
   0   1 -12 112.771 41.3011   2
   0  -1 -12 93.4555 37.0656   3
   0   1 -12 162.149 42.8810   3
   0  -1  12 164.715 42.5708   2
  -1  -1 -12 495.306 82.9796   2
  -1   1 -12 505.902 82.6878   1
  -1   1 -12 481.384 84.9164   2
  -1  -1 -12 507.472 83.7794   3
  -1   1 -12 435.672 76.6964   3
  -1  -1 -12 529.525 79.2406   1
   1  -1  12 398.752 66.2885   2
  -2  -1 -12 1303.28 140.029   2
  -2   1 -12 1203.23 140.277   2
  -2  -1 -12 1277.24 132.087   3
  -2   1 -12 1533.15 144.157   3
  -2  -1 -12 1284.49 127.649   1
   2  -1  12 1284.75 121.270   2
  -2   1 -12 1402.38 145.174   1
  -3   1 -12 90.7475 38.3815   1
  -3  -1 -12 41.1253 26.2665   3
  -3   1 -12 16.2039 30.4541   3
   3  -1  12 31.1928 21.2832   2
  -3  -1 -12 73.0321 37.8468   1
  -4  -1 -12-29.4127 39.4293   3
  -4   1 -12-32.0231 48.3096   3
   4   1  12 11.0603 25.9256   2
  -4  -1 -12-56.8010 32.4774   1
   4  -1  12-14.5446 30.1852   2
  -5  -1 -12-23.9207 36.3696   3
  -5   1 -12-14.2093 42.7345   3
   5   1  12-9.65676 34.7808   2
  -5  -1 -12 51.8662 32.3282   1
   5  -1  12-25.3444 28.5177   2
  -6  -1 -12 882.688 122.882   3
  -6   1 -12 902.990 130.272   3
   6   1  12 878.578 112.837   2
   6  -1  12 865.548 120.203   2
  -7  -1 -12 94.2326 48.5763   3
  -7   1 -12 196.779 70.0944   3
   7   1  12 201.161 61.1294   2
   7  -1  12 145.341 54.9834   2
  -8  -1 -12 135.150 60.2796   3
  -8   1 -12 131.435 60.7207   3
   8   1  12 120.278 49.2780   2
   8  -1  12 93.5142 42.3151   2
  -9  -1 -12 391.237 91.6637   3
  -9   1 -12 374.323 89.7943   3
   9   1  12 440.444 88.5121   2
   9  -1  12 363.675 81.6023   2
 -10  -1 -12 77.0244 42.4950   3
 -10   1 -12 137.631 63.3006   3
  10   1  12 26.4367 28.3699   2
  10  -1  12-3.90738 21.1519   2
 -11  -1 -12 78.2896 40.5017   3
 -11   1 -12 286.043 91.0569   3
  11   1  12 184.265 71.1303   2
  11  -1  12 187.221 67.4485   2
 -12  -1 -12-72.6820 62.1867   3
 -12   1 -12-24.0562 37.7751   3
  12  -1  12 36.2048 31.2930   2
 -13  -1 -12 221.371 75.0392   3
  13  -1  12 271.282 83.8776   2
 -14  -1 -12 96.0352 65.9366   3
 -15  -1 -12 84.8557 51.4596   3
 -24   2  12-33.6068 35.0155   1
 -23  -2  12-36.2599 35.3414   1
 -23   2  12 23.4658 35.8864   1
 -22   2  12 44.6162 40.7771   1
 -22  -2  12-49.1145 40.2190   1
 -21   2  12 70.2805 37.4213   1
 -21  -2  12 148.042 58.5650   1
 -20   2  12 53.2392 37.7622   1
 -20  -2  12 128.274 58.8613   1
 -19   2  12 653.922 102.427   1
 -19  -2  12 801.789 121.777   1
 -18   2  12 259.221 61.4663   1
 -18  -2  12 294.887 73.0938   1
 -17   2  12 503.801 83.0611   1
 -17  -2  12 666.684 110.897   1
 -16   2  12 15.6947 18.9469   1
  16  -2 -12 26.4722 9.54753   2
 -16  -2  12 37.6152 29.9982   1
  16   2 -12 60.1394 17.7111   3
  15  -2 -12 15.8876 8.83536   2
 -15  -2  12 25.5287 27.5721   1
  15   2 -12-1.23012 11.7699   3
 -15   2  12 13.5474 21.6530   1
  14  -2 -12 102.963 19.2490   2
 -14  -2  12 116.072 46.0526   1
  14   2 -12 117.188 27.1540   3
 -14   2  12 88.4146 35.4739   1
 -13  -2  12 12.0164 25.7755   1
  13  -2 -12 6.09651 7.16225   2
 -13   2  12 9.76842 26.2341   1
  13   2 -12-8.94032 12.7219   3
 -12  -2  12 126.908 47.0969   1
 -12   2  12 155.708 40.8946   1
  12   2 -12 153.585 34.0695   3
  12  -2 -12 142.542 26.8863   2
 -11   2  12 40.2317 23.0565   1
  11   2 -12 42.9763 22.3031   3
  11  -2 -12 62.6736 16.2970   2
  11   2 -12 18.7785 16.6348   1
 -11  -2  12-2.39384 21.3475   1
  10   2 -12 111.448 30.6991   3
 -10  -2  12 8.04458 24.8062   1
 -10   2  12 35.3500 23.1077   1
  10  -2 -12 82.1870 20.9930   2
  10   2 -12 59.5490 28.6931   1
   9   2 -12 372.620 64.3176   1
   9   2 -12 327.716 51.8995   3
  -9   2  12 265.800 46.0546   1
  -9  -2  12 262.077 60.0997   1
   9  -2 -12 302.301 37.8129   2
  -8  -2  12 1179.49 120.860   1
   8   2 -12 1282.73 101.853   3
   8   2 -12 1303.66 119.412   1
   8  -2 -12 1288.35 83.8968   2
  -8   2  12 1179.03 93.1502   1
   7   2 -12 890.782 101.550   1
   7   2 -12 1006.25 72.3279   2
   7   2 -12 1098.97 96.8743   3
   7  -2 -12 1015.84 79.3556   2
  -7   2  12 1019.16 82.3237   1
  -7  -2  12 1145.37 117.470   1
   7  -2 -12 992.915 69.2905   1
   6   2 -12 3391.26 151.876   2
   6  -2 -12 3347.37 137.522   1
   6   2 -12 3128.16 168.486   3
  -6   2  12 3420.82 147.408   1
   6   2 -12 3348.88 196.679   1
   6  -2 -12 3441.08 154.689   2
  -6  -2  12 3510.85 201.002   1
   5   2 -12 7486.06 249.526   2
   5   2 -12 7367.94 262.868   3
   5   2 -12 7443.72 296.148   1
  -5  -2  12 7176.17 194.313   2
  -5  -2  12 7481.76 285.534   1
   5  -2 -12 7430.01 240.488   2
   5  -2 -12 6915.61 211.584   1
   4   2 -12 10740.6 320.884   2
   4   2 -12 10992.7 367.234   1
   4   2 -12 10332.4 320.927   3
   4  -2 -12 10667.7 273.885   1
  -4  -2  12 10343.5 334.750   1
  -4  -2  12 10267.3 255.390   2
   4  -2 -12 10223.7 297.871   2
   3   2 -12 5327.30 240.191   2
   3   2 -12 5475.38 267.024   1
   3  -2 -12 5391.82 204.399   1
   3   2 -12 5160.79 232.601   3
  -3  -2  12 5467.11 238.785   1
  -3  -2  12 5370.18 198.427   2
   3  -2 -12 5187.14 221.369   2
   2  -2 -12 1240.58 102.554   1
   2   2 -12 1319.35 130.211   1
   2   2 -12 1281.60 125.314   2
   2   2 -12 1250.24 118.590   3
  -2  -2  12 1128.47 97.8935   2
   2  -2 -12 1325.50 117.559   2
   1   2 -12 1153.60 123.831   1
   1   2 -12 1103.43 122.702   2
   1   2 -12 1102.77 115.187   3
  -1  -2  12 1010.70 96.5785   2
   1  -2 -12 1150.91 114.695   2
   1  -2 -12 1173.41 105.165   1
   0  -2 -12 154.037 45.7355   2
   0  -2 -12 87.0787 33.1621   1
   0   2 -12 101.289 39.3146   1
   0   2 -12 97.2645 39.8616   2
   0   2 -12 132.317 44.8474   3
   0  -2  12 58.7568 28.7753   2
  -1   2 -12 1110.80 131.592   2
  -1   2 -12 1101.38 125.238   3
  -1  -2 -12 1274.40 117.216   1
   1  -2  12 1194.76 116.402   2
  -1   2 -12 1304.05 141.313   1
  -1  -2 -12 1089.82 120.388   2
  -2   2 -12 1124.80 139.966   2
  -2  -2 -12 1370.15 140.813   3
  -2   2 -12 1333.96 137.748   3
  -2  -2 -12 1449.43 132.798   1
   2  -2  12 1236.66 124.035   2
  -2   2 -12 1241.66 136.600   1
  -2  -2 -12 1339.05 140.408   2
  -3  -2 -12 274.608 65.6834   3
  -3   2 -12 349.042 75.1421   3
  -3  -2 -12 215.161 54.5442   1
   3  -2  12 229.840 56.6162   2
  -4  -2 -12 201.784 60.7449   3
  -4   2 -12 34.2128 35.0537   3
  -4  -2 -12 113.975 42.0548   1
   4  -2  12 99.1906 41.0115   2
  -5  -2 -12 1117.84 134.953   3
  -5   2 -12 1208.50 146.430   3
  -5  -2 -12 989.073 123.828   1
   5  -2  12 974.118 122.425   2
  -6  -2 -12-7.27823 34.0031   3
  -6   2 -12 3.42031 38.6059   3
   6  -2  12 21.8291 29.7827   2
  -7  -2 -12-33.5543 32.8781   3
  -7   2 -12 31.9499 41.8470   3
   7  -2  12 45.2432 44.2001   2
  -8  -2 -12 496.979 100.219   3
  -8   2 -12 542.565 107.309   3
   8  -2  12 381.881 84.4377   2
  -9  -2 -12 781.398 126.110   3
  -9   2 -12 905.819 142.702   3
   9  -2  12 807.961 124.951   2
 -10  -2 -12 530.565 106.073   3
 -10   2 -12 496.553 112.502   3
  10  -2  12 629.492 114.558   2
 -11  -2 -12 340.331 90.5107   3
 -11   2 -12 450.755 112.452   3
  11  -2  12 288.142 84.1152   2
 -12  -2 -12-73.1066 48.5561   3
  12  -2  12 26.4732 32.9738   2
 -13  -2 -12 176.773 70.1371   3
  13  -2  12 190.824 72.9123   2
 -14  -2 -12-66.9872 49.4214   3
 -15  -2 -12 17.2682 36.3019   3
 -24   3  12 4.72179 23.9223   1
 -23   3  12 61.4733 35.2731   1
 -23  -3  12 27.3914 30.4034   1
 -22   3  12 83.3174 42.1372   1
 -22  -3  12 295.225 90.6721   1
 -21   3  12-49.5180 34.6474   1
 -21  -3  12 58.5484 53.2714   1
 -20   3  12-23.0396 35.4312   1
 -20  -3  12 68.2944 46.8471   1
 -19   3  12-3.47389 30.1468   1
 -19  -3  12 103.175 53.9317   1
 -18   3  12 15.8096 22.3795   1
 -18  -3  12-2.63184 27.8778   1
  17  -3 -12 189.293 34.6708   2
 -17   3  12 198.319 52.0403   1
 -17  -3  12 245.961 73.0752   1
 -16   3  12-23.3456 28.5700   1
  16  -3 -12-2.32197 10.7363   2
 -16  -3  12 3.46727 27.6158   1
  16   3 -12-1.23035 4.42209   3
  15  -3 -12 88.7625 24.1748   2
 -15  -3  12 11.7971 27.0972   1
  15   3 -12 48.2843 11.7226   3
 -15   3  12 5.80904 24.2767   1
 -14  -3  12 98.8153 41.5567   1
  14  -3 -12 27.8141 10.1616   2
  14   3 -12 40.0376 15.5816   3
 -14   3  12 40.2877 23.0217   1
 -13  -3  12 448.807 86.2148   1
  13  -3 -12 457.914 57.7168   2
  13   3 -12 444.593 49.1719   3
 -13   3  12 568.571 74.0792   1
 -12   3  12 237.305 48.1764   1
  12   3 -12 317.871 44.6485   3
 -12  -3  12 212.881 59.6239   1
  11   3 -12 41.2827 25.2106   1
  11   3 -12 12.8533 13.7320   3
 -11  -3  12 25.4537 22.8869   1
 -11   3  12 26.2689 17.8132   1
  10   3 -12 47.4259 25.7491   1
  10   3 -12 104.232 28.6585   3
 -10   3  12 88.4927 27.2533   1
 -10  -3  12 63.0257 32.6423   1
  -9   3  12 256.524 42.3458   1
  -9  -3  12 190.302 63.8478   1
   9   3 -12 327.454 52.4718   3
   9   3 -12 143.588 45.5041   1
  -8   3  12 71.9368 23.5507   1
   8   3 -12 66.6275 34.5746   1
  -8  -3  12 121.437 38.3698   1
   8   3 -12 98.8547 30.9683   3
   8  -3 -12 64.8423 21.5226   2
   7   3 -12 870.992 106.476   1
   7   3 -12 1003.91 93.4125   3
  -7   3  12 961.801 70.2308   1
  -7  -3  12 915.427 55.2778   2
   7  -3 -12 977.895 82.5876   2
  -7  -3  12 792.315 103.608   1
   6   3 -12 967.548 94.0700   3
   6   3 -12 1018.11 114.251   1
   6  -3 -12 941.210 84.7191   2
  -6  -3  12 1036.85 70.0039   2
  -6  -3  12 896.750 105.558   1
   6  -3 -12 1073.71 59.6788   1
   5   3 -12 553.533 85.8129   1
   5  -3 -12 509.059 47.8317   1
   5   3 -12 807.439 86.6190   2
   5   3 -12 679.870 83.6760   3
   5  -3 -12 731.202 79.5517   2
  -5  -3  12 716.244 65.8695   2
  -5  -3  12 614.528 92.3655   1
   4   3 -12 5118.79 229.810   2
   4   3 -12 5328.32 271.080   1
   4   3 -12 5023.68 225.292   3
   4  -3 -12 5213.42 165.178   1
  -4  -3  12 5033.04 244.643   1
   4  -3 -12 4965.73 210.965   2
  -4  -3  12 5042.18 186.332   2
   3   3 -12 156.349 47.6048   3
   3   3 -12 150.239 49.2351   1
   3   3 -12 150.062 41.8897   2
  -3  -3  12 231.315 56.4002   1
   3  -3 -12 56.5783 20.9442   1
   3  -3 -12 148.812 41.8013   2
  -3  -3  12 146.218 37.3431   2
   2  -3 -12 643.304 67.8920   1
   2   3 -12 745.004 103.347   1
   2   3 -12 731.803 97.9369   2
   2   3 -12 639.795 87.5819   3
  -2  -3  12 808.416 97.2662   1
   2  -3 -12 757.858 91.2726   2
  -2  -3  12 713.494 81.4695   2
   1   3 -12 1811.45 160.159   1
   1   3 -12 1743.73 158.964   2
   1   3 -12 1719.20 144.245   3
   1  -3 -12 1779.47 144.092   2
  -1  -3  12 1721.26 131.559   2
   1  -3 -12 1929.01 123.726   1
   0   3 -12 2901.91 210.068   1
   0   3 -12 3131.20 220.325   2
   0   3 -12 3063.35 199.656   3
   0  -3 -12 2957.85 161.789   1
   0  -3  12 2893.08 179.885   2
   0  -3 -12 2923.21 192.020   2
  -1   3 -12 955.530 126.884   2
  -1   3 -12 946.873 117.991   3
  -1  -3 -12 960.870 97.5086   1
   1  -3  12 1044.19 114.491   2
  -1  -3 -12 847.445 107.589   2
  -1   3 -12 943.838 121.320   1
   2  -3  12 143.821 48.2245   2
  -2   3 -12 81.2836 41.4006   2
  -2   3 -12 115.684 46.0145   3
  -2  -3 -12 96.8488 38.2154   1
   3  -3  12 165.434 50.2726   2
  -3  -3 -12 206.606 62.8231   3
  -3   3 -12 174.797 61.2233   3
  -3  -3 -12 189.708 50.3427   1
   4  -3  12 43.7784 33.6452   2
  -4  -3 -12 24.9158 29.6079   3
  -4   3 -12 52.3958 45.3578   3
  -4  -3 -12 61.5521 31.8391   1
  -5  -3 -12 20.6833 34.5425   3
  -5   3 -12 14.1669 30.2615   3
   5  -3  12 36.6639 24.6978   2
  -6  -3 -12 821.332 118.526   3
  -6   3 -12 776.654 126.420   3
   6  -3  12 706.864 111.756   2
  -7  -3 -12 56.5252 38.2905   3
  -7   3 -12 60.9230 30.2864   3
   7  -3  12 64.5631 48.3510   2
  -8  -3 -12-61.6421 45.3871   3
  -8   3 -12-36.2930 44.7761   3
   8  -3  12 34.7518 30.5072   2
  -9  -3 -12 372.073 85.6475   3
  -9   3 -12 405.898 97.2580   3
   9  -3  12 524.418 103.250   2
 -10  -3 -12 214.304 71.6906   3
  10  -3  12 118.867 54.7122   2
 -11  -3 -12-43.4404 36.7595   3
  11  -3  12-10.1952 30.0910   2
 -12  -3 -12 70.3295 48.1558   3
  12  -3  12-16.8043 29.6359   2
 -13  -3 -12 25.6737 35.1902   3
 -14  -3 -12 15.7529 24.8039   3
 -15  -3 -12 49.9341 43.6724   3
 -23   4  12-18.7282 23.2074   1
 -22  -4  12 26.6361 42.6301   1
 -22   4  12-21.8517 26.8793   1
 -21  -4  12 47.3377 43.6855   1
 -21   4  12 44.0291 28.7338   1
 -20  -4  12 181.016 66.1317   1
 -20   4  12 145.044 45.5121   1
 -19  -4  12-37.0714 33.5532   1
 -19   4  12-50.9234 30.8553   1
 -18  -4  12 35.6996 35.3504   1
 -18   4  12 99.7055 37.5861   1
  17  -4 -12 112.209 33.9797   2
 -17  -4  12 50.7063 30.1798   1
 -17   4  12 50.3309 29.4767   1
 -16   4  12 70.4377 28.4296   1
 -16  -4  12 134.496 59.4032   1
  16  -4 -12 65.5706 19.0888   2
 -15   4  12 16.4161 23.6065   1
 -15  -4  12 72.5407 41.4638   1
  15  -4 -12 94.9032 32.5300   2
  14  -4 -12 1100.53 101.011   2
  14   4 -12 870.832 57.5724   3
 -14  -4  12 1025.47 131.833   1
 -14   4  12 1091.10 101.365   1
 -13  -4  12 12.7217 28.7041   1
 -13   4  12 23.9116 18.3414   1
  13  -4 -12 28.1918 23.2691   2
  13   4 -12 52.1312 19.4495   3
 -12   4  12 197.841 43.8933   1
  12   4 -12 249.294 38.5428   3
 -12  -4  12 197.467 54.8262   1
  11   4 -12 122.597 30.4961   3
 -11  -4  12 98.5498 39.4483   1
 -11   4  12 78.5834 26.3699   1
  10   4 -12 220.154 52.6256   1
 -10   4  12 231.629 37.2776   1
  10   4 -12 253.639 44.9671   3
 -10  -4  12 265.781 65.1906   1
  -9   4  12 157.656 29.1425   1
  -9  -4  12 184.360 54.5466   1
   9   4 -12 214.674 53.9347   1
   9   4 -12 250.261 46.1663   3
  -8  -4  12 1046.91 121.699   1
   8   4 -12 1023.02 118.901   1
   8   4 -12 1099.60 95.4753   3
  -8   4  12 895.539 57.8334   1
  -8  -4  12 929.106 50.2242   2
   7   4 -12 3112.50 165.891   3
  -7  -4  12 3132.82 114.367   2
   7   4 -12 3211.25 209.360   1
  -7  -4  12 2973.72 204.984   1
  -6  -4  12 218.781 58.6010   1
   6   4 -12 250.220 59.0470   1
   6   4 -12 218.147 48.3073   3
   6  -4 -12 229.900 44.8465   2
  -6  -4  12 280.907 40.2183   2
   5  -4 -12 707.169 35.3185   1
   5   4 -12 818.145 93.1765   3
   5   4 -12 833.307 109.557   1
   5  -4 -12 829.141 87.1548   2
  -5  -4  12 697.268 97.0658   1
  -5  -4  12 755.591 71.7723   2
   4   4 -12 82.4557 36.0963   1
  -4  -4  12 162.555 49.9786   1
  -4  -4  12 147.763 36.4902   2
   4  -4 -12 85.1988 18.0597   1
   4   4 -12 206.373 51.7554   3
   4  -4 -12 171.651 43.2287   2
  -3  -4  12 38.6279 24.2760   2
   3  -4 -12 17.8546 12.9411   1
   3   4 -12 98.1176 39.6810   2
   3   4 -12 31.1980 35.2233   3
   3   4 -12-11.7506 30.5315   1
   3  -4 -12 18.7354 23.6019   2
  -3  -4  12-32.8352 28.4830   1
   2  -4 -12 833.816 68.2231   1
   2   4 -12 713.929 107.077   1
   2   4 -12 835.976 109.124   2
   2   4 -12 893.985 108.076   3
  -2  -4  12 752.812 102.308   1
   2  -4 -12 818.950 96.5910   2
  -2  -4  12 832.316 93.6102   2
  -1  -4  12 377.750 65.1496   2
   1   4 -12 366.345 80.4044   1
   1   4 -12 380.891 76.8321   2
   1   4 -12 426.632 77.4454   3
   1  -4 -12 335.923 65.4144   2
   1  -4 -12 341.515 50.5984   1
   0  -4  12 231.345 54.3441   2
   0  -4 -12 232.733 42.9552   1
   0   4 -12 256.363 65.1874   1
   0   4 -12 198.877 60.6704   2
   0   4 -12 237.971 61.0829   3
   0  -4 -12 207.129 51.7824   2
   1  -4  12 102.678 42.4328   2
  -1   4 -12 30.4829 23.8744   2
  -1   4 -12 177.728 63.0300   3
  -1  -4 -12 99.3473 33.7719   1
  -2   4 -12 803.687 124.246   2
  -2   4 -12 936.024 122.322   3
  -2  -4 -12 1092.81 105.689   1
   2  -4  12 946.305 116.623   2
  -3   4 -12 864.034 125.398   3
  -3  -4 -12 856.888 98.7895   1
   3  -4  12 844.898 112.369   2
   4  -4  12 435.598 86.3406   2
  -4   4 -12 485.056 94.8676   3
   5  -4  12 243.175 66.9517   2
  -5  -4 -12 365.081 81.7455   3
  -5   4 -12 224.687 71.3072   3
  -6  -4 -12 1560.87 162.427   3
  -6   4 -12 1657.41 184.554   3
   6  -4  12 1546.80 168.675   2
   7  -4  12 669.074 112.930   2
  -7  -4 -12 763.707 118.046   3
  -7   4 -12 895.201 140.953   3
   8  -4  12 184.204 62.1735   2
  -8  -4 -12 139.234 60.5774   3
  -9  -4 -12 33.6398 25.9173   3
   9  -4  12 56.6199 44.5410   2
 -10  -4 -12-77.1172 47.5179   3
  10  -4  12-23.4969 27.0487   2
 -11  -4 -12-27.7190 35.7791   3
  11  -4  12 54.7222 45.0852   2
 -12  -4 -12-2.80222 36.0588   3
  12  -4  12 27.1650 30.9559   2
 -13  -4 -12 37.8853 42.8964   3
 -14  -4 -12-48.6653 42.5904   3
 -15  -4 -12 108.590 57.8708   3
 -22   5  12-9.69477 21.3417   1
 -21   5  12 193.633 58.8659   1
 -21  -5  12 225.264 72.1526   1
 -20   5  12-5.40164 20.8183   1
 -20  -5  12 68.9559 46.6496   1
 -19  -5  12 464.437 101.987   1
 -19   5  12 399.797 73.8936   1
 -18  -5  12 24.8443 25.9329   1
 -18   5  12 34.0578 20.7345   1
 -17  -5  12 270.073 77.9813   1
  17  -5 -12 287.926 58.7517   2
 -17   5  12 225.197 49.1744   1
 -16  -5  12 104.764 45.0007   1
 -16   5  12 18.3202 16.2086   1
  16  -5 -12 114.925 40.4945   2
 -15   5  12 205.575 43.8125   1
 -15  -5  12 164.494 54.6659   1
  15  -5 -12 301.315 61.3739   2
 -14  -5  12 359.542 81.7058   1
  14  -5 -12 286.383 59.8984   2
 -14   5  12 220.276 43.3776   1
 -13   5  12 100.539 29.4294   1
 -13  -5  12 105.121 50.8336   1
 -12   5  12 177.970 34.5233   1
 -12  -5  12 147.547 43.1124   1
 -11   5  12 527.658 54.4412   1
  11   5 -12 612.441 66.2216   3
 -11  -5  12 461.286 86.1074   1
 -10   5  12 30.9450 16.5633   1
 -10  -5  12 153.361 51.8788   1
  10   5 -12 147.686 35.0008   3
  -9  -5  12 270.248 67.9355   1
   9   5 -12 306.593 51.1382   3
  -9   5  12 230.702 23.5232   1
  -9  -5  12 303.233 27.8429   2
  -8  -5  12 996.725 124.632   1
   8   5 -12 1046.74 96.9555   3
  -8  -5  12 976.296 63.6372   2
  -7  -5  12 19.7240 11.9102   2
  -7  -5  12 11.9803 25.5584   1
   7   5 -12 57.8016 29.9889   3
  -6  -5  12 16.7330 13.8560   2
  -6  -5  12 70.6499 40.4155   1
   6   5 -12 8.99153 19.8077   1
   6   5 -12 31.7390 25.6159   3
   5   5 -12 4486.10 261.508   1
   5   5 -12 4409.48 217.100   3
  -5  -5  12 4146.06 243.683   1
  -5  -5  12 4436.14 188.912   2
  -4  -5  12 418.637 78.9158   1
   4   5 -12 145.758 51.7501   1
   4   5 -12 342.558 65.3176   3
   4  -5 -12 314.457 59.7831   2
  -4  -5  12 419.658 65.2390   2
  -3  -5  12 151.771 40.8062   2
   3  -5 -12 115.206 13.8089   1
   3   5 -12 97.7169 42.6505   3
   3  -5 -12 195.653 49.5161   2
  -3  -5  12 205.635 55.2115   1
   2  -5 -12 627.298 48.2750   1
   2   5 -12 612.411 92.9457   3
  -2  -5  12 606.252 92.9967   1
   2  -5 -12 598.681 87.9664   2
  -2  -5  12 670.050 90.0472   2
  -1  -5  12 97.2386 36.9337   2
   1  -5 -12 104.097 26.1735   1
   1   5 -12 172.446 56.0694   2
   1   5 -12 158.942 46.8347   3
  -1  -5  12 156.186 56.3306   1
   1  -5 -12 132.749 44.5312   2
   0   5 -12 604.569 105.983   2
   0   5 -12 682.068 100.690   3
   0  -5 -12 685.562 67.7544   1
   0  -5  12 724.619 98.2078   2
  -1   5 -12 2390.04 214.609   2
  -1   5 -12 2751.79 205.156   3
  -1  -5 -12 2694.73 148.982   1
   1  -5  12 2690.62 196.319   2
   2  -5  12 42.3999 26.1139   2
  -2   5 -12 80.2469 42.0523   3
  -2  -5 -12 86.1314 30.3531   1
   3  -5  12-15.5406 30.5278   2
  -3   5 -12 37.2699 40.5536   3
  -4   5 -12 2121.66 198.970   3
   4  -5  12 1788.68 175.530   2
   5  -5  12 372.280 84.7032   2
   6  -5  12 35.3104 40.4757   2
  -6  -5 -12 104.647 53.5046   3
   7  -5  12 64.0784 47.8501   2
  -7  -5 -12 74.5489 41.1311   3
   8  -5  12 329.460 85.9863   2
  -8  -5 -12 241.695 72.1588   3
   9  -5  12 41.0203 40.6962   2
  -9  -5 -12 30.9217 34.6130   3
  10  -5  12 41.7701 41.4580   2
 -10  -5 -12 7.95310 28.7573   3
  11  -5  12-22.8094 28.9489   2
 -11  -5 -12-100.904 51.4659   3
 -12  -5 -12-67.4577 45.2931   3
  12  -5  12 0.45970 35.2694   2
 -13  -5 -12 51.7488 50.5427   3
 -14  -5 -12 115.193 64.4873   3
 -15  -5 -12-38.3887 39.2025   3
 -21  -6  12 41.1902 37.9983   1
 -20   6  12 344.700 70.8316   1
 -20  -6  12 269.897 85.2438   1
 -19   6  12 72.3879 34.3863   1
 -19  -6  12-20.7708 31.9425   1
 -18  -6  12 219.223 68.2077   1
 -18   6  12 195.927 47.7157   1
 -17  -6  12 276.625 82.7385   1
  17  -6 -12 224.142 53.5744   2
 -17   6  12 150.797 39.1388   1
  16  -6 -12 796.420 104.185   2
 -16   6  12 834.691 90.6410   1
 -16  -6  12 973.796 142.593   1
 -15  -6  12 268.517 73.5119   1
 -15   6  12 339.342 53.2928   1
  15  -6 -12 408.908 76.0340   2
  14  -6 -12 51.3378 35.7315   2
 -14   6  12 24.7107 13.6772   1
 -14  -6  12-2.59637 34.0193   1
 -13   6  12 71.0934 22.7635   1
 -13  -6  12 40.7643 44.8105   1
 -12   6  12 17.0620 14.7863   1
 -12  -6  12-65.6126 52.3338   1
 -11   6  12 41.4261 16.2326   1
 -11  -6  12 294.706 77.4272   1
 -10  -6  12 53.3912 13.4119   2
 -10  -6  12 68.3580 44.5241   1
  -9  -6  12 984.730 130.510   1
  -9  -6  12 823.173 62.4695   2
  -8  -6  12 323.789 45.5678   2
  -8  -6  12 282.296 68.8401   1
  -7  -6  12 20.6821 17.3043   2
  -7  -6  12-2.00215 30.9886   1
  -6  -6  12 3420.25 170.635   2
   6   6 -12 3369.82 191.531   3
  -6  -6  12 3100.64 219.544   1
  -5  -6  12 351.905 75.2341   1
  -5  -6  12 334.924 57.9251   2
   5   6 -12 291.089 60.7445   3
  -4  -6  12 18.5178 27.3306   1
  -4  -6  12 59.4012 32.1051   2
   4   6 -12 23.1591 24.1519   3
  -3  -6  12 257.636 62.0494   2
   3   6 -12 386.213 74.9075   3
   3  -6 -12 281.113 61.3103   2
  -3  -6  12 337.021 73.3144   1
  -2  -6  12 547.010 84.3883   2
   2   6 -12 539.919 84.5423   3
   2  -6 -12 507.737 82.6382   2
  -2  -6  12 422.107 82.0655   1
  -1  -6  12 140.259 47.5938   2
   1  -6 -12 88.5475 18.6494   1
   1   6 -12 180.165 56.8262   3
  -1  -6  12 79.6552 37.9733   1
   0  -6 -12 43.9067 18.1988   1
   0  -6  12 30.6452 34.3431   2
   1  -6  12-47.2523 45.9791   2
  -1  -6 -12 1.68836 11.6225   1
  -2  -6 -12 5969.53 224.806   1
   2  -6  12 6330.77 319.130   2
   3  -6  12 643.335 108.529   2
   4  -6  12 30.6847 32.2991   2
   5  -6  12 58.1295 43.0797   2
   6  -6  12 743.825 123.532   2
   7  -6  12 237.511 73.7260   2
  -7  -6 -12 272.185 74.4046   3
   8  -6  12 41.3906 46.9384   2
  -8  -6 -12 77.1861 44.4726   3
   9  -6  12 110.974 58.7911   2
  -9  -6 -12 11.8500 26.8583   3
  10  -6  12 17.0594 33.4376   2
 -10  -6 -12 42.4748 37.5094   3
  11  -6  12 101.445 53.8889   2
 -11  -6 -12 6.95716 25.2014   3
 -12  -6 -12 177.916 68.6590   3
 -13  -6 -12 64.8088 52.8795   3
 -14  -6 -12-7.32440 25.5248   3
 -20  -7  12 44.5865 46.4324   1
 -19  -7  12-18.7972 24.6446   1
 -18  -7  12 16.9073 21.9288   1
 -17  -7  12 531.942 107.780   1
 -17   7  12 636.400 78.4163   1
  17  -7 -12 488.463 87.2054   2
 -16  -7  12-32.5639 46.1230   1
 -16   7  12 34.2621 17.7207   1
  16  -7 -12 77.7262 35.4130   2
 -15   7  12 268.019 46.5909   1
  15  -7 -12 240.610 62.5130   2
 -15  -7  12 256.389 80.3415   1
  14  -7 -12 13.1124 22.2404   2
 -14   7  12-12.6666 11.4876   1
 -14  -7  12-36.0009 43.0844   1
 -13   7  12 208.822 35.0060   1
 -13  -7  12 268.308 78.0019   1
 -12   7  12 8.16100 6.96317   1
 -12   7  12 1.27466 6.91910   1
 -11  -7  12 86.7864 19.5835   2
 -11  -7  12 54.2334 35.0766   1
 -10  -7  12 80.6441 23.2548   2
 -10  -7  12 83.8827 45.5535   1
  -9  -7  12 1271.67 152.702   1
  -9  -7  12 1208.90 91.0668   2
  -8  -7  12 15.1655 16.1950   2
  -8  -7  12-20.3089 39.5098   1
  -7  -7  12 15.1905 18.5424   2
  -7  -7  12-4.59552 22.3022   1
  -6  -7  12 62.2526 45.4043   1
  -6  -7  12 80.2501 29.7302   2
  -5  -7  12 70.4511 37.7963   1
  -5  -7  12 120.142 41.1545   2
  -4  -7  12 903.234 106.845   2
  -4  -7  12 823.187 116.242   1
  -3  -7  12 16.0527 22.3264   2
  -3  -7  12 1.43574 29.9657   1
  -2  -7  12 204.093 50.1028   2
  -2  -7  12 218.893 57.5188   1
  -1  -7  12 315.891 73.0340   2
  -1  -7  12 362.151 75.5718   1
   0  -7 -12 26.1921 14.0283   1
   0  -7 -12 18.6708 10.8033   1
   0  -7  12 37.2299 28.0706   2
   1  -7  12 9.51450 24.6926   2
  -1  -7 -12 73.9314 20.3139   1
  -1  -7 -12 58.1269 20.6627   1
   2  -7  12 892.999 126.128   2
  -2  -7 -12 921.848 84.6549   1
   3  -7  12 114.659 48.7707   2
   4  -7  12 829.188 128.954   2
   5  -7  12 213.657 71.9960   2
   6  -7  12 393.790 93.2888   2
   7  -7  12-30.1794 45.0367   2
   8  -7  12 299.686 86.4379   2
  -8  -7 -12 263.233 77.5121   3
   9  -7  12 31.4433 32.3467   2
  -9  -7 -12-91.2552 47.8889   3
  10  -7  12 25.8656 37.0143   2
 -10  -7 -12 43.8647 42.9644   3
  11  -7  12 25.2558 33.3020   2
 -11  -7 -12 35.2951 39.9968   3
 -12  -7 -12-4.83958 31.9444   3
 -13  -7 -12-53.8520 39.3025   3
 -14  -7 -12 1.71564 22.4137   3
 -19  -8  12 545.051 117.960   1
 -18  -8  12 41.0921 39.4684   1
 -17  -8  12 160.750 70.1204   1
  17  -8 -12 92.1451 45.1416   2
  16  -8 -12 203.366 65.3291   2
 -16  -8  12 329.610 87.4254   1
  15  -8 -12 155.217 55.6561   2
 -15  -8  12 29.0045 37.8781   1
 -14  -8  12 393.187 94.4213   1
 -13  -8  12 289.053 75.9845   1
 -12  -8  12 818.018 68.4770   2
 -12  -8  12 1045.99 149.868   1
 -11  -8  12 102.957 25.5643   2
 -11  -8  12 148.488 62.6405   1
 -10  -8  12 464.721 60.9772   2
 -10  -8  12 447.575 97.4947   1
  -9  -8  12 72.5535 30.6506   2
  -9  -8  12 91.4366 52.3140   1
  -8  -8  12 108.222 50.9765   1
  -8  -8  12 207.775 47.3653   2
  -7  -8  12-8.50983 26.6434   1
  -7  -8  12 17.3506 23.9967   2
  -6  -8  12 129.872 47.6858   1
  -6  -8  12 208.327 52.2572   2
  -5  -8  12 487.116 93.3954   1
  -5  -8  12 550.596 87.8477   2
  -4  -8  12 1244.58 131.430   2
  -4  -8  12 1100.20 140.311   1
  -3  -8  12 904.544 115.898   2
  -3  -8  12 1190.09 142.498   1
  -2  -8  12 107.599 46.9265   2
  -2  -8  12 194.675 57.5941   1
  -1  -8  12 125.226 49.7750   2
  -1  -8  12 133.449 54.1597   1
   0  -8  12 980.257 128.029   2
   0  -8 -12 950.085 46.2561   1
  -1  -8 -12 330.756 38.7545   1
   1  -8  12 380.776 86.2117   2
  -1  -8 -12 278.124 37.4734   1
  -2  -8 -12 30.5803 18.5241   1
   2  -8  12 34.9256 42.2806   2
   3  -8  12 146.550 55.9264   2
  -3  -8 -12 110.564 28.3810   1
   4  -8  12 64.3043 42.2410   2
  -4  -8 -12 167.616 35.6320   1
   5  -8  12 830.004 135.532   2
  -5  -8 -12 1068.46 93.5955   1
   6  -8  12 778.916 135.715   2
  -6  -8 -12 840.653 88.1323   1
   7  -8  12 157.458 62.3264   2
   8  -8  12 161.584 64.6748   2
  -8  -8 -12 235.421 72.9742   3
   9  -8  12-45.6992 43.0086   2
  -9  -8 -12 5.52073 24.9707   3
  10  -8  12 74.2558 24.9228   2
 -10  -8 -12 54.6170 42.7203   3
 -11  -8 -12 77.0482 56.1304   3
 -12  -8 -12-9.69759 25.6758   3
 -13  -8 -12 62.5293 42.8480   3
 -18  -9  12 29.4508 50.7488   1
  17  -9 -12 64.9419 39.9435   2
 -17  -9  12-46.0501 27.1722   1
  16  -9 -12-14.3306 25.3699   2
 -16  -9  12 23.1460 32.8695   1
  15  -9 -12 34.5646 31.9178   2
 -15  -9  12 38.7615 36.7601   1
 -14  -9  12 247.900 79.5969   1
 -13  -9  12 90.9188 51.0520   1
 -12  -9  12 191.009 40.0822   2
 -12  -9  12 252.645 76.7118   1
 -11  -9  12 511.870 69.3306   2
 -11  -9  12 701.895 124.028   1
 -10  -9  12 387.574 65.2416   2
 -10  -9  12 548.129 110.685   1
  -9  -9  12 32.7223 34.3627   1
  -9  -9  12 64.8941 31.4670   2
  -8  -9  12 286.420 77.0715   1
  -8  -9  12 168.692 46.6191   2
  -7  -9  12-21.7816 32.5192   1
  -7  -9  12 18.3027 25.0969   2
  -6  -9  12 529.260 99.5133   1
  -6  -9  12 462.434 80.8279   2
  -6  -9  12 469.051 76.8643   3
  -5  -9  12-35.5901 44.6775   1
  -5  -9  12-4.17888 20.2126   2
  -4  -9  12 104.328 47.1670   1
  -4  -9  12 53.7251 29.4052   2
  -3  -9  12 107.763 42.3667   2
  -3  -9  12 116.453 55.1301   1
  -2  -9  12 34.9505 40.1124   2
  -2  -9  12 42.0964 33.6926   1
  -1  -9  12 22.5823 29.6311   2
  -1  -9  12 49.1294 37.1923   1
   0  -9  12 147.250 60.4187   2
   1  -9  12 135.070 55.2295   2
   2  -9  12 20.7969 23.3308   2
   3  -9  12 133.281 60.6820   2
   4  -9  12 16.2563 29.0659   2
   5  -9  12 22.9866 39.6337   2
   6  -9  12 91.5502 47.2262   2
   7  -9  12 151.761 64.0402   2
   8  -9  12 74.3573 55.5588   2
   9  -9  12 53.0097 51.2409   2
  -9  -9 -12-7.96916 28.3845   3
 -10  -9 -12 0.20216 25.3082   3
 -11  -9 -12 58.8524 51.4915   3
 -12  -9 -12 20.0667 22.3357   3
  17 -10 -12-15.9872 18.0061   2
 -17 -10  12-5.40355 36.4291   1
  16 -10 -12 57.3472 40.2715   2
 -16 -10  12-39.3980 40.9082   1
  15 -10 -12 75.9900 42.8789   2
 -15 -10  12 145.611 67.9291   1
 -14 -10  12 36.5612 28.5572   1
 -13 -10  12 110.018 62.6029   1
 -12 -10  12-14.7769 26.1075   1
 -11 -10  12 246.749 80.1731   1
 -11 -10  12 195.950 48.4290   2
 -10 -10  12 187.879 67.1287   1
 -10 -10  12 190.539 51.4727   2
  -9 -10  12 62.6393 35.2317   1
  -9 -10  12 148.601 47.1059   2
  -8 -10  12 395.672 93.8329   1
  -8 -10  12 317.535 69.2903   2
  -7 -10  12 121.734 55.3560   1
  -7 -10  12 56.3184 32.6300   2
  -7 -10  12 107.354 40.7567   3
  -6 -10  12 43.5455 38.1344   1
  -6 -10  12 94.2352 43.8986   2
  -5 -10  12 59.4618 32.9422   1
  -5 -10  12 81.4673 45.9592   2
  -4 -10  12-24.7639 41.4220   1
  -4 -10  12-12.5590 30.2945   2
  -3 -10  12 97.3904 45.1492   2
  -3 -10  12 151.174 58.4374   1
  -2 -10  12 123.362 49.8307   2
  -2 -10  12 123.197 47.4517   1
  -1 -10  12 43.4298 26.7233   2
  -1 -10  12 110.026 44.1228   1
   0 -10  12 1213.75 155.830   2
   1 -10  12 218.684 71.8419   2
   2 -10  12 12.0792 32.0286   2
   3 -10  12-96.7741 52.4265   2
   4 -10  12 35.7770 28.5924   2
   5 -10  12 39.1992 41.7652   2
   6 -10  12 295.758 87.5005   2
   7 -10  12 54.5840 47.5566   2
   8 -10  12 46.6107 27.9142   2
 -10 -10 -12 0.21118 25.8878   3
 -11 -10 -12 12.2188 26.1525   3
 -12 -10 -12 8.72835 20.4632   3
  17 -11 -12 53.7081 53.6861   2
  16 -11 -12 72.3274 50.5769   2
  15 -11 -12 33.8928 36.4628   2
 -15 -11  12-8.91929 47.9202   1
 -14 -11  12-15.8557 29.8064   1
 -13 -11  12 55.9206 40.4875   1
 -12 -11  12 1.55132 29.7746   1
 -11 -11  12-42.5500 31.4600   1
 -10 -11  12 754.802 104.337   2
 -10 -11  12 713.741 132.780   1
  -9 -11  12 355.677 90.8435   1
  -9 -11  12 178.572 56.1110   2
  -8 -11  12 74.2592 55.5927   1
  -8 -11  12 28.0681 25.9146   2
  -7 -11  12 153.088 58.2962   1
  -7 -11  12 235.288 62.9065   2
  -6 -11  12 158.360 62.2349   1
  -6 -11  12 111.101 45.7150   2
  -5 -11  12-42.7715 47.1318   1
  -5 -11  12 58.1279 29.3515   2
  -4 -11  12-25.9204 34.0802   1
  -4 -11  12 32.0128 31.9736   2
  -3 -11  12 112.989 55.4797   2
  -3 -11  12 244.003 78.6320   1
  -2 -11  12 59.8574 38.4308   2
  -2 -11  12 120.030 53.8247   1
  -1 -11  12 268.148 73.1788   2
  -1 -11  12 180.604 64.3129   1
   0 -11  12 206.214 69.8435   2
   1 -11  12 110.361 55.3531   2
   2 -11  12 68.1527 56.4184   2
   3 -11  12-3.53353 29.1702   2
   4 -11  12 541.409 120.363   2
   5 -11  12-19.2583 31.6725   2
   6 -11  12 108.208 51.6983   2
   7 -11  12-76.8145 49.8651   2
 -10 -11 -12 2.45685 24.8828   3
 -11 -11 -12 27.0486 34.3363   3
  17 -12 -12 19.9337 27.0092   2
  16 -12 -12-13.8683 28.1434   2
  15 -12 -12 160.711 71.2252   2
 -13 -12  12 162.497 63.1637   1
 -12 -12  12 72.0930 65.0258   1
 -11 -12  12 53.4971 40.3211   1
 -10 -12  12 9.19969 39.9649   1
  -9 -12  12 153.587 68.5968   1
  -9 -12  12 115.231 52.0714   2
  -8 -12  12 8.99832 38.1201   1
  -8 -12  12-29.5723 27.5021   2
  -7 -12  12-31.1810 42.3351   1
  -7 -12  12-3.29963 27.0686   2
  -6 -12  12-0.62570 38.9730   1
  -6 -12  12 45.3485 34.8653   2
  -5 -12  12 53.9710 40.0420   1
  -5 -12  12 77.3247 42.0519   2
  -4 -12  12 90.0782 42.7892   2
  -4 -12  12 139.483 62.4029   1
  -3 -12  12 21.4964 29.3180   2
  -3 -12  12 51.4417 36.8839   1
  -2 -12  12 42.7581 55.2052   2
  -2 -12  12 57.7159 48.4145   1
  -1 -12  12-149.755 62.5670   2
  -1 -12  12 13.4143 31.3843   1
   0 -12  12 31.2378 29.5727   2
   1 -12  12 39.8835 30.2118   2
   2 -12  12 66.2714 45.9666   2
   3 -12  12 112.971 58.1119   2
   4 -12  12 80.5518 47.6673   2
   5 -12  12 176.020 71.4277   2
   6 -12  12-3.13605 22.6447   2
  16 -13 -12 22.6843 35.1618   2
  15 -13 -12-87.1369 55.5642   2
 -11 -13  12 155.160 72.1478   1
 -10 -13  12 62.0283 58.8377   1
  -9 -13  12 37.5722 38.4988   1
  -8 -13  12 119.427 60.4432   1
  -8 -13  12 90.3765 47.9301   2
  -7 -13  12-29.6980 46.5609   1
  -7 -13  12-9.75849 29.6054   2
  -6 -13  12 77.4102 40.5929   1
  -6 -13  12 42.2087 47.3532   2
  -5 -13  12 74.1450 60.1204   1
  -5 -13  12 55.6580 34.5620   2
  -4 -13  12-12.7034 37.2920   2
  -4 -13  12-10.3656 35.0803   1
  -3 -13  12 170.778 66.5539   2
  -3 -13  12 189.689 73.3446   1
  -2 -13  12 8.16625 25.9914   2
  -2 -13  12 84.9517 49.9927   1
  -1 -13  12-16.6631 31.5422   2
  -1 -13  12-21.3307 30.9718   1
   0 -13  12 17.6770 39.0679   2
   1 -13  12 76.4308 58.6266   2
   2 -13  12 24.1461 48.5835   2
   3 -13  12 19.9149 39.3727   2
   4 -13  12 33.0782 36.7685   2
  -7 -14  12 40.5963 22.1510   2
  -6 -14  12-3.53814 36.5452   1
  -6 -14  12 36.3195 35.9538   2
  -5 -14  12 110.442 57.5684   2
  -5 -14  12 243.278 82.4052   1
  -4 -14  12-23.3184 31.6755   2
  -4 -14  12-26.2205 41.0708   1
  -3 -14  12-98.9745 53.3338   2
  -3 -14  12-59.7242 45.5406   1
  -2 -14  12 65.7981 48.8193   2
  -1 -14  12-32.9938 37.6396   2
   0 -14  12-140.872 64.0693   2
   1 -14  12 47.7113 27.3911   2
   2 -14  12 12.3493 30.9700   2
   3 -14  12 30.9839 34.6679   2
  -6 -15  12-80.6091 48.0552   2
  -5 -15  12 80.6977 48.5478   2
  -4 -15  12-24.7332 31.2351   2
  -3 -15  12-82.3464 49.9196   2
  -2 -15  12-8.45507 28.5111   2
  -1 -15  12-20.8409 31.1035   2
   0 -15  12 33.2221 27.7823   2
   1 -15  12 53.1398 57.4233   2
  -4 -16  12 2.74276 21.7876   2
  -3 -16  12-64.8847 47.1894   2
  -2 -16  12-40.9711 39.8197   2
 -24   0  13 0.22152 25.0342   1
 -23   0  13-16.3598 25.6656   1
 -22   0  13 1.32556 31.1394   1
 -21   0  13-87.1581 45.9786   1
 -20   0  13-3.62635 21.4817   1
 -19   0  13-27.7461 28.5563   1
 -18   0  13-1.16775 32.6933   1
 -17   0  13 5.27281 25.0463   1
 -16   0  13 11.6458 28.5320   1
 -15   0  13-9.08963 25.8013   1
 -14   0  13 0.12176 19.6683   1
 -13   0  13 10.8631 23.7260   1
 -12   0  13 31.3255 31.4515   1
 -11   0  13-9.96115 21.4150   1
  10   0 -13 27.2028 19.1371   1
 -10   0  13 39.4320 31.6401   1
   9   0 -13-10.7011 9.93026   2
  -9   0  13 0.48166 19.8565   1
   9   0 -13-3.95466 13.6583   1
   8   0 -13 1.15570 11.0622   2
  -8   0  13-12.8116 20.5738   1
   8   0 -13-23.9179 23.9060   1
  -7   0  13-18.9408 25.2373   1
   7   0 -13 2.42796 27.9485   1
   7   0 -13 4.92584 12.5330   2
  -6   0  13-37.9000 23.5494   1
   6   0 -13-16.4508 21.7864   2
   6   0 -13 10.4652 23.3806   1
   5   0 -13-16.1356 17.0273   2
   5   0 -13 34.3512 25.1588   1
  -5   0  13 0.83095 18.2256   1
   4   0 -13-2.69157 17.6912   1
   4   0 -13-7.13565 17.4151   2
  -4   0  13-9.60612 16.1839   1
   3   0 -13-5.47382 19.3506   2
   3   0 -13 0.62463 25.6927   3
   3   0 -13 13.5649 23.4982   1
   2   0 -13 1.55090 21.7755   2
   2   0 -13-23.9838 28.0077   3
   2   0 -13 5.07687 17.0833   1
   1   0 -13 4.23590 27.7487   2
   1   0 -13 7.18379 16.5930   1
   1   0 -13 49.9302 31.2441   3
   0   0 -13 38.6026 29.5444   2
   0   0 -13 15.6185 17.0086   1
   0   0 -13 27.5035 27.4546   3
  -1   0 -13 1.66413 15.3934   1
  -1   0 -13-18.3494 25.2934   2
  -1   0 -13 0.89809 29.1915   3
   1   0  13-5.70337 16.3281   2
  -2   0 -13-10.2903 20.1626   1
  -2   0 -13-28.1022 28.4822   3
   2   0  13-83.1509 35.5372   2
  -3   0 -13 2.78872 26.2398   1
  -3   0 -13-34.7009 28.4286   3
  -4   0 -13 3.44443 32.1340   3
   4   0  13 39.8029 28.9461   2
  -5   0 -13-10.8901 34.1581   3
   5   0  13-26.3919 38.1399   2
  -6   0 -13-16.7008 38.3198   3
   6   0  13 8.12875 23.1637   2
  -7   0 -13-54.8150 49.0294   3
   7   0  13 2.16346 39.4586   2
  -8   0 -13-26.8203 41.9648   3
   8   0  13 1.47769 22.1506   2
  -9   0 -13-6.77650 35.3499   3
   9   0  13-56.1803 37.2422   2
 -10   0 -13 37.4598 39.4986   3
  10   0  13-11.8990 27.2282   2
 -11   0 -13 36.6907 52.4705   3
  11   0  13 40.0271 37.7229   2
 -12   0 -13-30.4057 55.8544   3
  12   0  13 21.7500 31.7218   2
 -13   0 -13-114.837 62.9695   3
 -24   1  13 8.27184 23.4135   1
 -24  -1  13-6.10301 25.0971   1
 -23   1  13 25.5651 25.4167   1
 -23  -1  13 54.0397 40.9381   1
 -22   1  13-4.97246 29.1049   1
 -22  -1  13 29.5056 24.8034   1
 -21   1  13 41.5865 34.7667   1
 -21  -1  13 51.8380 42.8922   1
 -20  -1  13 71.4420 44.4424   1
 -20   1  13 3.17139 27.5855   1
 -19  -1  13 158.121 58.1267   1
 -19   1  13 76.7752 39.2489   1
 -18  -1  13 67.3046 39.6722   1
 -18   1  13-11.4246 23.1701   1
 -17  -1  13 103.211 43.7587   1
 -17   1  13 76.5212 36.6374   1
 -16  -1  13 30.7513 28.3148   1
 -16   1  13 95.5338 39.1813   1
 -15  -1  13 39.1810 25.5730   1
 -15   1  13 83.4103 36.4813   1
 -14  -1  13 54.0045 31.1933   1
 -14   1  13 41.5679 24.6356   1
 -13  -1  13 60.5551 34.1915   1
 -13   1  13 57.1481 27.4030   1
 -12  -1  13 1367.65 138.176   1
 -12   1  13 1354.15 126.438   1
 -11  -1  13 717.724 100.368   1
 -11   1  13 662.259 85.6872   1
  11  -1 -13 518.826 33.1093   2
  11   1 -13 694.946 75.4833   1
 -10   1  13 3401.57 185.250   1
  10   1 -13 3373.38 171.914   1
 -10  -1  13 3381.64 205.044   1
  10  -1 -13 3081.74 102.304   2
  -9   1  13 996.965 97.4049   1
  -9  -1  13 1079.02 113.563   1
   9  -1 -13 1132.69 84.2921   1
   9   1 -13 1140.59 105.295   1
   9  -1 -13 1050.34 69.8574   2
   8   1 -13 3033.10 117.970   2
   8   1 -13 3283.05 185.958   1
   8  -1 -13 3466.14 153.118   1
  -8   1  13 3273.17 170.781   1
   8  -1 -13 3351.93 138.908   2
  -8  -1  13 3126.63 190.509   1
  -7   1  13 299.432 56.7885   1
  -7  -1  13 213.866 62.5633   1
   7   1 -13 228.426 42.2190   2
   7   1 -13 281.389 55.4945   3
   7  -1 -13 118.099 33.6512   1
   7  -1 -13 326.544 49.7302   2
   7   1 -13 178.658 53.9985   1
  -6  -1  13 455.874 71.6521   1
   6   1 -13 450.695 60.9958   2
   6   1 -13 463.875 71.0206   3
   6   1 -13 414.314 73.3445   1
  -6   1  13 518.978 65.6305   1
   6  -1 -13 408.358 59.6297   1
   6  -1 -13 482.520 62.9666   2
   5  -1 -13 228.854 48.4910   2
   5   1 -13 218.227 52.2158   1
   5   1 -13 242.399 48.1344   2
   5  -1 -13 219.596 45.2089   1
   5   1 -13 176.324 47.6551   3
  -5   1  13 179.538 37.7124   1
  -5  -1  13 178.433 48.7467   1
   4   1 -13 683.543 83.1102   2
   4   1 -13 743.198 96.5450   1
   4  -1 -13 709.049 83.1800   1
   4   1 -13 676.965 87.7006   3
  -4  -1  13 687.213 84.7279   1
   4  -1 -13 710.817 83.7700   2
   3   1 -13 2763.29 177.734   2
   3   1 -13 3246.96 205.428   1
   3  -1 -13 3097.79 176.960   1
   3   1 -13 3214.59 192.357   3
   3  -1 -13 2943.32 177.643   2
   2  -1 -13 1674.57 134.868   1
   2   1 -13 1611.84 144.042   2
   2   1 -13 1828.49 155.591   1
   2   1 -13 1551.68 139.632   3
  -2  -1  13 1604.72 117.960   2
   2  -1 -13 1503.43 133.532   2
   1  -1 -13 21.2547 21.3286   2
   1   1 -13 36.3757 21.9808   2
   1  -1 -13 19.9255 24.0624   1
   1   1 -13 85.1130 39.1261   1
   1  -1 -13 23.6584 29.0402   3
   1   1 -13 49.7381 36.6039   3
  -1  -1  13 51.4187 30.5270   2
   0  -1 -13 100.814 42.3992   2
   0  -1 -13 110.789 52.9443   1
   0   1 -13 101.112 43.6094   2
   0   1 -13 9.29686 40.8106   1
   0  -1 -13 54.3293 39.9670   3
   0   1 -13 136.226 42.4301   3
   0  -1  13 181.374 48.9340   2
  -1  -1 -13 6.20523 22.3641   1
  -1  -1 -13 95.0456 43.7232   2
  -1   1 -13 44.5441 37.9388   1
  -1   1 -13 58.0546 36.0825   2
  -1  -1 -13 61.6467 35.7642   3
  -1   1 -13-3.62501 36.8241   3
   1  -1  13 23.0534 20.6253   2
  -2  -1 -13 151.370 43.7122   1
  -2   1 -13 112.781 42.5688   1
  -2  -1 -13 142.171 51.7427   3
  -2   1 -13 112.878 42.7326   3
   2  -1  13 189.995 52.1258   2
  -3  -1 -13 15.8317 29.4079   1
  -3  -1 -13-1.27701 29.1274   3
  -3   1 -13 11.3301 29.1659   3
   3  -1  13 20.1802 24.7543   2
  -4  -1 -13 29.1047 39.3455   3
  -4   1 -13-15.4006 34.7646   3
   4  -1  13-15.3959 22.1467   2
  -4  -1 -13-4.50760 32.4156   1
  -5  -1 -13 973.610 131.240   3
  -5   1 -13 899.215 129.335   3
   5  -1  13 987.459 124.132   2
  -6  -1 -13 206.917 65.7693   3
  -6   1 -13 221.325 70.3449   3
   6  -1  13 231.395 60.9793   2
  -7  -1 -13 390.709 89.2019   3
  -7   1 -13 350.764 87.1985   3
   7  -1  13 393.232 89.8302   2
  -8  -1 -13 118.593 51.7553   3
  -8   1 -13 59.9436 42.9919   3
   8  -1  13 180.303 60.4081   2
  -9  -1 -13 31.8791 41.8555   3
  -9   1 -13 63.8752 46.1698   3
   9  -1  13 21.9441 28.6103   2
 -10   1 -13-6.32231 33.3197   3
  10  -1  13-8.43806 28.4569   2
 -11  -1 -13 12.6644 33.0089   3
 -11   1 -13-32.5850 50.7420   3
  11  -1  13 51.1159 40.6599   2
 -12  -1 -13-53.1444 48.0249   3
 -12   1 -13 1.74022 29.3864   3
  12  -1  13 30.9953 37.4627   2
 -13  -1 -13 71.3415 57.8300   3
 -24   2  13-6.12348 25.7734   1
 -23   2  13 60.0877 47.2211   1
 -23  -2  13 73.9874 46.2581   1
 -22   2  13 83.9033 39.8641   1
 -22  -2  13 171.873 64.0248   1
 -21   2  13 13.3931 18.4672   1
 -21  -2  13 97.8321 49.2924   1
 -20   2  13-7.03760 25.2313   1
 -20  -2  13 22.9758 23.1713   1
 -19  -2  13 120.208 48.3795   1
 -19   2  13 40.2376 26.2398   1
 -18  -2  13 161.654 60.3285   1
 -18   2  13 52.5851 25.0614   1
 -17  -2  13 133.472 50.8300   1
 -17   2  13 245.365 63.3082   1
 -16  -2  13 422.383 85.9938   1
  16   2 -13 441.116 48.9239   3
 -16   2  13 600.044 90.2687   1
  15   2 -13 634.318 61.2995   3
 -15  -2  13 850.516 120.049   1
 -15   2  13 675.285 92.1352   1
  14  -2 -13 118.964 15.3901   2
 -14  -2  13 133.667 50.6292   1
 -14   2  13 149.836 46.0493   1
  14   2 -13 165.274 33.3247   3
  13  -2 -13 647.897 45.6901   2
 -13  -2  13 880.983 118.929   1
  13   2 -13 814.795 76.8060   3
 -13   2  13 866.920 99.8261   1
  13  -2 -13 707.649 41.6698   2
  12   2 -13 85.0489 31.5946   3
  12  -2 -13 32.8623 16.8283   2
 -12  -2  13 48.8397 36.9870   1
 -12   2  13 91.4986 34.5090   1
  12  -2 -13 79.0655 18.0741   2
 -11   2  13 2153.69 144.471   1
 -11  -2  13 2224.75 177.405   1
  11   2 -13 2121.89 146.014   1
  11   2 -13 2289.14 134.614   3
  11  -2 -13 2134.63 91.9891   2
 -10   2  13 183.001 45.4953   1
 -10  -2  13 141.290 51.7946   1
  10   2 -13 85.9434 31.8108   3
  10   2 -13 82.6002 31.1097   1
  10  -2 -13 117.227 24.9929   2
  -9  -2  13 388.340 76.3850   1
   9   2 -13 422.369 64.1506   3
   9  -2 -13 445.966 50.8604   2
   9   2 -13 349.740 65.3610   1
  -9   2  13 449.733 65.7102   1
   8   2 -13 640.118 88.2921   1
   8   2 -13 641.996 78.7894   3
   8  -2 -13 686.053 58.1040   1
  -8   2  13 556.880 67.1273   1
   8  -2 -13 634.286 63.9529   2
  -8  -2  13 623.826 92.8319   1
   7   2 -13 1783.65 148.272   1
   7   2 -13 1535.76 98.3562   2
   7   2 -13 1583.52 124.968   3
  -7   2  13 1649.50 107.899   1
   7  -2 -13 1700.70 97.0170   1
   7  -2 -13 1760.75 113.332   2
  -7  -2  13 1618.18 143.860   1
   6  -2 -13 2562.21 129.967   1
   6   2 -13 2576.47 144.129   2
   6   2 -13 2470.55 159.009   3
  -6   2  13 2629.86 130.797   1
   6   2 -13 2581.93 180.524   1
  -6  -2  13 2793.20 183.658   1
   6  -2 -13 2481.43 141.442   2
   5   2 -13 818.616 88.3181   2
   5   2 -13 877.805 98.0176   3
   5   2 -13 805.598 108.178   1
  -5  -2  13 892.758 103.810   1
   5  -2 -13 825.778 78.3325   1
   5  -2 -13 789.897 85.5769   2
   4   2 -13 487.341 76.5009   2
   4  -2 -13 451.355 62.8396   1
   4   2 -13 525.720 79.4704   3
  -4  -2  13 477.386 60.0018   2
   4  -2 -13 411.311 64.5066   2
  -4  -2  13 495.593 77.1127   1
   4   2 -13 534.575 86.6910   1
   3  -2 -13 381.479 66.8615   2
   3  -2 -13 399.099 61.1567   1
   3   2 -13 373.943 71.6423   2
   3   2 -13 333.892 65.6335   3
   3   2 -13 328.045 63.7289   1
  -3  -2  13 401.922 59.4264   2
  -3  -2  13 343.918 61.5108   1
   2  -2 -13 72.9081 32.3849   2
   2   2 -13 102.390 42.0788   2
   2  -2 -13 42.6541 25.4831   1
   2   2 -13 71.6584 34.7972   3
   2   2 -13 81.9319 40.4631   1
  -2  -2  13 67.4771 27.9104   2
   1  -2 -13 1732.78 133.820   1
   1   2 -13 1695.56 159.189   1
   1   2 -13 1579.29 153.111   2
   1   2 -13 1568.95 143.368   3
  -1  -2  13 1534.66 123.255   2
   1  -2 -13 1569.00 142.370   2
   0  -2 -13-5.86625 24.5052   2
   0  -2 -13-17.5079 22.1943   1
   0   2 -13-60.2352 34.1270   1
   0   2 -13-1.01149 24.8565   2
   0   2 -13-14.8947 38.5254   3
   0  -2  13-5.15509 21.6107   2
  -1   2 -13 368.184 79.0731   1
  -1   2 -13 409.613 84.3514   2
  -1  -2 -13 567.852 92.8494   3
  -1   2 -13 413.387 81.3158   3
  -1  -2 -13 534.711 83.9200   1
   1  -2  13 455.429 75.8369   2
  -2  -2 -13 1987.18 173.409   3
  -2   2 -13 1813.82 169.506   3
  -2  -2 -13 1694.05 151.515   1
   2  -2  13 1782.01 151.912   2
  -3  -2 -13 592.287 99.2094   3
  -3   2 -13 562.518 100.206   3
   3  -2  13 517.706 84.8225   2
  -3  -2 -13 522.451 89.9704   1
  -4  -2 -13-2.99452 31.0455   3
  -4   2 -13-8.33715 34.1532   3
  -4  -2 -13 14.2263 26.2707   1
   4  -2  13 13.9169 24.5371   2
  -5  -2 -13 112.791 58.4517   3
  -5   2 -13 20.7998 33.6864   3
   5  -2  13 69.8893 36.8357   2
  -6  -2 -13 123.427 54.2724   3
  -6   2 -13 66.5110 42.4021   3
   6  -2  13 112.671 51.2036   2
  -7  -2 -13 234.416 71.6495   3
  -7   2 -13 343.614 90.8515   3
   7  -2  13 169.784 59.3283   2
  -8  -2 -13-49.4403 46.9634   3
  -8   2 -13 44.9344 38.6725   3
   8  -2  13-22.3055 20.4115   2
  -9  -2 -13 16.2546 35.0235   3
  -9   2 -13 49.4314 38.0816   3
   9  -2  13-24.3382 36.7557   2
 -10  -2 -13 73.9281 46.7460   3
 -10   2 -13 15.5399 37.3541   3
  10  -2  13 2.51355 35.9357   2
 -11  -2 -13 52.9333 62.3171   3
  11  -2  13 64.3022 46.0201   2
 -12  -2 -13-139.698 63.8196   3
 -13  -2 -13 60.0309 55.2794   3
 -14  -2 -13 50.1783 48.9405   3
 -24   3  13 228.222 73.0566   1
 -23   3  13-98.6652 47.6506   1
 -23  -3  13 11.6347 27.0870   1
 -22   3  13-12.2660 26.0329   1
 -22  -3  13-23.9436 30.7645   1
 -21   3  13-67.4345 39.1025   1
 -21  -3  13 20.6621 31.4180   1
 -20   3  13-46.4100 32.5964   1
 -20  -3  13 4.90179 34.6340   1
 -19   3  13 76.5856 36.3652   1
 -19  -3  13 83.2963 44.7414   1
 -18  -3  13 487.133 97.0707   1
 -18   3  13 452.353 78.6714   1
 -17  -3  13 323.629 76.8583   1
 -17   3  13 357.694 70.1733   1
 -16  -3  13 56.9532 58.9756   1
 -16   3  13 3.52068 20.9878   1
 -15  -3  13 490.441 92.3338   1
  15  -3 -13 473.155 49.8897   2
 -15   3  13 452.042 73.6042   1
  15   3 -13 408.624 45.2793   3
  14  -3 -13 2124.35 110.982   2
 -14  -3  13 2653.49 210.667   1
  14   3 -13 1982.80 105.981   3
 -14   3  13 2373.89 161.330   1
 -13  -3  13 1572.04 162.100   1
  13  -3 -13 1504.37 100.103   2
 -13   3  13 1550.27 127.392   1
  13   3 -13 1450.94 97.8170   3
  12   3 -13 356.330 52.6845   3
 -12  -3  13 381.770 81.8800   1
 -12   3  13 369.552 61.4437   1
  11   3 -13 78.5010 32.7175   1
  11   3 -13 35.4464 22.2484   3
 -11   3  13 63.5650 27.9772   1
 -11  -3  13 43.3181 26.2362   1
  10   3 -13 118.587 37.4347   1
 -10   3  13 113.731 33.0652   1
 -10  -3  13 116.674 44.6155   1
  10   3 -13 147.030 37.4728   3
  10  -3 -13 123.389 26.2641   2
  -9  -3  13 2343.90 181.947   1
   9   3 -13 2402.35 177.314   1
   9   3 -13 2251.08 139.757   3
   9  -3 -13 2195.26 119.696   2
  -9   3  13 2208.77 120.670   1
   8   3 -13 391.961 74.5370   1
  -8  -3  13 458.493 78.9415   1
   8   3 -13 493.018 70.0375   3
  -8   3  13 418.240 54.5166   1
   8  -3 -13 469.872 59.9553   2
   7   3 -13 3060.82 172.281   3
  -7   3  13 3033.34 125.161   1
   7  -3 -13 3170.34 157.412   2
  -7  -3  13 3168.22 206.185   1
   7   3 -13 3152.65 210.266   1
  -6  -3  13 136.651 47.5633   1
   6  -3 -13 67.0109 17.6375   1
   6   3 -13 58.1761 31.4808   1
   6   3 -13 72.2829 22.9016   3
   6   3 -13 102.145 30.3475   2
  -6  -3  13 100.144 25.7070   2
   6  -3 -13 80.2569 28.0895   2
  -5  -3  13 408.630 73.5581   1
   5  -3 -13 361.549 44.0121   1
   5   3 -13 369.945 75.2965   1
   5   3 -13 380.002 64.2331   2
   5   3 -13 398.809 65.0818   3
  -5  -3  13 369.951 49.7516   2
   5  -3 -13 350.785 58.4438   2
   4  -3 -13 2.53617 13.2672   1
   4   3 -13 33.7465 29.9525   2
   4   3 -13-5.12520 27.4295   3
  -4  -3  13 11.5280 16.2482   2
  -4  -3  13-0.33853 24.4020   1
   4  -3 -13-8.31356 16.2577   2
   4   3 -13-21.7482 32.4782   1
   3   3 -13 84.1266 46.2135   2
   3   3 -13 190.141 51.7351   3
   3   3 -13 39.9392 41.6665   1
  -3  -3  13 313.145 63.8075   1
   3  -3 -13 104.020 34.1425   1
  -3  -3  13 155.456 40.3458   2
   3  -3 -13 206.136 50.7236   2
   2  -3 -13 2454.36 140.144   1
   2   3 -13 2434.70 192.303   1
   2   3 -13 2393.30 184.882   2
   2   3 -13 2454.68 175.913   3
  -2  -3  13 2399.37 150.757   2
   2  -3 -13 2468.15 171.966   2
   1  -3 -13 133.186 45.4315   2
   1  -3 -13 138.544 47.3788   1
   1   3 -13 122.932 54.2265   2
   1   3 -13 90.7857 40.8600   1
   1   3 -13 76.9965 39.2044   3
  -1  -3  13 177.443 46.0593   2
   0  -3 -13 94.8991 39.0170   2
   0  -3 -13 176.342 45.8473   1
   0   3 -13 187.321 55.6328   1
   0   3 -13 178.662 58.8891   2
   0   3 -13 167.796 58.1874   3
   0  -3  13 167.618 52.1742   2
  -1  -3 -13 84.7378 33.1250   1
  -1   3 -13 73.2977 39.7059   2
  -1   3 -13 68.0336 42.4823   3
   1  -3  13 72.7864 33.6692   2
  -2   3 -13 721.173 108.379   3
  -2  -3 -13 682.059 93.0618   1
   2  -3  13 583.847 92.9767   2
  -3  -3 -13 1681.53 164.221   3
  -3   3 -13 1567.28 164.335   3
  -3  -3 -13 1551.24 147.890   1
   3  -3  13 1626.02 156.985   2
  -4  -3 -13 120.749 49.1270   3
  -4   3 -13 132.540 53.1247   3
  -4  -3 -13 124.430 52.3381   1
   4  -3  13 103.979 44.1523   2
  -5  -3 -13 52.9511 40.7273   3
  -5   3 -13-18.3068 37.3797   3
  -5  -3 -13 35.3890 19.3216   1
   5  -3  13 19.4895 25.7810   2
  -6  -3 -13 44.5924 44.3904   3
  -6   3 -13 31.3623 44.1052   3
   6  -3  13 50.1620 28.3048   2
  -7  -3 -13 31.7061 27.7083   3
  -7   3 -13 157.864 59.0400   3
   7  -3  13 68.7233 42.8126   2
  -8  -3 -13-36.1260 40.0090   3
  -8   3 -13 47.4610 45.9478   3
   8  -3  13 5.41335 35.3964   2
  -9  -3 -13-8.94237 38.8405   3
  -9   3 -13 103.346 59.9018   3
   9  -3  13 119.610 48.3105   2
 -10  -3 -13 308.798 87.7000   3
  10  -3  13 165.089 60.6651   2
 -11  -3 -13 79.0720 54.3455   3
  11  -3  13 178.210 64.4887   2
 -12  -3 -13 193.300 72.2055   3
 -13  -3 -13 79.2965 55.2189   3
 -14  -3 -13 123.177 67.7744   3
 -22   4  13 11.3641 23.8249   1
 -22  -4  13 1.31610 19.8630   1
 -21   4  13 20.8738 26.4855   1
 -21  -4  13-50.8435 42.5186   1
 -20   4  13 216.346 56.0904   1
 -20  -4  13 235.113 73.6686   1
 -19   4  13-30.2400 32.2094   1
 -19  -4  13 3.78811 22.1998   1
 -18   4  13 8.10743 25.1386   1
 -18  -4  13 50.6918 34.8643   1
 -17  -4  13 91.3901 46.3722   1
 -17   4  13 58.4827 26.5120   1
 -16  -4  13 247.256 71.6032   1
  16  -4 -13 148.938 38.3980   2
 -16   4  13 139.560 44.6880   1
  15  -4 -13 804.168 81.4391   2
 -15  -4  13 1019.39 137.239   1
 -15   4  13 987.572 103.257   1
 -14   4  13 133.869 40.6791   1
  14  -4 -13 151.493 38.2064   2
  14   4 -13 131.165 28.2117   3
 -14  -4  13 90.8042 44.5063   1
 -13   4  13 681.237 79.0584   1
  13   4 -13 553.391 57.7563   3
 -13  -4  13 634.809 106.102   1
  12   4 -13 165.258 35.8530   3
 -12  -4  13 172.830 53.0319   1
 -12   4  13 115.331 31.2958   1
 -11   4  13 62.2743 14.8369   1
 -11  -4  13 53.0896 29.3603   1
  11   4 -13 3.57144 15.6285   3
 -10  -4  13 3646.60 242.215   1
  10   4 -13 3599.10 171.336   3
 -10   4  13 3729.14 145.665   1
  -9  -4  13 2128.07 180.113   1
   9   4 -13 2041.00 134.268   3
  -9   4  13 2009.95 97.3672   1
   8   4 -13 3.73620 23.9128   1
  -8  -4  13-3.47222 29.7461   1
   8   4 -13 16.6542 22.9351   3
  -8   4  13 6.71940 12.8962   1
   8  -4 -13 6.53460 14.1579   2
  -8  -4  13 5.42546 9.08344   2
  -7  -4  13 10.3474 31.6545   1
   7   4 -13 38.3722 28.3428   3
   7   4 -13-12.0736 26.0596   1
   7  -4 -13 28.0413 21.6385   2
  -7  -4  13 27.8436 14.9363   2
  -6  -4  13 211.692 60.4648   1
   6   4 -13 121.535 47.7540   1
   6   4 -13 222.342 53.6287   3
   6  -4 -13 193.767 50.7188   2
  -6  -4  13 154.641 33.1720   2
   5   4 -13 2878.27 180.256   3
   5   4 -13 2898.65 214.229   1
  -5  -4  13 2888.61 201.514   1
   5  -4 -13 3097.70 176.592   2
   5  -4 -13 2859.55 85.1461   1
  -5  -4  13 2804.55 142.588   2
   4  -4 -13 1602.61 79.2848   1
   4   4 -13 1696.76 163.153   1
   4   4 -13 1740.20 148.036   2
   4   4 -13 1682.03 143.381   3
  -4  -4  13 1667.60 150.705   1
   4  -4 -13 1645.55 133.212   2
  -4  -4  13 1594.88 116.616   2
   3  -4 -13 448.703 49.3471   1
   3   4 -13 434.146 79.6736   2
   3   4 -13 523.967 86.2615   3
   3  -4 -13 471.643 76.9800   2
   3   4 -13 335.264 76.0115   1
  -3  -4  13 422.621 77.2939   1
  -3  -4  13 471.523 68.8265   2
  -2  -4  13 476.409 70.9082   2
   2  -4 -13 416.414 52.9607   1
   2   4 -13 428.061 81.9050   2
   2   4 -13 483.338 83.7877   3
  -2  -4  13 453.570 78.7450   1
   2  -4 -13 421.780 72.7506   2
   1  -4 -13 377.769 57.0443   1
   1   4 -13 457.441 92.5475   2
   1   4 -13 571.777 96.6142   3
  -1  -4  13 519.699 78.8369   2
   1  -4 -13 508.738 83.4949   2
   0  -4  13 457.113 79.4809   2
   0   4 -13 381.637 87.4472   2
   0   4 -13 431.915 86.8764   3
   0  -4 -13 393.421 64.0061   1
   1  -4  13 72.9553 36.1892   2
  -1  -4 -13 46.5668 22.4973   1
  -1   4 -13 29.0155 31.4751   2
  -1   4 -13 99.7980 48.0629   3
   2  -4  13 14.9655 27.7387   2
  -2   4 -13 14.7772 29.2067   3
  -2  -4 -13-12.5374 15.0789   1
   3  -4  13 70.0633 38.2051   2
  -3   4 -13 102.297 45.9482   3
  -3  -4 -13 47.7754 29.6140   1
   4  -4  13 380.973 83.1310   2
  -4  -4 -13 417.209 85.3772   3
  -4   4 -13 310.943 78.8815   3
  -4  -4 -13 352.842 72.2629   1
   5  -4  13 157.354 52.5720   2
  -5  -4 -13 242.641 74.0503   3
  -5   4 -13 126.228 58.8199   3
  -5  -4 -13 175.835 56.6004   1
  -6  -4 -13 2309.73 210.196   3
  -6   4 -13 2408.18 230.227   3
   6  -4  13 2047.91 195.553   2
  -7  -4 -13 67.0416 48.6761   3
  -7   4 -13-6.82976 33.3798   3
   7  -4  13 29.9326 31.5000   2
  -8  -4 -13 144.774 62.8852   3
   8  -4  13 122.416 49.5933   2
  -9  -4 -13 23.3911 35.4580   3
   9  -4  13 80.4384 46.6147   2
 -10  -4 -13 299.941 86.7830   3
  10  -4  13 440.174 103.010   2
 -11  -4 -13 215.881 74.6228   3
  11  -4  13 243.922 78.0197   2
 -12  -4 -13 7.40801 25.8465   3
 -13  -4 -13 181.676 81.3077   3
 -21  -5  13 230.645 79.5725   1
 -20  -5  13-32.2712 35.5789   1
 -20   5  13-61.1208 33.5754   1
 -19   5  13-16.6764 20.5341   1
 -19  -5  13 40.4033 34.9990   1
 -18   5  13 211.956 51.6403   1
 -18  -5  13 215.329 70.9411   1
 -17  -5  13 431.722 95.8858   1
 -17   5  13 385.452 67.5485   1
 -16  -5  13-18.9165 29.8889   1
  16  -5 -13 9.73322 25.4195   2
 -16   5  13 41.4179 28.9614   1
 -15   5  13 5.43526 17.8910   1
  15  -5 -13 3.71471 16.6490   2
 -15  -5  13 45.9339 31.8018   1
 -14   5  13 96.9883 32.8709   1
  14  -5 -13 68.2533 32.0855   2
 -14  -5  13 33.3573 37.7176   1
 -13  -5  13 981.018 134.062   1
 -13   5  13 1055.54 90.1169   1
 -12  -5  13 1604.78 168.599   1
 -12   5  13 1806.13 107.781   1
  12   5 -13 1852.17 113.756   3
 -11   5  13-1.03069 14.1713   1
 -11  -5  13 50.2012 31.2936   1
  11   5 -13 43.9397 30.2118   3
 -10  -5  13 822.460 119.874   1
  10   5 -13 806.017 84.9438   3
 -10   5  13 681.444 48.1707   1
  -9  -5  13 19.1996 26.1942   1
   9   5 -13-12.3548 20.9434   3
  -9  -5  13 21.7640 8.76416   2
  -8  -5  13 392.783 82.2857   1
   8   5 -13 407.446 65.7052   3
  -8  -5  13 403.602 42.6030   2
   7   5 -13 2069.98 148.047   3
  -7  -5  13 2100.92 110.723   2
  -7  -5  13 2194.47 186.724   1
   6   5 -13 947.804 103.519   3
   6  -5 -13 1081.56 107.164   2
  -6  -5  13 1118.34 134.039   1
  -6  -5  13 1058.33 87.4016   2
   5   5 -13 782.277 98.2009   3
  -5  -5  13 845.417 113.467   1
   5  -5 -13 769.443 93.2720   2
  -5  -5  13 790.696 81.0146   2
   4   5 -13 992.798 112.538   3
  -4  -5  13 968.495 122.764   1
   4  -5 -13 966.075 108.852   2
  -4  -5  13 992.541 98.0028   2
  -3  -5  13 171.156 46.5732   2
   3  -5 -13 73.6194 14.5526   1
   3   5 -13 115.154 38.8646   3
   3  -5 -13 143.845 48.8182   2
  -3  -5  13 177.646 50.6344   1
   2  -5 -13 568.096 51.1056   1
   2   5 -13 530.596 95.6878   2
  -2  -5  13 686.043 101.644   1
   2   5 -13 586.999 92.0603   3
   2  -5 -13 721.522 97.9231   2
  -2  -5  13 635.363 87.1915   2
  -1  -5  13 34.6934 20.8524   2
   1  -5 -13 78.3127 21.9754   1
   1   5 -13 40.9432 32.1293   2
   1   5 -13 122.914 53.0456   3
   0  -5  13 58.5776 31.2656   2
   0  -5 -13 54.8328 27.3739   1
   0   5 -13 35.2309 33.8421   2
   0   5 -13 81.5206 31.8754   3
   1  -5  13 647.832 97.0854   2
  -1   5 -13 752.806 118.132   3
  -1  -5 -13 727.043 81.0530   1
  -2   5 -13 934.492 131.285   3
  -2  -5 -13 887.529 97.3588   1
   2  -5  13 905.732 120.437   2
   3  -5  13 228.305 65.7792   2
  -3   5 -13 166.899 47.7775   3
  -3  -5 -13 243.374 55.3837   1
   4  -5  13 157.470 62.1168   2
  -4   5 -13 174.266 65.3511   3
  -4  -5 -13 126.493 42.7263   1
   5  -5  13 88.4098 46.4486   2
  -5  -5 -13 112.011 52.0882   3
  -5   5 -13 127.654 59.8616   3
   6  -5  13 23.2194 30.7045   2
  -6  -5 -13 49.1455 45.9747   3
  -7  -5 -13 1150.37 153.711   3
   7  -5  13 943.294 138.886   2
   8  -5  13 64.1990 42.4150   2
  -8  -5 -13 95.3858 59.3029   3
   9  -5  13 242.654 72.3293   2
  -9  -5 -13 202.958 69.9156   3
 -10  -5 -13 37.2274 45.4625   3
  10  -5  13 6.34817 20.3924   2
 -11  -5 -13-79.1438 51.2280   3
  11  -5  13-31.2922 38.3126   2
 -12  -5 -13 23.9245 40.6243   3
 -13  -5 -13-38.1932 40.0856   3
 -20  -6  13-31.9541 37.0823   1
 -19  -6  13 184.805 69.2441   1
 -18  -6  13 169.422 64.5695   1
 -17  -6  13 60.4767 42.5150   1
 -17   6  13 47.2011 23.1886   1
 -16  -6  13-14.6825 25.8650   1
  16  -6 -13 41.3130 24.7570   2
 -16   6  13 11.1242 14.6158   1
 -15   6  13 27.6571 23.9245   1
  15  -6 -13-23.2135 22.0235   2
 -15  -6  13-5.20668 34.7718   1
 -14   6  13-4.47369 10.7878   1
  14  -6 -13 10.8824 20.3711   2
 -14  -6  13-6.52607 29.5059   1
 -13  -6  13 1653.97 180.824   1
 -13   6  13 1793.77 104.765   1
 -12   6  13 499.598 46.9941   1
 -12  -6  13 578.882 108.821   1
 -11  -6  13 1006.58 137.485   1
 -10  -6  13 906.044 129.049   1
 -10  -6  13 917.189 46.5951   2
  -9  -6  13 15.1522 11.0480   2
  -9  -6  13 34.1816 37.8815   1
  -8  -6  13 222.639 37.6248   2
  -8  -6  13 280.612 71.5139   1
  -7  -6  13 36.8469 21.5662   2
  -7  -6  13-10.4646 26.5450   1
   7   6 -13 23.9626 29.7952   3
   6   6 -13 1557.08 139.093   3
  -6  -6  13 1735.17 169.414   1
  -6  -6  13 1725.52 123.096   2
   5   6 -13 806.418 102.740   3
  -5  -6  13 687.447 108.810   1
  -5  -6  13 891.324 94.3129   2
   4   6 -13 497.304 86.7341   3
   4  -6 -13 344.846 68.6989   2
  -4  -6  13 472.652 75.2798   2
  -4  -6  13 495.898 101.201   1
  -3  -6  13 434.443 73.5890   2
   3   6 -13 406.534 79.1633   3
  -3  -6  13 379.740 80.6811   1
  -2  -6  13 10.0018 19.5545   2
   2   6 -13 22.5708 30.9728   3
  -2  -6  13 74.5343 47.3167   1
  -1  -6  13-21.3513 31.3634   2
   1  -6 -13-14.2695 13.6474   1
   1   6 -13 17.9351 31.7565   3
   0  -6  13 97.4899 46.2548   2
   0  -6 -13 40.1134 20.0535   1
   0   6 -13 100.163 48.9741   3
  -1  -6 -13 2.87187 13.6587   1
   1  -6  13 116.666 46.6811   2
   2  -6  13 553.931 96.2339   2
  -2  -6 -13 506.919 69.9350   1
   3  -6  13 93.6170 46.9848   2
  -3  -6 -13 56.6987 31.3551   1
   4  -6  13 601.916 111.178   2
   5  -6  13-11.8507 42.1421   2
   6  -6  13 74.4103 40.8392   2
  -6  -6 -13 78.3277 46.1980   3
   7  -6  13-44.5364 37.0844   2
  -7  -6 -13 13.3309 33.8705   3
   8  -6  13-19.8014 41.5611   2
  -8  -6 -13 38.1071 34.3970   3
   9  -6  13 219.009 75.6216   2
  -9  -6 -13 204.101 69.3952   3
  10  -6  13 32.7236 38.1623   2
 -10  -6 -13 14.7762 31.8823   3
 -11  -6 -13-58.8541 44.3695   3
 -12  -6 -13-27.2160 34.0274   3
 -13  -6 -13 97.3890 59.0746   3
 -20  -7  13 119.216 65.4203   1
 -19  -7  13-5.48054 28.3591   1
 -18  -7  13 62.6502 37.9513   1
 -17  -7  13 471.196 106.489   1
  16  -7 -13 12.3537 24.9991   2
 -16  -7  13 50.3326 36.9549   1
  15  -7 -13 60.4139 31.9616   2
 -15  -7  13 128.934 54.6920   1
 -14  -7  13-11.1213 42.0259   1
 -13   7  13 230.594 31.7921   1
 -13  -7  13 352.803 90.8781   1
 -12  -7  13 81.3210 48.8426   1
 -11  -7  13 30.3907 10.1984   2
 -11  -7  13 135.743 54.0516   1
 -10  -7  13 280.409 74.3681   1
 -10  -7  13 282.977 38.2098   2
  -9  -7  13 586.945 62.2781   2
  -9  -7  13 543.332 103.565   1
  -8  -7  13 694.844 74.3178   2
  -8  -7  13 941.326 132.236   1
  -7  -7  13 115.573 38.1485   2
  -7  -7  13-6.56504 41.7074   1
  -6  -7  13 149.334 51.2554   1
  -6  -7  13 259.738 54.0467   2
  -5  -7  13 208.413 59.5453   1
  -5  -7  13 190.539 49.3201   2
  -4  -7  13 110.600 40.0299   2
  -4  -7  13 128.090 46.7791   1
  -3  -7  13 1569.14 146.036   2
  -3  -7  13 1618.25 165.194   1
  -2  -7  13 1447.77 145.269   2
  -2  -7  13 1491.72 160.940   1
  -1  -7  13 717.577 105.594   2
  -1  -7  13 737.533 114.360   1
   0  -7  13 4.58906 24.2630   2
   0  -7 -13 2.84320 7.21283   1
   1  -7  13 621.906 102.768   2
  -1  -7 -13 612.012 50.7740   1
  -1  -7 -13 383.752 50.0054   1
   2  -7  13 402.389 89.7115   2
   3  -7  13 127.771 57.1544   2
   4  -7  13 191.448 69.0572   2
   5  -7  13 98.0433 47.0564   2
   6  -7  13 182.220 65.8074   2
   7  -7  13 41.7371 33.8546   2
  -7  -7 -13 26.4241 43.4806   3
   8  -7  13 44.3353 44.1730   2
  -8  -7 -13 36.7892 31.2709   3
   9  -7  13 59.7934 42.5865   2
  -9  -7 -13 148.064 62.9508   3
  10  -7  13 20.9901 32.3999   2
 -10  -7 -13 62.6621 50.3729   3
 -11  -7 -13 34.8687 47.5289   3
 -12  -7 -13-2.18815 23.7150   3
 -19  -8  13-6.76241 28.9364   1
 -18  -8  13 94.2779 50.5923   1
 -17  -8  13-2.00693 37.2315   1
  16  -8 -13-70.0409 38.3327   2
 -16  -8  13-5.86973 29.1610   1
  15  -8 -13-66.3005 36.8609   2
 -15  -8  13-10.9087 27.4858   1
 -14  -8  13 307.355 86.8481   1
 -13  -8  13 48.6615 31.7594   1
 -12  -8  13 357.001 90.8858   1
 -11  -8  13 94.2503 24.4163   2
 -11  -8  13 38.4261 36.7397   1
 -10  -8  13 28.3074 20.4441   2
 -10  -8  13 107.469 53.4996   1
  -9  -8  13 700.472 78.1514   2
  -9  -8  13 617.394 113.477   1
  -8  -8  13 647.601 80.2362   2
  -8  -8  13 753.088 121.772   1
  -7  -8  13 528.082 76.5228   2
  -7  -8  13 575.768 106.436   1
  -6  -8  13-47.0586 52.5051   1
  -6  -8  13 13.1213 22.9388   2
  -5  -8  13 212.965 63.1188   1
  -5  -8  13 299.413 63.2505   2
  -4  -8  13-10.9522 31.5667   2
  -4  -8  13 1.63943 28.0436   1
  -3  -8  13 7.76323 22.8931   2
  -3  -8  13 21.8441 39.5589   1
  -2  -8  13 649.868 105.339   2
  -2  -8  13 693.330 112.737   1
  -1  -8  13 280.810 72.6756   2
  -1  -8  13 297.287 71.1638   1
   0  -8  13 6.24985 25.9056   2
   1  -8  13 41.7333 32.2917   2
   2  -8  13 34.2557 29.9098   2
  -2  -8 -13 64.2827 21.9471   1
   3  -8  13 63.2036 37.4846   2
  -3  -8 -13 42.2010 18.5194   1
   4  -8  13-6.38046 23.4541   2
   5  -8  13 85.8614 48.0779   2
   6  -8  13 64.7614 50.5429   2
   7  -8  13 216.847 76.3666   2
   8  -8  13 14.7831 36.8505   2
  -8  -8 -13 55.6428 44.8879   3
   9  -8  13-16.0972 39.3067   2
  -9  -8 -13-48.4244 41.1164   3
 -10  -8 -13 129.649 63.0497   3
 -11  -8 -13-12.6017 29.4376   3
 -12  -8 -13-50.4878 42.2586   3
 -17  -9  13-86.9770 55.1222   1
  16  -9 -13-12.1194 23.9636   2
 -16  -9  13 21.5535 46.6884   1
  15  -9 -13 185.375 58.8914   2
 -15  -9  13 106.321 53.6935   1
 -14  -9  13 31.4903 31.2186   1
 -13  -9  13 488.136 108.779   1
 -12  -9  13 124.845 60.0287   1
 -11  -9  13-11.2197 23.2238   2
 -11  -9  13 62.6378 50.8414   1
 -10  -9  13 427.242 64.7506   2
 -10  -9  13 326.110 83.8227   1
  -9  -9  13 39.1700 39.0071   1
  -9  -9  13 42.1698 25.8600   2
  -8  -9  13 260.367 82.1742   1
  -8  -9  13 269.907 57.0046   2
  -7  -9  13 248.426 71.0179   1
  -7  -9  13 303.276 64.5105   2
  -6  -9  13 15.4623 30.5506   1
  -6  -9  13 38.0142 25.3072   2
  -5  -9  13-59.3438 44.7154   1
  -5  -9  13-12.5786 27.2956   2
  -4  -9  13 404.317 80.9333   2
  -4  -9  13 402.542 92.0586   1
  -3  -9  13 263.720 66.6643   2
  -3  -9  13 316.078 74.0954   1
  -2  -9  13 95.3794 46.7179   2
  -2  -9  13 49.7819 39.7453   1
  -1  -9  13 20.9773 21.6399   2
  -1  -9  13 64.1218 42.9010   1
   0  -9  13 3675.06 265.779   2
   1  -9  13 440.950 94.7353   2
   2  -9  13 24.9949 36.0655   2
   3  -9  13 137.424 58.3175   2
   4  -9  13 177.875 67.2719   2
   5  -9  13 3.64633 29.7898   2
   6  -9  13-7.81858 33.0320   2
   7  -9  13 101.139 56.0456   2
   8  -9  13 73.0196 44.4489   2
  -8  -9 -13-85.6055 51.3891   3
  -9  -9 -13 49.0247 50.4951   3
 -10  -9 -13 46.1447 44.8797   3
 -11  -9 -13 43.6259 41.5723   3
  16 -10 -13-44.4472 37.8097   2
 -16 -10  13-8.70639 37.4942   1
 -15 -10  13 191.455 75.4938   1
  15 -10 -13 89.1976 46.0630   2
 -14 -10  13 46.6728 36.2924   1
 -13 -10  13 52.2298 46.0195   1
 -12 -10  13-14.2219 37.1301   1
 -11 -10  13 454.991 103.410   1
 -10 -10  13 67.5849 38.7411   1
 -10 -10  13 94.0747 39.6035   2
  -9 -10  13 78.0940 57.1121   1
  -9 -10  13 249.146 58.1250   2
  -8 -10  13 165.275 62.1266   1
  -8 -10  13 115.679 42.5916   2
  -7 -10  13 26.5313 32.9106   1
  -7 -10  13 10.1010 19.3858   2
  -6 -10  13 9.19848 23.4093   1
  -6 -10  13 23.3453 27.7827   2
  -5 -10  13-46.9152 30.4575   1
  -5 -10  13-46.0469 38.1521   2
  -4 -10  13 0.30881 19.7375   2
  -4 -10  13 9.68918 26.9443   1
  -3 -10  13 309.981 74.9983   2
  -3 -10  13 249.901 79.6269   1
  -2 -10  13 105.106 54.4727   2
  -2 -10  13 96.5312 44.5039   1
  -1 -10  13 1195.63 153.960   2
  -1 -10  13 1293.06 161.509   1
   0 -10  13 53.0771 41.6171   2
   1 -10  13 217.296 71.7039   2
   2 -10  13 19.7384 31.9026   2
   3 -10  13 107.290 52.1273   2
   4 -10  13-49.9128 41.8399   2
   5 -10  13 54.4428 36.9126   2
   6 -10  13-56.1640 43.5473   2
   7 -10  13 81.6583 47.3628   2
  -9 -10 -13-61.8934 46.9162   3
 -10 -10 -13 2.08124 33.5052   3
  16 -11 -13-19.2266 30.5963   2
 -14 -11  13 26.7516 41.0222   1
 -13 -11  13 29.3842 36.6276   1
 -12 -11  13-25.3014 39.0856   1
 -11 -11  13 65.8482 49.7128   1
 -10 -11  13 101.018 64.1308   1
  -9 -11  13 127.315 63.2631   1
  -9 -11  13 150.903 49.2507   2
  -8 -11  13-4.80697 26.5513   1
  -8 -11  13 5.48446 24.4937   2
  -7 -11  13 89.4191 53.8950   1
  -7 -11  13 108.710 47.1125   2
  -6 -11  13 21.4338 31.3756   1
  -6 -11  13 60.7605 39.3955   2
  -5 -11  13 60.5494 48.1161   1
  -5 -11  13 78.0893 34.1650   2
  -4 -11  13 271.300 72.7138   2
  -4 -11  13 353.461 88.0179   1
  -3 -11  13 15.3347 30.7130   2
  -3 -11  13 21.1677 27.8322   1
  -2 -11  13 117.675 57.0549   2
  -2 -11  13 194.891 72.5168   1
  -1 -11  13-86.0527 48.6495   2
  -1 -11  13 64.6432 53.6863   1
   0 -11  13 579.678 113.757   2
   1 -11  13 298.012 83.2659   2
   2 -11  13-0.21886 29.5893   2
   3 -11  13 34.5256 31.5383   2
   4 -11  13-51.8250 41.9904   2
   5 -11  13-15.7005 32.7186   2
   6 -11  13 22.3605 36.1313   2
  16 -12 -13 99.1913 51.0461   2
 -12 -12  13 19.3407 35.3740   1
 -11 -12  13 38.8840 40.8264   1
 -10 -12  13 221.228 75.1496   1
  -9 -12  13 139.793 58.9633   1
  -8 -12  13-51.2284 51.5106   1
  -8 -12  13 51.3573 33.5528   2
  -7 -12  13-3.28984 28.7525   1
  -7 -12  13 91.0182 43.9889   2
  -6 -12  13 134.783 57.1400   1
  -6 -12  13 311.052 76.2549   2
  -5 -12  13-21.4837 31.6986   2
  -5 -12  13 41.8396 44.1754   1
  -4 -12  13 12.6797 25.9328   2
  -4 -12  13 26.1484 29.8379   1
  -3 -12  13 1.91161 26.8435   2
  -3 -12  13-0.41631 25.7166   1
  -2 -12  13 28.3007 33.7677   2
  -2 -12  13 44.1457 41.8117   1
  -1 -12  13-9.29026 32.8940   2
  -1 -12  13-11.4955 25.8345   1
   0 -12  13 17.1823 31.7456   2
   1 -12  13 126.844 61.0044   2
   2 -12  13-50.7518 42.2714   2
   3 -12  13-7.23962 31.3673   2
   4 -12  13-2.24822 21.7700   2
   5 -12  13 74.6876 65.7888   2
  -9 -13  13-0.23862 31.5927   1
  -8 -13  13-85.4755 51.7647   1
  -7 -13  13 50.1274 45.9449   1
  -7 -13  13 11.0735 24.3780   2
  -6 -13  13-49.9032 42.6535   1
  -6 -13  13 42.7788 37.5026   2
  -5 -13  13 83.0958 45.2115   2
  -5 -13  13 48.2281 45.1293   1
  -4 -13  13-48.5934 39.6324   2
  -4 -13  13-82.8529 50.9100   1
  -3 -13  13-82.6289 47.9984   2
  -3 -13  13 115.024 61.2791   1
  -2 -13  13 80.0674 46.5754   2
  -2 -13  13 126.381 58.9447   1
  -1 -13  13-25.9529 44.5725   2
   0 -13  13 0.22904 32.0701   2
   1 -13  13 32.0744 37.7752   2
   2 -13  13 94.5385 47.5558   2
   3 -13  13-21.4223 30.1540   2
  -6 -14  13-5.89943 19.8408   2
  -5 -14  13-56.8940 40.2193   2
  -4 -14  13 26.1303 37.0244   2
  -3 -14  13 71.7846 28.1742   2
  -2 -14  13-15.3497 29.1994   2
  -1 -14  13 71.9642 29.8650   2
   0 -14  13 10.2274 27.3722   2
   1 -14  13 66.1953 47.9205   2
   2 -14  13 14.8195 32.2878   2
  -4 -15  13 61.5044 44.5547   2
  -3 -15  13-48.2890 40.1363   2
  -2 -15  13 122.016 62.0595   2
  -1 -15  13 48.6004 41.0100   2
   0 -15  13-3.88594 22.9799   2
 -24   0  14 101.676 51.2462   1
 -23   0  14-45.4121 35.3491   1
 -22   0  14-25.1105 30.2857   1
 -21   0  14 511.179 101.240   1
 -20   0  14 29.6849 30.5852   1
 -19   0  14 176.320 60.3455   1
 -18   0  14 199.784 58.3410   1
 -17   0  14 501.730 92.0436   1
 -16   0  14 237.261 63.5567   1
 -15   0  14 798.203 110.957   1
 -14   0  14 449.190 82.8868   1
 -13   0  14 18.3312 22.0125   1
 -12   0  14 9015.11 343.441   1
 -11   0  14 423.056 74.7682   1
 -10   0  14 61.4960 33.9302   1
  10   0 -14 35.9037 19.7031   1
  -9   0  14-3.96549 24.9230   1
   9   0 -14-11.2721 12.0319   2
   9   0 -14-10.5890 16.6914   1
   8   0 -14 7636.19 216.487   2
   8   0 -14 8649.92 289.583   1
  -8   0  14 7987.58 291.190   1
  -7   0  14 31.4402 23.6172   1
   7   0 -14-2.66796 22.8894   1
   7   0 -14 63.4837 23.1558   2
   6   0 -14 1922.61 131.010   2
  -6   0  14 1878.66 137.537   1
   6   0 -14 1921.73 144.985   1
   5   0 -14 1243.13 111.955   2
   5   0 -14 1243.50 121.188   1
  -5   0  14 1216.43 111.683   1
   4   0 -14 312.907 63.1794   1
   4   0 -14 267.143 55.2157   2
   4   0 -14 267.795 64.1782   3
   3   0 -14 44.7239 30.0660   2
   3   0 -14 66.8572 37.9970   3
   3   0 -14 16.2793 20.2671   1
   2   0 -14 3279.70 212.025   2
   2   0 -14 3439.47 214.805   1
   2   0 -14 3874.89 228.094   3
   1   0 -14 608.953 94.0037   1
   1   0 -14 430.408 82.2204   2
   1   0 -14 713.965 104.643   3
   0   0 -14 2432.24 197.989   2
   0   0 -14 2941.48 210.194   3
   0   0 -14 2593.38 196.371   1
  -1   0 -14 1375.62 148.546   3
  -1   0 -14 1158.70 134.797   1
  -2   0 -14 3967.85 256.607   3
   2   0  14 3745.81 219.558   2
  -2   0 -14 3634.79 245.784   1
  -3   0 -14 2118.37 194.457   3
   3   0  14 1916.21 165.006   2
  -4   0 -14 43.2808 26.8499   3
   4   0  14 23.0722 31.6533   2
  -5   0 -14 920.089 132.853   3
   5   0  14 993.253 127.126   2
  -6   0 -14 1805.23 191.521   3
   6   0  14 1362.11 153.152   2
  -7   0 -14 183.510 72.3570   3
   7   0  14 158.687 52.9633   2
  -8   0 -14 284.966 89.2843   3
   8   0  14 381.495 85.1616   2
  -9   0 -14-12.5522 40.3809   3
   9   0  14 102.433 50.1876   2
 -10   0 -14 57.6660 44.7775   3
  10   0  14 59.7963 46.7703   2
 -11   0 -14 79.8633 54.8632   3
  11   0  14 49.9309 35.5161   2
 -12   0 -14 95.0878 59.4411   3
 -24   1  14-4.52680 21.1933   1
 -23  -1  14 19.9430 34.3488   1
 -23   1  14 44.3218 33.8429   1
 -22  -1  14 148.226 59.1025   1
 -22   1  14 85.3747 46.6408   1
 -21  -1  14-22.6394 29.7190   1
 -21   1  14 34.0943 33.7658   1
 -20  -1  14 166.967 60.4810   1
 -20   1  14 198.802 62.1069   1
 -19  -1  14-0.84076 25.3352   1
 -19   1  14 60.8118 45.0071   1
 -18  -1  14 486.696 93.7962   1
 -18   1  14 319.197 71.7464   1
 -17  -1  14-10.0628 21.3803   1
 -17   1  14-2.46813 18.4160   1
 -16  -1  14 243.378 66.4458   1
 -16   1  14 285.154 70.1675   1
 -15  -1  14 2505.81 200.972   1
 -15   1  14 2716.84 196.014   1
 -14  -1  14 2667.69 203.627   1
 -14   1  14 2531.30 186.399   1
 -13  -1  14 373.290 78.2202   1
 -13   1  14 239.847 56.2118   1
 -12   1  14 168.890 47.2462   1
 -12  -1  14 165.830 48.0191   1
  11   1 -14 365.258 59.1039   1
 -11   1  14 273.829 55.9201   1
 -11  -1  14 351.429 71.1054   1
  10  -1 -14 400.779 41.2139   2
 -10   1  14 515.228 76.3633   1
 -10  -1  14 538.636 86.2064   1
  10   1 -14 503.759 70.9386   1
   9   1 -14 357.124 60.9128   1
   9  -1 -14 262.409 38.5353   2
  -9   1  14 299.185 56.1427   1
   9  -1 -14 352.724 50.0592   1
  -9  -1  14 338.095 67.6558   1
   9   1 -14 307.445 32.1223   2
   8   1 -14 567.785 81.9900   1
   8   1 -14 421.894 49.1563   2
   8   1 -14 489.607 73.9313   3
   8  -1 -14 483.636 61.3565   1
  -8   1  14 450.898 66.1400   1
  -8  -1  14 554.057 82.0587   1
   8  -1 -14 447.656 56.0546   2
   7   1 -14 682.530 92.3847   1
   7   1 -14 623.671 69.0843   2
   7  -1 -14 668.537 76.8358   1
   7   1 -14 700.314 89.5257   3
  -7   1  14 686.344 80.4918   1
  -7  -1  14 683.994 89.3261   1
   7  -1 -14 715.453 75.2714   2
   6  -1 -14 14.6335 17.5337   2
   6   1 -14 22.1092 16.0974   2
   6   1 -14 15.4521 21.2126   1
   6   1 -14 0.81743 21.5729   3
   6  -1 -14-17.7963 26.8970   1
  -6   1  14 13.1781 17.6618   1
  -6  -1  14 5.23686 21.3986   1
   5   1 -14 1713.43 132.968   2
   5   1 -14 1876.42 149.157   3
   5   1 -14 2082.03 163.825   1
   5  -1 -14 2058.64 142.996   1
  -5  -1  14 1844.87 143.660   1
   5  -1 -14 1685.80 129.836   2
   4  -1 -14 326.997 60.0290   1
   4  -1 -14 360.415 64.4065   2
   4   1 -14 244.065 54.1148   2
   4   1 -14 281.097 62.7897   3
  -4  -1  14 279.869 58.6554   1
   4   1 -14 227.714 59.7752   1
   3  -1 -14 265.673 55.6418   2
   3   1 -14 307.614 62.4455   2
   3   1 -14 283.264 63.2733   3
   3   1 -14 285.322 63.3781   1
   3  -1 -14 264.746 57.8582   1
   2  -1 -14 0.60688 21.0701   2
   2   1 -14-32.3616 25.4601   2
   2  -1 -14-2.56795 32.2193   3
   2   1 -14-28.8128 33.1610   3
   2  -1 -14-6.58807 23.7755   1
   2   1 -14 36.0124 33.2796   1
  -2  -1  14-22.7113 24.0705   2
   1  -1 -14 1531.96 149.135   2
   1  -1 -14 1633.79 145.179   1
   1   1 -14 1919.09 171.382   1
   1   1 -14 1518.37 153.429   2
   1  -1 -14 1689.21 158.269   3
   1   1 -14 1754.56 162.672   3
  -1  -1  14 1520.10 126.904   2
   0  -1 -14 148.253 53.1765   2
   0  -1 -14 142.761 47.9648   1
   0   1 -14 113.836 46.3471   2
   0   1 -14 111.000 43.0288   1
   0  -1 -14 105.209 53.2492   3
   0   1 -14 146.655 50.8668   3
   0  -1  14 145.054 42.8656   2
  -1  -1 -14 227.525 60.4937   1
  -1   1 -14 210.262 62.0273   1
  -1  -1 -14 102.176 43.4041   3
  -1   1 -14 160.010 55.9042   3
   1  -1  14 219.692 53.5028   2
  -2  -1 -14 105.099 44.0751   1
  -2  -1 -14 78.7989 50.1825   3
  -2   1 -14 109.552 48.3512   3
   2  -1  14 111.791 49.8084   2
  -3  -1 -14 6199.40 326.575   3
  -3   1 -14 6038.76 324.044   3
  -3  -1 -14 5351.86 302.299   1
   3  -1  14 5406.90 280.249   2
  -4  -1 -14 191.122 67.5863   3
  -4   1 -14 254.661 77.6180   3
   4  -1  14 219.020 59.6602   2
  -5  -1 -14 399.262 91.2853   3
  -5   1 -14 399.498 95.9278   3
   5  -1  14 374.498 77.8961   2
  -6  -1 -14 56.7478 39.1763   3
  -6   1 -14 111.775 60.1858   3
   6  -1  14 105.802 56.0131   2
  -7  -1 -14 31.1344 33.7275   3
  -7   1 -14 59.6738 43.7260   3
   7  -1  14 25.5300 32.1254   2
  -8  -1 -14 203.078 68.9260   3
  -8   1 -14 219.142 73.6968   3
   8  -1  14 233.723 69.4029   2
  -9  -1 -14 52.3179 49.3900   3
  -9   1 -14-4.66203 44.7867   3
   9  -1  14 20.9381 30.9214   2
 -10  -1 -14 597.176 122.719   3
 -10   1 -14 497.951 118.389   3
  10  -1  14 600.276 117.444   2
 -11  -1 -14 84.2289 47.1733   3
 -11   1 -14-7.26398 37.7569   3
  11  -1  14 54.1474 32.9924   2
 -12  -1 -14-34.7339 37.8237   3
 -24   2  14 99.9221 49.6631   1
 -23  -2  14-62.9141 42.4790   1
 -23   2  14 94.6306 49.1376   1
 -22  -2  14 5.37519 28.8001   1
 -22   2  14-39.8457 33.5419   1
 -21  -2  14 121.175 54.5068   1
 -21   2  14 227.975 67.6270   1
 -20  -2  14 69.1660 34.6938   1
 -20   2  14 64.6782 42.6592   1
 -19  -2  14 14.1657 29.3121   1
 -19   2  14 64.9287 39.4408   1
 -18  -2  14-35.2591 28.2087   1
 -18   2  14 49.6067 33.3384   1
 -17  -2  14 173.612 57.4743   1
 -17   2  14 274.528 65.5755   1
 -16  -2  14 383.797 81.8009   1
 -16   2  14 357.469 73.2531   1
  16   2 -14 314.570 46.4933   3
 -15  -2  14 622.153 102.771   1
  15   2 -14 525.029 62.8123   3
 -15   2  14 595.368 91.3074   1
 -14  -2  14 746.987 111.321   1
 -14   2  14 896.497 107.626   1
  14   2 -14 746.787 77.4152   3
  13  -2 -14 299.472 28.1107   2
  13   2 -14 411.388 60.0996   3
 -13  -2  14 451.318 86.7128   1
 -13   2  14 354.431 63.4413   1
  12  -2 -14-3.70489 8.38574   2
  12   2 -14 29.0299 16.2875   3
 -12   2  14 14.7667 19.5493   1
 -12  -2  14 1.23671 20.4515   1
 -11   2  14 514.264 73.3580   1
 -11  -2  14 682.079 102.958   1
  11   2 -14 726.411 88.2921   1
  11   2 -14 632.411 76.4758   3
  11  -2 -14 692.359 56.1080   2
 -10  -2  14 448.874 81.6399   1
  10   2 -14 523.304 72.7894   3
  10   2 -14 499.415 76.6270   1
  10  -2 -14 501.858 52.6688   2
 -10   2  14 445.971 64.8069   1
   9   2 -14 659.915 90.1240   1
   9   2 -14 804.099 89.8281   3
  -9   2  14 619.665 72.5011   1
   9  -2 -14 699.631 67.7693   2
  -9  -2  14 617.899 95.1006   1
   8  -2 -14 469.340 51.5063   1
   8   2 -14 509.055 83.4130   1
  -8  -2  14 462.590 80.3343   1
   8   2 -14 458.027 70.8582   3
  -8   2  14 410.028 59.3346   1
   8  -2 -14 427.214 56.4729   2
   7  -2 -14 13.5008 14.2218   2
   7  -2 -14 26.0588 16.5781   1
  -7  -2  14 14.1724 25.8804   1
   7   2 -14 27.0966 23.8333   3
   7   2 -14 29.9099 21.9040   2
   7   2 -14 36.3672 26.1666   1
  -7   2  14 23.3283 13.1803   1
   6  -2 -14 456.546 57.8930   1
   6   2 -14 477.579 67.3749   2
   6   2 -14 526.763 87.1039   1
   6   2 -14 457.171 74.5365   3
  -6  -2  14 579.581 86.3682   1
   6  -2 -14 423.091 62.3507   2
   5  -2 -14 77.3008 31.6345   2
   5   2 -14 73.6349 41.6152   1
   5   2 -14 110.875 38.6783   2
   5  -2 -14 145.074 35.7528   1
   5   2 -14 90.3360 37.0746   3
  -5  -2  14 91.6780 34.6024   1
   4  -2 -14 22.8769 22.4105   2
   4  -2 -14 27.8946 22.4897   1
   4   2 -14-21.1553 21.7853   2
   4   2 -14 9.78378 29.4233   3
  -4  -2  14 9.33091 18.0693   2
  -4  -2  14 22.0539 24.4950   1
   4   2 -14 1.07484 29.5511   1
   3   2 -14 1465.95 141.848   2
   3   2 -14 1627.92 159.565   1
   3  -2 -14 1299.71 114.691   1
   3   2 -14 1421.66 142.623   3
  -3  -2  14 1571.07 118.107   2
   3  -2 -14 1470.41 134.283   2
   2  -2 -14 3467.21 189.952   1
   2   2 -14 3382.51 230.120   1
   2   2 -14 3040.22 215.500   2
   2   2 -14 3246.08 211.866   3
  -2  -2  14 3254.12 178.874   2
   2  -2 -14 3000.16 198.741   2
   1  -2 -14 355.689 74.6495   2
   1   2 -14 381.235 81.2446   2
   1  -2 -14 358.918 65.0574   1
   1   2 -14 368.576 79.9146   1
   1   2 -14 409.327 79.9382   3
  -1  -2  14 419.147 71.6616   2
   0  -2 -14 263.346 58.6754   1
   0   2 -14 287.385 73.9445   2
   0  -2 -14 290.573 68.9979   3
   0   2 -14 277.120 69.1800   3
   0  -2  14 208.937 52.4648   2
  -1  -2 -14 959.153 125.647   3
  -1   2 -14 748.515 112.510   3
   1  -2  14 852.255 105.994   2
  -1  -2 -14 764.145 102.612   1
  -2  -2 -14 1008.81 130.528   3
  -2   2 -14 844.106 120.619   3
   2  -2  14 852.806 113.576   2
  -2  -2 -14 980.273 121.891   1
  -3  -2 -14 107.784 43.7357   1
  -3  -2 -14 159.244 61.8362   3
  -3   2 -14 153.407 62.5952   3
   3  -2  14 52.0169 37.0187   2
  -4  -2 -14 849.838 127.655   3
  -4   2 -14 698.220 123.043   3
   4  -2  14 648.840 103.565   2
  -5  -2 -14-15.9248 27.2165   3
  -5   2 -14-25.3202 32.6484   3
   5  -2  14-62.2941 36.7756   2
  -6  -2 -14 12.8432 32.9549   3
  -6   2 -14 18.0790 34.1372   3
   6  -2  14 10.4679 21.6171   2
  -7  -2 -14-20.7393 57.2153   3
  -7   2 -14-5.70176 32.5911   3
   7  -2  14-36.7808 37.0138   2
  -8  -2 -14 74.0737 49.2964   3
  -8   2 -14 79.8083 59.3529   3
   8  -2  14 76.6181 42.6944   2
  -9  -2 -14 249.743 82.8467   3
   9  -2  14 249.810 75.6035   2
 -10  -2 -14 149.362 63.8541   3
 -10   2 -14 173.092 72.3033   3
  10  -2  14 172.941 66.9826   2
 -11  -2 -14 382.478 104.424   3
 -11   2 -14 459.748 116.604   3
 -12  -2 -14 255.174 87.3743   3
 -22  -3  14 61.8805 52.9152   1
 -22   3  14 82.5444 47.0993   1
 -21  -3  14 54.1439 51.5063   1
 -21   3  14 71.6889 44.2486   1
 -20  -3  14 21.1905 33.2309   1
 -20   3  14-20.9454 25.6208   1
 -19  -3  14-46.1314 38.2604   1
 -19   3  14 3.62966 17.8212   1
 -18  -3  14 43.1744 43.9893   1
 -18   3  14 40.4060 23.9675   1
 -17  -3  14 67.6286 31.1035   1
 -17   3  14 64.1182 32.2216   1
 -16  -3  14 502.016 96.0217   1
 -16   3  14 440.002 76.5369   1
 -15   3  14 166.936 47.1633   1
  15   3 -14 141.536 28.6683   3
 -15  -3  14 142.800 53.3924   1
  14  -3 -14 421.199 48.1415   2
  14   3 -14 409.791 53.8358   3
 -14  -3  14 411.580 86.3757   1
 -14   3  14 439.773 72.1539   1
 -13  -3  14 1936.39 181.183   1
 -13   3  14 2015.85 144.896   1
  13  -3 -14 1714.27 103.376   2
  13   3 -14 1960.68 124.252   3
  13  -3 -14 1851.12 92.1979   2
 -12   3  14 370.177 61.2403   1
  12   3 -14 304.229 53.0924   3
 -12  -3  14 383.186 81.9076   1
  12  -3 -14 373.559 44.3829   2
 -11   3  14 940.591 89.0362   1
 -11  -3  14 838.982 118.613   1
  11   3 -14 1052.03 98.0608   3
  11  -3 -14 971.426 76.1045   2
 -10  -3  14 3521.45 231.108   1
  10   3 -14 3422.65 180.610   3
  10  -3 -14 3497.36 151.792   2
 -10   3  14 3445.16 160.254   1
  -9  -3  14 584.021 94.7353   1
   9   3 -14 661.954 83.0781   3
   9   3 -14 577.951 89.8646   1
  -9   3  14 659.181 67.5325   1
   9  -3 -14 587.492 65.6831   2
   8   3 -14 236.781 59.7403   1
  -8  -3  14 188.598 58.4330   1
   8   3 -14 194.014 47.9207   3
  -8   3  14 199.285 36.4231   1
   8  -3 -14 177.773 38.7823   2
   7  -3 -14 1581.96 79.7124   1
   7   3 -14 1422.99 125.494   3
  -7  -3  14 1388.61 139.154   1
   7  -3 -14 1356.41 110.242   2
   7   3 -14 1450.08 145.566   1
  -6  -3  14 20.5491 30.7583   1
   6   3 -14 51.1273 33.6230   1
   6   3 -14 57.7653 32.3888   3
   6   3 -14 59.9430 30.6584   2
  -6  -3  14 87.6885 26.6190   2
   6  -3 -14 71.2990 21.8188   1
   6  -3 -14 94.2226 33.6896   2
   5   3 -14 290.025 71.6139   1
   5   3 -14 202.096 47.9791   2
   5   3 -14 198.270 49.8996   3
  -5  -3  14 198.778 38.1812   2
   5  -3 -14 197.606 36.0459   1
  -5  -3  14 132.619 44.1993   1
   5  -3 -14 189.443 48.0580   2
   4  -3 -14 66.1927 31.3710   2
   4  -3 -14 63.4340 26.5168   1
   4   3 -14 107.614 43.2787   2
   4   3 -14 110.948 46.1158   3
  -4  -3  14 77.3654 36.8820   1
  -4  -3  14 17.8771 19.3650   2
   4   3 -14 62.0217 31.3589   1
   3  -3 -14 293.031 62.2134   2
   3   3 -14 296.292 63.9575   2
   3   3 -14 254.405 62.7879   3
  -3  -3  14 237.652 58.1319   1
   3   3 -14 278.878 67.3319   1
  -3  -3  14 379.607 61.8050   2
   3  -3 -14 283.701 49.6256   1
   2  -3 -14 141.487 42.7961   2
   2   3 -14 162.789 54.7360   2
   2  -3 -14 186.400 42.0869   1
   2   3 -14 201.777 59.2657   3
  -2  -3  14 140.582 40.5726   2
   1  -3 -14-16.7827 22.9822   1
   1   3 -14 7.46430 20.3878   2
   1   3 -14-0.80311 27.5701   3
  -1  -3  14 0.82663 17.7620   2
   0   3 -14 1378.58 160.443   2
   0   3 -14 1517.70 156.847   3
   0  -3  14 1282.39 127.617   2
   0  -3 -14 1296.76 121.019   1
  -1   3 -14 3204.52 231.131   3
   1  -3  14 3008.16 201.397   2
  -1  -3 -14 2805.20 187.804   1
  -2  -3 -14 391.173 75.4591   1
  -2  -3 -14 459.066 89.7283   3
  -2   3 -14 513.858 100.189   3
   2  -3  14 463.185 84.4373   2
  -3  -3 -14 216.723 68.4739   3
  -3   3 -14 210.149 64.2945   3
   3  -3  14 235.218 63.5800   2
  -3  -3 -14 189.886 55.7488   1
  -4   3 -14 351.172 91.3717   3
  -4  -3 -14 344.568 84.8315   3
  -4  -3 -14 286.956 68.6958   1
   4  -3  14 304.475 76.8789   2
  -5  -3 -14 123.571 44.3393   3
  -5   3 -14 81.6250 48.0804   3
   5  -3  14 147.210 52.8124   2
  -6  -3 -14 34.2504 38.6954   3
  -6   3 -14-4.16452 39.1675   3
   6  -3  14-30.1248 33.1006   2
  -7  -3 -14-58.0762 45.3262   3
  -7   3 -14 53.0530 48.2506   3
   7  -3  14 30.5348 36.3586   2
  -8  -3 -14 42.6531 41.8327   3
  -8   3 -14-25.3758 46.8035   3
   8  -3  14 5.68257 24.8926   2
  -9  -3 -14 226.131 72.4377   3
  -9   3 -14 273.794 88.5564   3
   9  -3  14 221.168 73.8896   2
 -10  -3 -14 6.27727 30.9061   3
  10  -3  14 17.6746 28.8560   2
 -11  -3 -14 84.1511 51.6772   3
 -12  -3 -14 109.581 64.4354   3
 -22  -4  14 82.6462 50.3430   1
 -21  -4  14 31.7568 36.8255   1
 -20  -4  14 52.8070 38.0680   1
 -20   4  14 44.9426 27.1499   1
 -19  -4  14 122.841 64.4538   1
 -19   4  14-35.0742 27.2964   1
 -18  -4  14-9.22348 28.4615   1
 -18   4  14-10.7686 20.5303   1
 -17  -4  14-28.5651 36.0725   1
 -17   4  14-50.8267 28.7248   1
 -16   4  14 93.0390 34.8636   1
 -16  -4  14 69.7890 53.6935   1
 -15   4  14 65.2366 30.3533   1
  15  -4 -14 26.5309 14.5686   2
  15   4 -14 24.4201 17.0064   3
 -15  -4  14 43.6480 44.7525   1
  14  -4 -14 167.962 38.7451   2
  14   4 -14 171.327 32.6957   3
 -14  -4  14 146.435 52.0406   1
 -14   4  14 171.815 43.3531   1
 -13  -4  14 1536.28 166.779   1
 -13   4  14 1904.50 130.601   1
  13   4 -14 1506.78 105.534   3
 -12   4  14 90.4571 28.8093   1
 -12  -4  14 123.559 51.4161   1
  12   4 -14 41.4842 23.3515   3
 -11   4  14 223.904 39.1192   1
  11   4 -14 269.711 53.2422   3
 -11  -4  14 200.794 61.7865   1
 -10  -4  14 980.273 129.465   1
  10   4 -14 992.521 97.1685   3
  10  -4 -14 1000.27 88.4843   2
 -10   4  14 990.469 73.9652   1
   9   4 -14 1108.18 106.067   3
  -9   4  14 1093.09 69.3285   1
   9  -4 -14 1061.51 95.1281   2
  -9  -4  14 1127.36 134.494   1
   8   4 -14 2447.07 161.871   3
   8  -4 -14 2396.06 145.971   2
  -8  -4  14 2409.80 193.277   1
   7   4 -14 2010.91 150.489   3
  -7  -4  14 1974.43 102.748   2
   7  -4 -14 1736.30 129.065   2
  -7  -4  14 1773.51 163.662   1
   6   4 -14 1792.87 148.618   3
  -6  -4  14 1738.18 163.775   1
  -6  -4  14 1865.13 111.076   2
   6  -4 -14 1745.07 134.196   2
   5   4 -14 2000.65 158.587   3
   5  -4 -14 1824.86 78.1661   1
  -5  -4  14 1841.59 165.494   1
   5  -4 -14 1791.53 141.129   2
  -5  -4  14 1781.44 118.516   2
   4   4 -14 754.698 104.398   2
   4   4 -14 742.970 102.255   3
  -4  -4  14 762.883 108.134   1
   4  -4 -14 702.647 93.2121   2
  -4  -4  14 882.934 89.9248   2
   4  -4 -14 862.128 64.2797   1
   3  -4 -14 498.985 56.2468   1
   3   4 -14 546.413 93.5779   2
   3   4 -14 563.798 96.5495   3
  -3  -4  14 478.427 81.6998   1
  -3  -4  14 555.428 76.7492   2
   3  -4 -14 446.189 76.3987   2
   2   4 -14 71.2412 38.6485   2
   2  -4 -14 10.4681 12.2624   1
   2   4 -14 28.8697 30.1582   3
  -2  -4  14 15.3390 17.2794   2
   2  -4 -14 18.5853 23.8598   2
   1  -4 -14 74.9537 25.3031   1
   1   4 -14 145.208 53.0019   2
   1   4 -14 114.839 44.2823   3
  -1  -4  14 86.9463 32.6565   2
   0  -4 -14 7.71966 17.5911   1
   0   4 -14 3.37474 34.3638   3
   0  -4  14 9.98620 24.6059   2
  -1   4 -14 823.836 122.214   3
  -1  -4 -14 893.279 100.144   1
   1  -4  14 849.664 116.535   2
  -2  -4 -14 87.5113 37.0377   1
  -2   4 -14 92.9472 52.7603   3
   2  -4  14 96.6773 41.5461   2
  -3  -4 -14 1928.21 189.529   3
  -3   4 -14 1951.55 194.005   3
  -3  -4 -14 1819.19 162.113   1
   3  -4  14 1721.50 168.295   2
  -4  -4 -14 178.322 60.8188   3
  -4   4 -14 178.801 62.9338   3
  -4  -4 -14 200.562 58.1689   1
   4  -4  14 113.377 41.4665   2
  -5  -4 -14 95.4806 51.4885   3
  -5   4 -14 9.17832 38.3248   3
   5  -4  14 15.4269 22.3247   2
  -6  -4 -14 338.679 87.6897   3
  -6   4 -14 240.586 81.6127   3
   6  -4  14 279.870 75.8955   2
  -7  -4 -14-44.9996 38.7575   3
  -7   4 -14 13.5799 37.9297   3
   7  -4  14 18.0634 28.9478   2
  -8  -4 -14 54.8226 40.8216   3
   8  -4  14 75.9881 46.9846   2
  -9  -4 -14-25.4238 31.4825   3
   9  -4  14 50.6099 30.1197   2
 -10  -4 -14 480.957 111.295   3
  10  -4  14 547.209 115.422   2
 -11  -4 -14-30.1902 41.8545   3
 -12  -4 -14 23.9188 34.3336   3
 -21  -5  14 83.0458 52.3774   1
 -20  -5  14 201.316 73.4725   1
 -19  -5  14-19.1336 31.6728   1
 -18  -5  14-64.7685 47.9220   1
 -17  -5  14 449.581 102.040   1
 -17   5  14 381.232 69.6281   1
 -16   5  14-14.4649 15.7244   1
 -16  -5  14-24.7743 40.1999   1
 -15   5  14 157.045 40.3870   1
  15  -5 -14 141.229 35.9635   2
 -15  -5  14 37.0481 32.7544   1
  14  -5 -14-0.19619 19.4065   2
 -14  -5  14-13.6911 29.6317   1
 -14   5  14 6.87576 13.9506   1
 -13   5  14 58.9008 24.6041   1
 -13  -5  14 33.7148 31.4729   1
  13   5 -14 17.6131 17.7185   3
 -12   5  14 212.193 34.6248   1
 -12  -5  14 186.701 66.8300   1
  12   5 -14 166.922 41.6557   3
 -11  -5  14 270.298 73.1088   1
  11   5 -14 392.258 62.2589   3
 -11   5  14 237.558 32.3825   1
 -10  -5  14 142.111 56.3411   1
  10   5 -14 81.8041 30.1200   3
  -9  -5  14 403.678 85.8814   1
   9   5 -14 421.846 70.3752   3
  -9  -5  14 399.905 33.7700   2
  -8  -5  14 13.8083 27.2446   1
   8   5 -14 79.9613 38.1176   3
   8  -5 -14 71.4042 30.8873   2
  -8  -5  14 70.6352 19.3088   2
  -7  -5  14-18.7891 26.9533   1
   7   5 -14 50.4638 34.7839   3
   7  -5 -14-9.79164 12.7933   2
  -7  -5  14 12.8119 14.7018   2
   6   5 -14 871.868 105.093   3
  -6  -5  14 825.913 118.136   1
   6  -5 -14 887.901 101.130   2
  -6  -5  14 934.401 84.7208   2
   5   5 -14 623.979 92.9844   3
  -5  -5  14 791.708 116.198   1
   5  -5 -14 676.351 91.5431   2
  -5  -5  14 661.928 76.8788   2
   4   5 -14 2456.09 186.302   3
  -4  -5  14 2723.71 207.916   1
   4  -5 -14 2327.92 173.655   2
  -4  -5  14 2543.75 159.867   2
   3   5 -14 1064.58 126.098   3
  -3  -5  14 1080.17 131.767   1
   3  -5 -14 1022.16 59.0607   1
  -3  -5  14 1041.13 109.445   2
  -2  -5  14 29.7400 28.6734   2
   2   5 -14-4.04745 20.4744   2
   2   5 -14 0.82926 26.7433   3
  -2  -5  14-27.8297 34.1330   1
   2  -5 -14 7.09961 9.04224   1
  -1  -5  14-1.94101 24.1369   2
   1  -5 -14 31.9138 18.8862   1
   1   5 -14-20.3806 27.9888   2
   1   5 -14-7.42859 31.5446   3
   0  -5  14 103.851 34.6222   2
   0  -5 -14 181.357 41.0393   1
   0   5 -14 227.618 64.8786   3
   1  -5  14-4.78658 25.7941   2
  -1  -5 -14 7.33303 15.5441   1
  -1   5 -14 37.9793 41.1599   3
  -2  -5 -14 36.3844 22.4890   1
   2  -5  14 38.3808 38.5177   2
  -2   5 -14 80.9710 44.4948   3
   3  -5  14 101.481 49.9320   2
  -3   5 -14 118.712 68.1671   3
  -3  -5 -14 101.782 39.3258   1
   4  -5  14 166.250 64.1336   2
  -4  -5 -14 119.511 56.7322   3
  -4   5 -14 128.948 67.6416   3
  -5  -5 -14 1752.09 188.300   3
  -5   5 -14 1982.17 211.792   3
   5  -5  14 1546.93 176.499   2
   6  -5  14 81.3157 52.5656   2
  -6  -5 -14 85.0367 46.9464   3
   7  -5  14-57.5147 47.6470   2
  -7  -5 -14-25.4102 40.0061   3
  -8  -5 -14 32.5328 35.6121   3
   8  -5  14-41.1106 45.9068   2
  -9  -5 -14-48.8738 43.1065   3
   9  -5  14 47.9399 37.9258   2
 -10  -5 -14 116.744 59.3722   3
  10  -5  14 200.153 77.7009   2
 -11  -5 -14 10.5991 38.4971   3
 -20  -6  14-121.958 60.0661   1
 -19  -6  14 49.6870 42.4409   1
 -18  -6  14 160.623 66.9762   1
 -17  -6  14 208.803 65.6633   1
 -16  -6  14 149.722 62.8995   1
  15  -6 -14 18.4849 28.8552   2
 -15  -6  14-62.6377 49.1899   1
 -14  -6  14-56.9661 48.6288   1
 -14   6  14-19.2297 13.9305   1
 -13   6  14 94.6965 21.5949   1
 -13  -6  14 57.6670 37.6637   1
 -12   6  14 12.2210 6.85156   1
 -12  -6  14 56.9187 40.6939   1
 -11  -6  14 130.983 58.3185   1
 -10  -6  14 2480.50 217.345   1
 -10  -6  14 2181.66 66.4091   2
  -9  -6  14 75.6450 49.6356   1
   9   6 -14 114.863 36.7949   3
  -9  -6  14 62.6518 16.8978   2
  -8  -6  14 21.5913 15.6660   2
  -8  -6  14-13.4952 41.3193   1
   8   6 -14 31.3788 33.1364   3
  -7  -6  14 132.491 33.7554   2
  -7  -6  14 211.087 63.3082   1
   7   6 -14 204.736 56.5292   3
  -6  -6  14 456.054 91.6614   1
   6   6 -14 403.916 75.9944   3
   6  -6 -14 448.795 76.0464   2
  -6  -6  14 431.061 62.1268   2
   5   6 -14 1087.02 124.138   3
  -5  -6  14 907.426 125.592   1
  -5  -6  14 998.349 101.215   2
   4   6 -14 979.107 120.906   3
  -4  -6  14 801.874 117.673   1
  -4  -6  14 901.607 101.172   2
   3   6 -14 1147.20 135.612   3
  -3  -6  14 1236.13 141.999   1
  -3  -6  14 1219.42 124.539   2
   2   6 -14 1958.48 179.485   3
  -2  -6  14 2177.36 188.894   1
  -2  -6  14 2174.74 172.208   2
   1  -6 -14 1003.63 69.0092   1
   1   6 -14 1153.19 144.798   3
  -1  -6  14 1214.03 133.617   2
   0  -6  14 67.1740 27.5090   2
   0  -6 -14 93.4747 25.7123   1
   0   6 -14 114.945 50.1645   3
   1  -6  14 4.65771 20.6065   2
  -1   6 -14 46.1968 39.6760   3
   2  -6  14 519.102 97.8113   2
   3  -6  14 894.099 127.951   2
   4  -6  14 68.6491 39.3957   2
   5  -6  14 81.0487 44.3799   2
  -5  -6 -14 97.7019 51.4192   3
   6  -6  14 44.2516 49.0237   2
  -6  -6 -14-33.7759 25.5168   3
   7  -6  14 152.480 63.7041   2
  -7  -6 -14 176.401 62.7408   3
   8  -6  14-82.9238 51.7523   2
  -8  -6 -14 33.6918 38.6047   3
   9  -6  14-40.5731 48.8642   2
  -9  -6 -14 47.8335 44.4868   3
 -10  -6 -14 31.9554 32.3388   3
 -11  -6 -14-38.7909 38.8219   3
 -19  -7  14 26.7121 29.6937   1
 -18  -7  14 27.0750 24.9123   1
 -17  -7  14-19.4444 33.5834   1
 -16  -7  14 52.3982 31.2870   1
  15  -7 -14-27.1712 24.5044   2
 -15  -7  14 38.5331 40.4431   1
 -14  -7  14 55.3978 46.4616   1
 -13  -7  14 318.236 83.0125   1
 -12  -7  14 581.839 112.343   1
 -11  -7  14 17.4299 24.0002   1
 -10  -7  14 33.0023 13.6480   2
 -10  -7  14 90.0211 52.4113   1
  -9  -7  14 51.2164 20.0345   2
  -9  -7  14-22.3082 31.5002   1
  -8  -7  14 1911.49 189.603   1
  -8  -7  14 2287.29 133.117   2
  -7  -7  14 1620.18 175.577   1
  -7  -7  14 1695.94 124.013   2
  -6  -7  14 216.355 63.9050   1
  -6  -7  14 356.626 60.9530   2
  -5  -7  14 87.9594 36.0083   1
  -5  -7  14 218.821 54.8151   2
  -4  -7  14 148.658 48.1998   2
  -4  -7  14 124.423 41.4162   1
  -3  -7  14 227.781 60.1732   2
  -3  -7  14 178.588 59.9004   1
  -2  -7  14 845.539 122.326   1
  -2  -7  14 776.199 110.004   2
  -1  -7  14 98.7836 43.8647   2
   0  -7  14-55.4363 33.3755   2
   1  -7  14 15.0174 26.7586   2
   2  -7  14 152.011 54.0760   2
   3  -7  14-80.7905 44.8940   2
   4  -7  14 29.9950 37.4539   2
   5  -7  14 15.8630 28.5345   2
   6  -7  14-20.8873 35.9235   2
  -6  -7 -14 45.8374 41.9556   3
   7  -7  14 54.7217 42.0621   2
  -7  -7 -14-13.7266 33.6857   3
   8  -7  14-76.8185 49.7819   2
  -8  -7 -14 64.0982 48.9250   3
  -9  -7 -14 247.461 89.2591   3
 -10  -7 -14 307.755 93.9336   3
 -18  -8  14 2.63835 23.5783   1
 -17  -8  14 215.480 74.7139   1
 -16  -8  14 16.7549 25.5154   1
  15  -8 -14-86.7783 42.3298   2
 -15  -8  14-34.6150 57.2268   1
 -14  -8  14 35.6605 46.0071   1
 -13  -8  14 57.3958 49.7137   1
 -12  -8  14 3.60505 29.0394   1
 -11  -8  14 374.473 91.9781   1
 -10  -8  14 290.978 81.0646   1
 -10  -8  14 324.649 46.2889   2
  -9  -8  14 227.052 44.0334   2
  -9  -8  14 205.181 68.7438   1
  -8  -8  14-10.6122 17.1686   2
  -8  -8  14 71.1086 48.1148   1
  -7  -8  14 78.2653 48.5345   1
  -7  -8  14 78.1422 30.5560   2
  -6  -8  14-5.31799 25.8239   1
  -6  -8  14-22.9518 26.5782   2
  -5  -8  14 185.787 62.5113   1
  -5  -8  14 172.455 49.6635   2
  -4  -8  14 512.302 85.3477   2
  -4  -8  14 434.408 93.4968   1
  -3  -8  14 6.61444 24.0232   2
  -3  -8  14-19.9913 25.1223   1
  -2  -8  14 185.127 57.5517   2
  -2  -8  14 220.872 68.1271   1
  -1  -8  14 199.786 59.4066   2
   0  -8  14-11.8851 29.2096   2
   1  -8  14-23.2774 35.4535   2
   2  -8  14 379.090 88.8454   2
   3  -8  14 420.948 94.8420   2
   4  -8  14 85.8048 45.6187   2
   5  -8  14 54.5514 27.9320   2
   6  -8  14 59.1494 41.7029   2
   7  -8  14 285.546 89.9949   2
  -7  -8 -14 400.921 102.950   3
   8  -8  14 19.4057 43.1755   2
  -8  -8 -14 29.3694 37.5916   3
  -9  -8 -14 60.9164 49.7913   3
 -10  -8 -14-38.5722 42.6873   3
 -17  -9  14 48.8995 39.2085   1
 -16  -9  14-24.2584 35.1506   1
 -15  -9  14 40.9990 37.7304   1
 -14  -9  14 177.714 67.3505   1
 -13  -9  14-25.6606 35.9627   1
 -12  -9  14 386.263 97.3712   1
 -11  -9  14 457.672 102.989   1
 -10  -9  14 51.0176 32.1593   1
  -9  -9  14 162.795 40.9183   2
  -9  -9  14 160.649 64.1069   1
  -8  -9  14-20.5065 30.1897   1
  -8  -9  14 15.0004 22.1223   2
  -7  -9  14 17.7706 32.1369   1
  -7  -9  14 18.2614 20.0538   2
  -6  -9  14 168.200 64.5827   1
  -6  -9  14 187.036 49.8954   2
  -5  -9  14-2.28800 25.3462   2
  -5  -9  14 6.67349 32.0758   1
  -4  -9  14 170.993 57.1599   2
  -4  -9  14 92.9460 47.1124   1
  -3  -9  14 22.0406 30.6134   2
  -3  -9  14-6.13567 29.6019   1
  -2  -9  14 62.7093 31.4232   2
  -2  -9  14 86.5885 48.0827   1
  -1  -9  14 24.5688 29.3587   2
   0  -9  14 508.499 101.894   2
   1  -9  14 102.736 52.3151   2
   2  -9  14 73.4620 41.5929   2
   3  -9  14-58.4977 43.2882   2
   4  -9  14 186.093 70.0160   2
   5  -9  14 16.0609 27.1889   2
   6  -9  14 44.6910 44.8164   2
   7  -9  14-59.0893 47.6532   2
  -8  -9 -14-15.8984 34.6869   3
  -9  -9 -14 38.4660 39.4516   3
 -15 -10  14 167.811 78.3456   1
 -14 -10  14-82.6996 52.6491   1
 -13 -10  14 66.8610 53.9746   1
 -12 -10  14 327.704 93.6719   1
 -11 -10  14-53.4884 42.7382   1
 -10 -10  14 2.35627 26.0591   1
  -9 -10  14 262.786 82.3845   1
  -9 -10  14 157.628 43.5212   2
  -8 -10  14-4.51245 28.9291   1
  -8 -10  14-0.24035 12.9244   2
  -7 -10  14 7.09786 33.1829   1
  -7 -10  14 19.9205 22.4673   2
  -6 -10  14 17.9658 28.9914   1
  -6 -10  14 59.5075 35.3471   2
  -5 -10  14 39.9044 18.4747   2
  -5 -10  14 87.3370 43.9411   1
  -4 -10  14 205.525 61.6023   2
  -4 -10  14 298.702 83.5541   1
  -3 -10  14 533.580 98.5848   2
  -3 -10  14 701.318 125.190   1
  -2 -10  14 15.6888 29.2278   2
  -2 -10  14 49.9298 36.8003   1
  -1 -10  14 322.216 87.9882   2
   0 -10  14 71.2181 46.6160   2
   1 -10  14 182.224 68.0092   2
   2 -10  14-18.5721 29.5940   2
   3 -10  14 64.1707 45.1582   2
   4 -10  14-72.4229 54.2688   2
   5 -10  14 256.257 84.6678   2
   6 -10  14-15.1294 25.6658   2
 -13 -11  14 21.7522 34.6175   1
 -12 -11  14 14.6679 28.2896   1
 -11 -11  14 220.511 80.4091   1
 -10 -11  14 153.234 66.6986   1
  -9 -11  14 164.397 56.2658   1
  -8 -11  14 9.81332 34.4023   1
  -8 -11  14 2.99626 16.7289   2
  -7 -11  14-31.4290 37.5539   1
  -7 -11  14 46.2426 32.1314   2
  -6 -11  14 353.687 98.3067   1
  -6 -11  14 397.071 83.5152   2
  -5 -11  14 348.598 82.0198   2
  -5 -11  14 324.253 89.3110   1
  -4 -11  14 15.4243 23.4805   2
  -4 -11  14 32.2133 45.3224   1
  -3 -11  14 73.8785 41.3799   2
  -3 -11  14 100.564 47.2621   1
  -2 -11  14 21.3614 29.7600   2
  -2 -11  14 36.2831 32.7595   1
  -1 -11  14 262.546 77.9873   2
   0 -11  14-2.88813 38.5302   2
   1 -11  14 55.5591 37.9417   2
   2 -11  14 96.5778 50.9122   2
   3 -11  14 68.3238 47.0092   2
   4 -11  14 32.2256 35.7767   2
   5 -11  14-53.0448 41.9071   2
 -11 -12  14 25.8588 31.4297   1
 -10 -12  14 13.5854 29.4238   1
  -9 -12  14-62.8460 48.0440   1
  -8 -12  14 35.7916 40.7750   1
  -7 -12  14-0.91359 30.5345   1
  -7 -12  14-15.4540 23.0616   2
  -6 -12  14 47.6017 38.5321   1
  -6 -12  14 11.4979 23.4581   2
  -5 -12  14 137.511 58.1107   2
  -5 -12  14 195.044 69.4651   1
  -4 -12  14 24.7047 36.8676   2
  -4 -12  14 14.6551 43.1911   1
  -3 -12  14 39.5720 36.3961   2
  -3 -12  14 93.5312 58.1326   1
  -2 -12  14 23.9188 33.2026   2
  -2 -12  14 30.0257 31.3625   1
  -1 -12  14 64.8537 42.7753   2
   0 -12  14 181.325 72.3610   2
   1 -12  14 0.45850 33.0123   2
   2 -12  14 1.19269 26.0753   2
   3 -12  14 60.1235 45.4584   2
   4 -12  14 4.80383 25.1311   2
  -5 -13  14-31.1620 30.7513   2
  -4 -13  14 37.2461 32.3871   2
  -3 -13  14 26.1737 33.1833   2
  -2 -13  14 290.708 88.9190   2
  -1 -13  14 60.7006 43.5812   2
   0 -13  14 55.8558 46.5619   2
   1 -13  14 25.4286 32.2905   2
   2 -13  14 0.75566 19.4290   2
  -4 -14  14-93.2715 50.5366   2
  -3 -14  14 31.6734 19.0892   2
  -2 -14  14 7.59642 46.1569   2
  -1 -14  14 38.6514 35.4222   2
   0 -14  14 67.1109 46.1288   2
   1 -14  14 4.60229 33.6478   2
 -24   0  15-57.2055 39.9988   1
 -23   0  15-0.83448 19.7949   1
 -22   0  15-41.4346 35.5185   1
 -21   0  15 37.1765 32.0753   1
 -20   0  15 5.44494 32.8363   1
 -19   0  15-13.6414 27.3197   1
 -18   0  15 71.5697 39.1535   1
 -17   0  15-32.4022 30.1261   1
 -16   0  15 24.6769 25.7946   1
 -15   0  15-10.4243 33.7730   1
 -14   0  15-28.9807 40.8559   1
 -13   0  15-23.8292 25.0221   1
 -12   0  15-17.1681 31.1907   1
 -11   0  15-25.2046 28.2685   1
 -10   0  15-19.8447 32.8314   1
  10   0 -15 6.03374 14.1386   1
  10   0 -15 7.01204 6.55214   2
  -9   0  15-27.3296 27.2439   1
   9   0 -15 51.0400 28.2280   1
   9   0 -15-14.6472 15.3034   2
  -8   0  15 8.90264 18.8831   1
   8   0 -15 20.4787 14.2377   2
   8   0 -15-17.1168 20.5705   1
   7   0 -15 9.02231 18.8682   1
   7   0 -15 1.36348 14.4161   2
  -7   0  15 17.5105 18.5591   1
   6   0 -15 0.46313 16.9961   2
   6   0 -15-10.7357 31.4446   3
   6   0 -15 45.2160 36.2560   1
  -6   0  15 4.29781 21.4411   1
   5   0 -15-11.1919 16.0644   2
   5   0 -15 38.0236 30.6604   1
   5   0 -15-11.9461 27.7330   3
   4   0 -15 19.6432 18.0098   1
   4   0 -15-20.1691 19.5066   2
   4   0 -15-12.6623 25.4826   3
   3   0 -15-19.1590 25.2531   2
   3   0 -15-15.2137 29.0343   3
   3   0 -15-77.6602 36.1642   1
   2   0 -15-37.0410 29.8536   2
   2   0 -15 12.1291 30.9848   3
   2   0 -15-1.85489 15.9595   1
   1   0 -15-34.9816 32.7762   2
   1   0 -15-51.0874 31.5671   1
   1   0 -15 17.1646 26.3172   3
   0   0 -15-88.3495 41.0026   1
   0   0 -15 6.69682 28.5298   3
  -1   0 -15 8.74923 21.7662   1
  -1   0 -15 54.1689 38.2827   3
  -2   0 -15-2.77307 29.7897   3
  -3   0 -15-9.35740 39.2051   3
  -4   0 -15 24.9840 42.2243   3
  -5   0 -15 9.53292 30.0264   3
   5   0  15-32.6179 25.1312   2
  -6   0 -15 22.8707 36.1168   3
   6   0  15 17.2522 36.8699   2
  -7   0 -15 75.3175 60.1015   3
   7   0  15 17.6077 38.7360   2
  -8   0 -15-5.54237 33.0621   3
  -9   0 -15-81.6574 54.4751   3
 -10   0 -15-19.0173 41.1870   3
 -23  -1  15 3.45319 19.6868   1
 -23   1  15 68.6401 42.9206   1
 -22  -1  15 41.2656 45.4385   1
 -22   1  15 18.3568 33.3461   1
 -21  -1  15-19.5056 29.1635   1
 -21   1  15 46.6623 30.6249   1
 -20  -1  15 43.9905 34.9335   1
 -20   1  15 46.0925 36.2612   1
 -19  -1  15-26.3733 30.6219   1
 -19   1  15 26.7317 30.9417   1
 -18  -1  15 178.362 60.3086   1
 -18   1  15 105.846 48.8640   1
 -17  -1  15 81.1676 42.3450   1
 -17   1  15 45.2708 30.2178   1
 -16   1  15 342.527 73.0712   1
 -16  -1  15 446.889 95.4837   1
 -15  -1  15-4.55625 25.2887   1
 -15   1  15 47.4230 30.3187   1
 -14  -1  15-5.68383 30.4110   1
 -14   1  15-22.4150 37.3144   1
 -13   1  15 589.566 88.1111   1
 -13  -1  15 500.207 89.1952   1
 -12   1  15 10.1747 18.5020   1
 -12  -1  15 57.2629 38.8259   1
  11  -1 -15 97.3661 18.1528   2
 -11   1  15 127.889 42.6382   1
 -11  -1  15 79.1871 36.5274   1
  11   1 -15 100.407 35.7049   3
  11   1 -15 94.9672 35.4839   1
 -10   1  15 28.7586 16.7592   1
  10  -1 -15 18.7562 10.4997   2
 -10  -1  15 2.83461 29.5653   1
  10   1 -15 39.2599 25.0909   3
  10   1 -15-7.68331 21.7751   1
   9  -1 -15 660.626 66.2299   2
   9  -1 -15 625.579 70.2016   1
   9   1 -15 565.206 51.9912   2
   9   1 -15 640.747 87.6378   3
   9   1 -15 601.631 84.6901   1
  -9   1  15 735.589 89.5591   1
  -9  -1  15 665.684 96.5478   1
   8  -1 -15 184.460 41.7701   1
  -8  -1  15 210.766 55.4639   1
   8  -1 -15 180.000 38.9516   2
   8   1 -15 193.127 50.2649   1
   8   1 -15 168.973 35.5192   2
   8   1 -15 143.967 42.7082   3
  -8   1  15 170.453 40.6408   1
   7  -1 -15 543.255 71.3672   2
   7   1 -15 508.241 67.6464   2
   7  -1 -15 466.732 67.5684   1
   7   1 -15 496.751 79.8896   3
  -7   1  15 567.349 75.4284   1
   7   1 -15 455.664 77.9174   1
  -7  -1  15 431.264 74.9398   1
   6  -1 -15 85.0239 34.0894   2
   6   1 -15 19.3491 23.6410   2
   6   1 -15 73.9271 42.2113   1
   6   1 -15 27.0280 33.4925   3
   6  -1 -15 65.4244 29.9510   1
  -6  -1  15-10.3108 25.1046   1
   5  -1 -15 2437.83 167.523   2
   5   1 -15 2357.98 167.126   2
   5   1 -15 2684.73 189.887   3
   5   1 -15 2758.98 198.932   1
   5  -1 -15 2624.74 168.742   1
  -5  -1  15 2899.54 184.069   1
   4  -1 -15 1281.47 129.926   2
   4   1 -15 1140.16 122.850   2
   4   1 -15 1207.45 133.151   1
   4  -1 -15 1172.50 118.193   1
   4   1 -15 1297.40 135.633   3
   3  -1 -15 329.430 68.0392   2
   3   1 -15 451.658 81.0620   2
   3  -1 -15 375.932 79.3369   3
   3   1 -15 362.065 77.4507   3
   3   1 -15 382.009 77.2531   1
   3  -1 -15 394.239 70.0759   1
   2  -1 -15 1822.55 166.042   2
   2   1 -15 1664.55 161.294   2
   2  -1 -15 1942.27 161.201   1
   2   1 -15 2051.68 181.028   1
   2  -1 -15 1993.87 172.752   3
   2   1 -15 2143.15 179.686   3
   1  -1 -15 761.830 104.602   1
   1   1 -15 703.327 107.344   1
   1   1 -15 652.832 106.477   2
   1  -1 -15 936.079 121.695   3
   1   1 -15 807.847 114.954   3
   0  -1 -15-2.06874 24.3486   1
   0  -1 -15 29.5265 27.3383   3
   0   1 -15-37.7006 45.3917   3
   0  -1  15-2.10440 21.0094   2
  -1  -1 -15 132.755 49.6225   1
  -1  -1 -15 132.524 49.4469   3
  -1   1 -15 153.775 58.0000   3
   1  -1  15 180.096 49.1706   2
  -2  -1 -15 7.32000 21.9644   1
  -2  -1 -15 28.4123 39.4139   3
  -2   1 -15-36.0409 44.0032   3
   2  -1  15-53.6292 28.2479   2
  -3  -1 -15 75.4139 40.1902   3
  -3   1 -15 97.1490 41.7216   3
   3  -1  15 92.3589 37.0651   2
  -4  -1 -15 446.215 95.3724   3
  -4   1 -15 299.526 76.4515   3
   4  -1  15 361.934 79.1384   2
  -5  -1 -15 769.236 128.993   3
  -5   1 -15 772.027 132.056   3
   5  -1  15 816.139 121.471   2
  -6  -1 -15-16.6386 49.3589   3
  -6   1 -15 53.1731 46.2184   3
   6  -1  15 21.8493 37.8860   2
  -7  -1 -15 643.534 126.555   3
  -7   1 -15 519.741 114.256   3
   7  -1  15 557.613 105.221   2
  -8  -1 -15 35.8110 48.7396   3
  -8   1 -15 148.404 66.2746   3
   8  -1  15 114.581 54.3847   2
  -9  -1 -15-33.8547 35.9969   3
  -9   1 -15 16.2907 39.4869   3
   9  -1  15-35.8579 33.6830   2
 -10  -1 -15-13.5605 33.7599   3
 -10   1 -15-34.6953 42.7682   3
 -23  -2  15 56.1558 40.4424   1
 -22  -2  15 54.1935 50.0057   1
 -22   2  15-6.02158 21.8037   1
 -21  -2  15 77.6916 46.7998   1
 -21   2  15 71.8005 34.3637   1
 -20  -2  15-15.2351 29.0060   1
 -20   2  15-3.53425 16.8429   1
 -19  -2  15 104.699 52.0510   1
 -19   2  15 74.5580 38.5739   1
 -18  -2  15 92.0850 44.0868   1
 -18   2  15 134.385 54.0150   1
 -17  -2  15 34.9308 32.5024   1
 -17   2  15-1.78906 28.7196   1
 -16   2  15 75.7160 32.3830   1
  16   2 -15 70.6220 24.5089   3
 -16  -2  15 50.6724 38.0506   1
  15   2 -15-1.51252 18.7348   3
 -15  -2  15 19.6020 23.7365   1
 -15   2  15-29.5138 25.7834   1
  14   2 -15 49.1907 21.5895   3
 -14  -2  15 21.1254 39.7355   1
 -14   2  15 16.4489 21.5376   1
  13  -2 -15 91.0373 14.0438   2
  13   2 -15 132.174 36.5550   3
 -13   2  15 232.367 54.5405   1
 -13  -2  15 164.620 53.1162   1
  12  -2 -15 125.787 22.1809   2
 -12   2  15 127.711 37.8736   1
 -12  -2  15 193.588 57.8821   1
  12   2 -15 104.357 34.0284   3
  11  -2 -15 10.2273 9.56235   2
 -11   2  15 36.0431 24.8392   1
 -11  -2  15 53.5200 37.4365   1
  11   2 -15-3.94836 17.3688   3
  10  -2 -15 7.46361 11.3484   2
 -10   2  15 14.0993 21.3520   1
  10   2 -15 54.9510 31.4006   1
 -10  -2  15 10.8990 23.1896   1
  10   2 -15 31.5431 24.3493   3
  -9   2  15 241.418 48.9311   1
   9  -2 -15 252.555 44.7850   2
  -9  -2  15 285.313 70.1077   1
   9   2 -15 308.092 62.7788   3
   9   2 -15 205.397 51.5688   1
   8  -2 -15 83.0959 27.5788   2
   8   2 -15 84.0775 39.4813   1
  -8  -2  15 100.622 46.1748   1
   8   2 -15 200.548 53.0612   3
   8   2 -15 128.637 32.0729   2
  -8   2  15 143.378 38.1350   1
   8  -2 -15 93.7641 26.7663   1
   7   2 -15 2240.44 140.414   2
   7   2 -15 2397.08 172.825   3
   7  -2 -15 2513.24 136.542   1
  -7  -2  15 2575.92 189.991   1
   7  -2 -15 2491.88 154.166   2
   7   2 -15 2368.40 186.955   1
   6  -2 -15 1011.20 91.9563   1
   6   2 -15 967.588 101.770   2
   6   2 -15 1002.53 115.381   3
  -6  -2  15 855.469 107.216   1
   6   2 -15 1080.65 128.610   1
   6  -2 -15 1017.70 104.061   2
   5   2 -15 3493.15 206.596   2
   5   2 -15 4030.97 233.236   3
   5   2 -15 3746.41 244.627   1
  -5  -2  15 3670.03 219.858   1
   5  -2 -15 3987.67 189.524   1
   5  -2 -15 3479.29 202.147   2
   4   2 -15 1131.94 124.779   2
   4   2 -15 1167.83 138.581   1
   4   2 -15 1307.87 135.922   3
   4  -2 -15 1240.90 113.395   1
  -4  -2  15 1150.45 121.007   1
   4  -2 -15 1079.70 118.013   2
   3  -2 -15 123.275 42.0652   2
   3   2 -15 123.776 43.7079   2
   3   2 -15 141.722 51.1933   3
  -3  -2  15 266.957 55.3863   2
   3   2 -15 189.700 57.3955   1
   3  -2 -15 143.996 42.6167   1
   2  -2 -15 36.2203 20.6002   2
   2   2 -15-27.5404 28.6054   2
   2   2 -15-1.64349 29.6648   3
   2  -2 -15 13.3079 16.9772   1
  -2  -2  15 14.2195 15.8150   2
   1   2 -15 456.369 92.5076   2
   1  -2 -15 807.511 113.088   3
   1  -2 -15 496.478 80.2089   1
   1   2 -15 600.688 100.078   3
  -1  -2  15 594.134 84.9035   2
   0  -2 -15 478.933 80.3265   1
   0  -2 -15 563.260 97.1376   3
   0   2 -15 493.838 95.3634   3
   0  -2  15 492.016 80.4819   2
  -1  -2 -15 2991.57 231.602   3
  -1   2 -15 3122.32 234.493   3
   1  -2  15 2802.28 197.388   2
  -1  -2 -15 2624.07 197.601   1
  -2  -2 -15 264.549 68.5499   1
  -2  -2 -15 182.793 66.8864   3
  -2   2 -15 280.275 73.1261   3
   2  -2  15 266.290 65.2411   2
  -3  -2 -15 339.311 81.8824   3
  -3   2 -15 293.356 83.1434   3
   3  -2  15 301.988 68.7326   2
  -4  -2 -15-8.10113 28.4292   3
  -4   2 -15 69.2119 46.6203   3
   4  -2  15-1.84875 20.3796   2
  -5  -2 -15 35.7143 34.4444   3
  -5   2 -15 9.22029 30.0715   3
   5  -2  15 13.1237 22.0742   2
  -6  -2 -15 30.6731 38.5502   3
  -6   2 -15 0.20823 53.8464   3
   6  -2  15-41.1058 39.6294   2
  -7  -2 -15 63.9112 37.1331   3
  -7   2 -15 71.9885 56.7366   3
   7  -2  15 50.7751 38.1083   2
  -8  -2 -15 15.8573 29.7750   3
  -8   2 -15 122.409 68.3237   3
   8  -2  15 59.5170 43.1677   2
  -9  -2 -15 15.2473 34.7276   3
  -9   2 -15 15.8294 43.7585   3
   9  -2  15-49.0762 39.5133   2
 -10  -2 -15 13.1548 39.5400   3
 -22  -3  15 27.5625 34.6336   1
 -21  -3  15 68.3902 49.4618   1
 -20  -3  15 27.6164 32.3339   1
 -20   3  15-20.3830 27.5901   1
 -19  -3  15 417.567 97.1032   1
 -19   3  15 323.436 71.8957   1
 -18  -3  15 123.612 63.4551   1
 -18   3  15 177.536 53.6121   1
 -17   3  15 57.5394 37.8689   1
 -17  -3  15 124.268 49.5904   1
 -16   3  15 228.777 56.0886   1
 -16  -3  15 112.237 47.3219   1
  15   3 -15 59.5518 23.9221   3
 -15  -3  15 40.7910 25.6777   1
 -15   3  15 53.7087 27.7432   1
  14   3 -15 35.7100 20.9600   3
 -14   3  15 16.3763 15.7667   1
 -14  -3  15 24.5841 25.0189   1
 -13   3  15 18.8597 18.6078   1
 -13  -3  15 27.5176 35.0451   1
  13   3 -15-3.17947 16.4095   3
 -12   3  15 1751.81 129.092   1
 -12  -3  15 1900.35 182.689   1
  12   3 -15 1808.85 133.051   3
  12  -3 -15 1561.21 94.0735   2
 -11   3  15 269.938 48.9044   1
 -11  -3  15 245.804 64.3045   1
  11   3 -15 276.671 54.2598   3
  11  -3 -15 255.617 41.2958   2
 -10   3  15-9.55317 13.5132   1
 -10  -3  15-31.5317 25.0433   1
  10   3 -15-4.85166 26.9657   3
  10  -3 -15 2.42175 15.5619   2
  -9  -3  15 2.52023 30.8581   1
   9   3 -15 38.3618 20.6516   3
  -9   3  15 99.8960 28.4631   1
   9  -3 -15 67.4036 24.4478   2
  -8  -3  15 100.443 36.8559   1
   8   3 -15 98.9934 40.5102   3
   8  -3 -15 38.9106 24.5570   2
   7  -3 -15 1695.07 88.9823   1
   7   3 -15 1438.41 133.738   3
  -7  -3  15 1628.82 154.989   1
   7  -3 -15 1474.48 122.639   2
   6  -3 -15 59.4634 31.4816   2
   6   3 -15 38.9015 24.6228   2
   6   3 -15 45.5257 25.6785   3
   6  -3 -15 24.6109 14.7959   1
  -6  -3  15 72.5457 43.6392   1
   5  -3 -15 811.135 76.3969   1
   5   3 -15 626.892 89.3260   2
   5   3 -15 757.651 102.924   3
  -5  -3  15 806.865 110.047   1
  -5  -3  15 827.211 80.8823   2
   5  -3 -15 647.770 88.8754   2
   4  -3 -15 209.276 55.6539   2
   4  -3 -15 297.646 50.6189   1
   4   3 -15 224.874 58.3567   2
   4   3 -15 182.889 62.2403   3
  -4  -3  15 281.989 64.9748   1
  -4  -3  15 156.576 37.7550   2
   3   3 -15 835.405 114.837   2
   3  -3 -15 938.066 91.8698   1
   3   3 -15 951.797 122.145   3
  -3  -3  15 939.486 99.0995   2
   3  -3 -15 637.102 94.3819   2
   2  -3 -15 954.038 98.6380   1
   2   3 -15 859.836 123.279   2
   2   3 -15 1110.40 134.432   3
  -2  -3  15 939.509 102.990   2
   1  -3 -15 2786.73 176.918   1
   1   3 -15 2527.76 217.468   2
   1   3 -15 3111.22 224.750   3
  -1  -3  15 2868.92 186.852   2
   0   3 -15 1032.96 135.401   3
   0  -3  15 1006.54 115.828   2
   0  -3 -15 936.877 108.034   1
  -1  -3 -15-22.1484 26.6079   1
  -1  -3 -15-22.5134 32.3120   3
  -1   3 -15-17.3067 27.1147   3
   1  -3  15 19.2070 31.3070   2
  -2  -3 -15-0.96930 17.7807   1
  -2  -3 -15-17.5056 40.7307   3
  -2   3 -15 58.5194 48.0752   3
   2  -3  15-30.7042 44.8301   2
  -3  -3 -15-19.9982 38.4463   3
  -3   3 -15 37.3548 40.9234   3
   3  -3  15-23.9105 34.7749   2
  -4  -3 -15 7.42388 31.2035   3
   4  -3  15 65.6680 42.1736   2
  -5  -3 -15 283.313 81.2213   3
  -5   3 -15 422.254 104.915   3
   5  -3  15 372.073 87.4484   2
  -6  -3 -15 174.527 68.0191   3
  -6   3 -15 122.735 65.5209   3
   6  -3  15 70.4007 46.5461   2
  -7  -3 -15 418.492 98.7769   3
  -7   3 -15 255.910 79.6199   3
   7  -3  15 347.327 80.9560   2
  -8  -3 -15 144.383 65.2513   3
  -8   3 -15 199.700 81.0680   3
   8  -3  15 117.829 57.7075   2
  -9  -3 -15 66.1372 51.8176   3
  -9   3 -15 30.2928 35.6562   3
   9  -3  15 130.086 56.8345   2
 -10  -3 -15 64.7626 49.7200   3
 -21  -4  15 178.422 72.2085   1
 -20  -4  15 139.159 59.5370   1
 -19  -4  15 80.0572 56.7468   1
 -18   4  15 446.219 79.3385   1
 -18  -4  15 488.288 106.304   1
 -17   4  15 30.7332 26.6573   1
 -17  -4  15 33.3427 37.3364   1
 -16  -4  15 209.133 69.6115   1
 -16   4  15 202.414 53.0740   1
 -15  -4  15 340.919 84.3543   1
 -15   4  15 441.113 69.3646   1
 -14   4  15 175.012 43.1364   1
 -14  -4  15 166.457 54.7811   1
  14   4 -15 158.203 36.7087   3
 -13   4  15 30.5193 25.6359   1
 -13  -4  15 12.3704 31.7802   1
  13   4 -15-4.13004 15.3894   3
 -12   4  15 147.402 33.2750   1
 -12  -4  15 70.2354 40.7245   1
  12   4 -15 129.070 37.1472   3
 -11  -4  15 361.853 80.0610   1
  11   4 -15 352.719 61.8842   3
 -11   4  15 399.434 50.1147   1
  11  -4 -15 373.842 54.9879   2
 -10  -4  15 155.948 57.6904   1
  10   4 -15 206.140 49.1775   3
 -10   4  15 151.947 28.1741   1
  10  -4 -15 175.424 39.2523   2
  -9  -4  15 120.359 47.0767   1
   9   4 -15 50.9114 25.4062   3
   9  -4 -15 73.2770 28.8545   2
  -8  -4  15 4.25952 23.2226   1
   8   4 -15-28.5762 29.3049   3
   8  -4 -15-3.51427 18.1944   2
  -7  -4  15 31.8190 37.7323   1
   7   4 -15 59.5479 31.4337   3
  -7  -4  15 4.29888 16.5870   2
   7  -4 -15-12.6212 18.1739   2
  -6  -4  15-9.19906 34.9547   1
   6   4 -15 33.6182 33.1346   3
  -6  -4  15 63.6552 25.5330   2
   6  -4 -15 35.4715 11.0538   1
   6  -4 -15 51.4432 25.9467   2
   5  -4 -15 1239.06 71.4062   1
   5   4 -15 1120.63 125.804   3
  -5  -4  15 1198.18 137.918   1
  -5  -4  15 1259.72 104.450   2
   5  -4 -15 1031.91 116.609   2
   4   4 -15 913.017 118.212   2
   4   4 -15 888.346 115.859   3
  -4  -4  15 849.363 115.036   1
  -4  -4  15 989.109 97.9197   2
   4  -4 -15 744.093 100.174   2
   4  -4 -15 858.719 69.5193   1
   3   4 -15 641.069 103.778   2
   3  -4 -15 672.330 67.5880   1
  -3  -4  15 797.398 111.760   1
   3   4 -15 593.521 97.6806   3
  -3  -4  15 655.810 85.8019   2
   2   4 -15 157.172 56.2944   2
   2   4 -15 26.9138 39.4379   3
   2  -4 -15 46.1046 22.3598   1
  -2  -4  15 56.5213 25.7051   2
   1  -4 -15 11.6111 14.8667   1
   1   4 -15 60.4660 36.6284   3
  -1  -4  15-4.83126 24.9411   2
   0  -4 -15 365.850 63.2311   1
   0   4 -15 527.846 104.366   3
   0  -4  15 409.093 79.3352   2
  -1  -4 -15 5.02465 13.3887   1
  -1   4 -15 74.8193 51.1361   3
   1  -4  15 16.1230 19.8443   2
  -2  -4 -15 41.0648 26.2900   1
  -2  -4 -15-7.64171 35.2225   3
  -2   4 -15 80.3049 50.9393   3
   2  -4  15 46.1190 36.5397   2
  -3  -4 -15 487.173 101.868   3
  -3   4 -15 498.455 108.958   3
   3  -4  15 423.865 88.5342   2
  -4  -4 -15 151.457 59.2471   3
  -4   4 -15 110.470 57.3813   3
   4  -4  15 25.0254 22.6008   2
  -5  -4 -15 1073.17 151.170   3
  -5   4 -15 1509.55 189.380   3
   5  -4  15 1121.77 148.421   2
  -6  -4 -15 147.918 65.6566   3
  -6   4 -15 273.562 81.2118   3
   6  -4  15 313.141 81.9251   2
  -7  -4 -15 37.0027 39.2099   3
  -7   4 -15 22.7369 41.2245   3
   7  -4  15 45.0156 35.9886   2
  -8  -4 -15 334.358 92.2618   3
   8  -4  15 311.305 86.7580   2
  -9  -4 -15-18.7613 35.7120   3
   9  -4  15 61.9861 50.0181   2
 -10  -4 -15 77.3546 70.0824   3
 -21  -5  15 27.1617 33.3824   1
 -20  -5  15 100.243 56.3739   1
 -19  -5  15 93.2771 53.2203   1
 -18  -5  15 125.098 62.9127   1
 -17  -5  15 360.243 94.0916   1
 -16  -5  15 293.777 83.0798   1
 -15  -5  15-24.4517 29.1090   1
 -14   5  15 47.8109 21.5946   1
 -14  -5  15-11.0807 23.5688   1
 -13   5  15 54.3000 18.8882   1
 -13  -5  15 115.591 52.8001   1
  13   5 -15 23.2619 20.8348   3
 -12   5  15-1.86209 10.0368   1
 -12  -5  15-19.4974 33.2076   1
  12   5 -15 13.4304 17.5040   3
 -11  -5  15 27.7377 27.8617   1
  11   5 -15 63.1913 28.7924   3
 -11   5  15 22.1179 9.81963   1
  10   5 -15 2853.02 177.675   3
  10  -5 -15 2368.50 151.984   2
 -10  -5  15 2743.32 226.100   1
  -9  -5  15 139.382 59.1467   1
   9   5 -15 192.613 52.4404   3
   9  -5 -15 101.219 33.3729   2
  -8  -5  15 270.927 71.2024   1
   8   5 -15 388.505 71.0153   3
  -8  -5  15 396.120 45.3143   2
   8  -5 -15 309.259 60.7384   2
  -7  -5  15 46.1033 28.5159   1
   7   5 -15 61.8935 29.2293   3
   7  -5 -15 60.3950 32.1332   2
  -7  -5  15 109.489 28.3050   2
  -6  -5  15-1.68251 25.6408   1
   6   5 -15 34.8517 37.6415   3
   6  -5 -15 51.9363 26.3410   2
  -6  -5  15 50.4312 20.1253   2
   5   5 -15 2140.32 176.379   3
  -5  -5  15 2065.05 185.400   1
   5  -5 -15 1676.81 149.658   2
  -5  -5  15 1945.26 135.205   2
   4   5 -15-28.0772 28.4327   3
  -4  -5  15 20.9027 25.4106   1
  -4  -5  15 27.5002 17.9875   2
   3   5 -15 1002.05 128.444   3
  -3  -5  15 1045.49 130.719   1
  -3  -5  15 944.957 105.746   2
   2  -5 -15 902.379 73.1096   1
   2   5 -15 1000.64 139.942   2
   2   5 -15 1024.76 133.775   3
  -2  -5  15 1041.83 117.165   2
   1   5 -15 1035.27 138.736   3
  -1  -5  15 1043.47 123.371   2
   0   5 -15 1478.34 168.185   3
   0  -5  15 1335.99 143.325   2
   1  -5  15 35.4747 32.2474   2
  -1   5 -15-31.0993 27.3109   3
  -2   5 -15 1366.69 168.606   3
   2  -5  15 1356.56 153.005   2
  -3   5 -15 722.543 129.541   3
   3  -5  15 711.283 115.614   2
  -4  -5 -15 96.3469 49.1810   3
  -4   5 -15 189.435 83.9227   3
   4  -5  15 52.4793 33.9023   2
  -5  -5 -15-67.0008 50.2482   3
  -5   5 -15 5.12126 34.0864   3
   5  -5  15-31.7871 33.5331   2
  -6  -5 -15 269.216 82.2977   3
   6  -5  15 268.893 82.3628   2
  -7  -5 -15 87.2649 47.5851   3
   7  -5  15 106.097 48.7505   2
  -8  -5 -15-58.1324 44.6427   3
   8  -5  15 63.4730 43.5977   2
  -9  -5 -15-56.9622 45.4896   3
 -10  -5 -15 141.422 70.4496   3
 -20  -6  15 47.5630 40.1775   1
 -19  -6  15 174.647 67.4499   1
 -18  -6  15 7.31390 39.1220   1
 -17  -6  15 424.610 105.741   1
 -16  -6  15 24.5349 35.3674   1
 -15  -6  15 66.2508 41.5245   1
 -14  -6  15 86.2945 50.4101   1
 -13  -6  15 14.1888 33.7771   1
 -12  -6  15-4.27039 25.3208   1
 -11  -6  15 174.181 63.3580   1
 -10  -6  15 45.5357 38.6947   1
  10   6 -15 68.8842 34.0942   3
  -9  -6  15 416.845 92.6429   1
   9   6 -15 306.118 64.1459   3
  -9  -6  15 266.182 35.1316   2
  -8  -6  15-18.8539 38.8654   1
   8   6 -15 64.7165 40.6425   3
   8  -6 -15 69.4083 31.9435   2
  -8  -6  15 41.0904 16.2220   2
  -7  -6  15 421.890 93.4953   1
   7   6 -15 473.159 83.5646   3
   7  -6 -15 416.884 73.8141   2
  -7  -6  15 474.216 60.4689   2
  -6  -6  15 667.887 114.989   1
   6   6 -15 650.169 98.9799   3
  -6  -6  15 747.183 83.0311   2
  -5  -6  15 89.4476 34.0663   2
   5   6 -15 55.0056 33.8119   3
  -5  -6  15 62.9519 34.7195   1
   4   6 -15 766.538 111.759   3
  -4  -6  15 734.062 114.013   1
  -4  -6  15 694.562 90.4741   2
  -3  -6  15 23.4243 26.5311   2
   3   6 -15 34.8048 35.6066   3
  -3  -6  15 13.4625 30.8298   1
  -2  -6  15-11.8125 22.6129   2
   2   6 -15 24.1552 37.9539   3
  -1  -6  15 390.007 78.0948   2
   1   6 -15 325.579 80.1128   3
   0  -6  15 5.75317 23.0042   2
   0   6 -15 94.2688 54.8939   3
  -1   6 -15 897.442 143.328   3
   1  -6  15 684.564 109.089   2
   2  -6  15 22.1444 25.5443   2
   3  -6  15 45.1923 29.7947   2
   4  -6  15 50.6364 35.8270   2
   5  -6  15 45.3303 42.5087   2
  -5  -6 -15-68.0517 54.3450   3
   6  -6  15 35.4714 30.8160   2
  -6  -6 -15-17.7620 35.5010   3
   7  -6  15-12.4034 31.5701   2
  -7  -6 -15 10.3530 31.9311   3
  -8  -6 -15 104.626 62.3497   3
   8  -6  15 98.3431 54.7667   2
  -9  -6 -15 163.112 66.3418   3
 -19  -7  15-107.237 58.3570   1
 -18  -7  15 105.267 51.6615   1
 -17  -7  15 29.1683 46.7848   1
 -16  -7  15 249.287 82.0936   1
 -15  -7  15 71.4015 44.0311   1
 -14  -7  15 127.377 63.7603   1
 -13  -7  15 11.1314 25.1604   1
 -12  -7  15 77.9447 48.3680   1
 -11  -7  15 22.4969 26.8740   1
 -10  -7  15-23.8598 32.8886   1
  -9  -7  15 5.85402 37.3932   1
  -9  -7  15 10.8469 11.4648   2
  -8  -7  15 102.416 29.2947   2
  -8  -7  15 111.036 52.5794   1
  -7  -7  15 18.9572 13.7510   2
  -7  -7  15 75.9567 41.0118   1
  -6  -7  15-28.4672 47.3950   1
  -6  -7  15-29.5855 23.3825   2
  -5  -7  15 54.5689 17.5785   2
  -5  -7  15-22.3951 27.2122   1
  -4  -7  15 723.600 117.960   1
  -4  -7  15 791.287 101.288   2
  -3  -7  15 780.379 123.455   1
  -3  -7  15 893.200 113.514   2
  -2  -7  15 788.228 110.097   2
  -1  -7  15 136.496 50.4080   2
   0  -7  15 71.9722 35.3744   2
   1  -7  15 15.7655 24.2412   2
   2  -7  15 405.233 90.8216   2
   3  -7  15 196.006 65.7333   2
   4  -7  15 20.0636 36.9056   2
   5  -7  15-9.11819 27.2167   2
  -5  -7 -15-29.6986 43.5263   3
   6  -7  15-19.5736 28.8670   2
  -6  -7 -15-30.3855 39.1243   3
   7  -7  15 106.600 56.7965   2
  -7  -7 -15 94.5257 54.7529   3
  -8  -7 -15 283.022 95.6604   3
 -17  -8  15-1.66233 36.8125   1
 -16  -8  15 149.060 69.1571   1
 -15  -8  15 51.3046 36.8737   1
 -14  -8  15 8.56779 25.7593   1
 -13  -8  15-20.6599 54.3077   1
 -12  -8  15 229.732 79.3433   1
 -11  -8  15 366.799 96.8726   1
 -10  -8  15 116.662 61.5363   1
  -9  -8  15 195.823 40.4435   2
  -9  -8  15 243.949 76.9071   1
  -8  -8  15 340.390 55.3000   2
  -8  -8  15 409.566 97.9674   1
  -7  -8  15 17.3334 25.2824   1
  -7  -8  15 23.1273 19.1481   2
  -6  -8  15-2.04471 33.5389   1
  -6  -8  15 4.03923 16.6784   2
  -5  -8  15 76.4373 34.6485   2
  -5  -8  15-19.1102 31.2027   1
  -4  -8  15 420.983 79.7372   2
  -4  -8  15 401.711 91.5771   1
  -3  -8  15 105.983 44.5510   2
  -3  -8  15-7.39062 37.0645   1
  -2  -8  15 23.9368 25.5978   2
  -2  -8  15 105.463 64.8684   1
  -1  -8  15-0.64692 23.1273   2
   0  -8  15 761.344 124.358   2
   1  -8  15 29.0735 35.1485   2
   2  -8  15 101.294 51.1221   2
   3  -8  15-24.8026 34.2453   2
   4  -8  15 13.1628 32.3535   2
   5  -8  15-28.9331 33.1749   2
   6  -8  15-6.56024 30.0123   2
  -6  -8 -15-21.5560 53.6460   3
   7  -8  15 197.055 79.0871   2
  -7  -8 -15 214.263 80.0802   3
 -16  -9  15 38.8670 40.0705   1
 -15  -9  15-1.65747 30.9715   1
 -14  -9  15 19.1981 36.8327   1
 -13  -9  15 60.6196 51.7817   1
 -12  -9  15 1848.71 212.584   1
 -11  -9  15 69.3694 44.5251   1
 -10  -9  15 458.008 103.271   1
  -9  -9  15 196.895 71.2222   1
  -8  -9  15 64.2795 35.7368   1
  -8  -9  15 60.7792 27.5320   2
  -7  -9  15-30.2137 38.5050   1
  -7  -9  15-14.6689 15.4172   2
  -6  -9  15-133.886 58.0568   1
  -6  -9  15 50.1625 29.1119   2
  -5  -9  15 223.572 57.5114   2
  -5  -9  15 186.039 69.1784   1
  -4  -9  15 842.897 116.317   2
  -4  -9  15 764.166 126.084   1
  -3  -9  15 162.610 56.1183   2
  -3  -9  15 82.0113 46.6290   1
  -2  -9  15 11.1057 21.0090   2
  -2  -9  15-3.50278 24.7617   1
  -1  -9  15-3.81599 28.0860   2
   0  -9  15 196.062 68.0361   2
   1  -9  15 2.49848 28.8688   2
   2  -9  15 391.756 101.379   2
   3  -9  15 172.195 76.3036   2
   4  -9  15 163.316 68.6227   2
   5  -9  15 402.858 105.464   2
   6  -9  15 65.3413 41.3806   2
 -14 -10  15 37.3748 30.4881   1
 -13 -10  15 37.4780 52.1521   1
 -12 -10  15 160.814 68.0734   1
 -11 -10  15 135.940 62.3293   1
 -10 -10  15 149.524 61.2201   1
  -9 -10  15 224.331 72.8461   1
  -8 -10  15-17.8121 40.6300   1
  -7 -10  15 15.8261 23.2811   1
  -7 -10  15 27.6162 25.0290   2
  -6 -10  15 158.129 55.0773   2
  -6 -10  15 91.8145 40.6005   1
  -5 -10  15-33.2648 42.0815   2
  -5 -10  15-15.1941 25.9519   1
  -4 -10  15-4.62212 24.8952   2
  -4 -10  15 33.9982 42.1754   1
  -3 -10  15 126.510 54.7342   2
  -3 -10  15 225.616 76.2898   1
  -2 -10  15 42.1942 36.7403   2
  -2 -10  15 135.755 69.2851   1
  -1 -10  15 70.2125 35.9688   2
   0 -10  15 179.574 69.5053   2
   1 -10  15 2.44753 24.8527   2
   2 -10  15 48.7293 43.8966   2
   3 -10  15-28.2878 31.9252   2
   4 -10  15-33.0904 35.8259   2
   5 -10  15-14.8103 28.6850   2
 -12 -11  15 221.447 83.9544   1
 -11 -11  15-14.0710 28.7157   1
 -10 -11  15 6.54274 31.5300   1
  -9 -11  15-10.5975 29.6806   1
  -8 -11  15 79.2830 45.3570   1
  -7 -11  15-109.889 56.0553   1
  -6 -11  15-35.6187 29.3126   2
  -6 -11  15-6.17531 25.2476   1
  -5 -11  15 207.242 66.6556   2
  -5 -11  15 365.643 96.8960   1
  -4 -11  15 93.7279 41.5918   2
  -4 -11  15 29.1584 32.8558   1
  -3 -11  15 70.8719 42.8085   2
  -3 -11  15 150.740 69.2943   1
  -2 -11  15-48.6558 36.6201   2
  -1 -11  15 122.602 60.2335   2
   0 -11  15 13.8148 31.7430   2
   1 -11  15-48.6527 40.2279   2
   2 -11  15 228.454 77.1797   2
   3 -11  15 88.1438 55.9276   2
   4 -11  15 39.7755 37.1442   2
  -7 -12  15 103.648 50.7358   1
  -6 -12  15 29.5678 41.8452   1
  -5 -12  15-13.0302 24.6152   2
  -5 -12  15 65.7577 43.9417   1
  -4 -12  15 47.8519 41.4037   2
  -4 -12  15 130.025 57.7129   1
  -3 -12  15-28.7506 32.4906   2
  -2 -12  15 19.3617 28.9101   2
  -1 -12  15 41.9938 46.7606   2
   0 -12  15 16.0054 27.2152   2
   1 -12  15-69.1767 44.4245   2
   2 -12  15 74.6329 53.6142   2
   3 -12  15 10.2124 33.6139   2
  -4 -13  15 9.66904 33.2228   2
  -3 -13  15 38.2855 37.0142   2
  -2 -13  15-33.8162 34.8714   2
  -1 -13  15-10.3059 25.2360   2
   0 -13  15 102.216 61.9302   2
   1 -13  15 41.4383 39.7795   2
  -2 -14  15 66.4683 43.2800   2
  -1 -14  15-127.643 61.2457   2
 -23   0  16 43.6045 59.6323   1
 -22   0  16 84.0943 45.9146   1
 -21   0  16 33.7046 32.6896   1
 -20   0  16-4.05738 25.7945   1
 -19   0  16 85.1471 45.3477   1
 -18   0  16 123.524 52.8304   1
 -17   0  16 58.8515 36.4698   1
 -16   0  16 245.290 68.2584   1
 -15   0  16 202.196 59.7222   1
 -14   0  16 412.085 81.8326   1
 -13   0  16 997.482 121.481   1
 -12   0  16 63.1449 31.7860   1
  11   0 -16 3236.89 169.285   1
 -11   0  16 3249.64 209.792   1
  10   0 -16 146.361 38.8985   1
 -10   0  16 189.607 50.2779   1
   9   0 -16 791.013 74.7258   2
   9   0 -16 864.197 96.1129   1
  -9   0  16 1031.89 112.873   1
   8   0 -16 1481.13 112.600   2
   8   0 -16 1599.67 136.371   1
  -8   0  16 1632.80 139.542   1
   7   0 -16 1039.59 113.952   1
   7   0 -16 981.005 99.8265   2
   7   0 -16 1076.04 124.176   3
  -7   0  16 1075.58 112.383   1
   6   0 -16 1681.71 140.607   2
   6   0 -16 2089.56 172.742   3
   6   0 -16 1889.55 157.849   1
   5   0 -16 64.4510 39.4782   1
   5   0 -16 108.651 42.9369   2
   5   0 -16 134.710 54.8014   3
   4   0 -16 567.235 90.2062   2
   4   0 -16 594.468 93.0683   1
   4   0 -16 790.948 111.579   3
   3   0 -16 1126.76 132.549   2
   3   0 -16 1294.72 141.531   1
   3   0 -16 1482.19 156.678   3
   2   0 -16 247.022 66.7533   2
   2   0 -16 268.466 67.6348   3
   2   0 -16 223.878 58.6529   1
   1   0 -16 151.922 63.3295   1
   1   0 -16 137.908 55.1641   3
   0   0 -16 299.955 80.4833   3
  -1   0 -16 350.079 82.3133   3
  -2   0 -16 249.080 66.5921   3
  -3   0 -16 395.147 91.8938   3
  -4   0 -16 80.2757 52.6112   3
  -5   0 -16-3.06271 28.6813   3
  -6   0 -16 952.795 153.727   3
  -7   0 -16 1486.03 197.722   3
  -8   0 -16 118.232 61.9817   3
 -23  -1  16 165.670 68.1829   1
 -22  -1  16 71.5819 45.7941   1
 -22   1  16 37.8976 28.7571   1
 -21  -1  16 177.929 64.6898   1
 -21   1  16 118.183 55.9157   1
 -20  -1  16 103.256 59.6885   1
 -20   1  16 63.6381 35.0762   1
 -19  -1  16 219.465 69.6050   1
 -19   1  16 294.742 76.2389   1
 -18   1  16 56.3411 36.2847   1
 -18  -1  16 59.1680 43.2086   1
 -17  -1  16 181.396 60.9314   1
 -17   1  16 201.822 60.2389   1
  16   1 -16 5.64751 15.5075   3
 -16  -1  16 14.8764 31.8916   1
 -16   1  16 23.3729 26.5174   1
  15   1 -16-11.7891 24.7342   3
 -15   1  16-21.4848 29.9158   1
 -15  -1  16 2.83960 20.8425   1
  14   1 -16 3.18866 16.6505   3
 -14   1  16 17.5439 30.5556   1
 -14  -1  16 16.2917 20.6994   1
 -13   1  16 20.6881 23.4569   1
 -13  -1  16 40.9389 33.8872   1
  13   1 -16 43.1744 28.0918   3
 -12  -1  16 564.672 96.2674   1
  12   1 -16 660.399 88.0576   3
 -12   1  16 704.770 95.4081   1
 -11   1  16 133.175 42.8590   1
 -11  -1  16 146.382 50.2340   1
  11   1 -16 216.440 51.3969   1
  11   1 -16 206.585 54.0017   3
 -10   1  16 25.2604 28.6074   1
 -10  -1  16 7.66002 32.3836   1
  10  -1 -16 27.9640 15.9819   2
  10   1 -16-22.2428 26.9779   1
  10   1 -16 62.1650 34.0970   3
  10  -1 -16 7.95438 15.5166   1
   9  -1 -16 1251.56 98.7293   2
   9   1 -16 1341.28 88.6110   2
   9   1 -16 1476.92 137.476   1
   9   1 -16 1601.87 143.321   3
  -9   1  16 1400.57 124.750   1
  -9  -1  16 1565.96 146.240   1
   9  -1 -16 1363.42 106.835   1
   8  -1 -16 1459.30 117.590   2
   8   1 -16 1480.91 143.079   1
   8   1 -16 1441.53 108.448   2
   8   1 -16 1686.46 149.397   3
   8  -1 -16 1564.08 120.506   1
  -8   1  16 1759.85 134.396   1
  -8  -1  16 1587.84 149.499   1
   7  -1 -16 1403.26 122.349   2
   7  -1 -16 1334.47 120.024   1
   7   1 -16 1356.33 117.129   2
   7   1 -16 1506.44 145.234   3
  -7   1  16 1790.95 134.423   1
  -7  -1  16 1465.12 141.554   1
   7   1 -16 1439.72 143.322   1
   6  -1 -16 3845.63 211.705   2
   6   1 -16 3466.08 202.553   2
   6   1 -16 4158.16 242.803   3
  -6  -1  16 4286.96 232.065   1
   6   1 -16 3650.90 234.663   1
   6  -1 -16 3700.69 203.464   1
   5  -1 -16 1498.11 139.255   2
   5   1 -16 1370.99 134.625   2
   5   1 -16 1575.28 152.495   3
   5   1 -16 1437.38 149.248   1
   5  -1 -16 1540.20 134.385   1
   4   1 -16-46.1263 40.8310   1
   4  -1 -16 10.0239 22.8638   1
   4  -1 -16 46.1419 29.9841   2
   4   1 -16 45.9426 25.7466   2
   4  -1 -16 15.5189 29.9104   3
   4   1 -16 96.0630 38.8516   3
   3  -1 -16 181.682 53.4974   2
   3   1 -16 168.545 53.7504   2
   3  -1 -16 111.157 55.8124   3
   3   1 -16 166.858 56.3823   3
   3   1 -16 59.4613 43.7515   1
   3  -1 -16 50.8267 36.0394   1
   2   1 -16 414.372 86.5141   2
   2  -1 -16 642.682 103.916   3
   2   1 -16 606.663 102.856   3
   2  -1 -16 494.131 86.5405   1
   1  -1 -16 19.5659 15.5792   1
   1  -1 -16-14.7179 30.4934   3
   1   1 -16-64.2496 50.0629   3
   0  -1 -16 99.0331 39.4396   1
   0  -1 -16 21.2852 25.7071   3
   0   1 -16 60.8821 35.1761   3
  -1  -1 -16-19.6116 26.5519   3
  -1   1 -16 60.3698 36.1997   3
   1  -1  16 31.6953 28.0650   2
  -2  -1 -16 45.4557 39.4900   3
  -2   1 -16 56.8382 43.9723   3
   2  -1  16 28.5435 21.0805   2
  -3  -1 -16-22.6059 34.3441   3
  -3   1 -16 15.1389 32.5626   3
   3  -1  16 31.7528 27.5139   2
  -4  -1 -16-1.55549 33.8923   3
  -4   1 -16-2.57436 31.3261   3
   4  -1  16-10.3988 25.0104   2
  -5  -1 -16 10.5750 31.2988   3
   5  -1  16 10.2247 20.2558   2
  -6  -1 -16 355.626 95.9777   3
   6  -1  16 517.232 103.416   2
  -7  -1 -16 303.191 95.3026   3
  -7   1 -16 122.522 70.1613   3
   7  -1  16 153.280 61.2599   2
  -8  -1 -16 150.852 74.9894   3
  -8   1 -16 156.143 67.2789   3
   8  -1  16 157.562 65.8937   2
 -23  -2  16-17.5373 24.8132   1
 -22  -2  16 109.953 64.3607   1
 -21  -2  16 119.488 56.6198   1
 -20  -2  16 491.850 107.874   1
 -20   2  16 569.035 104.538   1
 -19  -2  16-0.19613 25.0520   1
 -19   2  16-5.91001 20.4562   1
 -18   2  16-100.936 42.2709   1
 -18  -2  16-81.9304 46.7990   1
 -17  -2  16 49.3874 44.3263   1
 -17   2  16 30.1004 27.0776   1
 -16  -2  16 158.703 56.7765   1
 -16   2  16 210.877 58.7485   1
  15   2 -16 14.8070 21.5393   3
 -15   2  16 12.6590 23.0297   1
 -15  -2  16 19.4775 41.2557   1
 -14   2  16 239.324 58.6331   1
  14   2 -16 254.610 52.3381   3
 -14  -2  16 324.948 80.8050   1
 -13   2  16-18.8327 15.4250   1
 -13  -2  16 19.7298 40.2855   1
  13   2 -16-5.17387 20.8392   3
 -12   2  16 9.35242 28.1961   1
 -12  -2  16 63.6740 37.6699   1
  12   2 -16 15.1160 23.2131   3
 -11   2  16 115.703 37.8845   1
 -11  -2  16 145.223 59.3260   1
  11   2 -16 120.985 37.8908   3
 -10   2  16 144.026 36.6573   1
  10  -2 -16 119.756 30.3323   2
 -10  -2  16 121.004 52.0377   1
  10   2 -16 175.992 50.5338   3
   9  -2 -16 183.059 40.9901   2
  -9  -2  16 252.356 64.1838   1
   9   2 -16 225.634 57.4938   3
  -9   2  16 251.001 48.9538   1
   9  -2 -16 220.891 38.2562   1
  -8  -2  16 11.8794 32.3475   1
   8   2 -16 53.0147 27.0180   1
   8  -2 -16 45.7199 23.3697   2
   8   2 -16 15.8130 28.1322   3
   8   2 -16 4.20017 19.0016   2
   8  -2 -16 55.5420 22.1358   1
  -8   2  16 52.4077 28.1016   1
   7   2 -16 5166.85 227.993   2
   7  -2 -16 5699.49 215.851   1
   7   2 -16 6007.12 287.318   3
  -7  -2  16 5651.51 283.403   1
   7   2 -16 5642.57 299.343   1
   7  -2 -16 5352.98 240.084   2
   6  -2 -16 862.336 89.6813   1
   6   2 -16 701.997 91.0228   2
   6   2 -16 983.084 119.746   3
  -6  -2  16 914.401 118.563   1
   6   2 -16 923.234 123.338   1
   6  -2 -16 812.282 99.5336   2
   5   2 -16 1670.50 150.184   2
   5   2 -16 1818.00 165.101   3
  -5  -2  16 2170.94 171.233   1
   5  -2 -16 1907.55 138.374   1
   5  -2 -16 1645.38 146.848   2
   4  -2 -16 127.286 43.6284   2
   4  -2 -16 116.132 37.8859   1
   4   2 -16 133.487 45.9764   2
   4   2 -16 122.747 47.5372   3
   3  -2 -16 47.2552 30.4331   2
   3   2 -16-31.3701 27.9054   2
   3   2 -16 13.0001 28.8770   3
   3  -2 -16-35.2543 22.9791   1
   2   2 -16 13.8760 33.1165   2
   2   2 -16-39.1745 40.4753   3
   2  -2 -16 3.01094 14.5276   1
  -2  -2  16-17.4318 26.1642   2
   1  -2 -16 414.885 86.9675   3
   1  -2 -16 363.660 70.7600   1
   1   2 -16 408.349 84.1296   3
  -1  -2  16 317.483 65.6944   2
   0  -2 -16 640.115 98.0090   1
   0  -2 -16 770.917 118.943   3
   0   2 -16 737.117 117.885   3
   0  -2  16 591.163 90.7315   2
  -1  -2 -16 37.2948 27.7104   1
  -1  -2 -16 42.3870 37.4961   3
  -1   2 -16 42.8046 35.1094   3
   1  -2  16-11.8498 21.5462   2
  -2  -2 -16 397.835 91.2528   3
  -2   2 -16 416.083 95.8862   3
   2  -2  16 461.984 86.9384   2
  -3  -2 -16 288.822 84.4481   3
  -3   2 -16 251.470 72.9632   3
   3  -2  16 156.552 52.7882   2
  -4  -2 -16-31.1473 41.4458   3
  -4   2 -16-37.9529 38.5569   3
   4  -2  16 41.7451 33.4969   2
  -5  -2 -16 65.8524 54.7369   3
  -5   2 -16-17.0468 43.7319   3
   5  -2  16-10.9232 31.2585   2
  -6  -2 -16-52.0311 52.1936   3
  -6   2 -16-29.7361 32.1263   3
   6  -2  16-51.1079 44.3417   2
  -7  -2 -16 62.1688 29.6685   3
  -7   2 -16-0.71288 39.3264   3
   7  -2  16 64.4720 43.6596   2
  -8  -2 -16 31.7797 31.7016   3
  -8   2 -16-20.0997 53.4068   3
 -22  -3  16 30.0260 23.9754   1
 -21  -3  16 42.1824 33.8899   1
 -20  -3  16 69.1392 46.6134   1
 -19  -3  16 81.3008 50.2173   1
 -18  -3  16 24.5735 32.0145   1
 -17  -3  16 10.0097 36.7195   1
 -17   3  16 8.17856 20.1428   1
 -16  -3  16-21.7641 28.9373   1
 -16   3  16-21.3734 24.1458   1
 -15   3  16-24.4500 18.2348   1
  15   3 -16-10.0608 18.3158   3
 -15  -3  16 40.7074 35.6419   1
 -14   3  16 159.822 42.5337   1
 -14  -3  16 123.610 58.1383   1
  14   3 -16 116.511 35.5041   3
 -13   3  16 30.1079 24.8988   1
 -13  -3  16 54.5218 27.6462   1
  13   3 -16 36.1665 24.7139   3
 -12   3  16 0.83534 13.0919   1
 -12  -3  16 31.2460 33.5517   1
  12   3 -16-19.1086 31.1447   3
 -11   3  16 214.821 42.2986   1
 -11  -3  16 283.744 70.3900   1
  11   3 -16 251.848 56.5688   3
  10  -3 -16 25.4936 13.7418   2
 -10  -3  16 31.2579 29.5915   1
  10   3 -16 7.31361 24.7783   3
 -10   3  16 35.9306 18.7394   1
   9  -3 -16 339.035 56.3443   2
  -9  -3  16 352.595 77.6474   1
   9   3 -16 424.462 74.3183   3
  -8  -3  16 499.080 94.3479   1
   8   3 -16 598.316 90.0591   3
   8  -3 -16 509.239 73.2945   2
   7   3 -16 1407.10 139.297   3
  -7  -3  16 1508.15 156.860   1
   7  -3 -16 1161.44 115.277   2
   7  -3 -16 1461.91 87.2061   1
   6  -3 -16 2743.64 133.687   1
   6   3 -16 2483.20 175.080   2
   6   3 -16 2959.87 206.270   3
  -6  -3  16 3035.75 216.073   1
   6  -3 -16 2489.17 175.641   2
   5  -3 -16 98.1724 39.0528   2
   5   3 -16 123.802 42.5520   2
   5   3 -16 32.0650 26.7268   3
   5  -3 -16-16.6317 19.2044   1
  -5  -3  16 85.0074 34.4656   1
   4  -3 -16 30.2807 25.6940   2
   4  -3 -16-9.34873 11.3775   1
   4   3 -16 51.2895 32.2949   2
   4   3 -16 51.7823 31.7957   3
  -4  -3  16-5.25275 22.8175   2
   3  -3 -16 174.105 44.1451   1
   3   3 -16 181.616 56.9809   2
   3   3 -16 299.091 71.5252   3
  -3  -3  16 178.706 44.6581   2
   2   3 -16 77.6517 38.8477   2
   2   3 -16-56.1296 45.0133   3
   2  -3 -16 10.1159 28.3897   1
  -2  -3  16 10.5139 22.2804   2
   1  -3 -16 119.556 40.6489   1
   1   3 -16 135.597 48.5443   3
  -1  -3  16 96.2930 36.4431   2
   0  -3 -16 96.1226 39.1653   1
   0  -3 -16 143.127 54.5605   3
   0   3 -16 101.721 43.6843   3
   0  -3  16 128.633 44.7601   2
  -1  -3 -16 72.3618 44.4816   3
  -1   3 -16-9.95349 29.6521   3
   1  -3  16 30.1668 30.8091   2
  -2  -3 -16-32.0589 32.1773   3
  -2   3 -16 45.9111 37.7780   3
   2  -3  16 30.3129 29.0176   2
  -3  -3 -16 65.7146 45.3746   3
  -3   3 -16 70.2389 48.1990   3
   3  -3  16-2.22301 20.0021   2
  -4  -3 -16 464.814 107.574   3
  -4   3 -16 412.229 97.4587   3
   4  -3  16 361.838 84.6971   2
  -5  -3 -16 178.558 72.3517   3
  -5   3 -16 226.255 73.9670   3
   5  -3  16 226.600 67.5888   2
  -6  -3 -16-76.4308 49.5036   3
  -6   3 -16-31.2629 64.8222   3
   6  -3  16 19.7868 40.2359   2
  -7  -3 -16 75.7098 51.9944   3
  -7   3 -16 119.042 68.4049   3
   7  -3  16 134.317 60.7512   2
  -8  -3 -16 246.133 73.2786   3
   8  -3  16 278.222 80.8903   2
 -21  -4  16-4.65836 20.8919   1
 -20  -4  16-43.6944 38.7296   1
 -19  -4  16 100.317 53.6982   1
 -18  -4  16-4.38515 32.4829   1
 -17  -4  16 53.3554 37.2032   1
 -16  -4  16 104.547 47.5876   1
 -15  -4  16-1.87653 37.5166   1
 -14   4  16 138.403 37.4005   1
 -14  -4  16 151.482 62.7871   1
  14   4 -16 107.962 34.8921   3
 -13   4  16 189.818 39.0903   1
 -13  -4  16 157.427 55.8784   1
  13   4 -16 321.403 58.0247   3
 -12   4  16 109.898 28.4741   1
 -12  -4  16 109.420 50.6783   1
  12   4 -16 68.2493 33.3797   3
 -11  -4  16 8.54410 23.8431   1
  11   4 -16 23.8170 20.1228   3
 -11   4  16 4.43876 8.56925   1
 -10  -4  16 298.155 76.3793   1
  10   4 -16 293.474 61.0409   3
  10  -4 -16 259.606 50.1955   2
   9   4 -16 1606.79 143.852   3
   9  -4 -16 1234.77 112.413   2
  -9  -4  16 1298.79 152.393   1
  -8  -4  16 406.285 84.5598   1
   8   4 -16 394.806 73.0444   3
   8  -4 -16 407.583 68.3186   2
  -7  -4  16 230.468 65.9313   1
   7   4 -16 183.263 53.5152   3
   7  -4 -16 212.731 50.9045   2
   6   4 -16-13.2295 27.5915   3
  -6  -4  16 35.1070 16.9487   2
  -6  -4  16-6.84118 30.8970   1
   6  -4 -16 0.70654 16.7978   2
   5  -4 -16 115.400 43.0314   2
   5   4 -16 125.419 47.4421   2
   5   4 -16 133.835 48.0686   3
  -5  -4  16 56.0081 32.3023   1
  -5  -4  16 69.8383 28.5715   2
   4   4 -16 197.218 58.9911   2
   4   4 -16 160.867 59.0999   3
  -4  -4  16 169.508 59.2010   1
  -4  -4  16 210.403 52.5911   2
   3   4 -16 105.999 44.4237   2
   3   4 -16 54.5233 40.5682   3
  -3  -4  16 103.783 40.6764   2
   2   4 -16 69.3745 42.2770   3
  -2  -4  16 12.8284 24.8643   2
   1   4 -16-28.5318 40.7475   3
  -1  -4  16 16.9653 19.0529   2
   0   4 -16 184.494 64.5777   3
   0  -4  16 241.192 59.5337   2
  -1  -4 -16 36.3904 33.6861   3
  -1   4 -16 38.3854 42.8683   3
   1  -4  16-2.17082 29.1931   2
  -2  -4 -16-25.6166 33.9405   3
  -2   4 -16 1.73799 35.9859   3
   2  -4  16-27.1388 26.5458   2
  -3  -4 -16 224.423 71.8201   3
  -3   4 -16 144.937 63.5035   3
   3  -4  16 226.176 67.4431   2
  -4  -4 -16 271.495 82.2961   3
  -4   4 -16 261.209 85.6962   3
   4  -4  16 262.921 74.3524   2
  -5  -4 -16 35.0808 40.7395   3
  -5   4 -16 35.1617 49.9664   3
   5  -4  16-2.04978 24.5898   2
  -6  -4 -16 344.507 97.8944   3
  -6   4 -16 417.428 109.206   3
   6  -4  16 255.685 74.6722   2
  -7  -4 -16 79.5134 49.3460   3
  -7   4 -16 153.083 77.4908   3
   7  -4  16 135.074 63.3782   2
  -8  -4 -16 218.272 86.8673   3
   8  -4  16 130.540 51.6319   2
 -20  -5  16 229.615 80.3600   1
 -19  -5  16 30.6396 22.9809   1
 -18  -5  16-35.3646 44.3682   1
 -17  -5  16 1.05643 33.8451   1
 -16  -5  16 319.266 90.3678   1
 -15  -5  16-32.8925 46.2508   1
 -14  -5  16 126.740 58.4553   1
 -13  -5  16 112.574 45.6967   1
  13   5 -16 106.897 37.9802   3
 -12  -5  16-14.2674 38.0674   1
  12   5 -16 30.1622 25.3952   3
 -11  -5  16 64.1126 36.1937   1
  11   5 -16 43.1473 31.9835   3
 -10  -5  16 105.079 49.9597   1
  10   5 -16 18.6370 23.0664   3
  -9  -5  16 615.172 108.529   1
   9   5 -16 702.726 97.7980   3
   9  -5 -16 514.860 76.4140   2
  -8  -5  16 36.5408 34.3990   1
   8   5 -16 75.0478 42.2448   3
  -8  -5  16 65.7900 23.5324   2
   8  -5 -16 48.0893 31.7534   2
   7   5 -16 889.348 113.891   3
  -7  -5  16 1249.88 150.880   1
  -7  -5  16 1107.00 88.5376   2
   7  -5 -16 906.937 107.617   2
   6   5 -16 106.821 41.2191   3
  -6  -5  16 156.306 41.0275   2
  -6  -5  16 152.834 56.5505   1
   5   5 -16 1196.75 137.988   3
  -5  -5  16 1375.22 156.669   1
  -5  -5  16 1364.36 116.189   2
   4   5 -16 905.634 130.210   3
  -4  -5  16 1065.39 133.535   1
  -4  -5  16 984.413 104.782   2
   3   5 -16 162.739 57.3094   3
  -3  -5  16 122.781 41.4827   2
   2   5 -16 532.710 101.879   3
  -2  -5  16 484.303 81.6849   2
   1   5 -16 143.334 60.3843   3
  -1  -5  16-29.3866 25.5477   2
   0   5 -16 140.535 69.0195   3
   0  -5  16 37.3191 25.7560   2
  -1   5 -16 61.4484 43.6660   3
   1  -5  16 151.929 55.9063   2
  -2   5 -16 60.2908 53.4729   3
   2  -5  16-0.82300 22.3046   2
  -3  -5 -16 214.658 75.9618   3
  -3   5 -16 104.177 50.5220   3
   3  -5  16 218.003 66.4227   2
  -4  -5 -16 531.267 112.977   3
  -4   5 -16 437.050 112.397   3
   4  -5  16 457.674 98.9085   2
  -5  -5 -16 18.7796 47.0781   3
  -5   5 -16-80.9097 68.7235   3
   5  -5  16 50.2482 38.8713   2
  -6  -5 -16 44.6562 45.1836   3
   6  -5  16 90.2280 42.4422   2
  -7  -5 -16 92.0854 64.0798   3
   7  -5  16 56.6364 42.4653   2
 -19  -6  16 98.1812 55.9704   1
 -18  -6  16 29.3505 34.3793   1
 -17  -6  16 315.551 88.2351   1
 -16  -6  16 302.892 84.8575   1
 -15  -6  16 592.290 117.134   1
 -14  -6  16-4.91835 28.0725   1
 -13  -6  16 163.209 73.9545   1
 -12  -6  16 325.171 84.0457   1
 -11  -6  16 170.568 66.2853   1
  11   6 -16 125.490 42.1118   3
 -10  -6  16 403.377 94.6925   1
  10   6 -16 562.972 88.8242   3
  -9  -6  16 43.1903 33.3868   1
   9   6 -16 56.1113 30.1868   3
  -9  -6  16 50.7470 17.1013   2
  -8  -6  16 23.3966 32.5160   1
   8   6 -16 10.4755 25.5635   3
  -8  -6  16 31.3315 18.7095   2
  -7  -6  16 17.5943 30.3360   1
   7   6 -16 6.47045 32.9423   3
  -7  -6  16 19.3741 15.9728   2
   6   6 -16 82.8783 31.4897   3
  -6  -6  16 55.7534 33.5823   1
  -6  -6  16 14.3529 17.8002   2
   5   6 -16 173.957 58.1832   3
  -5  -6  16 277.784 74.0299   1
  -5  -6  16 249.185 52.5562   2
   4   6 -16 400.952 87.1615   3
  -4  -6  16 301.463 78.1558   1
  -4  -6  16 244.908 54.8182   2
  -3  -6  16 78.3694 30.8137   2
   3   6 -16 126.250 58.2594   3
  -2  -6  16 422.256 80.5763   2
   2   6 -16 488.257 98.6615   3
  -1  -6  16 27.3876 36.5773   2
   1   6 -16 173.832 66.1131   3
   0  -6  16 582.681 105.221   2
   0   6 -16 631.995 119.112   3
   1  -6  16 168.216 60.1494   2
  -1   6 -16 255.682 84.0299   3
   2  -6  16-41.4973 34.2667   2
   3  -6  16 11.5108 35.6368   2
  -4  -6 -16 37.9487 32.9500   3
   4  -6  16-45.7974 36.2587   2
  -5  -6 -16 13.8092 38.5009   3
   5  -6  16-42.4987 38.3189   2
  -6  -6 -16-57.8500 47.0441   3
   6  -6  16 72.6630 47.1412   2
  -7  -6 -16 49.5886 45.9274   3
   7  -6  16-12.8449 28.7047   2
 -18  -7  16 191.499 76.5738   1
 -17  -7  16 11.1730 32.7159   1
 -16  -7  16 72.9982 47.8145   1
 -15  -7  16 100.007 56.3426   1
 -14  -7  16-19.5944 43.3023   1
 -13  -7  16 99.0114 53.2605   1
 -12  -7  16-6.99483 31.6171   1
 -11  -7  16 16.2548 36.0219   1
 -10  -7  16 192.736 66.0054   1
  -9  -7  16 78.2339 41.1233   1
  -8  -7  16 63.3586 41.4765   1
  -8  -7  16 99.4424 27.5069   2
  -7  -7  16 42.4293 24.3402   2
  -7  -7  16 32.2679 39.1023   1
  -6  -7  16 226.063 50.8200   2
  -6  -7  16 265.918 72.9491   1
  -5  -7  16 42.3000 23.9267   2
  -5  -7  16 16.3054 27.7081   1
  -4  -7  16 24.3328 23.2218   2
  -4  -7  16 15.2891 30.2375   1
  -3  -7  16 465.439 82.7467   2
  -3  -7  16 457.924 93.5829   1
  -2  -7  16 493.302 88.9457   2
  -1  -7  16 389.247 82.9109   2
   0  -7  16 20.5542 30.3221   2
   1  -7  16-7.70104 27.7404   2
   2  -7  16 5.56406 21.5696   2
   3  -7  16 14.8968 26.2736   2
   4  -7  16 0.20592 25.6790   2
   5  -7  16 350.539 92.2771   2
  -5  -7 -16 318.570 95.3431   3
   6  -7  16 73.4524 47.9075   2
  -6  -7 -16-66.6169 50.4145   3
 -17  -8  16 57.7126 48.0594   1
 -16  -8  16 198.685 74.4904   1
 -15  -8  16 292.126 90.3267   1
 -14  -8  16 92.2016 45.8509   1
 -13  -8  16 47.6271 43.1990   1
 -12  -8  16 175.921 70.7494   1
 -11  -8  16 25.8318 45.6426   1
 -10  -8  16 33.0071 31.9960   1
  -9  -8  16 809.501 135.222   1
  -8  -8  16-21.2142 38.9971   1
  -7  -8  16 6.89256 28.8709   1
  -7  -8  16 21.8507 18.0607   2
  -6  -8  16 28.9260 30.5237   2
  -6  -8  16 15.4688 30.4527   1
  -5  -8  16 79.1133 29.0988   2
  -5  -8  16 38.0835 34.9956   1
  -4  -8  16 72.2678 32.0602   2
  -4  -8  16 90.2301 49.1653   1
  -3  -8  16 277.193 66.8585   2
  -3  -8  16 281.560 81.0791   1
  -2  -8  16 41.0971 38.9739   2
  -1  -8  16 244.695 67.2696   2
   0  -8  16-3.50004 25.0320   2
   1  -8  16 59.7283 40.6940   2
   2  -8  16 615.103 117.644   2
   3  -8  16 31.3628 34.9258   2
   4  -8  16 265.014 83.3130   2
   5  -8  16 23.5384 32.4469   2
  -5  -8 -16 74.7971 53.9979   3
   6  -8  16 67.9744 49.8085   2
 -15  -9  16-24.7228 35.1919   1
 -14  -9  16-28.6357 35.5358   1
 -13  -9  16 25.2516 26.2195   1
 -12  -9  16-18.7343 54.8794   1
 -11  -9  16 180.870 73.4109   1
 -10  -9  16 81.8385 58.2382   1
  -9  -9  16 53.3515 43.1913   1
  -8  -9  16-115.996 55.5647   1
  -7  -9  16-102.232 52.3966   1
  -6  -9  16 21.4643 21.4577   2
  -6  -9  16 140.924 61.1117   1
  -5  -9  16-11.3018 20.2869   2
  -5  -9  16 55.5296 38.7876   1
  -4  -9  16 14.4268 22.3801   2
  -4  -9  16 6.73690 23.7501   1
  -3  -9  16 8.85133 18.9379   2
  -3  -9  16 63.1984 46.0358   1
  -2  -9  16 7.90636 30.0184   2
  -1  -9  16 178.143 61.5091   2
   0  -9  16 242.714 73.0539   2
   1  -9  16 132.525 58.7290   2
   2  -9  16 94.8821 57.6610   2
   3  -9  16 402.035 98.8547   2
   4  -9  16 16.7565 33.7222   2
   5  -9  16 83.7323 54.8668   2
 -13 -10  16 56.1438 49.7084   1
 -12 -10  16 80.2704 48.8681   1
 -11 -10  16 147.915 65.1861   1
 -10 -10  16-46.9502 35.0482   1
  -9 -10  16 35.1991 39.7669   1
  -8 -10  16-77.8524 49.6570   1
  -7 -10  16-53.9759 44.9403   1
  -6 -10  16 133.996 61.4720   1
  -5 -10  16 50.2519 32.3811   2
  -5 -10  16 18.3824 31.0741   1
  -4 -10  16 51.7898 29.4901   2
  -4 -10  16 176.006 69.2945   1
  -3 -10  16 47.7340 35.5640   2
  -3 -10  16 89.9786 42.2200   1
  -2 -10  16 339.716 85.1701   2
  -1 -10  16 79.2278 44.3552   2
   0 -10  16 15.8379 25.7706   2
   1 -10  16 28.0436 24.2339   2
   2 -10  16 13.4606 27.3583   2
   3 -10  16 12.1933 25.6675   2
   4 -10  16-30.9033 34.0631   2
  -9 -11  16 13.6665 29.0105   1
  -8 -11  16-101.948 54.8370   1
  -7 -11  16 88.9840 48.5750   1
  -6 -11  16 101.655 57.4436   1
  -5 -11  16 73.5152 53.2920   1
  -4 -11  16 102.244 49.8709   2
  -4 -11  16 157.664 70.5380   1
  -3 -11  16 126.837 53.8232   2
  -3 -11  16 102.741 53.9410   1
  -2 -11  16 34.3687 32.4842   2
  -1 -11  16 9.97334 29.8249   2
   0 -11  16-35.9233 32.4544   2
   1 -11  16-2.43778 28.7902   2
   2 -11  16-39.8682 35.5475   2
   3 -11  16-25.6825 27.3661   2
  -3 -12  16-40.0034 33.8025   2
  -2 -12  16-101.363 49.3093   2
  -1 -12  16 57.5406 39.6178   2
   0 -12  16 43.1699 38.0755   2
   1 -12  16-0.23519 20.3746   2
   2 -12  16-14.6511 29.1786   2
  -1 -13  16-86.9614 49.7850   2
   0 -13  16 33.1172 33.6881   2
 -21   0  17-2.42765 18.8886   1
 -20   0  17-80.1013 43.6708   1
 -19   0  17-13.4412 24.4587   1
 -18   0  17 5.66158 22.7324   1
 -17   0  17-53.4130 41.0690   1
 -16   0  17 44.7214 29.0632   1
 -15   0  17-29.8602 27.7124   1
 -14   0  17 16.4926 23.8608   1
 -13   0  17 3.18113 15.9348   1
 -12   0  17 7.71203 25.5610   1
 -11   0  17-15.1042 17.9140   1
  11   0 -17 53.1170 26.4558   1
 -10   0  17-32.5990 24.9558   1
  10   0 -17 4.08622 13.6894   1
   9   0 -17 0.30662 17.8796   1
   9   0 -17-7.52980 40.1483   3
  -9   0  17-13.8523 19.2119   1
   8   0 -17-22.1146 25.6232   1
   8   0 -17-17.3488 26.7059   3
  -8   0  17 0.55624 18.3158   1
   7   0 -17-18.6381 19.3860   2
   7   0 -17-3.70018 32.5749   3
  -7   0  17 5.96187 30.2454   1
   7   0 -17-4.08975 26.3376   1
   6   0 -17 9.51724 22.1128   2
   6   0 -17 22.7560 28.7281   3
   6   0 -17 28.0475 30.1985   1
   5   0 -17-21.9444 18.2090   2
   5   0 -17 27.0645 23.4558   1
   5   0 -17 50.3318 43.3488   3
   4   0 -17-36.2261 25.9835   1
   4   0 -17 9.74019 20.2122   2
   4   0 -17-30.3013 35.0872   3
   3   0 -17 15.3699 31.5263   3
   3   0 -17-24.6625 24.8045   1
   2   0 -17-16.1199 25.9614   3
   1   0 -17-13.4093 34.2514   3
   0   0 -17-43.7749 40.6609   3
  -1   0 -17 25.2415 28.5110   3
  -2   0 -17-86.1605 50.1932   3
  -3   0 -17-67.0805 43.4777   3
  -4   0 -17-106.833 55.6220   3
  -5   0 -17 82.4889 52.7998   3
  -6   0 -17-58.5255 60.3703   3
 -22  -1  17 44.7561 43.9158   1
 -21  -1  17-9.69602 23.4728   1
 -20  -1  17 52.1301 37.2089   1
 -20   1  17 107.029 52.4943   1
 -19  -1  17-25.3134 30.4309   1
 -19   1  17-11.4492 21.4675   1
 -18  -1  17 81.1809 43.7892   1
 -18   1  17 214.504 61.4813   1
 -17   1  17 225.442 63.2854   1
 -17  -1  17 134.649 47.3519   1
  16   1 -17 106.069 39.4456   3
 -16   1  17 13.0235 24.6113   1
 -16  -1  17 64.0687 31.7868   1
 -15   1  17 38.8702 22.4292   1
  15   1 -17 11.6724 21.3192   3
 -15  -1  17 49.6219 36.1163   1
 -14   1  17 73.7044 39.4365   1
 -14  -1  17 60.3692 33.8575   1
  14   1 -17 165.510 47.8094   3
 -13  -1  17-0.75253 22.1578   1
  13   1 -17 50.2268 38.2045   3
 -12   1  17 20.2758 14.9805   1
 -12  -1  17 45.3452 31.0261   1
  12   1 -17 22.2300 25.9211   3
 -11   1  17 207.091 50.4195   1
 -11  -1  17 210.973 57.6678   1
  11   1 -17 248.905 58.4883   3
 -10  -1  17 194.404 54.6241   1
  10  -1 -17 272.052 47.8983   1
  10   1 -17 216.251 54.8827   1
  10   1 -17 190.131 55.6597   3
 -10   1  17 205.414 51.8443   1
  -9  -1  17 276.299 67.2076   1
   9   1 -17 253.886 60.2737   3
   9  -1 -17 206.148 43.8882   1
   9   1 -17 193.805 50.4063   1
  -9   1  17 285.100 60.0820   1
   8   1 -17 130.804 42.3905   1
   8   1 -17 207.332 56.6021   3
  -8   1  17 212.370 48.7543   1
   8  -1 -17 252.701 48.9630   1
  -8  -1  17 213.382 59.9515   1
   7  -1 -17 60.9536 22.4663   1
   7  -1 -17 74.9805 29.6452   2
   7   1 -17 112.928 37.3309   2
   7   1 -17 73.7965 41.0798   3
   7   1 -17 139.439 49.0520   1
  -7  -1  17 131.251 46.0647   1
   6  -1 -17 64.8759 29.3839   2
   6   1 -17 52.3585 28.1345   2
   6   1 -17 32.8274 18.1321   1
   6   1 -17 19.3459 28.9688   3
   6  -1 -17 69.2692 29.1215   1
   5  -1 -17 27.8129 15.4346   2
   5   1 -17 19.2514 23.7049   1
   5  -1 -17 38.8978 24.2240   1
   5   1 -17 5.81078 16.1039   2
   5  -1 -17-25.7510 26.2267   3
   5   1 -17 9.57436 25.2933   3
   4  -1 -17 536.508 85.0443   1
   4  -1 -17 479.625 88.1594   2
   4   1 -17 564.177 96.1480   2
   4  -1 -17 639.887 105.555   3
   4   1 -17 647.576 106.662   3
   3   1 -17 122.411 47.1878   2
   3  -1 -17 99.2570 46.4814   3
   3   1 -17 235.991 73.3741   3
   3  -1 -17 79.9198 37.2252   1
   2  -1 -17 46.6242 37.5953   3
   2   1 -17-44.8555 35.4090   3
   2  -1 -17-35.9482 25.3851   1
   1  -1 -17 5.98816 26.5629   3
   1   1 -17-3.75632 28.9992   3
   0  -1 -17-50.3220 39.7418   3
   0   1 -17 37.2353 35.8209   3
  -1  -1 -17 53.2311 38.4568   3
  -1   1 -17 51.2730 39.9185   3
  -2  -1 -17 131.845 60.3482   3
  -2   1 -17 191.120 66.0212   3
  -3  -1 -17-54.1452 40.5913   3
  -3   1 -17 29.4428 30.5647   3
  -4  -1 -17 91.9201 48.1246   3
  -4   1 -17 75.8435 61.7170   3
  -5  -1 -17 174.158 70.3146   3
  -5   1 -17 320.357 93.9795   3
  -6  -1 -17 436.761 108.655   3
  -6   1 -17 476.780 116.049   3
 -22  -2  17 22.9915 21.9356   1
 -21  -2  17 97.5443 45.8650   1
 -20  -2  17-16.5862 27.0901   1
 -19  -2  17 21.1852 29.5345   1
 -18  -2  17 39.8924 22.3400   1
 -17   2  17 64.0247 33.9380   1
 -17  -2  17 34.3688 23.2280   1
 -16   2  17 73.1006 32.6348   1
 -16  -2  17 48.0686 33.1112   1
 -15   2  17 15.1253 20.5475   1
 -15  -2  17-4.01901 19.4099   1
  15   2 -17-21.0254 21.6689   3
 -14   2  17 959.951 111.393   1
 -14  -2  17 1037.27 138.729   1
  14   2 -17 896.840 103.317   3
 -13   2  17 58.8461 30.8276   1
 -13  -2  17 42.1458 27.5814   1
  13   2 -17 33.5572 20.7616   3
 -12   2  17 45.3666 25.0399   1
 -12  -2  17 57.2514 30.6416   1
  12   2 -17 66.9054 34.7619   3
  11   2 -17 1004.69 116.341   3
 -11   2  17 884.101 95.7825   1
 -11  -2  17 932.712 124.556   1
 -10  -2  17 176.415 54.9149   1
  10   2 -17 82.6624 40.1640   3
 -10   2  17 115.997 35.8005   1
  -9  -2  17 61.7653 23.9181   1
   9   2 -17 85.0460 41.1102   3
  -9   2  17 53.5270 20.1999   1
   8  -2 -17 415.347 68.0344   2
   8   2 -17 419.654 81.1556   3
  -8  -2  17 475.586 88.0151   1
   7  -2 -17 22.8057 23.0862   2
   7   2 -17-15.3293 37.4409   3
  -7  -2  17 8.75452 19.2705   1
   6  -2 -17 2.42633 21.3465   2
   6   2 -17-9.42171 20.4465   2
   6   2 -17-4.28582 25.6514   3
  -6  -2  17-23.5571 26.6447   1
   5  -2 -17 18.1172 26.7375   2
   5   2 -17 56.5871 31.3086   2
   5   2 -17 48.1119 43.2515   3
   4  -2 -17 0.86524 15.6159   2
   4   2 -17 29.5350 18.3118   2
   4   2 -17-51.6067 43.1517   3
   3   2 -17-23.6598 24.7300   2
   3  -2 -17 67.5777 41.9479   3
   3   2 -17 123.807 42.0273   3
   2  -2 -17 176.619 68.1651   3
   2   2 -17 149.721 54.2326   3
   1  -2 -17 94.5574 54.4417   3
   1   2 -17 63.9938 40.6760   3
  -1  -2  17 51.3717 25.5250   2
   0  -2 -17 1.43108 28.9625   3
   0   2 -17-34.6260 30.6331   3
   0  -2  17 70.1188 37.7663   2
  -1  -2 -17 237.728 72.2441   3
  -1   2 -17 81.1293 52.9372   3
   1  -2  17 107.379 43.0499   2
  -2  -2 -17-41.6121 41.2123   3
  -2   2 -17 66.9321 45.8631   3
   2  -2  17 31.1070 29.8997   2
  -3  -2 -17 184.063 67.6542   3
  -3   2 -17 119.122 62.8936   3
   3  -2  17 128.748 51.1244   2
  -4  -2 -17-1.28561 31.0163   3
  -4   2 -17-28.6606 49.1076   3
   4  -2  17 48.1910 38.2141   2
  -5  -2 -17-52.2617 54.6485   3
  -5   2 -17-118.332 62.2994   3
   5  -2  17-38.7942 33.7003   2
  -6  -2 -17-96.4628 59.1149   3
  -6   2 -17-24.3256 53.7598   3
   6  -2  17-44.0818 36.1711   2
   7  -2  17 48.8222 31.7052   2
 -22  -3  17-19.5455 28.3573   1
 -21  -3  17 75.3925 39.1298   1
 -20  -3  17-98.0753 52.4665   1
 -19  -3  17 30.8325 33.3563   1
 -18  -3  17-26.8889 32.1056   1
 -17  -3  17 580.989 113.299   1
 -16  -3  17 18.7141 34.3962   1
 -15  -3  17 514.349 104.653   1
 -14   3  17 214.386 48.8440   1
 -14  -3  17 159.388 59.5859   1
  14   3 -17 185.255 47.0229   3
 -13   3  17-10.5399 14.8670   1
 -13  -3  17 48.0667 36.6106   1
  13   3 -17 38.6882 28.5533   3
 -12   3  17 141.381 38.0359   1
 -12  -3  17 86.5902 43.4707   1
  12   3 -17 65.3904 30.1847   3
 -11  -3  17 270.722 68.6499   1
  11   3 -17 292.196 62.5053   3
 -11   3  17 345.608 54.1175   1
 -10  -3  17 426.361 85.3277   1
  10   3 -17 475.977 81.0654   3
 -10   3  17 454.543 57.2078   1
  -9  -3  17 295.344 67.8229   1
   9   3 -17 255.417 63.5003   3
   8  -3 -17 301.863 60.0473   2
   8   3 -17 275.520 64.8537   3
  -8  -3  17 357.657 78.1363   1
   7  -3 -17-48.8866 28.5216   2
   7   3 -17 15.3706 32.1495   3
  -7  -3  17 12.7742 22.8369   1
   6  -3 -17 76.9126 32.9420   2
   6   3 -17 92.3585 42.2918   3
  -6  -3  17 21.8818 21.0474   1
   5  -3 -17 174.598 52.6293   2
   5   3 -17 338.554 74.9384   2
   5   3 -17 321.026 72.3237   3
  -5  -3  17 362.778 77.2636   1
   4   3 -17 323.010 74.7405   2
   4   3 -17 325.277 75.9155   3
   3   3 -17 67.3618 41.5191   3
  -3  -3  17 102.784 35.2322   2
   2   3 -17 106.668 49.6287   3
  -2  -3  17 113.339 38.0712   2
   1  -3 -17 211.631 69.9816   3
   1   3 -17 183.082 65.3969   3
  -1  -3  17 178.148 53.1751   2
   0  -3 -17 355.764 87.9063   3
   0   3 -17 353.323 83.4870   3
   0  -3  17 280.876 68.3091   2
  -1  -3 -17-32.0708 39.2693   3
  -1   3 -17 7.15118 30.5061   3
   1  -3  17 19.8916 24.5729   2
  -2  -3 -17 624.680 120.086   3
  -2   3 -17 449.380 103.251   3
   2  -3  17 591.021 103.393   2
  -3  -3 -17 29.7120 31.7592   3
  -3   3 -17-28.4295 52.3410   3
   3  -3  17-0.67481 20.8034   2
  -4  -3 -17 25.4096 35.7785   3
  -4   3 -17 8.53951 33.2471   3
   4  -3  17 67.6712 34.5099   2
  -5   3 -17 68.3586 57.2949   3
   5  -3  17 3.80738 25.4696   2
  -6  -3 -17 0.23490 51.0972   3
  -6   3 -17 70.8858 51.8093   3
   6  -3  17 49.9307 49.1139   2
   7  -3  17-113.511 55.8482   2
 -21  -4  17-37.5491 37.1331   1
 -20  -4  17-31.2166 35.2858   1
 -19  -4  17-2.89842 23.5653   1
 -18  -4  17 112.568 54.3887   1
 -17  -4  17 91.6830 44.0508   1
 -16  -4  17 69.6256 34.6214   1
 -15  -4  17-30.1592 33.4826   1
 -14  -4  17 161.694 60.9578   1
  14   4 -17 38.9063 18.3209   3
 -13  -4  17 30.4851 39.5747   1
  13   4 -17 23.7735 26.1096   3
  12   4 -17 938.115 107.544   3
 -12  -4  17 1149.24 151.016   1
 -11  -4  17 64.7604 42.8592   1
  11   4 -17 71.7582 33.9505   3
 -10  -4  17 48.7098 46.7774   1
  10   4 -17 71.2180 33.5523   3
  -9  -4  17 434.848 89.9245   1
   9   4 -17 398.048 74.7009   3
  -8  -4  17 0.81359 27.6944   1
   8   4 -17 17.4799 23.3292   3
   7   4 -17 984.456 123.644   3
  -7  -4  17 820.576 121.028   1
   6   4 -17 430.249 90.7898   3
  -6  -4  17 370.269 83.4849   1
   5   4 -17 308.735 75.0285   3
  -5  -4  17 253.526 69.2838   1
  -5  -4  17 280.516 54.0488   2
   4   4 -17 986.802 133.614   3
  -4  -4  17 801.781 93.0248   2
   3   4 -17 70.3023 51.0702   3
  -3  -4  17 20.5155 23.3461   2
   2   4 -17-9.34519 39.5407   3
  -2  -4  17-34.3076 25.6006   2
   1   4 -17 269.063 78.8633   3
  -1  -4  17 290.674 65.8171   2
   0  -4 -17 284.668 82.3464   3
   0   4 -17 197.219 69.4973   3
   0  -4  17 205.381 57.1156   2
  -1  -4 -17 145.744 62.9781   3
  -1   4 -17-8.37211 42.3443   3
   1  -4  17 78.7384 41.5921   2
  -2  -4 -17 106.307 52.0669   3
  -2   4 -17 83.4638 45.8964   3
   2  -4  17 46.4789 32.8265   2
  -3  -4 -17 292.679 84.8584   3
  -3   4 -17 271.759 87.3502   3
   3  -4  17 191.733 62.8401   2
  -4  -4 -17 909.262 156.195   3
  -4   4 -17 771.109 146.248   3
   4  -4  17 916.518 137.429   2
  -5  -4 -17 192.813 73.8811   3
  -5   4 -17 169.238 77.5993   3
   5  -4  17 84.9430 47.8043   2
  -6  -4 -17 461.874 113.095   3
   6  -4  17 428.048 103.423   2
 -20  -5  17-75.8376 48.6347   1
 -19  -5  17-59.1847 43.4655   1
 -18  -5  17-20.3011 30.7071   1
 -17  -5  17 150.129 64.2392   1
 -16  -5  17 41.3575 35.2633   1
 -15  -5  17 2.70018 34.2879   1
 -14  -5  17 14.0673 27.3957   1
 -13  -5  17 167.315 62.1297   1
  13   5 -17 196.023 50.6627   3
 -12  -5  17 72.5356 41.6699   1
  12   5 -17 79.0105 38.1051   3
 -11  -5  17-4.44091 35.0453   1
  11   5 -17-84.7870 38.5335   3
 -10  -5  17 336.624 79.1625   1
  10   5 -17 511.603 84.7119   3
  -9  -5  17 53.5835 39.9102   1
   9   5 -17 22.8306 27.0042   3
  -8  -5  17 626.749 108.910   1
   8   5 -17 644.478 103.688   3
   7   5 -17 20.3808 29.3476   3
  -7  -5  17 8.46933 13.0157   2
  -7  -5  17 6.28482 23.0336   1
   6   5 -17 63.3890 38.7513   3
  -6  -5  17 55.3746 26.1908   2
  -6  -5  17-31.4249 47.6012   1
   5   5 -17 36.0896 35.3132   3
  -5  -5  17 96.9702 45.2645   1
  -5  -5  17 48.5846 22.8988   2
   4   5 -17-6.90736 28.9039   3
  -4  -5  17 64.1651 29.9095   2
   3   5 -17 55.8210 40.3843   3
  -3  -5  17 86.6188 36.1810   2
   2   5 -17 123.641 56.4583   3
  -2  -5  17-7.64817 26.2029   2
   1   5 -17 273.874 75.8473   3
  -1  -5  17 208.130 57.1018   2
   0   5 -17-26.7846 38.6064   3
   0  -5  17-19.7733 25.6165   2
  -1   5 -17-49.5251 38.0268   3
   1  -5  17 15.4286 25.9390   2
  -2  -5 -17 38.4607 49.2166   3
  -2   5 -17 35.1916 44.6754   3
   2  -5  17-6.86405 26.2726   2
  -3  -5 -17-8.70985 31.1970   3
   3  -5  17-55.1060 37.3429   2
  -4   5 -17 32.6973 40.4834   3
   4  -5  17-27.3656 30.3764   2
  -5  -5 -17 64.0960 50.3129   3
  -5   5 -17 131.462 72.3827   3
   5  -5  17 159.998 62.1141   2
   6  -5  17 28.5193 36.9378   2
 -19  -6  17-13.6416 28.9952   1
 -18  -6  17 94.6189 51.5915   1
 -17  -6  17 0.22975 25.9336   1
 -16  -6  17 549.780 122.458   1
 -15  -6  17 1.96184 29.9616   1
 -14  -6  17 144.048 63.5125   1
 -13  -6  17 102.850 54.4760   1
 -12  -6  17-10.3192 35.2101   1
 -11  -6  17 62.2946 48.0071   1
  11   6 -17 88.4449 39.7276   3
 -10  -6  17 73.5731 43.1547   1
  10   6 -17 32.4553 24.4888   3
  -9  -6  17 487.547 98.8772   1
   9   6 -17 474.969 86.1972   3
  -8  -6  17 166.546 62.6618   1
   8   6 -17 274.440 70.3708   3
   7   6 -17 6.96156 22.8633   3
  -7  -6  17 41.3606 23.7816   2
  -7  -6  17-47.4156 45.5523   1
   6   6 -17 161.426 55.8529   3
  -6  -6  17 106.039 50.5376   1
  -6  -6  17 69.2912 30.0011   2
   5   6 -17-0.99207 34.2050   3
  -5  -6  17 25.8691 33.2139   1
  -5  -6  17 36.0063 23.5242   2
   4   6 -17 145.089 56.6089   3
  -4  -6  17 164.531 60.6236   1
  -4  -6  17 139.156 42.8732   2
   3   6 -17 401.546 88.7827   3
  -3  -6  17 429.701 77.4156   2
   2   6 -17 381.150 94.8373   3
  -2  -6  17 263.170 65.0562   2
   1   6 -17-3.57501 28.9043   3
  -1  -6  17 55.3221 29.0048   2
   0   6 -17 123.739 65.0357   3
   0  -6  17 68.8417 42.2083   2
  -1   6 -17 360.141 96.3538   3
   1  -6  17 165.133 61.0811   2
   2  -6  17 25.7545 28.1588   2
  -3  -6 -17 53.6208 46.3410   3
   3  -6  17 64.9933 50.3624   2
  -4  -6 -17-34.2811 41.5053   3
   4  -6  17 33.0079 30.4456   2
  -5  -6 -17 75.7704 60.9023   3
   5  -6  17 80.2269 41.3577   2
   6  -6  17 104.427 52.5246   2
 -17  -7  17 97.6946 62.5576   1
 -16  -7  17-61.3991 46.4490   1
 -15  -7  17 187.324 77.0714   1
 -14  -7  17 44.0822 36.3584   1
 -13  -7  17 1192.06 170.059   1
 -12  -7  17 72.3268 52.3293   1
 -11  -7  17 8.74207 31.6993   1
 -10  -7  17 135.274 65.6135   1
  -9  -7  17 909.422 144.605   1
  -8  -7  17 51.4338 31.9463   1
  -7  -7  17-20.0895 48.9829   1
  -6  -7  17 0.38041 36.0043   1
  -6  -7  17 30.0111 21.2302   2
  -5  -7  17 44.0994 34.5504   1
  -5  -7  17 30.6044 31.9238   2
  -4  -7  17 45.4113 28.8075   2
  -4  -7  17 65.8215 37.8223   1
  -3  -7  17 309.749 69.2208   2
  -2  -7  17-14.2347 31.2551   2
  -1  -7  17 568.808 102.703   2
   0  -7  17 59.9188 40.0403   2
   1  -7  17-66.5298 41.3312   2
   2  -7  17 62.1759 41.6167   2
   3  -7  17 14.2411 27.0801   2
  -4  -7 -17 67.9221 52.8875   3
   4  -7  17 13.4703 23.3991   2
   5  -7  17 10.0498 25.1637   2
 -16  -8  17-65.4742 46.0369   1
 -15  -8  17 59.2389 42.7289   1
 -14  -8  17 234.161 80.8690   1
 -13  -8  17 201.231 76.3667   1
 -12  -8  17 58.5160 45.7851   1
 -11  -8  17-104.642 53.8674   1
 -10  -8  17 24.1821 27.4310   1
  -9  -8  17 120.468 57.4025   1
  -8  -8  17 135.536 55.8288   1
  -7  -8  17 41.9897 24.7420   1
  -6  -8  17 16.6822 22.6198   2
  -6  -8  17 70.2204 45.2981   1
  -5  -8  17 37.4843 25.8833   2
  -5  -8  17 14.2789 37.3435   1
  -4  -8  17 411.779 82.8019   2
  -4  -8  17 411.569 100.026   1
  -3  -8  17-9.31746 23.9916   2
  -2  -8  17 14.9676 33.5650   2
  -1  -8  17 0.17041 32.9413   2
   0  -8  17 67.8708 52.9826   2
   1  -8  17-51.5493 38.6391   2
   2  -8  17 44.7221 37.1736   2
   3  -8  17 1.06757 18.4959   2
   4  -8  17 116.234 61.5730   2
 -14  -9  17 64.8478 45.2048   1
 -13  -9  17 92.6335 55.6584   1
 -12  -9  17 113.741 58.5717   1
 -11  -9  17 78.0448 48.4551   1
 -10  -9  17 64.0856 47.9836   1
  -9  -9  17 173.625 68.8069   1
  -8  -9  17 66.1455 36.1333   1
  -7  -9  17 61.3285 42.9229   1
  -6  -9  17 40.3635 37.5000   1
  -5  -9  17 11.4597 20.2250   2
  -5  -9  17 53.7525 41.9511   1
  -4  -9  17 16.7187 18.9094   2
  -4  -9  17 58.0466 54.5623   1
  -3  -9  17 38.7017 35.6713   2
  -2  -9  17 16.1878 17.9995   2
  -1  -9  17 0.18140 26.0157   2
   0  -9  17-100.396 49.5938   2
   1  -9  17 68.3583 41.7202   2
   2  -9  17 57.5930 39.9732   2
   3  -9  17 105.845 53.6854   2
   4  -9  17-31.1811 33.2260   2
 -11 -10  17 98.6446 59.1752   1
 -10 -10  17 0.48034 20.3428   1
  -9 -10  17-81.5596 50.1481   1
  -8 -10  17 68.1966 47.5823   1
  -7 -10  17-34.4792 39.9876   1
  -6 -10  17 212.211 79.1353   1
  -5 -10  17 11.7584 28.2517   1
  -4 -10  17 299.800 84.3044   1
  -3 -10  17 81.5980 47.3835   2
  -2 -10  17-4.23881 20.8556   2
  -1 -10  17-15.0360 26.7984   2
   0 -10  17 9.02876 25.4440   2
   1 -10  17-42.0735 35.4980   2
   2 -10  17-25.0281 31.1643   2
   3 -10  17-22.2732 32.4672   2
  -2 -11  17 0.19657 18.0256   2
  -1 -11  17-38.9941 32.8088   2
   0 -11  17 15.4432 27.3638   2
   1 -11  17 61.5551 43.5074   2
   2 -11  17 10.4200 31.0858   2
 -19   0  18 119.086 52.1251   1
 -18   0  18 185.513 63.4968   1
 -17   0  18 102.708 49.6645   1
 -16   0  18 21.0387 18.1041   1
 -15   0  18 146.543 54.3797   1
 -14   0  18 748.206 111.184   1
 -13   0  18 800.731 109.898   1
 -12   0  18 61.7727 33.8046   1
  12   0 -18 72.0644 36.9897   3
 -11   0  18 158.694 48.6310   1
  11   0 -18 109.562 43.3778   3
  10   0 -18 61.4102 34.2405   3
 -10   0  18 42.4250 28.0014   1
   9   0 -18 900.867 121.127   3
  -9   0  18 689.295 96.6088   1
   8   0 -18 98.5699 48.4455   3
  -8   0  18 180.500 49.1616   1
   7   0 -18 855.122 121.176   3
   6   0 -18 64.6339 40.4937   3
   5   0 -18 171.476 58.7140   3
   4   0 -18 81.2076 43.5907   3
   3   0 -18 452.626 94.0477   3
   2   0 -18-14.1183 33.4297   3
   1   0 -18 371.400 91.1807   3
   0   0 -18 53.0417 39.2183   3
  -1   0 -18 200.343 70.3089   3
  -2   0 -18 1840.78 208.551   3
  -3   0 -18-3.05728 45.1589   3
  -4   0 -18 450.466 110.084   3
 -21  -1  18 82.3293 50.8405   1
 -20  -1  18-22.8667 27.3498   1
 -19  -1  18 83.7849 47.1349   1
 -18  -1  18 71.2274 33.1447   1
 -17   1  18 181.013 59.9814   1
 -17  -1  18 183.159 62.7832   1
 -16   1  18 612.109 100.056   1
 -16  -1  18 641.139 112.600   1
 -15   1  18 126.514 51.5431   1
 -15  -1  18 175.668 58.1867   1
  15   1 -18 172.825 51.3072   3
 -14   1  18 443.482 82.8167   1
 -14  -1  18 648.263 108.249   1
  14   1 -18 286.051 64.8108   3
 -13   1  18 17.8015 17.2868   1
 -13  -1  18 8.02037 23.3650   1
  13   1 -18 41.0166 29.9115   3
 -12   1  18 297.648 64.6669   1
 -12  -1  18 200.800 58.8297   1
  12   1 -18 186.410 57.9907   3
 -11  -1  18 9.31419 32.5923   1
  11   1 -18-1.06643 21.4220   3
 -11   1  18-2.71239 22.6497   1
 -10  -1  18-14.3026 29.7857   1
  10   1 -18 10.6091 27.2916   3
 -10   1  18 34.3485 24.4476   1
   9   1 -18 162.920 55.3940   3
  -9   1  18 91.6404 35.5187   1
  -9  -1  18 182.050 54.7105   1
   8   1 -18-65.0347 38.5823   3
  -8  -1  18 45.8367 29.9219   1
   7  -1 -18 85.9428 47.9251   3
   7   1 -18 58.6065 39.0236   3
   6  -1 -18 37.0409 28.9381   3
   6   1 -18-16.0418 26.3186   3
   5  -1 -18 59.3155 39.6022   3
   5   1 -18 72.6040 38.2185   3
   4  -1 -18-36.8499 33.8281   3
   4   1 -18-52.3021 37.5191   3
   3  -1 -18 414.150 89.8805   3
   3   1 -18 445.823 91.4546   3
   2  -1 -18 237.360 71.5690   3
   2   1 -18 219.412 69.5542   3
   1  -1 -18 88.3098 49.0756   3
   1   1 -18 236.526 69.8125   3
   0  -1 -18 538.200 109.707   3
   0   1 -18 528.345 109.578   3
  -1  -1 -18 567.644 114.548   3
  -1   1 -18 761.229 133.327   3
  -2  -1 -18 248.685 80.6787   3
  -2   1 -18 114.696 61.6209   3
  -3  -1 -18 374.143 94.7400   3
  -3   1 -18 391.756 103.335   3
  -4  -1 -18-59.3084 49.1020   3
  -4   1 -18 153.717 74.2172   3
 -21  -2  18 48.0388 40.3778   1
 -20  -2  18 128.937 57.2139   1
 -19  -2  18 315.574 84.6900   1
 -18  -2  18 63.8823 41.5573   1
 -17  -2  18 615.405 114.378   1
 -16  -2  18 71.3047 42.7663   1
 -15  -2  18 57.5522 39.4851   1
  15   2 -18 148.268 44.7787   3
 -14  -2  18 338.268 83.7401   1
  14   2 -18 307.669 64.8437   3
 -13   2  18-10.4679 17.2460   1
  13   2 -18 11.5044 21.8964   3
 -12  -2  18-3.54302 21.1833   1
  12   2 -18 45.0557 29.2812   3
 -12   2  18 35.1959 28.3002   1
 -11  -2  18 149.586 50.2708   1
  11   2 -18 194.425 57.8836   3
 -11   2  18 269.851 52.0983   1
 -10  -2  18 94.8691 42.6462   1
  10   2 -18 140.753 49.8423   3
 -10   2  18 144.588 40.9654   1
   9   2 -18 85.0453 41.3317   3
  -9  -2  18-22.3803 34.5105   1
   8   2 -18 31.0693 31.2098   3
  -8  -2  18 4.58856 23.2749   1
   7   2 -18 79.9665 43.4898   3
  -7  -2  18 110.692 45.9136   1
   6   2 -18 25.5392 32.8575   3
   5   2 -18 679.448 113.645   3
   4  -2 -18 167.271 61.2944   3
   4   2 -18 213.822 66.6416   3
   3  -2 -18 67.4187 45.3348   3
   3   2 -18 47.8407 41.6844   3
   2  -2 -18 754.119 125.736   3
   2   2 -18 720.563 122.131   3
   1  -2 -18 622.680 115.469   3
   1   2 -18 549.069 105.477   3
   0  -2 -18 65.3266 50.5420   3
   0   2 -18-8.65194 44.5865   3
  -1  -2 -18 590.652 119.240   3
  -1   2 -18 666.068 126.389   3
  -2  -2 -18-51.6084 45.3326   3
  -2   2 -18-7.77851 48.9756   3
   2  -2  18 45.2735 41.2531   2
  -3  -2 -18 657.158 133.409   3
  -3   2 -18 800.217 141.799   3
   3  -2  18 798.460 122.977   2
  -4  -2 -18-11.8163 45.2597   3
  -4   2 -18-33.4685 42.4507   3
   4  -2  18 71.6484 45.9640   2
   5  -2  18 42.4053 35.4146   2
   6  -2  18 26.3813 22.2668   2
 -21  -3  18 11.1046 33.9111   1
 -20  -3  18 23.8568 27.3701   1
 -19  -3  18 64.4463 36.4279   1
 -18  -3  18 121.869 62.1906   1
 -17  -3  18 56.7323 36.8334   1
 -16  -3  18 398.695 96.2673   1
 -15  -3  18 38.5867 32.0729   1
 -14  -3  18 607.592 113.624   1
  14   3 -18 514.275 78.8913   3
 -13  -3  18-11.5410 25.5603   1
  13   3 -18-24.8658 24.9753   3
 -12  -3  18 31.0288 33.1175   1
  12   3 -18 49.2060 27.2694   3
 -11  -3  18 18.7631 22.3628   1
  11   3 -18 4.43472 21.8253   3
 -10  -3  18-37.9454 38.8794   1
  10   3 -18-2.57831 21.5487   3
   9   3 -18 215.076 59.9011   3
  -9  -3  18 159.067 55.5171   1
   8   3 -18 1.45861 23.7055   3
  -8  -3  18 32.5114 33.4674   1
   7   3 -18 383.285 80.6503   3
  -7  -3  18 537.872 96.8748   1
   6   3 -18 17.3531 34.9806   3
  -6  -3  18 29.4527 19.3150   1
   5   3 -18 62.7245 37.7680   3
   4   3 -18 56.7604 41.5673   3
   3   3 -18 110.553 53.7381   3
   2  -3 -18 19.5741 43.5847   3
   2   3 -18 2.94690 32.2174   3
  -2  -3  18 0.48494 16.1441   2
   1  -3 -18 77.4240 52.8714   3
   1   3 -18 80.4107 47.4471   3
  -1  -3  18-40.6340 33.2598   2
   0  -3 -18 10.5767 35.8138   3
   0   3 -18 84.3823 46.6702   3
   0  -3  18 47.9283 34.8294   2
  -1   3 -18 5.24709 44.5988   3
   1  -3  18 86.9950 40.1293   2
  -2  -3 -18 72.6955 46.6898   3
  -2   3 -18 128.357 58.0199   3
   2  -3  18 146.228 57.6718   2
  -3  -3 -18 436.423 108.994   3
  -3   3 -18 314.477 99.1226   3
   3  -3  18 439.669 93.5864   2
  -4  -3 -18 110.637 56.6364   3
  -4   3 -18 240.400 88.2781   3
   4  -3  18 131.362 56.5076   2
   5  -3  18 36.1945 36.9788   2
   6  -3  18 131.963 57.0887   2
 -20  -4  18-89.9207 51.5625   1
 -19  -4  18 45.6117 39.4522   1
 -18  -4  18 92.0849 46.9188   1
 -17  -4  18 25.0846 32.0105   1
 -16  -4  18 70.6820 45.4283   1
 -15  -4  18 69.5357 44.0083   1
 -14  -4  18-20.8201 28.0840   1
 -13  -4  18-48.0585 38.0790   1
  13   4 -18 37.3441 26.2261   3
 -12  -4  18 107.428 49.8037   1
  12   4 -18 27.1969 24.8661   3
 -11  -4  18 255.943 73.7146   1
  11   4 -18 210.857 55.3105   3
 -10  -4  18 342.711 84.2918   1
  10   4 -18 468.587 86.4848   3
  -9  -4  18 60.0149 42.1287   1
   9   4 -18 63.7231 39.2030   3
   8   4 -18 429.082 88.8374   3
  -8  -4  18 467.781 93.3887   1
   7   4 -18 74.6722 41.7326   3
  -7  -4  18 12.8767 29.9679   1
   6   4 -18 155.404 59.2812   3
  -6  -4  18 180.740 57.9648   1
   5   4 -18 172.006 61.4555   3
   4   4 -18 65.4665 50.1086   3
  -4  -4  18-24.6574 21.5155   2
   3   4 -18-69.7483 47.0941   3
  -3  -4  18 35.0157 26.5023   2
   2   4 -18-30.2704 36.8130   3
  -2  -4  18-1.91264 26.9099   2
   1  -4 -18-44.3476 42.1050   3
   1   4 -18 71.2062 48.2927   3
  -1  -4  18 42.6692 29.5973   2
   0   4 -18 1.03314 33.0856   3
   0  -4  18-17.9193 21.5623   2
  -1  -4 -18-9.14633 29.2189   3
  -1   4 -18 112.819 51.5176   3
   1  -4  18 96.1756 44.2462   2
  -2  -4 -18 87.0507 57.8665   3
  -2   4 -18 217.079 84.0974   3
   2  -4  18 67.5916 38.4486   2
  -3  -4 -18 27.2453 43.0051   3
  -3   4 -18 96.8039 68.9634   3
   3  -4  18 3.31432 24.5234   2
   4  -4  18 51.5890 42.3090   2
   5  -4  18 274.106 81.3413   2
 -19  -5  18-99.1399 54.6534   1
 -18  -5  18 142.637 69.0962   1
 -17  -5  18 25.7919 20.1304   1
 -16  -5  18-37.3160 36.4864   1
 -15  -5  18-34.5558 35.2886   1
 -14  -5  18 12.5932 33.8350   1
 -13  -5  18 331.342 89.0636   1
 -12  -5  18 104.982 54.0058   1
  12   5 -18 43.4686 31.5366   3
 -11  -5  18 241.389 78.2189   1
  11   5 -18 106.661 42.2330   3
 -10  -5  18 36.1348 42.2673   1
  10   5 -18 58.7893 32.4441   3
  -9  -5  18 146.492 55.9142   1
   9   5 -18 157.678 57.3388   3
   8   5 -18-9.91904 22.6878   3
  -8  -5  18 5.05530 21.3179   1
   7   5 -18 24.4978 36.3253   3
  -7  -5  18-11.1749 22.1413   1
   6   5 -18 220.132 65.5179   3
  -6  -5  18 206.025 63.3253   1
  -6  -5  18 284.191 53.0482   2
   5   5 -18 19.4999 25.8136   3
  -5  -5  18-19.4783 29.0150   1
  -5  -5  18 70.0279 31.5806   2
   4   5 -18 34.8564 35.0200   3
  -4  -5  18 37.2955 26.9397   2
   3   5 -18 141.549 60.1841   3
  -3  -5  18 163.545 47.4831   2
   2   5 -18 124.374 58.6394   3
  -2  -5  18 69.8837 34.8726   2
   1   5 -18 181.331 62.0947   3
  -1  -5  18 276.542 69.5063   2
   0   5 -18-87.4931 52.0654   3
   0  -5  18-7.05531 19.1355   2
  -1  -5 -18 138.979 48.7772   3
  -1   5 -18 135.134 63.6843   3
   1  -5  18 135.654 57.5836   2
  -2  -5 -18-68.1751 50.4769   3
  -2   5 -18 33.0341 43.5960   3
   2  -5  18 34.4434 24.6357   2
  -3  -5 -18 60.5051 34.4929   3
  -3   5 -18 127.168 66.7372   3
   3  -5  18 119.360 55.6490   2
   4  -5  18 38.7710 27.5260   2
   5  -5  18 33.8980 31.6379   2
 -18  -6  18 93.3274 49.8239   1
 -17  -6  18 14.5865 24.5238   1
 -16  -6  18 81.5770 65.0218   1
 -15  -6  18 6.78773 27.0537   1
 -14  -6  18 68.4575 43.2008   1
 -13  -6  18 250.432 77.5182   1
 -12  -6  18 432.650 101.612   1
 -11  -6  18-39.7065 38.1510   1
  11   6 -18 46.6491 34.3623   3
 -10  -6  18 104.185 52.0375   1
  10   6 -18 155.307 57.8544   3
  -9  -6  18 81.6156 48.6922   1
   9   6 -18 7.59420 35.5344   3
   8   6 -18 20.5048 27.6162   3
  -8  -6  18 71.1563 39.5466   1
   7   6 -18 57.6570 35.3342   3
  -7  -6  18 41.3093 32.2825   1
   6   6 -18 195.830 63.0395   3
  -6  -6  18 89.1875 44.4903   1
  -6  -6  18 47.7496 23.7343   2
   5   6 -18 61.1855 46.1183   3
  -5  -6  18 8.50601 30.3135   1
  -5  -6  18 43.7596 25.0557   2
   4   6 -18 71.8633 40.2360   3
  -4  -6  18 138.784 43.3054   2
   3   6 -18 45.5046 41.2604   3
  -3  -6  18 29.0343 22.2536   2
   2   6 -18 361.525 94.9329   3
  -2  -6  18 180.491 54.4941   2
   1   6 -18 15.0957 34.5123   3
  -1  -6  18 9.53330 33.9872   2
   0   6 -18 462.628 110.657   3
   0  -6  18 392.397 87.8038   2
  -1   6 -18 228.553 82.7941   3
   1  -6  18 153.477 56.5117   2
  -2  -6 -18-129.972 65.5078   3
   2  -6  18-53.7537 37.2276   2
   3  -6  18-33.4718 30.6081   2
   4  -6  18 9.47172 23.2127   2
   5  -6  18-67.8419 44.0429   2
 -16  -7  18 128.971 55.3387   1
 -15  -7  18 55.4902 24.7332   1
 -14  -7  18 94.0732 50.7699   1
 -13  -7  18 7.90851 36.7474   1
 -12  -7  18 1.76629 25.5439   1
 -11  -7  18 267.290 82.0813   1
 -10  -7  18-33.2476 32.7833   1
  -9  -7  18 47.2610 24.3104   1
  -8  -7  18-29.4829 25.5360   1
  -7  -7  18 431.106 102.574   1
  -6  -7  18 190.271 70.8528   1
  -5  -7  18 51.6343 48.4093   1
  -5  -7  18 29.0312 17.0024   2
  -4  -7  18 29.2135 25.4835   2
  -3  -7  18 18.6858 22.8524   2
  -2  -7  18 34.8710 37.6802   2
  -1  -7  18 20.8172 22.0628   2
   0  -7  18 3.15799 27.5419   2
   1  -7  18 11.9601 25.0097   2
   2  -7  18-38.2590 33.5493   2
   3  -7  18-2.51432 21.3094   2
   4  -7  18 26.8427 30.5258   2
 -15  -8  18 3.25709 21.5989   1
 -14  -8  18 47.4120 46.9199   1
 -13  -8  18 8.33157 24.3064   1
 -12  -8  18-16.0250 29.2096   1
 -11  -8  18 61.6261 46.3984   1
 -10  -8  18 315.427 86.5007   1
  -9  -8  18 12.8301 27.3324   1
  -8  -8  18 1272.89 179.466   1
  -7  -8  18 29.0072 25.3300   1
  -6  -8  18 48.3735 49.6767   1
  -5  -8  18-29.0099 33.1492   1
  -4  -8  18-18.1875 21.1834   2
  -3  -8  18-13.9788 22.9583   2
  -2  -8  18 55.8449 37.2345   2
  -1  -8  18 120.523 51.7440   2
   0  -8  18 65.9993 46.8057   2
   1  -8  18 6.34894 20.3627   2
   2  -8  18 22.4445 27.6261   2
   3  -8  18-76.9457 45.9547   2
 -12  -9  18-67.0146 48.8453   1
 -11  -9  18 236.243 84.3927   1
 -10  -9  18-19.0114 39.6832   1
  -9  -9  18-3.27406 41.1269   1
  -8  -9  18 52.6419 41.7768   1
  -7  -9  18 100.506 51.9303   1
  -6  -9  18 18.8152 36.5918   1
  -5  -9  18 246.059 78.7561   1
  -2  -9  18 97.0249 45.8109   2
  -1  -9  18 40.8829 27.8336   2
   0  -9  18-12.0846 24.9402   2
   1  -9  18 58.0187 40.3298   2
   2  -9  18-21.7833 28.8183   2
  -1 -10  18 29.8446 30.1850   2
   0 -10  18 103.816 53.9826   2
   1 -10  18 88.3834 43.8261   2
   2 -10  18 60.5444 57.5932   2
 -16   0  19 27.9024 24.0907   1
 -15   0  19 63.7230 42.0335   1
  15   0 -19 29.2689 32.0720   3
 -14   0  19-45.5258 32.6213   1
  14   0 -19 4.98016 22.1707   3
 -13   0  19-11.6482 20.5591   1
  13   0 -19-26.1493 28.0710   3
 -12   0  19-3.30331 22.2650   1
  12   0 -19 13.2732 39.6829   3
  11   0 -19-14.6368 25.7961   3
 -11   0  19-45.8372 29.4487   1
  10   0 -19 14.8876 30.8778   3
 -10   0  19 0.12613 19.3172   1
   9   0 -19-23.1633 32.2903   3
  -9   0  19 39.0433 25.2423   1
   8   0 -19 27.8306 34.0161   3
   7   0 -19-19.8255 36.1524   3
   6   0 -19 53.6589 33.5231   3
   5   0 -19-108.458 51.2807   3
   4   0 -19-72.2644 53.9586   3
   3   0 -19 1.52665 25.4049   3
   2   0 -19 21.8926 30.0765   3
   1   0 -19-42.3774 50.7329   3
   0   0 -19 13.4900 38.3478   3
  -1   0 -19-38.7551 55.2082   3
  -2   0 -19-70.7219 51.0011   3
 -18  -1  19 71.1420 38.0361   1
 -17  -1  19 112.152 50.1840   1
 -16  -1  19 0.54183 19.1948   1
 -15  -1  19-4.32426 23.5779   1
  15   1 -19-3.63564 17.3679   3
 -14  -1  19 100.779 42.3479   1
  14   1 -19 72.5166 41.1130   3
 -13   1  19-43.5351 28.1654   1
 -13  -1  19 28.3448 32.2126   1
  13   1 -19 51.0834 32.2213   3
 -12  -1  19-43.7931 32.2705   1
  12   1 -19-26.3373 30.0166   3
 -12   1  19-18.6356 20.3247   1
  11   1 -19 64.5633 42.9761   3
 -11   1  19 76.1024 29.6829   1
 -11  -1  19 67.6699 37.3377   1
  10   1 -19 87.7725 50.8909   3
 -10   1  19 206.042 52.1743   1
 -10  -1  19 85.2355 40.5557   1
   9  -1 -19 389.030 85.8838   3
   9   1 -19 285.814 72.8630   3
  -9  -1  19 408.955 78.4452   1
   8  -1 -19 3.61183 24.5794   3
   8   1 -19 34.2151 27.0521   3
  -8  -1  19 39.0297 28.6516   1
   7  -1 -19 99.4595 51.1020   3
   7   1 -19 209.401 71.4966   3
   6  -1 -19 149.196 58.6403   3
   6   1 -19 41.6350 36.7896   3
   5  -1 -19 45.0705 34.0013   3
   5   1 -19 37.3897 32.7414   3
   4  -1 -19 162.693 59.2976   3
   4   1 -19 79.6848 44.3297   3
   3  -1 -19 248.561 75.8899   3
   3   1 -19 110.369 48.3115   3
   2  -1 -19-3.96396 41.9445   3
   2   1 -19-49.1629 45.3432   3
   1  -1 -19-104.970 56.5812   3
   1   1 -19 76.1834 42.3735   3
   0  -1 -19 18.1666 33.7734   3
   0   1 -19-54.5709 43.3568   3
  -1  -1 -19 142.436 71.1593   3
  -1   1 -19 23.4825 42.4147   3
  -2  -1 -19-7.33384 34.3392   3
  -2   1 -19-16.1646 36.5184   3
 -20  -2  19-109.821 54.4139   1
 -19  -2  19 20.8385 26.0781   1
 -18  -2  19 8.76740 24.5890   1
 -17  -2  19 22.1991 27.7223   1
 -16  -2  19 80.1270 43.5833   1
 -15  -2  19 2.79720 19.6918   1
 -14  -2  19 53.0437 28.8595   1
  14   2 -19 75.1786 34.5182   3
 -13  -2  19-5.84247 28.8587   1
  13   2 -19-66.0809 36.8456   3
 -12  -2  19 201.670 63.1359   1
  12   2 -19 123.840 47.5520   3
 -11  -2  19 96.4359 41.3620   1
  11   2 -19 15.7620 28.8941   3
  10   2 -19 57.2273 30.8883   3
 -10  -2  19 87.1942 44.5816   1
   9   2 -19 88.0464 47.9466   3
  -9  -2  19 65.1197 37.7351   1
   8   2 -19 3.22968 36.3276   3
  -8  -2  19-6.60809 21.7559   1
   7   2 -19-5.15203 31.6383   3
   6  -2 -19 82.3382 51.4899   3
   6   2 -19 38.8913 34.2332   3
   5  -2 -19-53.5756 40.3184   3
   5   2 -19 32.6470 39.3358   3
   4  -2 -19-19.9604 27.4607   3
   4   2 -19-80.2310 46.1574   3
   3  -2 -19 184.142 60.3118   3
   3   2 -19 148.828 61.1843   3
   2  -2 -19 117.029 61.9676   3
   2   2 -19 90.6443 51.8502   3
   1  -2 -19 31.6431 36.1438   3
   1   2 -19 1.43834 48.3525   3
   0  -2 -19 4.53143 36.6806   3
   0   2 -19 12.2147 29.8340   3
  -1  -2 -19-11.9297 49.3860   3
  -1   2 -19-105.415 57.1593   3
  -2  -2 -19 154.978 71.5124   3
  -2   2 -19 249.321 86.3329   3
 -20  -3  19 36.3636 41.9325   1
 -19  -3  19 31.4941 32.4898   1
 -18  -3  19 52.5401 38.5243   1
 -17  -3  19-71.7486 44.9082   1
 -16  -3  19 277.598 79.2912   1
 -15  -3  19 118.789 51.3484   1
 -14  -3  19-25.2537 28.8906   1
 -13  -3  19-69.6497 40.5590   1
  13   3 -19 19.5921 24.6270   3
 -12  -3  19 90.9837 40.4319   1
  12   3 -19 67.4394 36.5333   3
 -11  -3  19 61.2069 49.7790   1
  11   3 -19 155.167 52.6247   3
  10   3 -19 164.364 54.1106   3
 -10  -3  19 181.484 57.5481   1
   9   3 -19-30.7020 31.9239   3
  -9  -3  19 20.9066 28.0033   1
   8   3 -19 127.739 54.0273   3
  -8  -3  19 175.055 60.1661   1
   7   3 -19 132.735 53.4793   3
  -7  -3  19 130.651 49.4289   1
   6   3 -19 2.06797 47.5291   3
   5   3 -19 430.665 94.2444   3
   4  -3 -19 15.4454 32.6284   3
   4   3 -19 15.4246 28.3355   3
   3  -3 -19 350.773 89.5180   3
   3   3 -19 407.943 95.9114   3
   2  -3 -19 125.641 67.0898   3
   2   3 -19 188.293 71.7036   3
   1  -3 -19 216.825 75.2565   3
   1   3 -19 327.459 90.2141   3
   0  -3 -19 1.96289 28.7202   3
   0   3 -19-18.5432 35.4827   3
   0  -3  19 11.1557 21.5413   2
  -1  -3 -19 15.5109 42.2553   3
  -1   3 -19 48.1351 55.8325   3
   1  -3  19 62.3272 34.1288   2
  -2  -3 -19 38.7376 31.9279   3
  -2   3 -19 103.683 66.4308   3
   2  -3  19 65.4238 46.8726   2
   3  -3  19 68.4021 43.5082   2
   4  -3  19-71.6438 43.0765   2
 -20  -4  19-39.8005 38.9116   1
 -19  -4  19 36.7840 34.2992   1
 -18  -4  19-90.5359 51.3060   1
 -17  -4  19 208.799 76.4959   1
 -16  -4  19 1.73573 29.8446   1
 -15  -4  19 69.6662 39.6138   1
 -14  -4  19 64.2407 42.6285   1
 -13  -4  19-49.4421 38.3895   1
  13   4 -19 33.3151 32.9613   3
 -12  -4  19 183.910 66.5766   1
  12   4 -19 132.056 48.9324   3
 -11  -4  19-27.7412 30.0872   1
  11   4 -19 26.1987 33.5707   3
 -10  -4  19 20.1017 25.6382   1
  10   4 -19 2.58155 21.8565   3
   9   4 -19 452.934 91.1377   3
  -9  -4  19 522.821 101.633   1
   8   4 -19-40.2981 30.5106   3
  -8  -4  19 13.6406 26.2978   1
   7   4 -19 278.941 81.6049   3
  -7  -4  19 113.582 49.3071   1
   6   4 -19 42.0968 38.5521   3
   5   4 -19 225.417 76.4970   3
   4   4 -19 278.416 84.7742   3
   3   4 -19 102.279 55.3185   3
  -3  -4  19 128.586 43.0921   2
   2  -4 -19 71.6757 50.0211   3
   2   4 -19 226.002 80.1553   3
  -2  -4  19 138.266 46.6116   2
   1  -4 -19 164.133 71.8488   3
   1   4 -19 209.446 69.8930   3
  -1  -4  19 83.7908 41.5499   2
   0  -4 -19 53.4082 38.5754   3
   0   4 -19 23.0745 33.1505   3
   0  -4  19 37.7163 31.2206   2
  -1  -4 -19 151.542 69.0148   3
  -1   4 -19 237.433 84.3878   3
   1  -4  19 162.119 56.2138   2
   2  -4  19 28.4444 35.5863   2
   3  -4  19 27.9578 29.6838   2
   4  -4  19 20.4471 26.2390   2
 -18  -5  19-120.911 58.5553   1
 -17  -5  19-11.9616 38.8808   1
 -16  -5  19 50.8113 54.3564   1
 -15  -5  19 73.6154 57.2428   1
 -14  -5  19 85.2141 53.9765   1
 -13  -5  19-2.10034 25.0917   1
 -12  -5  19 44.6206 48.0961   1
  12   5 -19 27.7194 24.4964   3
 -11  -5  19-17.9137 43.2829   1
  11   5 -19 12.3790 20.5275   3
 -10  -5  19 83.7502 57.2371   1
  10   5 -19 103.613 45.3159   3
   9   5 -19 14.9943 27.7309   3
  -9  -5  19-29.6814 43.1143   1
   8   5 -19 401.203 87.4283   3
  -8  -5  19 371.722 91.4348   1
   7   5 -19 171.861 69.8032   3
  -7  -5  19 181.548 62.9695   1
   6   5 -19 271.873 85.1380   3
  -6  -5  19 295.698 74.7982   1
   5   5 -19-82.9594 47.7681   3
   4   5 -19 164.819 65.6042   3
  -4  -5  19 137.866 46.2447   2
   3   5 -19 26.9009 36.3579   3
  -3  -5  19 17.5333 20.8410   2
   2   5 -19 94.3771 52.7643   3
  -2  -5  19-15.8455 20.6790   2
   1  -5 -19-18.1787 39.5620   3
   1   5 -19 42.2871 49.5826   3
  -1  -5  19 20.8344 24.3594   2
   0  -5 -19 32.9601 50.3996   3
   0   5 -19-4.63554 51.7956   3
   0  -5  19 106.458 47.1479   2
  -1   5 -19 275.871 80.2218   3
   1  -5  19 294.472 80.8009   2
   2  -5  19-28.6202 29.8173   2
   3  -5  19 36.6045 33.0205   2
   4  -5  19 30.9126 30.2512   2
 -17  -6  19 142.216 64.0162   1
 -16  -6  19-12.5129 28.2914   1
 -15  -6  19 54.1656 46.1623   1
 -14  -6  19 87.4661 54.4262   1
 -13  -6  19-33.3299 36.9605   1
 -12  -6  19 71.4816 44.6683   1
 -11  -6  19 48.0781 38.4862   1
  11   6 -19 19.3957 31.8240   3
 -10  -6  19 66.5148 48.0252   1
  10   6 -19 32.7493 32.3658   3
   9   6 -19 193.777 67.5019   3
  -9  -6  19 190.849 69.7429   1
   8   6 -19 292.795 76.6032   3
  -8  -6  19 406.439 97.3560   1
   7   6 -19 47.2431 32.9452   3
  -7  -6  19 150.003 66.1356   1
   6   6 -19 51.2504 43.1295   3
  -6  -6  19-49.6799 38.7355   1
   5   6 -19-76.9207 48.6849   3
   4   6 -19 304.502 84.9660   3
   3   6 -19 265.867 81.2495   3
  -3  -6  19 268.416 65.4335   2
   2   6 -19 136.979 62.8788   3
  -2  -6  19 102.145 48.1826   2
   1   6 -19-61.1121 48.0739   3
  -1  -6  19 7.03562 26.7381   2
   0   6 -19 394.294 103.519   3
   0  -6  19 249.872 72.9585   2
   1  -6  19 48.0829 32.2885   2
   2  -6  19 79.8621 44.0773   2
   3  -6  19 15.3137 25.4465   2
 -15  -7  19 172.081 74.1982   1
 -14  -7  19 23.2690 30.4548   1
 -13  -7  19-79.2393 49.4565   1
 -12  -7  19 63.7721 54.4446   1
 -11  -7  19 38.4258 33.2134   1
 -10  -7  19 21.7098 32.4505   1
  -9  -7  19 122.191 61.5758   1
  -8  -7  19 92.7866 51.5058   1
  -7  -7  19-25.8626 38.1204   1
  -6  -7  19-139.143 58.2893   1
  -2  -7  19 206.629 62.3723   2
  -1  -7  19-34.9330 30.2766   2
   0  -7  19 67.5619 42.5607   2
   1  -7  19 10.0074 22.1557   2
   2  -7  19 34.0958 35.1895   2
   3  -7  19 69.7033 48.1641   2
 -13  -8  19 20.9113 29.3148   1
 -12  -8  19 109.956 56.8354   1
 -11  -8  19-33.8574 34.5718   1
 -10  -8  19-14.5268 27.0034   1
  -9  -8  19 32.9718 30.4941   1
  -8  -8  19-2.47614 18.4399   1
  -7  -8  19-6.18190 28.9799   1
  -6  -8  19 19.6441 28.3575   1
  -1  -8  19-18.2902 25.9663   2
   0  -8  19 56.4083 37.6152   2
   1  -8  19-47.2996 36.7784   2
   2  -8  19 14.3844 23.3045   2
   0  -9  19-27.5998 27.7121   2
  15   0 -20 34.2977 33.0646   3
  14   0 -20 38.5265 32.2690   3
  13   0 -20 143.517 59.8083   3
  12   0 -20 384.981 88.8363   3
  11   0 -20 583.853 105.334   3
 -11   0  20 553.876 93.7288   1
  10   0 -20 325.541 82.4992   3
 -10   0  20 412.396 76.8670   1
   9   0 -20 377.478 88.6415   3
   8   0 -20 393.984 90.5371   3
   7   0 -20 43.3907 32.8627   3
   6   0 -20 1234.42 164.391   3
   5   0 -20 739.811 131.809   3
   4   0 -20 66.4591 41.1356   3
   3   0 -20 11.8425 39.2755   3
   2   0 -20 21.3946 29.8969   3
   1   0 -20-122.310 60.3401   3
   0   0 -20 37.5154 42.1639   3
 -15  -1  20 2.27915 14.1973   1
 -14  -1  20 73.3707 40.0841   1
  14   1 -20 71.7469 39.1631   3
 -13  -1  20 56.0265 39.5040   1
  13   1 -20 35.6993 34.4566   3
  12  -1 -20 590.448 104.684   3
  12   1 -20 507.375 99.4359   3
 -12  -1  20 572.899 99.8597   1
  11  -1 -20 302.036 79.4418   3
  11   1 -20 406.164 86.3827   3
 -11  -1  20 389.589 82.0818   1
  10  -1 -20-56.2145 39.7935   3
  10   1 -20 44.2275 38.3596   3
 -10  -1  20 36.7831 36.4666   1
   9  -1 -20 300.058 78.2073   3
   9   1 -20 255.698 74.1596   3
   8  -1 -20 166.201 61.6212   3
   8   1 -20 202.899 66.4480   3
   7  -1 -20 247.521 74.2300   3
   7   1 -20 367.372 86.8744   3
   6  -1 -20 49.6783 47.6215   3
   6   1 -20 59.2546 44.0513   3
   5  -1 -20 503.043 106.915   3
   5   1 -20 566.939 112.734   3
   4  -1 -20 17.3986 33.3747   3
   4   1 -20 48.0246 38.8363   3
   3  -1 -20 118.599 56.5929   3
   3   1 -20 19.0814 40.7212   3
   2  -1 -20-18.6566 32.7209   3
   2   1 -20 26.3520 35.5080   3
   1  -1 -20-60.2862 47.1275   3
   1   1 -20 144.236 70.5468   3
   0  -1 -20 85.1506 50.7579   3
   0   1 -20 14.8795 43.9062   3
 -17  -2  20-0.20605 19.6778   1
 -16  -2  20 108.699 53.7710   1
 -15  -2  20 96.3249 52.1592   1
 -14  -2  20 59.8918 43.8225   1
 -13  -2  20 70.6929 40.8842   1
  13   2 -20 37.6825 21.5029   3
 -12  -2  20 42.5152 33.7923   1
  12   2 -20 37.9761 29.2032   3
  11   2 -20-0.64612 29.3587   3
 -11  -2  20 36.0981 41.0939   1
  10   2 -20 187.597 62.2013   3
 -10  -2  20 145.304 56.5824   1
   9   2 -20 59.4757 38.9712   3
  -9  -2  20 76.9787 45.0452   1
   8  -2 -20-13.2151 31.9635   3
   8   2 -20-90.1620 47.2361   3
   7  -2 -20 119.649 55.9751   3
   7   2 -20 126.746 52.7510   3
   6  -2 -20 132.759 55.0859   3
   6   2 -20 116.076 61.3739   3
   5  -2 -20 137.205 64.8766   3
   5   2 -20 74.0265 53.7133   3
   4  -2 -20 350.453 89.6867   3
   4   2 -20 429.244 100.804   3
   3  -2 -20 82.9961 46.0764   3
   3   2 -20 47.7045 39.1678   3
   2  -2 -20 303.266 87.3561   3
   2   2 -20 267.709 78.2991   3
   1  -2 -20 171.886 75.5630   3
   1   2 -20 182.384 76.9405   3
   0   2 -20-34.9559 40.6742   3
 -19  -3  20 68.4846 51.0343   1
 -18  -3  20 38.4931 35.7281   1
 -17  -3  20 44.4078 36.9957   1
 -16  -3  20 81.1423 47.6160   1
 -15  -3  20 31.7224 33.7497   1
 -14  -3  20-21.4502 29.4971   1
 -13  -3  20 343.837 86.1704   1
  13   3 -20 123.014 46.3499   3
 -12  -3  20-12.6469 23.4693   1
  12   3 -20-62.7413 39.1653   3
  11   3 -20-13.8032 28.8734   3
 -11  -3  20 42.1782 37.4392   1
  10   3 -20 393.432 85.0212   3
 -10  -3  20 591.410 109.879   1
   9   3 -20-30.7759 31.9834   3
  -9  -3  20-30.5473 28.8164   1
   8   3 -20-18.7267 34.3669   3
  -8  -3  20-1.64862 15.4378   1
   7   3 -20 274.323 76.0388   3
   6   3 -20 87.0482 44.5853   3
   5  -3 -20 277.758 87.6571   3
   5   3 -20 308.567 82.7772   3
   4  -3 -20 522.313 111.552   3
   4   3 -20 406.348 100.533   3
   3  -3 -20 86.1393 58.3365   3
   3   3 -20-0.21092 29.3220   3
   2  -3 -20 102.110 59.6687   3
   2   3 -20 121.423 63.1809   3
   1  -3 -20 114.053 61.7659   3
   1   3 -20 84.7897 51.3354   3
 -19  -4  20 26.0686 35.7245   1
 -18  -4  20 44.5520 40.8987   1
 -17  -4  20 67.9274 59.2188   1
 -16  -4  20 40.3043 36.2158   1
 -15  -4  20-3.67508 19.2252   1
 -14  -4  20 66.6971 38.9721   1
 -13  -4  20 28.2854 43.8344   1
 -12  -4  20 205.595 68.0208   1
  12   4 -20 249.826 68.3158   3
  11   4 -20 31.4056 31.8876   3
 -11  -4  20 22.5383 28.2592   1
  10   4 -20 5.53265 35.2754   3
 -10  -4  20 4.92590 32.6438   1
   9   4 -20 52.0460 42.1614   3
  -9  -4  20 59.2925 42.4195   1
   8   4 -20 37.5250 37.4470   3
  -8  -4  20 82.8219 45.1636   1
   7   4 -20 454.714 97.9177   3
   6   4 -20 90.6090 50.5062   3
   5   4 -20 112.225 61.6888   3
   4   4 -20 117.675 59.7423   3
   3  -4 -20 201.623 76.4293   3
   3   4 -20 217.095 77.5308   3
   2  -4 -20 27.0706 45.7794   3
   2   4 -20 14.7923 31.4741   3
   1   4 -20 40.5475 49.4887   3
  -1  -4  20 46.9830 31.3179   2
   0  -4  20 56.4388 35.4763   2
   1  -4  20 63.6437 32.1174   2
   2  -4  20-33.8814 31.9673   2
   3  -4  20-5.83624 20.5402   2
 -18  -5  20 51.2368 38.1099   1
 -17  -5  20 30.3916 33.2519   1
 -16  -5  20-25.2794 31.9342   1
 -15  -5  20 23.3274 40.2349   1
 -14  -5  20 25.3596 26.0830   1
 -13  -5  20 9.80635 25.2567   1
 -12  -5  20 62.9760 42.1763   1
 -11  -5  20-8.76746 24.5531   1
  11   5 -20 6.83548 30.0311   3
  10   5 -20 3.06068 25.6632   3
 -10  -5  20-1.01281 21.1169   1
   9   5 -20 97.0726 57.9548   3
  -9  -5  20 121.212 63.0945   1
   8   5 -20 16.3874 34.9738   3
  -8  -5  20 3.47726 21.7531   1
   7   5 -20-18.9209 34.0323   3
  -7  -5  20 0.75289 18.7640   1
   6   5 -20-30.1416 32.3820   3
   5   5 -20 30.8448 37.0743   3
   4   5 -20 31.9991 37.8985   3
   3   5 -20 31.2174 44.6607   3
   2   5 -20 154.179 63.0769   3
  -2  -5  20 81.2679 41.8524   2
   1   5 -20 77.4574 57.7722   3
  -1  -5  20 85.4352 40.9043   2
   0  -5  20 218.304 70.3289   2
   1  -5  20 172.927 62.5554   2
   2  -5  20 78.8768 43.8015   2
   3  -5  20 3.53236 20.2353   2
 -16  -6  20 24.0342 33.0803   1
 -15  -6  20 59.3044 21.7083   1
 -14  -6  20 16.2133 24.8147   1
 -13  -6  20 36.9024 35.9934   1
 -12  -6  20 125.630 61.6921   1
 -11  -6  20 296.898 89.7731   1
  10   6 -20 73.7532 61.6459   3
 -10  -6  20 48.7045 40.0806   1
   9   6 -20 32.9740 31.8145   3
  -9  -6  20 12.2772 25.0409   1
   8   6 -20 95.2298 59.9121   3
  -8  -6  20 3.51883 19.7431   1
   7   6 -20 69.8596 52.2498   3
  -7  -6  20 174.006 62.0783   1
   6   6 -20 129.684 56.9316   3
   5   6 -20-50.0955 42.1550   3
   4   6 -20 13.6421 31.7781   3
   3   6 -20 170.512 77.9765   3
   2   6 -20 31.2436 57.6608   3
  -1  -6  20 193.247 62.7011   2
   0  -6  20-15.2361 22.9434   2
   1  -6  20 206.767 68.9792   2
   2  -6  20 16.6964 26.3881   2
 -13  -7  20 87.0866 50.5573   1
 -12  -7  20-27.0185 31.7468   1
 -11  -7  20-49.2540 38.7267   1
 -10  -7  20 93.1097 51.5746   1
  -9  -7  20 88.4427 54.5445   1
  -8  -7  20-77.5701 46.4248   1
  -7  -7  20 20.5207 27.3812   1
   1  -7  20 40.5256 36.6679   2
  14   0 -21 4.64552 28.1724   3
  13   0 -21 63.0510 39.4364   3
  12   0 -21-9.31025 29.5522   3
  11   0 -21 29.5092 32.7944   3
  10   0 -21 8.14929 26.8648   3
   9   0 -21 40.0482 38.9070   3
   8   0 -21 93.8225 44.2839   3
   7   0 -21 16.5086 29.4786   3
   6   0 -21-12.8504 31.2717   3
   5   0 -21 46.4204 43.4603   3
   4   0 -21 30.8656 37.9620   3
   3   0 -21 11.0204 44.3816   3
  15  -1 -21 39.8715 26.3247   3
  14  -1 -21 14.0199 36.9323   3
  14   1 -21-21.1255 25.7055   3
  13  -1 -21 37.4194 32.1018   3
  13   1 -21 21.3215 27.4854   3
  12  -1 -21 68.6488 39.4803   3
  12   1 -21 45.4974 24.6517   3
  11  -1 -21 197.848 70.6476   3
  11   1 -21 119.909 53.8759   3
  10  -1 -21 17.5679 36.7103   3
  10   1 -21-9.05618 25.9154   3
   9  -1 -21 48.0228 41.4453   3
   9   1 -21 69.6745 49.9912   3
   8  -1 -21 158.898 64.2373   3
   8   1 -21 14.8069 27.7048   3
   7  -1 -21 98.1901 53.8116   3
   7   1 -21 37.9761 41.8018   3
   6  -1 -21-25.0707 34.2232   3
   6   1 -21 24.9938 33.4805   3
   5  -1 -21 99.7866 52.5798   3
   5   1 -21-10.9342 30.1881   3
   4  -1 -21-38.0100 40.5631   3
   4   1 -21-14.0417 30.0297   3
   3  -1 -21 60.4667 39.7632   3
   3   1 -21 48.4380 45.9495   3
  13   2 -21 12.2033 25.7061   3
 -13  -2  21 86.6219 45.5746   1
  12   2 -21-89.5042 44.3700   3
 -12  -2  21-20.4529 24.1929   1
  11   2 -21 59.7969 45.5964   3
 -11  -2  21 160.364 57.9505   1
  10  -2 -21 61.2810 49.4704   3
  10   2 -21 61.8858 41.2453   3
 -10  -2  21 83.2748 44.3182   1
   9  -2 -21-19.7550 32.3027   3
   9   2 -21 45.3893 39.7138   3
   8  -2 -21 36.5187 28.5369   3
   8   2 -21 83.6031 46.4603   3
   7  -2 -21 59.9064 50.1267   3
   7   2 -21 40.0200 37.9201   3
   6  -2 -21 67.4809 43.8119   3
   6   2 -21-3.46215 26.7779   3
   5  -2 -21 12.9045 28.2199   3
   5   2 -21-2.72350 40.2017   3
   4  -2 -21 58.8610 56.6705   3
   4   2 -21 26.4992 40.9561   3
   3   2 -21-45.3819 42.3579   3
 -16  -3  21 12.0362 21.7804   1
 -15  -3  21 372.669 97.7616   1
 -14  -3  21 58.2306 39.1638   1
 -13  -3  21 9.45756 20.8061   1
  12   3 -21-76.2093 42.1507   3
 -12  -3  21 15.4158 23.7334   1
  11   3 -21-25.5466 28.9020   3
 -11  -3  21-32.1441 30.2548   1
  10   3 -21 23.5405 21.9772   3
 -10  -3  21-39.6771 32.7671   1
   9   3 -21-18.4605 30.0340   3
  -9  -3  21 19.2082 25.0667   1
   8   3 -21 47.6161 36.5949   3
   7  -3 -21 43.4364 32.5915   3
   7   3 -21 185.586 68.5532   3
   6  -3 -21 7.94630 31.1260   3
   6   3 -21 64.9043 49.5228   3
   5  -3 -21-34.4968 40.9812   3
   5   3 -21 30.8998 40.4009   3
   4   3 -21 18.2151 30.4810   3
   3   3 -21-69.8037 48.1349   3
 -17  -4  21 47.0522 37.4981   1
 -16  -4  21-33.1046 32.9389   1
 -15  -4  21 108.027 58.4062   1
 -14  -4  21 242.050 81.1484   1
 -13  -4  21-59.0717 41.4891   1
 -12  -4  21 274.552 81.8019   1
  11   4 -21 20.5097 23.6483   3
 -11  -4  21 3.39607 24.3455   1
  10   4 -21 44.4641 43.2037   3
 -10  -4  21 66.8844 38.5119   1
   9   4 -21 4.57100 26.9433   3
  -9  -4  21-67.2475 41.3203   1
   8   4 -21 109.982 56.1905   3
   7   4 -21 40.5663 39.7166   3
   6   4 -21-7.16314 32.0559   3
   5   4 -21 5.67835 26.7171   3
   4   4 -21 75.4350 50.7023   3
   3   4 -21-34.6910 40.1819   3
 -16  -5  21 279.358 92.1967   1
 -15  -5  21 33.4413 33.4465   1
 -14  -5  21 128.331 58.3286   1
 -13  -5  21 65.9653 48.6053   1
 -12  -5  21 34.8302 28.2033   1
 -11  -5  21 98.1128 54.6527   1
  10   5 -21-5.41097 26.8367   3
 -10  -5  21-88.9789 48.6042   1
   9   5 -21 292.209 82.1186   3
  -9  -5  21 386.065 94.8125   1
   8   5 -21 63.6248 51.7401   3
  -8  -5  21-74.2857 42.9163   1
   7   5 -21 42.5653 42.8522   3
   6   5 -21 38.0286 38.3380   3
   5   5 -21 109.638 62.7821   3
   4   5 -21 30.3543 41.8278   3
 -14  -6  21-4.14043 21.9224   1
 -13  -6  21 62.9837 56.2277   1
 -12  -6  21 79.7496 48.2129   1
 -11  -6  21 17.9419 28.5157   1
  10   6 -21 121.185 59.7396   3
 -10  -6  21 117.922 57.4682   1
   9   6 -21 29.2205 34.4260   3
  -9  -6  21 73.2361 45.8372   1
   8   6 -21 108.743 50.0144   3
  -8  -6  21 41.1822 34.8886   1
   7   6 -21-23.5754 33.9383   3
   6   6 -21 56.8739 57.1506   3
   5   6 -21-47.7299 43.9099   3
   4   6 -21 26.6801 31.5127   3
  -9  -7  21 89.5892 58.9875   1
  -8  -7  21 25.1279 30.9388   1
  14   0 -22 94.5542 47.6654   3
  13   0 -22-0.56442 21.9666   3
  12   0 -22 138.914 51.5230   3
  11   0 -22-107.106 52.9224   3
  10   0 -22 48.0933 40.7336   3
   9   0 -22-10.8364 26.6822   3
   8   0 -22 11.3514 43.9522   3
   7   0 -22 177.984 72.5166   3
   6   0 -22 115.785 59.2077   3
  14  -1 -22 4.45590 30.8717   3
  13  -1 -22 91.1127 56.0614   3
  13   1 -22 49.0465 37.1073   3
  12  -1 -22 69.5288 49.1580   3
  12   1 -22 35.0755 36.5289   3
  11  -1 -22 52.0511 36.2062   3
  11   1 -22-23.3283 32.2194   3
  10  -1 -22 101.139 56.7184   3
  10   1 -22-25.9535 40.4773   3
   9  -1 -22-27.5504 31.7490   3
   9   1 -22-28.4274 37.5235   3
   8  -1 -22 109.813 59.9144   3
   8   1 -22 54.9111 46.5256   3
   7  -1 -22 213.759 82.7859   3
   7   1 -22 169.366 66.4510   3
   6   1 -22 182.583 90.4317   3
  14  -2 -22 20.5526 30.6029   3
  13  -2 -22 0.19585 42.1775   3
  12  -2 -22 95.2428 61.0304   3
  12   2 -22 15.4713 25.6358   3
  11  -2 -22 24.4479 30.6982   3
  11   2 -22 48.0942 28.8531   3
  10  -2 -22-17.4435 30.6502   3
  10   2 -22 7.72736 23.4548   3
   9  -2 -22 14.6553 33.7292   3
   9   2 -22 33.5991 32.2339   3
   8  -2 -22 66.6786 46.3863   3
   8   2 -22 0.20932 35.2700   3
   7   2 -22-101.022 54.2163   3
   6   2 -22-39.7759 38.8735   3
  11   3 -22 16.9364 33.2011   3
  10   3 -22 95.7089 60.0543   3
 -10  -3  22-40.5101 32.2362   1
   9  -3 -22-48.4383 42.5631   3
   9   3 -22 47.7977 48.2056   3
   8   3 -22 10.6183 28.8754   3
   7   3 -22 19.5318 32.3645   3
   6   3 -22 50.1903 41.5683   3
 -14  -4  22-21.3579 29.7074   1
 -13  -4  22 9.47278 34.4025   1
 -12  -4  22 61.4049 40.7969   1
  11   4 -22 48.5687 30.1980   3
 -11  -4  22-3.66397 19.3881   1
  10   4 -22 226.322 76.8520   3
 -10  -4  22 222.641 71.7978   1
   9   4 -22 92.7281 48.5557   3
   8   4 -22 39.1126 37.6672   3
   7   4 -22 241.040 76.2218   3
   6   4 -22 79.2622 50.1043   3
 -14  -5  22 10.4042 23.0411   1
 -13  -5  22-29.6469 33.2725   1
 -12  -5  22 163.662 65.8433   1
 -11  -5  22 10.0595 24.7389   1
  10   5 -22 145.426 61.4717   3
 -10  -5  22 149.232 60.4148   1
   9   5 -22 78.5790 46.7924   3
  -9  -5  22-61.7897 39.6633   1
   8   5 -22 15.3644 33.1416   3
   7   5 -22 27.4854 24.6918   3
   6   5 -22 130.140 62.0215   3
 -10  -6  22 16.1164 25.2168   1
   9   6 -22 86.1243 46.0669   3
  -9  -6  22 82.1559 50.4984   1
   8   6 -22-159.271 66.1989   3
   7   6 -22 77.3629 53.0116   3
  13   0 -23-16.8024 30.2863   3
  12   0 -23-34.6831 35.1074   3
  11   0 -23-23.4668 27.1752   3
  10   0 -23-40.0635 39.6823   3
  13  -1 -23 5.59272 25.6175   3
  12  -1 -23 45.9507 39.0456   3
  12   1 -23 2.88867 19.6432   3
  11  -1 -23-11.5368 27.5711   3
  11   1 -23 9.11827 22.2791   3
  10   1 -23-110.192 54.2625   3
   9   1 -23-30.5299 34.3379   3
  13  -2 -23-12.9033 26.8340   3
  11   2 -23-37.7782 36.0877   3
  10   2 -23 76.4338 46.5629   3
   9   2 -23-41.0601 39.8469   3
  10   3 -23 73.8214 46.3929   3
   9   3 -23-69.3907 46.7942   3
   9   4 -23-25.8552 33.5495   3
  -7   8   1 1227.23 409.077   4
  -4   8   1  162.94 54.3133   4
  -3   8   1  201.04 200.367   4
  -2   8   1  180.50 60.1667   4
  -1   8   1   47.18 15.7267   4
  -2   9   1   16.44    5.48   4
  -1   9   1 1606.01 535.337   4
  -3   0   2   38.99 12.9967   4
  -2   0   2 1923.91 1641.33   4
  -1   0   2 1943.511314.503   4
   1   0   216742.00 5580.67   4
  -4   1   2 2236.36 745.453   4
  -3   1   2 2677.31 892.437   4
  -2   1   2 1700.00 566.667   4
  -1   1   2  133.39 144.463   4
   0   1   2 4029.06 1043.02   4
  -8   2   2 7950.49 2650.16   4
   0   0   0    0.00    0.00   0
TITL bmk1619 in P2(1)/c
REM P2(1)/c (#14 in standard setting)
CELL 0.71073  18.342686  13.585487  16.938493  90.0000 110.3931  90.0000
ZERR    8.00   0.001395   0.001040   0.001169   0.0000   0.0086   0.0000
LATT  1
SYMM -x, y+1/2,-z+1/2
SFAC C H N O
UNIT 184.00 176.00 24.00 32.00
TREF
HKLF 4
END
;
_shelx_hkl_checksum              78284
_shelx_res_file
;
TITL bmk1619 in P2(1)/c
CELL  0.71073  18.3427  13.5855  16.9385   90.000  110.393   90.000
ZERR     2.00   0.0014   0.0010   0.0012    0.000    0.009    0.000
LATT   1
SYMM  - X, 1/2 + Y, 1/2 - Z
SFAC  C    H    N    O    S
UNIT  142  142  66   2    16
MERG   2
dfix 1.47 .01 n17 c35 n17 c37 n17 c37
dfix 1.25 .01 c35 c35
dfix 2.0 .02 o1 n17
dfix 2.5 .02 c35 c36 c35 c37
simu .01 c35 > o1
isor .01 c35 > o1
eqiv $1   x, -y+1/2, z-1/2
eqiv $2   x-1, y, z-1
eqiv $3   x-1, -y+1/2, z-1/2
eqiv $4   x+1, -y+1/2, z+1/2
eqiv $5   x+1, y, z+1
eqiv $6   -x, -y, -z+2
mpla c1 s1 n1 n2
mpla c3 c4 c5 c6 c7 n4 n5 s2
mpla c8 c9 n6 n7 n8
mpla c11 c12 c13 c14 c15 c16 c17
mpla c18 n9 n10 s3
mpla c20 c21 c22 c23 c24 n12 n13 s4
mpla c25 c26 n14 n15 n16
mpla c28 c29 c30 c31 c32 c33
eqiv $1  x, -y+1/2, z-1/2
eqiv $2 x-1, y, z-1
eqiv $3  x-1, -y+1/2, z-1/2
eqiv $4 x+1, -y+1/2, z+1/2
eqiv $5   x+1, y, z+1
htab n1 n7_$1
htab n1 s3_$2
htab n2 s3_$3
htab n9 n15_$1
htab n9 s1_$4
htab n10 s1_$5
FMAP   2
PLAN    5
SIZE     0.186   0.209   0.375
ACTA    50.00
L.S.  14
TEMP    23.00
WGHT    0.060000    2.474200
FVAR       1.19148
C1    1   -0.172201    0.226451    0.227984    11.00000    0.04960    0.04633 =
         0.03702    0.00627    0.01549    0.00375
C2    1   -0.036643    0.162108    0.423384    11.00000    0.04382    0.04995 =
         0.03855   -0.00225    0.01183   -0.00141
AFIX  43
H2    2   -0.060518    0.191207    0.457763    11.00000   -1.20000
AFIX   0
C3    1    0.033166    0.106393    0.459516    11.00000    0.03737    0.04999 =
         0.03595   -0.00001    0.01079   -0.00074
C4    1    0.053561    0.028401    0.327541    11.00000    0.05767    0.05991 =
         0.03608   -0.00099    0.01100    0.00220
AFIX  43
H4    2    0.013396    0.054337    0.282059    11.00000   -1.20000
AFIX   0
C5    1    0.107605   -0.033837    0.320791    11.00000    0.06968    0.06122 =
         0.04214   -0.00554    0.01887    0.00275
AFIX  43
H5    2    0.108733   -0.056197    0.269336    11.00000   -1.20000
AFIX   0
C6    1    0.128456    0.002631    0.467440    11.00000    0.04285    0.04817 =
         0.04134   -0.00018    0.01067   -0.00106
C7    1    0.080367    0.088465    0.542308    11.00000    0.03592    0.05226 =
         0.03638    0.00147    0.00906   -0.00257
C8    1    0.076850    0.130927    0.619389    11.00000    0.03367    0.06346 =
         0.03925   -0.00226    0.00861   -0.00463
C9    1    0.123728    0.111039    0.701547    11.00000    0.04011    0.06403 =
         0.03790   -0.00420    0.01060   -0.00718
C10   1    0.187548    0.039669    0.739427    11.00000    0.06652    0.07701 =
         0.04523    0.00413    0.00889    0.00513
AFIX 137
H10A  2    0.194798    0.000094    0.695789    11.00000   -1.50000
H10B  2    0.174442   -0.001952    0.778308    11.00000   -1.50000
H10C  2    0.234722    0.074658    0.768707    11.00000   -1.50000
AFIX   0
C11   1    0.132281    0.192876    0.836225    11.00000    0.04564    0.08960 =
         0.03925   -0.00863    0.01422    0.00005
C12   1    0.122139    0.125041    0.890590    11.00000    0.13030    0.17159 =
         0.05399   -0.01706    0.03289   -0.09286
AFIX  43
H12   2    0.091678    0.069475    0.870590    11.00000   -1.20000
AFIX   0
C13   1    0.158452    0.140518    0.977229    11.00000    0.12418    0.16850 =
         0.04732   -0.00348    0.03071   -0.06384
AFIX  43
H13   2    0.150952    0.094659    1.014445    11.00000   -1.20000
AFIX   0
C14   1    0.204056    0.219697    1.008859    11.00000    0.05838    0.08744 =
         0.04791   -0.01287    0.01372    0.00982
C15   1    0.214462    0.284372    0.952730    11.00000    0.08065    0.06469 =
         0.05343   -0.01179    0.00538    0.01048
AFIX  43
H15   2    0.246675    0.338488    0.972725    11.00000   -1.20000
AFIX   0
C16   1    0.178754    0.272489    0.866774    11.00000    0.07913    0.05926 =
         0.04877   -0.00128    0.01185    0.01011
AFIX  43
H16   2    0.186422    0.318683    0.829902    11.00000   -1.20000
AFIX   0
C17   1    0.243975    0.231582    1.102862    11.00000    0.09469    0.10629 =
         0.04845   -0.01236    0.00739    0.02346
AFIX 137
H17A  2    0.299225    0.226068    1.116817    11.00000   -1.50000
H17B  2    0.226316    0.181169    1.131639    11.00000   -1.50000
H17C  2    0.231735    0.295056    1.119830    11.00000   -1.50000
AFIX   0
C18   1    0.695483    0.220380    0.924336    11.00000    0.04624    0.06053 =
         0.03895   -0.00285    0.01996    0.00171
C19   1    0.554511    0.316564    0.998150    11.00000    0.03938    0.05803 =
         0.03276   -0.00030    0.01506   -0.00008
AFIX  43
H19   2    0.579834    0.304233    1.055203    11.00000   -1.20000
AFIX   0
C20   1    0.481284    0.366666    0.970280    11.00000    0.04168    0.04939 =
         0.03181   -0.00120    0.01518   -0.00094
C21   1    0.455076    0.398202    0.810343    11.00000    0.05917    0.05935 =
         0.03353    0.00171    0.02119   -0.00193
AFIX  43
H21   2    0.497354    0.369187    0.801170    11.00000   -1.20000
AFIX   0
C22   1    0.397862    0.443789    0.751688    11.00000    0.07670    0.07025 =
         0.03332    0.00227    0.01856   -0.00045
AFIX  43
H22   2    0.395605    0.449653    0.696181    11.00000   -1.20000
AFIX   0
C23   1    0.378874    0.447147    0.886505    11.00000    0.04618    0.05296 =
         0.03491   -0.00169    0.01036    0.00619
C24   1    0.432835    0.398406    1.012172    11.00000    0.03533    0.05135 =
         0.03490   -0.00239    0.01214    0.00102
C25   1    0.441815    0.385188    1.100528    11.00000    0.03519    0.05960 =
         0.03609    0.00047    0.01470    0.00146
C26   1    0.402465    0.432919    1.145377    11.00000    0.03312    0.05564 =
         0.03421   -0.00168    0.01213   -0.00189
C27   1    0.339200    0.506463    1.121824    11.00000    0.05146    0.06424 =
         0.04393    0.00163    0.02009    0.01236
AFIX 137
H27A  2    0.330050    0.529032    1.065474    11.00000   -1.50000
H27B  2    0.353803    0.561180    1.159991    11.00000   -1.50000
H27C  2    0.292627    0.476977    1.124699    11.00000   -1.50000
AFIX   0
C28   1    0.416416    0.415535    1.297879    11.00000    0.04572    0.06735 =
         0.03448    0.00213    0.01822    0.00407
C29   1    0.424267    0.509003    1.329487    11.00000    0.09891    0.07185 =
         0.05710   -0.01029    0.04317   -0.02609
AFIX  43
H29   2    0.440564    0.559657    1.302616    11.00000   -1.20000
AFIX   0
C30   1    0.407857    0.527625    1.401455    11.00000    0.11713    0.08012 =
         0.06772   -0.02479    0.05120   -0.02601
AFIX  43
H30   2    0.413183    0.591382    1.422709    11.00000   -1.20000
AFIX   0
C31   1    0.383830    0.454363    1.442579    11.00000    0.07237    0.08763 =
         0.04206    0.00163    0.02829    0.00310
C32   1    0.375536    0.361609    1.409600    11.00000    0.08330    0.06862 =
         0.05492    0.02015    0.04113    0.01555
AFIX  43
H32   2    0.359573    0.310955    1.436763    11.00000   -1.20000
AFIX   0
C33   1    0.390527    0.341284    1.335959    11.00000    0.07830    0.05655 =
         0.05174    0.00911    0.03409    0.01290
AFIX  43
H33   2    0.383040    0.278252    1.313110    11.00000   -1.20000
AFIX   0
C34   1    0.365044    0.475695    1.521269    11.00000    0.12759    0.13142 =
         0.05919   -0.01470    0.05527   -0.00683
AFIX 137
H34A  2    0.313223    0.501556    1.505601    11.00000   -1.50000
H34B  2    0.401332    0.523044    1.555291    11.00000   -1.50000
H34C  2    0.368686    0.415990    1.552732    11.00000   -1.50000
AFIX   0
N1    3   -0.131880    0.200431    0.180445    11.00000    0.04807    0.07920 =
         0.03691    0.01112    0.01510    0.01859
AFIX  93
H1A   2   -0.084921    0.179605    0.203344    11.00000   -1.20000
H1B   2   -0.152517    0.204270    0.126511    11.00000   -1.20000
AFIX   0
N2    3   -0.137011    0.218908    0.311725    11.00000    0.04401    0.06342 =
         0.03610    0.00097    0.01183    0.01151
AFIX  43
H2A   2   -0.158340    0.243166    0.345276    11.00000   -1.20000
AFIX   0
N3    3   -0.066063    0.171636    0.343243    11.00000    0.04049    0.05558 =
         0.04112    0.00548    0.01105    0.00546
N4    3    0.065364    0.049364    0.411950    11.00000    0.03819    0.04891 =
         0.03648   -0.00073    0.00766   -0.00179
N5    3    0.139474    0.023796    0.546914    11.00000    0.04014    0.06016 =
         0.03946   -0.00028    0.00929    0.00120
N6    3    0.027088    0.205205    0.619984    11.00000    0.05740    0.09717 =
         0.04305   -0.00716    0.01020    0.01992
N7    3    0.040524    0.234149    0.697416    11.00000    0.05652    0.11231 =
         0.04654   -0.01339    0.01088    0.02038
N8    3    0.099204    0.176704    0.747135    11.00000    0.04570    0.08723 =
         0.03768   -0.00612    0.01223    0.00204
N9    3    0.653361    0.217734    0.842647    11.00000    0.04179    0.09770 =
         0.03832   -0.01523    0.01394    0.00539
AFIX  93
H9A   2    0.605030    0.233983    0.825582    11.00000   -1.20000
H9B   2    0.674446    0.199773    0.806875    11.00000   -1.20000
AFIX   0
N10   3    0.658835    0.249167    0.976846    11.00000    0.03907    0.07452 =
         0.03261   -0.00147    0.01343    0.00784
AFIX  43
H10   2    0.681281    0.242934    1.030413    11.00000   -1.20000
AFIX   0
N11   3    0.585275    0.288611    0.944345    11.00000    0.03610    0.05900 =
         0.03610   -0.00205    0.01211    0.00379
N12   3    0.444084    0.399086    0.887596    11.00000    0.04501    0.04735 =
         0.03146   -0.00097    0.01320   -0.00037
N13   3    0.368873    0.447956    0.959776    11.00000    0.04714    0.06710 =
         0.03576    0.00038    0.01391    0.00931
N14   3    0.493889    0.320819    1.151254    11.00000    0.05128    0.07901 =
         0.04345    0.01201    0.02195    0.02207
N15   3    0.489203    0.325731    1.226873    11.00000    0.05237    0.08436 =
         0.04138    0.01225    0.02188    0.02362
N16   3    0.433915    0.393941    1.223401    11.00000    0.03972    0.06724 =
         0.03600    0.00446    0.01717    0.00648
S1    5   -0.264336    0.268258    0.189413    11.00000    0.04855    0.09939 =
         0.03735    0.00966    0.01382    0.02281
S2    5    0.175254   -0.068952    0.416593    11.00000    0.05903    0.06527 =
         0.05410   -0.00787    0.01437    0.01207
S3    5    0.789850    0.188779    0.962315    11.00000    0.04403    0.09912 =
         0.04696   -0.00071    0.01946    0.01361
S4    5    0.327495    0.491620    0.787289    11.00000    0.07187    0.08205 =
         0.04062    0.00824    0.00901    0.01975
C35   1    0.046658   -0.000160    1.093539    10.50000    0.12935    0.11961 =
         0.13180    0.02428    0.01966   -0.00670
AFIX  43
H35   2    0.052722    0.051924    1.130922    10.50000   -1.20000
AFIX   0
C36   1   -0.034795    0.075881    0.967735    10.50000    0.10319    0.10371 =
         0.12200    0.01185    0.04376    0.01715
AFIX  33
H36A  2   -0.036887    0.080410    0.910426    10.50000   -1.50000
H36B  2   -0.007837    0.132060    0.998720    10.50000   -1.50000
H36C  2   -0.086703    0.074149    0.968982    10.50000   -1.50000
AFIX   0
C37   1    0.012598   -0.081267    0.947761    10.50000    0.12034    0.08556 =
         0.12699   -0.02920    0.02625    0.00905
AFIX  33
H37A  2    0.008822   -0.056211    0.893482    10.50000   -1.50000
H37B  2   -0.026185   -0.131140    0.941030    10.50000   -1.50000
H37C  2    0.063313   -0.109075    0.974944    10.50000   -1.50000
AFIX   0
N17   3    0.000000    0.000000    1.000000    10.50000    0.10198    0.08091 =
         0.08083   -0.00130    0.02502   -0.00651
O1    4    0.070188   -0.069247    1.107306    10.50000    0.13926    0.16450 =
         0.13616   -0.00371    0.03749    0.03311
HKLF 4
REM  bmk1619 in P2(1)/c
REM R1 =  0.0639 for    5318 Fo > 4sig(Fo)  and  0.1240 for all    9646 data
REM    533 parameters refined using     61 restraints
END
WGHT      0.0599      2.4974
REM Highest difference peak  0.452,  deepest hole -0.288,  1-sigma level  0.057
Q1    1  -0.0174 -0.0374  0.8638  11.00000  0.05    0.45
Q2    1  -0.2835  0.2362  0.2600  11.00000  0.05    0.28
Q3    1   0.3217  0.5223  1.1723  11.00000  0.05    0.26
Q4    1   0.7864  0.3052  0.9517  11.00000  0.05    0.25
Q5    1   0.6598  0.2365  0.7303  11.00000  0.05    0.23
;
_shelx_res_checksum              33709
_shelxl_version_number           .2013
loop_
_space_group_symop_operation_xyz
'x, y, z'
'-x, y+1/2, -z+1/2'
'-x, -y, -z'
'x, -y-1/2, z-1/2'
loop_
_atom_site_type_symbol
_atom_site_label
_atom_site_fract_x
_atom_site_fract_y
_atom_site_fract_z
_atom_site_U_iso_or_equiv
_atom_site_adp_type
_atom_site_calc_flag
_atom_site_occupancy
C C1 -0.17220(19) 0.2265(2) 0.22798(18) 0.0442(7) Uani d 1
C C2 -0.03664(18) 0.1621(2) 0.42338(19) 0.0448(7) Uani d 1
H H2 -0.0605 0.1912 0.4578 0.054 Uiso calc 1
C C3 0.03317(17) 0.1064(2) 0.45952(18) 0.0416(7) Uani d 1
C C4 0.0536(2) 0.0284(3) 0.3275(2) 0.0526(9) Uani d 1
H H4 0.0134 0.0543 0.2821 0.063 Uiso calc 1
C C5 0.1076(2) -0.0338(3) 0.3208(2) 0.0578(9) Uani d 1
H H5 0.1087 -0.0562 0.2693 0.069 Uiso calc 1
C C6 0.12846(19) 0.0026(2) 0.46744(19) 0.0452(7) Uani d 1
C C7 0.08037(17) 0.0885(2) 0.54231(18) 0.0425(7) Uani d 1
C C8 0.07685(17) 0.1309(3) 0.61939(19) 0.0465(8) Uani d 1
C C9 0.12373(18) 0.1110(3) 0.70155(19) 0.0481(8) Uani d 1
C C10 0.1875(2) 0.0397(3) 0.7394(2) 0.0657(10) Uani d 1
H H10A 0.1948 0.0001 0.6958 0.099 Uiso calc 1
H H10B 0.1744 -0.0020 0.7783 0.099 Uiso calc 1
H H10C 0.2347 0.0747 0.7687 0.099 Uiso calc 1
C C11 0.1323(2) 0.1929(3) 0.8362(2) 0.0583(10) Uani d 1
C C12 0.1221(3) 0.1250(5) 0.8906(3) 0.118(2) Uani d 1
H H12 0.0917 0.0695 0.8706 0.142 Uiso calc 1
C C13 0.1585(3) 0.1405(5) 0.9772(3) 0.113(2) Uani d 1
H H13 0.1510 0.0947 1.0144 0.136 Uiso calc 1
C C14 0.2041(2) 0.2197(3) 1.0089(2) 0.0658(11) Uani d 1
C C15 0.2145(3) 0.2844(3) 0.9527(2) 0.0710(11) Uani d 1
H H15 0.2467 0.3385 0.9727 0.085 Uiso calc 1
C C16 0.1788(2) 0.2725(3) 0.8668(2) 0.0651(10) Uani d 1
H H16 0.1864 0.3187 0.8299 0.078 Uiso calc 1
C C17 0.2440(3) 0.2316(4) 1.1029(2) 0.0878(15) Uani d 1
H H17A 0.2992 0.2261 1.1168 0.132 Uiso calc 1
H H17B 0.2263 0.1812 1.1316 0.132 Uiso calc 1
H H17C 0.2317 0.2951 1.1198 0.132 Uiso calc 1
C C18 0.69548(19) 0.2204(3) 0.92434(19) 0.0472(8) Uani d 1
C C19 0.55451(17) 0.3166(2) 0.99815(18) 0.0427(7) Uani d 1
H H19 0.5798 0.3042 1.0552 0.051 Uiso calc 1
C C20 0.48128(17) 0.3667(2) 0.97028(17) 0.0403(7) Uani d 1
C C21 0.4551(2) 0.3982(3) 0.81034(18) 0.0494(8) Uani d 1
H H21 0.4974 0.3692 0.8012 0.059 Uiso calc 1
C C22 0.3979(2) 0.4438(3) 0.7517(2) 0.0603(10) Uani d 1
H H22 0.3956 0.4497 0.6962 0.072 Uiso calc 1
C C23 0.37887(19) 0.4471(3) 0.88651(18) 0.0457(8) Uani d 1
C C24 0.43284(17) 0.3984(2) 1.01217(17) 0.0406(7) Uani d 1
C C25 0.44181(17) 0.3852(3) 1.10053(18) 0.0430(7) Uani d 1
C C26 0.40246(17) 0.4329(2) 1.14538(17) 0.0409(7) Uani d 1
C C27 0.3392(2) 0.5065(3) 1.1218(2) 0.0523(9) Uani d 1
H H27A 0.3301 0.5290 1.0655 0.078 Uiso calc 1
H H27B 0.3538 0.5612 1.1600 0.078 Uiso calc 1
H H27C 0.2926 0.4770 1.1247 0.078 Uiso calc 1
C C28 0.41642(19) 0.4155(3) 1.29788(18) 0.0481(8) Uani d 1
C C29 0.4243(3) 0.5090(3) 1.3295(2) 0.0717(12) Uani d 1
H H29 0.4406 0.5597 1.3026 0.086 Uiso calc 1
C C30 0.4079(3) 0.5276(4) 1.4015(3) 0.0833(14) Uani d 1
H H30 0.4132 0.5914 1.4227 0.100 Uiso calc 1
C C31 0.3838(2) 0.4544(3) 1.4426(2) 0.0651(11) Uani d 1
C C32 0.3755(2) 0.3616(3) 1.4096(2) 0.0644(11) Uani d 1
H H32 0.3596 0.3110 1.4368 0.077 Uiso calc 1
C C33 0.3905(2) 0.3413(3) 1.3360(2) 0.0592(10) Uani d 1
H H33 0.3830 0.2783 1.3131 0.071 Uiso calc 1
C C34 0.3650(3) 0.4757(4) 1.5213(3) 0.1001(17) Uani d 1
H H34A 0.3132 0.5016 1.5056 0.150 Uiso calc 1
H H34B 0.4013 0.5230 1.5553 0.150 Uiso calc 1
H H34C 0.3687 0.4160 1.5527 0.150 Uiso calc 1
N N1 -0.13188(16) 0.2004(2) 0.18044(16) 0.0546(8) Uani d 1
H H1A -0.0849 0.1796 0.2033 0.066 Uiso calc 1
H H1B -0.1525 0.2043 0.1265 0.066 Uiso calc 1
N N2 -0.13701(15) 0.2189(2) 0.31172(15) 0.0484(7) Uani d 1
H H2A -0.1583 0.2432 0.3453 0.058 Uiso calc 1
N N3 -0.06606(15) 0.1716(2) 0.34324(16) 0.0466(6) Uani d 1
N N4 0.06536(14) 0.0494(2) 0.41195(15) 0.0426(6) Uani d 1
N N5 0.13947(15) 0.0238(2) 0.54691(15) 0.0478(7) Uani d 1
N N6 0.02709(18) 0.2052(3) 0.61998(18) 0.0678(9) Uani d 1
N N7 0.04052(19) 0.2341(3) 0.69742(19) 0.0737(10) Uani d 1
N N8 0.09920(16) 0.1767(3) 0.74714(16) 0.0575(8) Uani d 1
N N9 0.65336(16) 0.2177(2) 0.84265(16) 0.0593(8) Uani d 1
H H9A 0.6050 0.2340 0.8256 0.071 Uiso calc 1
H H9B 0.6744 0.1998 0.8069 0.071 Uiso calc 1
N N10 0.65883(14) 0.2492(2) 0.97685(15) 0.0485(7) Uani d 1
H H10 0.6813 0.2429 1.0304 0.058 Uiso calc 1
N N11 0.58528(14) 0.2886(2) 0.94434(15) 0.0439(6) Uani d 1
N N12 0.44408(14) 0.39909(19) 0.88760(14) 0.0413(6) Uani d 1
N N13 0.36887(15) 0.4480(2) 0.95978(15) 0.0501(7) Uani d 1
N N14 0.49389(16) 0.3208(2) 1.15125(17) 0.0565(8) Uani d 1
N N15 0.48920(16) 0.3257(2) 1.22687(16) 0.0579(8) Uani d 1
N N16 0.43392(14) 0.3939(2) 1.22340(15) 0.0466(7) Uani d 1
S S1 -0.26434(5) 0.26826(9) 0.18941(5) 0.0621(3) Uani d 1
S S2 0.17525(6) -0.06895(8) 0.41659(6) 0.0609(3) Uani d 1
S S3 0.78985(5) 0.18878(9) 0.96231(5) 0.0624(3) Uani d 1
S S4 0.32750(6) 0.49162(9) 0.78729(6) 0.0676(3) Uani d 1
C C35 0.0467(9) -0.0002(12) 1.0935(5) 0.134(4) Uani d 0.5
H H35 0.0527 0.0519 1.1309 0.161 Uiso calc 0.5
C C36 -0.0348(7) 0.0759(10) 0.9677(9) 0.108(3) Uani d 0.5
H H36A -0.0369 0.0804 0.9104 0.163 Uiso calc 0.5
H H36B -0.0078 0.1321 0.9987 0.163 Uiso calc 0.5
H H36C -0.0867 0.0741 0.9690 0.163 Uiso calc 0.5
C C37 0.0126(7) -0.0813(7) 0.9478(8) 0.115(4) Uani d 0.5
H H37A 0.0088 -0.0562 0.8935 0.173 Uiso calc 0.5
H H37B -0.0262 -0.1311 0.9410 0.173 Uiso calc 0.5
H H37C 0.0633 -0.1091 0.9749 0.173 Uiso calc 0.5
N N17 0.0000 0.0000 1.0000 0.0897(16) Uani d 1
O O1 0.0702(6) -0.0692(9) 1.1073(6) 0.149(3) Uani d 0.5
loop_
_atom_site_aniso_label
_atom_site_aniso_U_11
_atom_site_aniso_U_22
_atom_site_aniso_U_33
_atom_site_aniso_U_12
_atom_site_aniso_U_13
_atom_site_aniso_U_23
C1 0.0496(18) 0.0463(19) 0.0370(16) 0.0037(15) 0.0155(14) 0.0063(14)
C2 0.0438(17) 0.050(2) 0.0386(16) -0.0014(15) 0.0118(14) -0.0023(15)
C3 0.0374(16) 0.050(2) 0.0360(15) -0.0007(14) 0.0108(13) 0.0000(14)
C4 0.058(2) 0.060(2) 0.0361(16) 0.0022(18) 0.0110(15) -0.0010(16)
C5 0.070(2) 0.061(2) 0.0421(18) 0.003(2) 0.0189(17) -0.0055(17)
C6 0.0429(17) 0.048(2) 0.0413(16) -0.0011(15) 0.0107(14) -0.0002(15)
C7 0.0359(15) 0.052(2) 0.0364(15) -0.0026(15) 0.0091(13) 0.0015(14)
C8 0.0337(15) 0.063(2) 0.0392(16) -0.0046(16) 0.0086(13) -0.0023(15)
C9 0.0401(17) 0.064(2) 0.0379(16) -0.0072(16) 0.0106(14) -0.0042(16)
C10 0.067(2) 0.077(3) 0.0452(19) 0.005(2) 0.0089(18) 0.0041(19)
C11 0.0456(19) 0.090(3) 0.0392(17) 0.000(2) 0.0142(15) -0.0086(19)
C12 0.130(4) 0.172(6) 0.054(3) -0.093(4) 0.033(3) -0.017(3)
C13 0.124(4) 0.168(6) 0.047(2) -0.064(4) 0.031(3) -0.003(3)
C14 0.058(2) 0.087(3) 0.048(2) 0.010(2) 0.0137(18) -0.013(2)
C15 0.081(3) 0.065(3) 0.053(2) 0.010(2) 0.005(2) -0.012(2)
C16 0.079(3) 0.059(2) 0.049(2) 0.010(2) 0.0119(19) -0.0013(18)
C17 0.095(3) 0.106(4) 0.048(2) 0.023(3) 0.007(2) -0.012(2)
C18 0.0462(18) 0.061(2) 0.0389(16) 0.0017(16) 0.0200(14) -0.0028(15)
C19 0.0394(16) 0.058(2) 0.0328(15) -0.0001(15) 0.0151(13) -0.0003(14)
C20 0.0417(16) 0.0494(19) 0.0318(14) -0.0009(15) 0.0152(13) -0.0012(13)
C21 0.059(2) 0.059(2) 0.0335(16) -0.0019(18) 0.0212(15) 0.0017(15)
C22 0.077(2) 0.070(3) 0.0333(16) 0.000(2) 0.0186(17) 0.0023(17)
C23 0.0462(18) 0.053(2) 0.0349(15) 0.0062(16) 0.0104(13) -0.0017(15)
C24 0.0353(15) 0.051(2) 0.0349(15) 0.0010(14) 0.0121(13) -0.0024(14)
C25 0.0352(15) 0.060(2) 0.0361(15) 0.0015(15) 0.0147(13) 0.0005(15)
C26 0.0331(15) 0.056(2) 0.0342(15) -0.0019(14) 0.0121(12) -0.0017(14)
C27 0.0515(19) 0.064(2) 0.0439(17) 0.0124(18) 0.0201(16) 0.0016(16)
C28 0.0457(18) 0.067(2) 0.0345(15) 0.0041(17) 0.0182(14) 0.0021(16)
C29 0.099(3) 0.072(3) 0.057(2) -0.026(2) 0.043(2) -0.010(2)
C30 0.117(4) 0.080(3) 0.068(3) -0.026(3) 0.051(3) -0.025(2)
C31 0.072(3) 0.088(3) 0.0421(19) 0.003(2) 0.0283(18) 0.002(2)
C32 0.083(3) 0.069(3) 0.055(2) 0.016(2) 0.041(2) 0.020(2)
C33 0.078(3) 0.057(2) 0.052(2) 0.013(2) 0.0341(19) 0.0091(18)
C34 0.128(4) 0.131(4) 0.059(3) -0.007(4) 0.055(3) -0.015(3)
N1 0.0481(16) 0.079(2) 0.0369(14) 0.0186(15) 0.0151(12) 0.0111(14)
N2 0.0440(15) 0.0634(19) 0.0361(13) 0.0115(14) 0.0118(12) 0.0010(13)
N3 0.0405(14) 0.0556(18) 0.0411(14) 0.0055(13) 0.0110(12) 0.0055(13)
N4 0.0382(13) 0.0489(16) 0.0365(13) -0.0018(12) 0.0077(11) -0.0007(12)
N5 0.0401(14) 0.0602(18) 0.0395(14) 0.0012(13) 0.0093(12) -0.0003(13)
N6 0.0574(18) 0.097(3) 0.0430(16) 0.0199(18) 0.0102(14) -0.0072(17)
N7 0.0565(19) 0.112(3) 0.0465(17) 0.020(2) 0.0109(15) -0.0134(18)
N8 0.0457(16) 0.087(2) 0.0377(14) 0.0020(16) 0.0122(13) -0.0061(15)
N9 0.0418(15) 0.098(2) 0.0383(14) 0.0054(16) 0.0139(12) -0.0152(15)
N10 0.0391(14) 0.075(2) 0.0326(12) 0.0078(14) 0.0134(11) -0.0015(13)
N11 0.0361(13) 0.0590(18) 0.0361(13) 0.0038(13) 0.0121(11) -0.0021(12)
N12 0.0450(14) 0.0473(16) 0.0315(12) -0.0004(12) 0.0132(11) -0.0010(11)
N13 0.0471(15) 0.0671(19) 0.0358(13) 0.0093(14) 0.0139(12) 0.0004(13)
N14 0.0513(16) 0.079(2) 0.0435(15) 0.0221(16) 0.0219(13) 0.0120(15)
N15 0.0524(17) 0.084(2) 0.0414(15) 0.0236(16) 0.0219(13) 0.0123(15)
N16 0.0397(14) 0.0672(19) 0.0360(13) 0.0065(14) 0.0172(11) 0.0045(13)
S1 0.0485(5) 0.0994(8) 0.0374(4) 0.0228(5) 0.0138(4) 0.0097(5)
S2 0.0590(6) 0.0653(6) 0.0541(5) 0.0121(5) 0.0144(4) -0.0079(5)
S3 0.0440(5) 0.0991(8) 0.0470(5) 0.0136(5) 0.0195(4) -0.0007(5)
S4 0.0719(6) 0.0821(8) 0.0406(5) 0.0197(6) 0.0090(4) 0.0082(5)
C35 0.129(6) 0.120(6) 0.132(6) -0.007(6) 0.020(5) 0.024(6)
C36 0.103(8) 0.104(8) 0.122(8) 0.017(7) 0.044(7) 0.012(7)
C37 0.120(8) 0.086(7) 0.127(8) 0.009(6) 0.026(7) -0.029(7)
N17 0.102(4) 0.081(4) 0.081(3) -0.007(3) 0.025(3) -0.001(3)
O1 0.139(7) 0.164(8) 0.136(7) 0.033(7) 0.037(6) -0.004(7)
loop_
_atom_type_symbol
_atom_type_description
_atom_type_scat_dispersion_real
_atom_type_scat_dispersion_imag
_atom_type_scat_source
C C 0.0033 0.0016 'International Tables Vol C Tables 4.2.6.8 and 6.1.1.4'
H H 0.0000 0.0000 'International Tables Vol C Tables 4.2.6.8 and 6.1.1.4'
N N 0.0061 0.0033 'International Tables Vol C Tables 4.2.6.8 and 6.1.1.4'
O O 0.0106 0.0060 'International Tables Vol C Tables 4.2.6.8 and 6.1.1.4'
S S 0.1246 0.1234 'International Tables Vol C Tables 4.2.6.8 and 6.1.1.4'
loop_
_geom_angle_atom_site_label_1
_geom_angle_atom_site_label_2
_geom_angle_atom_site_label_3
_geom_angle
N1 C1 N2 117.4(3)
N1 C1 S1 123.7(2)
N2 C1 S1 118.9(2)
N3 C2 C3 119.4(3)
C7 C3 N4 104.3(3)
C7 C3 C2 132.5(3)
N4 C3 C2 123.1(3)
C5 C4 N4 111.1(3)
C4 C5 S2 113.9(3)
N5 C6 N4 113.1(3)
N5 C6 S2 135.2(3)
N4 C6 S2 111.7(2)
N5 C7 C3 111.8(3)
N5 C7 C8 119.0(3)
C3 C7 C8 129.2(3)
N6 C8 C9 108.7(3)
N6 C8 C7 122.8(3)
C9 C8 C7 128.4(3)
N8 C9 C8 103.4(3)
N8 C9 C10 123.5(3)
C8 C9 C10 133.1(3)
C12 C11 C16 119.7(3)
C12 C11 N8 120.1(4)
C16 C11 N8 120.0(3)
C11 C12 C13 118.7(5)
C14 C13 C12 122.5(5)
C13 C14 C15 117.1(4)
C13 C14 C17 120.5(4)
C15 C14 C17 122.3(4)
C14 C15 C16 122.1(4)
C11 C16 C15 119.8(4)
N9 C18 N10 116.9(3)
N9 C18 S3 122.7(2)
N10 C18 S3 120.4(2)
N11 C19 C20 120.0(3)
C24 C20 N12 103.8(3)
C24 C20 C19 132.5(3)
N12 C20 C19 123.7(2)
C22 C21 N12 111.4(3)
C21 C22 S4 114.0(2)
N13 C23 N12 113.8(3)
N13 C23 S4 135.0(3)
N12 C23 S4 111.2(2)
N13 C24 C20 112.2(2)
N13 C24 C25 119.2(2)
C20 C24 C25 128.6(3)
N14 C25 C26 110.0(3)
N14 C25 C24 122.1(3)
C26 C25 C24 127.9(3)
N16 C26 C25 103.1(3)
N16 C26 C27 123.8(3)
C25 C26 C27 133.0(3)
C29 C28 C33 120.5(3)
C29 C28 N16 120.6(3)
C33 C28 N16 118.9(3)
C28 C29 C30 119.5(4)
C31 C30 C29 121.6(4)
C32 C31 C30 118.1(3)
C32 C31 C34 120.6(4)
C30 C31 C34 121.3(4)
C31 C32 C33 121.3(4)
C28 C33 C32 119.0(4)
C1 N2 N3 119.0(2)
C2 N3 N2 116.7(3)
C6 N4 C3 106.8(2)
C6 N4 C4 113.6(3)
C3 N4 C4 139.5(3)
C6 N5 C7 104.1(3)
N7 N6 C8 109.7(3)
N6 N7 N8 106.3(3)
C9 N8 N7 111.9(3)
C9 N8 C11 126.7(3)
N7 N8 C11 121.2(3)
C18 N10 N11 119.6(2)
C19 N11 N10 116.3(2)
C23 N12 C21 114.0(3)
C23 N12 C20 106.6(2)
C21 N12 C20 139.4(3)
C23 N13 C24 103.7(2)
N15 N14 C25 108.3(3)
N14 N15 N16 107.1(2)
C26 N16 N15 111.5(2)
C26 N16 C28 129.0(3)
N15 N16 C28 119.5(2)
C6 S2 C5 89.64(17)
C23 S4 C22 89.28(16)
O1 C35 N17 106.2(12)
C36 N17 C37 121.4(7)
C36 N17 C35 118.7(8)
C37 N17 C35 118.3(7)
loop_
_geom_bond_atom_site_label_1
_geom_bond_atom_site_label_2
_geom_bond_distance
C1 N1 1.317(4)
C1 N2 1.342(4)
C1 S1 1.684(3)
C2 N3 1.281(4)
C2 C3 1.429(4)
C3 C7 1.389(4)
C3 N4 1.389(4)
C4 C5 1.338(5)
C4 N4 1.399(4)
C5 S2 1.731(4)
C6 N5 1.321(4)
C6 N4 1.367(4)
C6 S2 1.715(3)
C7 N5 1.376(4)
C7 C8 1.449(4)
C8 N6 1.363(4)
C8 C9 1.384(4)
C9 N8 1.355(4)
C9 C10 1.483(5)
C11 C12 1.361(6)
C11 C16 1.363(5)
C11 N8 1.434(4)
C12 C13 1.400(6)
C13 C14 1.353(7)
C14 C15 1.356(6)
C14 C17 1.512(5)
C15 C16 1.382(5)
C18 N9 1.330(4)
C18 N10 1.346(4)
C18 S3 1.679(3)
C19 N11 1.285(4)
C19 C20 1.431(4)
C20 C24 1.385(4)
C20 N12 1.398(4)
C21 C22 1.321(5)
C21 N12 1.392(4)
C22 S4 1.730(4)
C23 N13 1.316(4)
C23 N12 1.357(4)
C23 S4 1.724(3)
C24 N13 1.375(4)
C24 C25 1.459(4)
C25 N14 1.358(4)
C25 C26 1.379(4)
C26 N16 1.352(4)
C26 C27 1.477(4)
C28 C29 1.366(5)
C28 C33 1.368(5)
C28 N16 1.436(4)
C29 C30 1.377(5)
C30 C31 1.373(6)
C31 C32 1.365(6)
C31 C34 1.516(5)
C32 C33 1.395(5)
N2 N3 1.381(3)
N6 N7 1.308(4)
N7 N8 1.358(4)
N10 N11 1.376(3)
N14 N15 1.315(3)
N15 N16 1.360(4)
C35 O1 1.025(16)
C35 N17 1.516(8)
C36 N17 1.235(12)
C37 N17 1.482(6)
loop_
_geom_hbond_atom_site_label_D
_geom_hbond_atom_site_label_H
_geom_hbond_atom_site_label_A
_geom_hbond_site_symmetry_A
_geom_hbond_distance_DH
_geom_hbond_distance_HA
_geom_hbond_distance_DA
_geom_hbond_angle_DHA
C10 H10A N5 . 0.96 2.39 3.074(4) 128
C27 H27A N13 . 0.96 2.41 3.082(4) 127
N1 H1A N7 4_565 0.86 2.62 3.200(4) 126
N1 H1B S3 1_454 0.86 2.62 3.470(3) 172
N2 H2A S3 4_465 0.86 2.65 3.502(3) 174
N9 H9A N15 4_565 0.86 2.34 3.024(4) 136
N9 H9B S1 4_666 0.86 2.64 3.433(3) 154
N10 H10 S1 1_656 0.86 2.55 3.388(3) 166
C5 H5 O1 1_554 0.93 2.59 3.472(10) 158
C36 H36C S3 1_455 0.96 2.72 3.536(14) 143
C37 H37B N6 2_546 0.96 2.45 3.111(11) 126
C37 H37C S3 3_657 0.96 2.75 3.706(13) 175

_cod_database_fobs_code 1548729
