#------------------------------------------------------------------------------
#$Date: 2017-10-13 02:32:00 +0300 (Fri, 13 Oct 2017) $
#$Revision: 201954 $
#$URL: file:///home/coder/svn-repositories/cod/cif/1/50/64/1506466.cif $
#------------------------------------------------------------------------------
#
# This file is available in the Crystallography Open Database (COD),
# http://www.crystallography.net/
#
# All data on this site have been placed in the public domain by the
# contributors.
#
data_1506466
loop_
_publ_author_name
'Pemberton, Nils'
'Emten\"as, Hans'
'Bostr\"om, Dan'
'Domaille, Peter J.'
'Greenberg, William A.'
'Levin, Michael D.'
'Zhu, Zuolin'
'Almqvist, Fredrik'
_publ_section_title
;
 Cycloaddition of delta2-thiazolines and acyl ketenes under acidic
 conditions results in bicyclic 1,3-oxazinones and not 6-acylpenams as
 earlier reported.
;
_journal_issue                   6
_journal_name_full               'Organic letters'
_journal_page_first              1019
_journal_page_last               1021
_journal_paper_doi               10.1021/ol047528j
_journal_volume                  7
_journal_year                    2005
_chemical_absolute_configuration ad
_chemical_compound_source        'Local laboratory'
_chemical_formula_moiety         'C19 H17 N O4 S '
_chemical_formula_sum            'C19 H17 N O4 S'
_chemical_formula_weight         355.412
_chemical_name_systematic
;
 ?
;
_space_group_IT_number           19
_symmetry_cell_setting           orthorhombic
_symmetry_space_group_name_Hall  'P 2ac 2ab'
_symmetry_space_group_name_H-M   'P 21 21 21'
_atom_sites_solution_primary     direct
_atom_sites_solution_secondary   difmap
_audit_creation_method           maXus
_cell_angle_alpha                90.00
_cell_angle_beta                 90.00
_cell_angle_gamma                90.00
_cell_formula_units_Z            8
_cell_length_a                   6.49920(10)
_cell_length_b                   14.9706(4)
_cell_length_c                   34.8326(6)
_cell_measurement_reflns_used    5145
_cell_measurement_temperature    150
_cell_measurement_theta_max      24.108
_cell_measurement_theta_min      2.910
_cell_volume                     3389.10(12)
_computing_cell_refinement       'HKL Scalepack (Otwinowski & Minor 1997)'
_computing_data_collection       KappaCCD
_computing_data_reduction
'Denzo and Scalepak (Otwinowski & Minor, 1997)'
_computing_structure_refinement  'SHELXL-97 (Sheldrick, 1997)'
_computing_structure_solution
'SIR97(Cascarano al.,Acta Cryst.,1996,A52,C-79)'
_diffrn_measured_fraction_theta_full 0.996
_diffrn_measured_fraction_theta_max 0.996
_diffrn_measurement_device       KappaCCD
_diffrn_measurement_method       CCD
_diffrn_orient_matrix_type       X=UH
_diffrn_orient_matrix_UB_11      -0.14464
_diffrn_orient_matrix_UB_12      0.04231
_diffrn_orient_matrix_UB_13      0.03104
_diffrn_orient_matrix_UB_21      -0.02206
_diffrn_orient_matrix_UB_22      -0.05886
_diffrn_orient_matrix_UB_23      -0.02258
_diffrn_orient_matrix_UB_31      0.00232
_diffrn_orient_matrix_UB_32      -0.01100
_diffrn_orient_matrix_UB_33      0.02642
_diffrn_radiation_source         'fine-focus sealed tube'
_diffrn_radiation_type           ' MoK\a'
_diffrn_radiation_wavelength_id  all
_diffrn_reflns_limit_h_max       7
_diffrn_reflns_limit_h_min       -7
_diffrn_reflns_limit_k_max       15
_diffrn_reflns_limit_k_min       -17
_diffrn_reflns_limit_l_max       40
_diffrn_reflns_limit_l_min       -39
_diffrn_reflns_number            8897
_diffrn_reflns_theta_full        24.12
_diffrn_reflns_theta_max         24.12
_diffrn_reflns_theta_min         2.92
_exptl_absorpt_coefficient_mu    0.215
_exptl_absorpt_correction_type   none
_exptl_crystal_colour            white
_exptl_crystal_density_diffrn    1.393
_exptl_crystal_density_method    'not measured'
_exptl_crystal_description       Prisms
_exptl_crystal_F_000             1488
_exptl_crystal_size_max          0.031
_exptl_crystal_size_mid          0.010
_exptl_crystal_size_min          0.005
_refine_diff_density_max         0.750
_refine_diff_density_min         -0.350
_refine_diff_density_rms         0.086
_refine_ls_abs_structure_details 'Flack (1983), from 2227 Friedels'
_refine_ls_abs_structure_Flack   0.05(12)
_refine_ls_extinction_method     none
_refine_ls_goodness_of_fit_ref   1.198
_refine_ls_hydrogen_treatment    constr
_refine_ls_matrix_type           full
_refine_ls_number_parameters     451
_refine_ls_number_reflns         5330
_refine_ls_number_restraints     0
_refine_ls_restrained_S_all      1.198
_refine_ls_R_factor_all          0.0665
_refine_ls_R_factor_gt           0.0567
_refine_ls_shift/su_max          0.00
_refine_ls_shift/su_mean         0.00
_refine_ls_structure_factor_coef Fsqd
_refine_ls_weighting_details
'calc w=1/[\s^2^(Fo^2^)+(0.0689P)^2^+3.2504P] where P=(Fo^2^+2Fc^2^)/3'
_refine_ls_weighting_scheme      calc
_refine_ls_wR_factor_gt          0.1444
_refine_ls_wR_factor_ref         0.1601
_reflns_number_gt                4809
_reflns_number_total             5330
_reflns_threshold_expression     >2sigma(I)
_cod_data_source_file            ol047528jsi20041202_103114.cif
_cod_data_source_block           global
_cod_depositor_comments
;
The following automatic conversions were performed:

'_symmetry_cell_setting' value 'Orthorhombic' changed to
'orthorhombic' according to
/home/saulius/struct/CIF-dictionaries/cif_core.dic dictionary named
'cif_core.dic' version 2.4.1 from 2010-06-29.

Automatic conversion script
Id: cif_fix_values 1715 2011-07-08 13:25:40Z adriana 
;
_cod_original_sg_symbol_H-M      'P 21 21 21    '
_cod_original_formula_sum        'C19 H17 N O4 S '
_cod_database_code               1506466
loop_
_symmetry_equiv_pos_as_xyz
+X,+Y,+Z
'-X+ 1/2,-Y,+Z+ 1/2'
'+X+ 1/2,-Y+ 1/2,-Z'
'-X,+Y+ 1/2,-Z+ 1/2'
loop_
_atom_site_label
_atom_site_type_symbol
_atom_site_fract_x
_atom_site_fract_y
_atom_site_fract_z
_atom_site_U_iso_or_equiv
_atom_site_adp_type
_atom_site_occupancy
_atom_site_symmetry_multiplicity
_atom_site_calc_flag
_atom_site_refinement_flags
S1 S 0.71572(19) 0.63300(7) 0.09160(3) 0.0324(3) Uani 1 1 d .
S2 S -0.21245(19) -0.01171(8) 0.33078(3) 0.0329(3) Uani 1 1 d .
O3 O 0.0499(5) 0.5158(2) 0.05030(9) 0.0344(8) Uani 1 1 d .
O4 O 0.6186(5) 0.45752(19) 0.08856(9) 0.0315(7) Uani 1 1 d .
O5 O -0.1134(5) 0.16336(19) 0.32914(9) 0.0316(7) Uani 1 1 d .
O6 O 0.4551(5) 0.1069(2) 0.29214(10) 0.0372(8) Uani 1 1 d .
O7 O 0.3038(6) 0.7954(2) 0.04906(9) 0.0438(9) Uani 1 1 d .
C8 C 0.2323(7) 0.4993(3) 0.05675(12) 0.0302(10) Uani 1 1 d .
N9 N 0.1337(6) 0.0581(2) 0.30800(11) 0.0286(9) Uani 1 1 d .
C10 C 0.1937(7) -0.0271(3) 0.32478(13) 0.0290(10) Uani 1 1 d .
O11 O 0.3569(7) 0.6792(2) 0.01003(10) 0.0522(11) Uani 1 1 d .
C12 C 0.4992(8) 0.3913(3) 0.07291(14) 0.0343(11) Uani 1 1 d .
O13 O 0.1622(8) -0.0917(3) 0.26151(11) 0.0604(12) Uani 1 1 d .
N14 N 0.3684(6) 0.5624(2) 0.06930(11) 0.0283(9) Uani 1 1 d .
C15 C 0.2697(8) 0.1225(3) 0.29683(13) 0.0324(11) Uani 1 1 d .
C16 C 0.0088(8) 0.2301(3) 0.31521(14) 0.0342(11) Uani 1 1 d .
O17 O 0.3265(6) -0.1678(2) 0.30762(11) 0.0488(10) Uani 1 1 d .
C18 C 0.0246(7) -0.0502(3) 0.35283(13) 0.0302(10) Uani 1 1 d .
C19 C 0.3170(8) 0.6538(3) 0.07823(13) 0.0294(10) Uani 1 1 d .
C20 C 0.4063(8) 0.4561(3) 0.36008(15) 0.0393(12) Uani 1 1 d .
C21 C 0.4754(7) 0.6818(3) 0.10820(13) 0.0306(10) Uani 1 1 d .
C22 C 0.1535(11) 0.1012(3) 0.04448(18) 0.0548(16) Uani 1 1 d .
C23 C 0.4481(8) 0.2261(3) 0.06908(16) 0.0412(13) Uani 1 1 d .
C24 C 0.2504(8) 0.4184(3) 0.33820(17) 0.0462(14) Uani 1 1 d .
C25 C -0.0670(8) 0.3216(3) 0.3271(2) 0.0510(15) Uani 1 1 d .
C26 C -0.0809(7) 0.0808(3) 0.30850(14) 0.0293(10) Uani 1 1 d .
C27 C 0.3217(7) 0.4106(3) 0.05502(13) 0.0317(11) Uani 1 1 d .
C28 C 0.1790(8) 0.2123(3) 0.29568(13) 0.0333(11) Uani 1 1 d .
C29 C 0.1342(9) 0.1388(3) 0.08183(16) 0.0443(13) Uani 1 1 d .
C30 C 0.2243(8) -0.0969(3) 0.29376(15) 0.0363(11) Uani 1 1 d .
C31 C 0.2810(8) 0.2021(3) 0.09461(14) 0.0374(11) Uani 1 1 d .
C32 C 0.2505(10) 0.4378(3) 0.29539(16) 0.0519(16) Uani 1 1 d .
C33 C 0.1042(9) 0.2123(4) 0.15603(18) 0.0509(15) Uani 1 1 d .
C34 C 0.5839(7) 0.5405(3) 0.06903(13) 0.0255(10) Uani 1 1 d .
C35 C 0.2463(11) 0.3930(4) 0.41803(16) 0.0569(17) Uani 1 1 d .
C36 C 0.5901(8) 0.3006(3) 0.07961(16) 0.0408(13) Uani 1 1 d .
C37 C 0.3280(8) 0.7095(3) 0.04167(15) 0.0361(12) Uani 1 1 d .
C38 C 0.3247(12) 0.8565(4) 0.01645(16) 0.0566(17) Uani 1 1 d .
C39 C 0.2607(10) 0.2375(3) 0.13248(16) 0.0497(15) Uani 1 1 d .
C40 C 0.4090(10) 0.4877(4) 0.28247(16) 0.0500(14) Uani 1 1 d .
C41 C 0.0931(11) 0.3690(4) 0.35425(18) 0.0586(17) Uani 1 1 d .
C42 C 0.3109(12) 0.1214(4) 0.02128(17) 0.0576(16) Uani 1 1 d .
C43 C -0.0333(9) 0.1162(3) 0.1069(2) 0.0542(16) Uani 1 1 d .
C44 C 0.4056(12) 0.4418(4) 0.40149(19) 0.068(2) Uani 1 1 d .
C45 C 0.4616(10) 0.1855(3) 0.03404(16) 0.0485(14) Uani 1 1 d .
C46 C 0.0964(10) 0.3588(4) 0.39295(15) 0.0500(15) Uani 1 1 d .
C47 C 0.5720(11) 0.5030(4) 0.3435(2) 0.0641(17) Uani 1 1 d .
C48 C -0.0426(10) 0.1507(4) 0.14318(19) 0.0569(16) Uani 1 1 d .
C49 C 0.3693(13) -0.2369(4) 0.2807(2) 0.072(2) Uani 1 1 d .
C50 C 0.5714(11) 0.5193(4) 0.30557(18) 0.0626(17) Uani 1 1 d .
H10 H 0.3248 -0.0212 0.3388 0.035 Uiso 1 1 d R
H18A H 0.0438 -0.0205 0.3773 0.036 Uiso 1 1 d R
H18B H 0.0175 -0.1135 0.3572 0.036 Uiso 1 1 d R
H19 H 0.1821 0.6605 0.0893 0.035 Uiso 1 1 d R
H21A H 0.4459 0.6594 0.1335 0.037 Uiso 1 1 d R
H21B H 0.4924 0.7463 0.1099 0.037 Uiso 1 1 d R
H22 H 0.0508 0.0604 0.0352 0.066 Uiso 1 1 d R
H25A H -0.0885 0.3578 0.3048 0.061 Uiso 1 1 d R
H25B H -0.1944 0.3152 0.3408 0.061 Uiso 1 1 d R
H26 H -0.1293 0.0880 0.2825 0.035 Uiso 1 1 d R
H27 H 0.2530 0.3642 0.0409 0.038 Uiso 1 1 d R
H28 H 0.2446 0.2591 0.2804 0.040 Uiso 1 1 d R
H32 H 0.1422 0.4153 0.2794 0.062 Uiso 1 1 d R
H33 H 0.0943 0.2365 0.1815 0.061 Uiso 1 1 d R
H34 H 0.6332 0.5356 0.0427 0.031 Uiso 1 1 d R
H35 H 0.2426 0.3841 0.4453 0.068 Uiso 1 1 d R
H36A H 0.7120 0.2942 0.0643 0.049 Uiso 1 1 d R
H36B H 0.6249 0.2941 0.1062 0.049 Uiso 1 1 d R
H38A H 0.3076 0.9177 0.0242 0.068 Uiso 1 1 d R
H38B H 0.2274 0.8422 -0.0032 0.068 Uiso 1 1 d R
H38C H 0.4634 0.8509 0.0053 0.068 Uiso 1 1 d R
H39 H 0.3592 0.2802 0.1418 0.060 Uiso 1 1 d R
H40 H 0.4149 0.5034 0.2558 0.060 Uiso 1 1 d R
H42 H 0.3246 0.0930 -0.0033 0.069 Uiso 1 1 d R
H43 H -0.1404 0.0768 0.0983 0.065 Uiso 1 1 d R
H44 H 0.5145 0.4659 0.4170 0.081 Uiso 1 1 d R
H45 H 0.5732 0.2000 0.0171 0.058 Uiso 1 1 d R
H46 H -0.0174 0.3248 0.4027 0.060 Uiso 1 1 d R
H47 H 0.6824 0.5240 0.3595 0.077 Uiso 1 1 d R
H48 H -0.1521 0.1322 0.1599 0.068 Uiso 1 1 d R
H49A H 0.4405 -0.2855 0.2922 0.086 Uiso 1 1 d R
H49B H 0.4482 -0.2144 0.2592 0.086 Uiso 1 1 d R
H49C H 0.2389 -0.2599 0.2701 0.086 Uiso 1 1 d R
H50 H 0.6832 0.5519 0.2942 0.075 Uiso 1 1 d R
loop_
_atom_site_aniso_label
_atom_site_aniso_U_11
_atom_site_aniso_U_22
_atom_site_aniso_U_33
_atom_site_aniso_U_23
_atom_site_aniso_U_13
_atom_site_aniso_U_12
S1 0.0284(6) 0.0235(5) 0.0452(6) 0.0003(5) -0.0019(6) -0.0039(5)
S2 0.0251(6) 0.0278(6) 0.0459(6) -0.0016(5) 0.0012(5) -0.0019(5)
O3 0.0232(18) 0.0310(17) 0.0488(19) 0.0013(15) -0.0020(15) -0.0015(15)
O4 0.0288(17) 0.0204(15) 0.0454(18) 0.0035(14) -0.0059(16) -0.0017(13)
O5 0.0229(16) 0.0230(16) 0.0489(18) -0.0040(14) 0.0024(15) 0.0002(13)
O6 0.0296(19) 0.0303(18) 0.052(2) -0.0091(15) 0.0100(16) 0.0007(15)
O7 0.057(2) 0.0239(17) 0.0504(19) 0.0081(15) -0.006(2) 0.0068(18)
C8 0.028(3) 0.030(2) 0.032(2) 0.0050(19) 0.001(2) 0.000(2)
N9 0.022(2) 0.0207(19) 0.043(2) 0.0020(16) 0.0031(18) 0.0019(16)
C10 0.025(2) 0.021(2) 0.041(2) -0.0004(18) -0.002(2) 0.000(2)
O11 0.081(3) 0.038(2) 0.038(2) -0.0013(16) -0.002(2) -0.001(2)
C12 0.035(3) 0.023(2) 0.044(3) -0.002(2) 0.006(2) -0.002(2)
O13 0.087(3) 0.046(2) 0.049(2) -0.0112(18) 0.001(2) 0.013(2)
N14 0.026(2) 0.0176(18) 0.042(2) -0.0001(16) -0.0027(18) -0.0030(16)
C15 0.031(3) 0.034(3) 0.032(2) -0.002(2) 0.006(2) 0.002(2)
C16 0.030(3) 0.023(2) 0.049(3) 0.003(2) -0.007(2) 0.003(2)
O17 0.055(2) 0.0261(18) 0.066(2) -0.0059(16) 0.008(2) 0.0141(18)
C18 0.023(2) 0.030(2) 0.038(2) 0.000(2) 0.003(2) 0.000(2)
C19 0.027(2) 0.023(2) 0.039(2) -0.0044(18) 0.001(2) 0.000(2)
C20 0.035(3) 0.028(2) 0.055(3) -0.007(2) 0.000(3) 0.007(2)
C21 0.032(3) 0.025(2) 0.035(2) 0.0034(19) 0.001(2) 0.002(2)
C22 0.067(4) 0.023(3) 0.074(4) 0.001(3) -0.020(4) 0.001(3)
C23 0.036(3) 0.024(2) 0.064(3) 0.005(2) -0.002(3) 0.005(2)
C24 0.034(3) 0.020(2) 0.084(4) -0.005(2) -0.003(3) 0.004(2)
C25 0.031(3) 0.022(2) 0.100(4) -0.010(3) -0.004(3) 0.003(2)
C26 0.022(2) 0.029(2) 0.037(2) -0.003(2) -0.002(2) -0.003(2)
C27 0.027(3) 0.027(2) 0.041(3) -0.003(2) -0.003(2) 0.000(2)
C28 0.030(3) 0.027(2) 0.042(3) 0.001(2) 0.009(2) -0.004(2)
C29 0.044(3) 0.022(2) 0.066(3) 0.007(2) -0.005(3) -0.002(2)
C30 0.027(3) 0.030(3) 0.053(3) -0.001(2) 0.007(2) -0.006(2)
C31 0.036(3) 0.020(2) 0.057(3) 0.006(2) 0.002(3) 0.004(2)
C32 0.064(4) 0.034(3) 0.058(3) 0.007(2) 0.030(3) 0.010(3)
C33 0.052(3) 0.032(3) 0.069(4) 0.006(3) 0.013(3) 0.007(3)
C34 0.020(2) 0.018(2) 0.039(2) 0.0051(18) -0.002(2) -0.0013(18)
C35 0.080(5) 0.046(3) 0.044(3) 0.007(3) 0.004(3) 0.019(3)
C36 0.036(3) 0.025(3) 0.061(3) 0.006(2) 0.000(3) 0.003(2)
C37 0.031(3) 0.027(3) 0.050(3) 0.000(2) -0.004(2) -0.003(2)
C38 0.078(5) 0.036(3) 0.055(3) 0.021(2) -0.012(3) -0.005(3)
C39 0.062(4) 0.020(2) 0.067(3) 0.001(2) -0.001(3) 0.007(3)
C40 0.064(4) 0.033(3) 0.052(3) 0.009(2) 0.005(3) -0.005(3)
C41 0.071(4) 0.038(3) 0.067(4) 0.003(3) 0.006(3) 0.017(3)
C42 0.081(5) 0.032(3) 0.060(3) -0.003(3) -0.007(4) -0.005(3)
C43 0.038(3) 0.027(3) 0.097(5) 0.009(3) -0.001(3) 0.001(2)
C44 0.081(5) 0.058(4) 0.065(4) -0.003(3) -0.008(4) 0.039(4)
C45 0.061(4) 0.029(3) 0.056(3) 0.002(2) 0.006(3) -0.005(3)
C46 0.063(4) 0.042(3) 0.045(3) 0.006(2) 0.000(3) 0.020(3)
C47 0.068(4) 0.041(3) 0.084(5) -0.011(3) 0.011(4) -0.003(3)
C48 0.052(4) 0.037(3) 0.082(4) 0.009(3) 0.020(4) 0.003(3)
C49 0.096(5) 0.035(3) 0.084(4) -0.017(3) 0.035(4) 0.012(3)
C50 0.068(4) 0.056(4) 0.064(4) -0.002(3) -0.002(3) 0.005(3)
loop_
_atom_type_symbol
_atom_type_description
_atom_type_scat_dispersion_real
_atom_type_scat_dispersion_imag
_atom_type_scat_source
C C 0.0033 0.0016 'International Tables Vol C Tables 4.2.6.8 and 6.1.1.4'
H H 0.0000 0.0000 'International Tables Vol C Tables 4.2.6.8 and 6.1.1.4'
O O 0.0106 0.0060 'International Tables Vol C Tables 4.2.6.8 and 6.1.1.4'
N N 0.0061 0.0033 'International Tables Vol C Tables 4.2.6.8 and 6.1.1.4'
S S 0.1246 0.1234 'International Tables Vol C Tables 4.2.6.8 and 6.1.1.4'
loop_
_diffrn_radiation_wavelength
0.71073
loop_
_geom_angle_atom_site_label_1
_geom_angle_atom_site_label_2
_geom_angle_atom_site_label_3
_geom_angle
C34 S1 C21 92.2(2)
C26 S2 C18 91.4(2)
C12 O4 C34 110.4(3)
C16 O5 C26 111.4(3)
C37 O7 C38 116.5(4)
O3 C8 N14 122.8(4)
O3 C8 C27 124.2(4)
N14 C8 C27 112.8(4)
C15 N9 C26 117.7(4)
C15 N9 C10 124.1(4)
C26 N9 C10 117.6(4)
N9 C10 C18 105.4(4)
N9 C10 C30 110.6(4)
C18 C10 C30 113.5(4)
C27 C12 O4 121.0(4)
C27 C12 C36 127.3(5)
O4 C12 C36 111.7(4)
C8 N14 C34 118.0(4)
C8 N14 C19 125.1(4)
C34 N14 C19 116.4(4)
O6 C15 N9 122.3(4)
O6 C15 C28 124.0(4)
N9 C15 C28 113.3(4)
C28 C16 O5 121.3(4)
C28 C16 C25 126.5(5)
O5 C16 C25 112.1(4)
C30 O17 C49 115.8(5)
C10 C18 S2 105.7(3)
N14 C19 C37 109.2(4)
N14 C19 C21 104.6(4)
C37 C19 C21 112.9(4)
C24 C20 C47 122.4(5)
C24 C20 C44 118.8(6)
C47 C20 C44 118.7(6)
C19 C21 S1 104.6(3)
C42 C22 C29 122.0(6)
C45 C23 C31 119.1(5)
C45 C23 C36 120.7(5)
C31 C23 C36 119.8(5)
C41 C24 C20 122.4(6)
C41 C24 C32 120.0(5)
C20 C24 C32 117.4(5)
C16 C25 C41 110.9(4)
N9 C26 O5 110.5(4)
N9 C26 S2 106.5(3)
O5 C26 S2 111.9(3)
C12 C27 C8 121.4(4)
C16 C28 C15 120.4(4)
C31 C29 C22 119.5(5)
C31 C29 C43 118.5(5)
C22 C29 C43 122.0(5)
O13 C30 O17 123.8(5)
O13 C30 C10 125.5(5)
O17 C30 C10 110.7(4)
C29 C31 C39 118.5(5)
C29 C31 C23 118.5(5)
C39 C31 C23 123.0(5)
C40 C32 C24 115.7(6)
C39 C33 C48 119.9(6)
O4 C34 N14 110.4(3)
O4 C34 S1 112.5(3)
N14 C34 S1 106.4(3)
C44 C35 C46 116.7(5)
C23 C36 C12 113.2(4)
O11 C37 O7 124.3(4)
O11 C37 C19 124.3(4)
O7 C37 C19 111.4(4)
C33 C39 C31 121.6(5)
C32 C40 C50 124.5(6)
C46 C41 C24 116.8(6)
C46 C41 C25 123.8(6)
C24 C41 C25 119.2(5)
C22 C42 C45 118.9(5)
C48 C43 C29 120.4(5)
C35 C44 C20 119.2(6)
C23 C45 C42 121.8(6)
C41 C46 C35 126.0(6)
C50 C47 C20 119.3(7)
C43 C48 C33 121.0(6)
C47 C50 C40 120.2(7)
N9 C10 H10 110.5
C18 C10 H10 109.2
C30 C10 H10 107.6
C10 C18 H18A 111.7
S2 C18 H18A 109.6
C10 C18 H18B 111.3
S2 C18 H18B 109.9
H18A C18 H18B 108.6
N14 C19 H19 113.3
C37 C19 H19 108.6
C21 C19 H19 108.2
C19 C21 H21A 113.4
S1 C21 H21A 108.8
C19 C21 H21B 113.1
S1 C21 H21B 108.7
H21A C21 H21B 108.2
C42 C22 H22 118.2
C29 C22 H22 119.8
C16 C25 H25A 109.7
C41 C25 H25A 109.2
C16 C25 H25B 109.1
C41 C25 H25B 108.5
H25A C25 H25B 109.5
N9 C26 H26 109.4
O5 C26 H26 108.9
S2 C26 H26 109.6
C12 C27 H27 118.8
C8 C27 H27 119.8
C16 C28 H28 119.9
C15 C28 H28 119.8
C40 C32 H32 124.1
C24 C32 H32 120.2
C39 C33 H33 120.2
C48 C33 H33 119.9
O4 C34 H34 109.3
N14 C34 H34 110.1
S1 C34 H34 108.1
C44 C35 H35 120.1
C46 C35 H35 123.2
C23 C36 H36A 107.4
C12 C36 H36A 109.2
C23 C36 H36B 107.9
C12 C36 H36B 109.6
H36A C36 H36B 109.5
O7 C38 H38A 111.6
O7 C38 H38B 110.7
H38A C38 H38B 109.7
O7 C38 H38C 109.7
H38A C38 H38C 107.3
H38B C38 H38C 107.7
C33 C39 H39 118.6
C31 C39 H39 119.8
C32 C40 H40 119.3
C50 C40 H40 116.2
C22 C42 H42 120.7
C45 C42 H42 120.4
C48 C43 H43 119.2
C29 C43 H43 120.4
C35 C44 H44 120.8
C20 C44 H44 120.0
C23 C45 H45 119.9
C42 C45 H45 118.3
C41 C46 H46 113.6
C35 C46 H46 120.5
C50 C47 H47 120.9
C20 C47 H47 119.8
C43 C48 H48 118.9
C33 C48 H48 120.1
O17 C49 H49A 111.9
O17 C49 H49B 111.1
H49A C49 H49B 109.6
O17 C49 H49C 109.4
H49A C49 H49C 108.1
H49B C49 H49C 106.6
C47 C50 H50 119.6
C40 C50 H50 120.2
loop_
_geom_bond_atom_site_label_1
_geom_bond_atom_site_label_2
_geom_bond_distance
S1 C34 1.809(4)
S1 C21 1.819(5)
S2 C26 1.803(5)
S2 C18 1.815(5)
O3 C8 1.232(6)
O4 C12 1.372(6)
O4 C34 1.433(5)
O5 C16 1.366(6)
O5 C26 1.446(5)
O6 C15 1.238(6)
O7 C37 1.320(6)
O7 C38 1.465(6)
C8 N14 1.366(6)
C8 C27 1.451(7)
N9 C15 1.365(6)
N9 C26 1.436(6)
N9 C10 1.456(5)
C10 C18 1.511(6)
C10 C30 1.516(7)
O11 C37 1.207(6)
C12 C27 1.342(7)
C12 C36 1.499(7)
O13 C30 1.196(6)
N14 C34 1.439(6)
N14 C19 1.442(5)
C15 C28 1.468(7)
C16 C28 1.326(7)
C16 C25 1.513(7)
O17 C30 1.342(6)
O17 C49 1.424(6)
C19 C37 1.524(7)
C19 C21 1.525(7)
C20 C24 1.388(7)
C20 C47 1.409(9)
C20 C44 1.458(8)
C22 C42 1.338(9)
C22 C29 1.423(8)
C23 C45 1.366(8)
C23 C31 1.449(7)
C23 C36 1.494(7)
C24 C41 1.380(9)
C24 C32 1.519(8)
C25 C41 1.575(9)
C29 C31 1.417(7)
C29 C43 1.435(8)
C31 C39 1.428(7)
C32 C40 1.349(8)
C33 C39 1.360(8)
C33 C48 1.400(9)
C35 C44 1.392(10)
C35 C46 1.405(9)
C40 C50 1.409(9)
C41 C46 1.357(8)
C42 C45 1.442(9)
C43 C48 1.368(9)
C47 C50 1.345(9)
C10 H10 0.9861
C18 H18A 0.9691
C18 H18B 0.9608
C19 H19 0.9622
C21 H21A 0.9626
C21 H21B 0.9732
C22 H22 0.9601
C25 H25A 0.9601
C25 H25B 0.9599
C26 H26 0.9651
C27 H27 0.9602
C28 H28 0.9774
C32 H32 0.9600
C33 H33 0.9603
C34 H34 0.9743
C35 H35 0.9598
C36 H36A 0.9601
C36 H36B 0.9600
C38 H38A 0.9609
C38 H38B 0.9559
C38 H38C 0.9855
C39 H39 0.9601
C40 H40 0.9600
C42 H42 0.9599
C43 H43 0.9600
C44 H44 0.9600
C45 H45 0.9599
C46 H46 0.9603
C47 H47 0.9600
C48 H48 0.9600
C49 H49A 0.9502
C49 H49B 0.9688
C49 H49C 0.9866
C50 H50 0.9600
loop_
_refln_index_h
_refln_index_k
_refln_index_l
_refln_F_squared_meas
_refln_F_squared_calc
_refln_F_squared_sigma
-7 -5 -7 88.9 228.7 18.7
-7 -5 -5 44.1 65.5 14.6
-7 -5 -4 179.2 156.9 28.9
-7 -5 -3 133.5 239.5 33.0
-7 -5 -1 151.8 288.1 38.2
-7 -5 0 129.5 48.5 33.3
-7 -5 1 167.7 289.9 39.3
-7 -5 3 110.5 239.5 17.2
-7 -5 4 192.0 159.0 29.9
-7 -5 5 59.6 64.5 13.5
-7 -5 7 56.2 232.6 21.9
-7 -4 -10 17.6 1.5 10.1
-7 -4 -9 66.0 78.5 14.7
-7 -4 -5 32.3 130.1 14.7
-7 -4 -4 27.3 142.9 14.2
-7 -4 -3 96.3 109.6 19.2
-7 -4 -2 38.1 9.1 13.8
-7 -4 -1 126.4 97.4 22.3
-7 -4 1 138.4 94.2 33.2
-7 -4 2 25.9 9.3 14.5
-7 -4 3 89.9 101.9 17.8
-7 -4 5 49.8 130.6 14.8
-7 -4 7 58.0 137.4 15.4
-7 -4 8 38.3 101.8 13.4
-7 -3 -12 38.3 202.7 14.0
-7 -3 -11 133.5 206.5 19.3
-7 -3 -10 39.2 156.8 10.9
-7 -3 -9 189.1 177.4 24.0
-7 -3 -8 173.6 170.6 39.5
-7 -3 -6 67.1 83.8 17.4
-7 -3 -5 73.8 15.6 17.1
-7 -3 -4 85.3 182.8 17.4
-7 -3 -3 443.3 1015.8 55.8
-7 -3 -2 163.2 211.2 24.9
-7 -3 -1 273.0 390.2 36.3
-7 -3 0 85.7 17.5 16.8
-7 -3 1 317.9 383.3 41.6
-7 -3 2 211.8 213.8 44.1
-7 -3 3 472.4 1016.5 59.1
-7 -3 4 81.5 187.2 16.7
-7 -3 5 57.2 13.3 22.4
-7 -3 6 92.6 83.1 25.8
-7 -3 8 243.3 173.1 35.9
-7 -3 9 211.3 177.4 31.9
-7 -3 11 145.5 207.7 33.2
-7 -3 12 47.9 202.1 22.4
-7 -2 -13 102.2 108.5 15.9
-7 -2 -12 74.7 36.6 24.7
-7 -2 -11 182.9 304.0 23.6
-7 -2 -10 215.9 290.4 26.6
-7 -2 -9 88.6 49.0 17.1
-7 -2 -8 164.6 291.0 26.4
-7 -2 -7 129.5 50.1 22.2
-7 -2 -6 74.1 38.0 17.4
-7 -2 -5 29.2 79.5 13.7
-7 -2 -4 175.0 444.7 26.3
-7 -2 -3 251.0 485.1 34.2
-7 -2 -2 50.1 27.2 14.6
-7 -2 -1 170.4 100.9 25.0
-7 -2 0 586.9 770.5 103.0
-7 -2 1 182.5 100.3 26.4
-7 -2 3 249.9 486.6 33.6
-7 -2 4 132.7 434.7 21.7
-7 -2 5 23.6 79.8 12.4
-7 -2 6 102.2 35.6 18.7
-7 -2 7 136.0 50.1 22.4
-7 -2 8 150.6 290.7 22.7
-7 -2 9 67.7 49.0 16.6
-7 -2 10 245.0 294.6 52.4
-7 -2 11 166.4 303.3 39.6
-7 -1 -12 43.4 2.9 22.7
-7 -1 -10 46.4 25.1 11.2
-7 -1 -9 360.9 342.6 49.7
-7 -1 -8 67.1 299.3 14.6
-7 -1 -7 37.0 83.9 12.5
-7 -1 -6 256.0 205.6 48.5
-7 -1 -5 183.9 180.9 36.9
-7 -1 -4 28.6 121.6 13.1
-7 -1 -3 156.2 117.2 23.5
-7 -1 -2 110.1 207.5 26.3
-7 -1 -1 130.3 388.0 21.1
-7 -1 0 27.0 335.2 17.9
-7 -1 1 172.3 392.5 25.6
-7 -1 2 131.1 215.2 21.2
-7 -1 3 131.5 115.7 21.6
-7 -1 4 45.3 118.0 14.1
-7 -1 5 208.8 187.1 29.2
-7 -1 6 254.3 208.4 48.4
-7 -1 7 73.2 87.1 23.6
-7 -1 8 110.5 299.2 27.5
-7 -1 9 353.0 343.8 65.5
-7 -1 10 60.2 25.3 22.4
-7 -1 12 47.2 2.6 21.1
-6 -10 -5 66.3 61.5 21.0
-6 -10 -4 46.4 3.8 14.0
-6 -10 -3 166.4 95.8 27.0
-6 -10 -2 44.3 169.9 11.1
-6 -10 -1 22.8 83.1 9.7
-6 -10 0 24.8 39.6 11.3
-6 -10 1 49.1 83.4 13.9
-6 -10 2 81.8 164.8 12.3
-6 -10 3 170.9 97.1 28.3
-6 -10 4 38.3 4.2 13.2
-6 -10 5 47.4 60.5 21.8
-6 -9 -11 141.3 71.7 35.2
-6 -9 -10 67.1 105.2 16.0
-6 -9 -9 34.3 67.9 13.1
-6 -9 -8 19.8 16.5 9.8
-6 -9 -7 33.1 5.6 14.0
-6 -9 -6 263.9 250.1 31.7
-6 -9 -5 119.8 115.5 17.2
-6 -9 -4 83.4 242.5 13.1
-6 -9 -3 162.3 250.8 19.5
-6 -9 -2 83.7 5.2 13.4
-6 -9 -1 327.9 322.6 34.1
-6 -9 0 122.9 565.2 14.3
-6 -9 1 331.7 323.6 42.5
-6 -9 2 74.4 5.1 10.5
-6 -9 3 143.0 250.4 17.5
-6 -9 4 40.5 244.3 10.9
-6 -9 5 143.8 116.9 23.8
-6 -9 6 281.7 247.9 40.4
-6 -9 7 30.9 6.1 13.6
-6 -9 8 51.3 16.1 13.7
-6 -9 10 58.5 103.4 22.7
-6 -9 11 105.0 70.4 18.9
-6 -8 -14 15.2 52.1 9.1
-6 -8 -13 20.1 34.2 11.2
-6 -8 -12 88.3 108.3 17.0
-6 -8 -11 90.9 82.9 16.9
-6 -8 -8 47.4 3.0 10.3
-6 -8 -7 158.8 403.6 22.8
-6 -8 -6 26.1 17.2 9.4
-6 -8 -5 80.9 327.0 12.5
-6 -8 -4 245.0 239.8 26.2
-6 -8 -3 135.2 12.1 14.6
-6 -8 -1 285.8 156.9 26.5
-6 -8 0 89.2 74.4 13.5
-6 -8 1 319.2 155.2 33.0
-6 -8 3 117.2 12.6 17.7
-6 -8 4 201.8 241.6 28.2
-6 -8 5 60.4 328.3 11.9
-6 -8 6 38.9 16.4 10.9
-6 -8 7 148.0 393.2 17.8
-6 -8 8 57.7 2.6 14.6
-6 -8 9 68.0 64.7 15.5
-6 -8 11 56.4 88.4 20.9
-6 -8 12 116.8 106.0 29.0
-6 -7 -17 122.9 77.1 22.0
-6 -7 -16 27.9 127.0 12.7
-6 -7 -15 36.4 204.5 16.0
-6 -7 -14 39.2 19.2 11.8
-6 -7 -13 126.8 150.0 19.6
-6 -7 -12 17.9 120.5 10.6
-6 -7 -10 56.2 122.5 10.7
-6 -7 -9 71.2 140.6 11.5
-6 -7 -8 51.3 18.3 9.5
-6 -7 -7 97.7 120.2 16.9
-6 -7 -6 32.5 213.2 8.5
-6 -7 -5 84.1 8.5 9.9
-6 -7 -4 40.9 79.9 7.6
-6 -7 -3 188.6 171.0 16.3
-6 -7 -2 169.1 193.9 19.9
-6 -7 -1 263.9 337.7 24.3
-6 -7 0 154.0 26.6 19.0
-6 -7 1 242.8 341.7 22.8
-6 -7 2 180.1 196.4 17.8
-6 -7 3 176.4 180.4 21.3
-6 -7 4 32.9 78.0 9.2
-6 -7 5 51.1 7.9 12.7
-6 -7 6 16.1 209.6 8.8
-6 -7 7 111.6 125.1 16.6
-6 -7 8 54.1 18.1 14.4
-6 -7 9 37.0 136.1 12.7
-6 -7 10 67.4 124.9 11.7
-6 -7 13 80.6 157.0 14.4
-6 -7 14 44.1 18.5 19.7
-6 -7 16 35.5 129.7 16.0
-6 -7 17 125.2 78.0 32.4
-6 -6 -19 90.6 136.1 17.6
-6 -6 -18 252.7 472.3 51.0
-6 -6 -17 57.7 87.4 14.6
-6 -6 -16 21.8 6.3 11.2
-6 -6 -15 33.5 2.6 12.1
-6 -6 -14 56.2 110.2 13.3
-6 -6 -13 50.3 36.4 12.9
-6 -6 -12 118.7 168.4 17.5
-6 -6 -11 76.6 148.6 11.9
-6 -6 -10 204.3 513.0 20.4
-6 -6 -9 222.6 99.6 21.8
-6 -6 -8 148.9 307.6 16.2
-6 -6 -5 27.9 78.8 7.4
-6 -6 -4 42.3 35.9 7.3
-6 -6 -3 21.0 82.5 7.4
-6 -6 -2 47.2 64.0 8.1
-6 -6 -1 123.7 22.8 10.9
-6 -6 0 73.8 161.5 9.9
-6 -6 1 134.7 22.4 13.4
-6 -6 2 60.7 70.0 9.2
-6 -6 3 23.6 84.1 7.3
-6 -6 4 65.4 34.0 8.7
-6 -6 5 21.3 81.3 10.9
-6 -6 8 114.9 302.5 17.6
-6 -6 9 215.9 100.1 26.6
-6 -6 10 200.3 504.5 20.2
-6 -6 11 76.6 145.7 15.6
-6 -6 12 149.3 170.4 19.6
-6 -6 13 29.2 36.4 11.9
-6 -6 14 100.1 112.2 24.1
-6 -6 15 104.0 2.9 24.2
-6 -6 19 121.3 134.7 31.5
-6 -5 -20 40.9 92.4 14.3
-6 -5 -19 105.4 17.5 19.3
-6 -5 -18 77.8 247.6 16.6
-6 -5 -17 104.7 39.9 24.3
-6 -5 -16 164.6 293.0 23.7
-6 -5 -15 79.0 50.2 14.9
-6 -5 -14 37.4 37.1 10.9
-6 -5 -13 79.6 169.4 14.6
-6 -5 -12 337.5 514.0 37.1
-6 -5 -11 308.1 106.7 28.1
-6 -5 -10 182.9 183.8 18.9
-6 -5 -9 142.5 376.8 14.2
-6 -5 -8 146.3 431.2 13.9
-6 -5 -7 458.1 476.4 34.3
-6 -5 -6 30.9 57.4 8.5
-6 -5 -5 34.7 3.9 9.4
-6 -5 -4 419.4 796.5 27.1
-6 -5 -3 91.9 155.7 10.4
-6 -5 -2 38.5 205.0 7.8
-6 -5 1 16.8 14.4 7.0
-6 -5 2 54.1 203.8 8.2
-6 -5 3 79.0 160.9 11.2
-6 -5 4 424.4 782.3 39.5
-6 -5 5 35.5 4.3 9.1
-6 -5 6 38.9 63.1 10.9
-6 -5 7 455.1 479.5 60.2
-6 -5 8 148.9 429.5 15.3
-6 -5 9 179.6 372.3 16.8
-6 -5 10 165.5 177.2 21.5
-6 -5 11 324.2 108.0 29.5
-6 -5 12 272.4 501.5 25.3
-6 -5 13 77.8 174.1 15.1
-6 -5 14 21.8 36.2 14.0
-6 -5 15 92.9 50.3 22.8
-6 -5 16 214.9 298.6 42.4
-6 -5 20 38.1 91.8 17.9
-6 -4 -21 194.9 75.7 30.2
-6 -4 -20 78.4 6.5 16.7
-6 -4 -18 54.4 14.0 18.5
-6 -4 -17 508.7 534.6 62.9
-6 -4 -16 85.7 150.5 14.5
-6 -4 -15 43.2 61.3 11.0
-6 -4 -14 82.8 129.0 14.0
-6 -4 -13 22.5 73.6 7.3
-6 -4 -12 22.1 16.5 8.2
-6 -4 -11 47.9 194.1 10.4
-6 -4 -10 253.2 280.6 18.3
-6 -4 -9 643.1 539.7 39.8
-6 -4 -8 13.4 18.0 6.6
-6 -4 -7 211.3 415.9 17.7
-6 -4 -6 131.9 52.3 11.6
-6 -4 -5 208.3 212.4 17.6
-6 -4 -4 36.8 147.1 7.8
-6 -4 -3 43.6 281.3 7.8
-6 -4 -2 808.1 1187.8 49.5
-6 -4 -1 56.7 96.6 11.3
-6 -4 0 91.9 313.2 14.0
-6 -4 1 47.9 93.5 7.5
-6 -4 2 756.5 1188.9 46.0
-6 -4 3 26.8 282.4 6.3
-6 -4 4 21.8 146.7 5.7
-6 -4 5 168.6 225.0 29.0
-6 -4 6 138.0 51.4 17.2
-6 -4 7 214.9 419.1 18.9
-6 -4 9 604.8 539.5 78.9
-6 -4 10 182.9 278.1 20.7
-6 -4 11 87.3 198.6 11.7
-6 -4 13 21.0 73.5 11.0
-6 -4 14 103.6 127.4 16.3
-6 -4 15 29.4 56.8 16.6
-6 -4 16 148.9 149.0 28.1
-6 -4 17 528.5 541.8 93.0
-6 -4 18 31.9 14.1 16.7
-6 -3 -22 31.9 18.4 12.4
-6 -3 -21 45.3 229.7 14.1
-6 -3 -20 214.9 482.3 29.6
-6 -3 -19 696.3 701.7 84.6
-6 -3 -18 154.4 151.2 23.0
-6 -3 -17 64.8 75.3 11.2
-6 -3 -16 74.4 46.6 11.4
-6 -3 -15 398.3 799.2 34.8
-6 -3 -14 76.3 83.1 11.3
-6 -3 -12 56.7 45.0 8.1
-6 -3 -11 220.0 161.4 16.5
-6 -3 -10 337.5 390.2 22.4
-6 -3 -9 82.8 53.9 9.5
-6 -3 -8 297.1 231.1 20.4
-6 -3 -7 780.6 383.1 41.9
-6 -3 -6 106.1 127.9 10.8
-6 -3 -5 206.8 130.8 16.0
-6 -3 -4 113.0 214.4 9.6
-6 -3 -3 338.8 617.5 28.9
-6 -3 -2 31.9 122.3 6.3
-6 -3 -1 822.1 1497.0 51.0
-6 -3 0 950.7 1075.1 69.9
-6 -3 1 888.3 1513.4 63.4
-6 -3 2 60.4 119.1 8.1
-6 -3 3 349.8 607.8 22.8
-6 -3 4 112.3 219.9 9.2
-6 -3 5 248.3 131.2 18.7
-6 -3 6 139.2 128.4 22.6
-6 -3 7 738.3 390.7 79.6
-6 -3 8 270.1 228.7 28.1
-6 -3 9 83.7 58.7 11.2
-6 -3 10 303.8 396.6 24.3
-6 -3 11 217.4 160.1 23.1
-6 -3 12 46.7 47.2 11.9
-6 -3 14 34.7 83.1 16.6
-6 -3 16 65.1 43.4 18.0
-6 -3 18 191.5 152.5 38.6
-6 -2 -23 33.7 17.3 12.5
-6 -2 -21 86.0 116.0 16.5
-6 -2 -20 93.2 182.5 13.8
-6 -2 -19 47.6 28.2 10.6
-6 -2 -18 186.2 111.3 21.4
-6 -2 -17 240.1 213.6 28.1
-6 -2 -16 241.7 377.5 22.8
-6 -2 -15 59.3 195.3 9.7
-6 -2 -13 24.3 79.2 8.8
-6 -2 -12 108.6 246.7 12.4
-6 -2 -11 19.8 323.3 6.4
-6 -2 -10 32.5 258.4 6.8
-6 -2 -9 535.8 193.5 33.9
-6 -2 -8 637.0 1017.0 34.3
-6 -2 -7 111.9 263.2 9.6
-6 -2 -6 82.5 220.4 8.2
-6 -2 -5 155.7 71.9 11.7
-6 -2 -4 97.7 103.5 9.0
-6 -2 -3 154.9 362.6 11.3
-6 -2 -2 41.8 0.0 6.8
-6 -2 -1 345.9 419.7 23.3
-6 -2 0 512.6 1113.7 28.4
-6 -2 1 427.3 416.3 23.8
-6 -2 2 62.9 0.3 8.8
-6 -2 3 134.7 362.5 12.9
-6 -2 4 77.2 109.8 8.0
-6 -2 5 143.8 73.0 21.7
-6 -2 6 93.9 218.9 13.5
-6 -2 7 96.6 260.5 13.0
-6 -2 8 537.4 1033.1 61.4
-6 -2 9 534.9 191.6 41.9
-6 -2 10 37.4 252.7 11.5
-6 -2 12 66.0 237.8 11.9
-6 -2 13 46.7 80.4 11.2
-6 -2 14 27.0 9.8 11.2
-6 -2 15 62.9 194.8 22.1
-6 -2 18 174.1 112.2 33.1
-6 -1 -23 31.9 79.4 12.8
-6 -1 -20 36.2 34.8 12.8
-6 -1 -18 122.9 236.3 13.9
-6 -1 -17 87.3 25.7 13.7
-6 -1 -16 170.4 599.1 17.7
-6 -1 -14 113.0 354.7 14.5
-6 -1 -13 53.8 37.3 9.7
-6 -1 -12 81.2 59.6 10.1
-6 -1 -11 40.0 14.8 7.5
-6 -1 -10 180.1 300.6 14.5
-6 -1 -9 87.6 37.2 9.5
-6 -1 -8 31.9 40.4 6.7
-6 -1 -7 127.6 251.5 10.2
-6 -1 -6 237.9 208.8 15.1
-6 -1 -5 56.4 300.7 7.3
-6 -1 -4 251.0 405.2 17.7
-6 -1 -3 244.4 487.2 17.4
-6 -1 -2 161.4 638.3 13.3
-6 -1 -1 490.0 489.9 31.6
-6 -1 0 830.1 2560.7 44.2
-6 -1 1 469.4 492.3 26.4
-6 -1 2 181.5 647.5 15.0
-6 -1 3 208.8 497.2 16.1
-6 -1 4 210.3 413.7 20.7
-6 -1 5 61.0 298.2 10.9
-6 -1 6 273.0 213.5 35.7
-6 -1 7 142.5 246.4 15.8
-6 -1 8 50.8 39.9 11.2
-6 -1 9 109.0 37.2 18.9
-6 -1 10 228.9 298.2 28.5
-6 -1 11 59.6 15.1 19.4
-6 -1 12 58.8 56.7 19.5
-6 -1 13 40.5 37.8 11.5
-6 -1 14 125.6 355.2 25.0
-6 -1 15 41.8 91.8 21.6
-6 -1 16 101.8 598.5 21.5
-6 -1 19 33.1 93.2 16.0
-5 -12 -9 39.8 126.5 18.0
-5 -12 -7 82.8 70.2 17.8
-5 -12 -6 260.5 185.4 38.8
-5 -12 -5 223.6 201.5 33.9
-5 -12 -3 72.6 18.3 16.3
-5 -12 -2 278.2 262.8 33.1
-5 -12 -1 27.9 137.7 8.8
-5 -12 1 48.4 137.2 10.7
-5 -12 2 243.9 261.0 29.4
-5 -12 3 72.3 16.1 11.3
-5 -12 4 20.1 2.5 9.4
-5 -12 5 187.2 203.2 24.3
-5 -12 6 242.8 188.3 35.8
-5 -12 7 47.2 66.3 21.5
-5 -12 8 54.4 22.7 20.3
-5 -11 -14 31.3 67.1 19.1
-5 -11 -12 43.6 53.0 12.2
-5 -11 -11 83.1 81.2 26.4
-5 -11 -10 117.9 276.2 28.4
-5 -11 -9 18.8 6.3 10.3
-5 -11 -8 47.9 21.0 20.3
-5 -11 -7 38.3 21.6 20.9
-5 -11 -6 80.3 459.0 21.5
-5 -11 -5 39.8 95.3 11.4
-5 -11 -4 86.3 97.2 22.0
-5 -11 -3 35.5 47.0 9.8
-5 -11 -2 84.1 38.5 10.2
-5 -11 -1 46.0 3.6 9.9
-5 -11 0 110.5 16.2 16.9
-5 -11 1 20.4 4.1 8.5
-5 -11 2 95.6 39.0 14.7
-5 -11 3 30.1 46.7 7.8
-5 -11 4 76.6 98.1 10.4
-5 -11 5 52.8 89.0 9.4
-5 -11 6 100.1 457.8 13.9
-5 -11 8 50.8 20.2 13.7
-5 -11 9 30.7 6.4 12.2
-5 -11 10 132.7 273.7 21.3
-5 -11 11 87.9 80.4 25.8
-5 -11 12 72.9 53.7 16.1
-5 -11 13 36.2 1.4 13.0
-5 -11 14 22.5 68.6 11.9
-5 -11 15 183.4 163.6 28.8
-5 -10 -17 109.4 239.4 19.3
-5 -10 -16 157.0 184.7 25.3
-5 -10 -15 128.4 445.6 29.6
-5 -10 -14 126.0 184.7 16.0
-5 -10 -13 193.5 422.5 26.7
-5 -10 -12 239.0 188.7 32.3
-5 -10 -11 86.3 19.4 15.9
-5 -10 -10 66.3 84.0 13.6
-5 -10 -9 97.7 295.3 25.8
-5 -10 -8 78.7 61.8 13.6
-5 -10 -6 82.1 135.0 14.2
-5 -10 -5 87.3 234.2 11.7
-5 -10 -4 59.6 40.8 10.2
-5 -10 -3 116.0 144.6 13.5
-5 -10 -2 126.4 338.3 12.9
-5 -10 -1 154.0 129.8 15.1
-5 -10 0 224.7 152.4 18.8
-5 -10 1 171.8 127.2 16.4
-5 -10 2 104.7 342.7 11.1
-5 -10 3 118.3 142.6 14.0
-5 -10 4 81.2 38.3 13.5
-5 -10 5 112.3 229.0 11.5
-5 -10 6 56.7 143.1 8.9
-5 -10 7 28.6 36.1 8.2
-5 -10 8 80.9 60.9 14.7
-5 -10 9 132.3 293.5 18.4
-5 -10 10 72.6 78.6 11.3
-5 -10 11 87.9 18.1 15.4
-5 -10 12 248.8 185.0 33.0
-5 -10 13 228.4 416.1 30.6
-5 -10 14 100.8 182.7 17.5
-5 -10 15 140.9 440.8 21.5
-5 -10 16 168.2 183.1 26.2
-5 -10 17 121.3 241.9 21.1
-5 -9 -20 107.2 358.5 26.3
-5 -9 -18 348.5 792.2 35.8
-5 -9 -17 114.2 108.1 14.9
-5 -9 -16 30.1 25.9 9.4
-5 -9 -15 88.6 96.3 13.1
-5 -9 -14 491.5 731.8 51.0
-5 -9 -13 106.1 112.1 15.4
-5 -9 -12 261.6 314.5 29.9
-5 -9 -9 438.2 594.3 58.4
-5 -9 -8 47.4 64.0 10.3
-5 -9 -7 97.7 151.7 12.7
-5 -9 -6 83.1 189.3 12.7
-5 -9 -5 401.1 418.3 30.7
-5 -9 -4 25.2 129.2 7.5
-5 -9 -3 530.9 499.6 47.4
-5 -9 -2 677.2 1224.6 49.0
-5 -9 -1 172.3 73.3 13.7
-5 -9 0 19.8 0.0 6.7
-5 -9 1 181.5 75.7 14.1
-5 -9 2 696.3 1209.6 49.7
-5 -9 3 507.9 490.5 37.7
-5 -9 4 28.3 122.7 6.7
-5 -9 5 399.0 421.8 26.5
-5 -9 6 108.3 186.5 10.5
-5 -9 7 130.7 148.7 12.0
-5 -9 8 40.0 66.1 7.5
-5 -9 9 433.1 593.8 40.6
-5 -9 10 641.4 591.6 46.8
-5 -9 11 69.1 84.6 11.9
-5 -9 12 241.2 306.9 23.3
-5 -9 13 107.5 108.3 13.7
-5 -9 14 544.7 731.3 56.9
-5 -9 15 108.3 93.3 17.8
-5 -9 16 54.4 24.7 13.4
-5 -9 17 166.4 108.1 24.3
-5 -9 18 376.3 801.6 66.9
-5 -9 20 106.8 347.9 28.1
-5 -8 -23 72.6 164.8 15.4
-5 -8 -22 99.0 251.4 18.4
-5 -8 -21 50.3 112.5 13.1
-5 -8 -20 298.3 634.9 31.3
-5 -8 -19 288.8 347.8 37.3
-5 -8 -18 122.9 97.8 19.3
-5 -8 -17 246.6 197.7 28.5
-5 -8 -16 153.1 29.0 19.4
-5 -8 -15 860.5 1025.7 86.9
-5 -8 -14 124.0 89.9 15.9
-5 -8 -13 159.7 333.6 15.0
-5 -8 -9 157.9 128.7 22.8
-5 -8 -8 782.6 476.4 57.5
-5 -8 -7 1015.1 1504.5 74.4
-5 -8 -6 31.3 71.5 9.8
-5 -8 -5 287.6 529.6 19.5
-5 -8 -4 223.6 140.8 16.2
-5 -8 -3 809.1 1068.2 49.6
-5 -8 -2 35.9 31.5 8.8
-5 -8 -1 127.2 109.8 9.8
-5 -8 0 430.2 55.7 21.7
-5 -8 1 153.6 105.3 9.9
-5 -8 2 12.8 33.5 6.1
-5 -8 3 699.1 1072.6 37.8
-5 -8 4 227.3 137.9 13.1
-5 -8 5 302.0 530.4 18.2
-5 -8 6 24.7 69.9 6.8
-5 -8 7 1086.3 1506.5 56.3
-5 -8 8 754.5 481.9 40.2
-5 -8 9 159.7 121.4 14.5
-5 -8 10 41.4 20.8 7.4
-5 -8 11 349.1 552.8 27.4
-5 -8 12 1027.4 1048.4 71.5
-5 -8 13 199.3 320.8 17.2
-5 -8 14 125.6 87.7 16.4
-5 -8 15 825.1 1016.8 68.1
-5 -8 16 128.4 30.2 17.8
-5 -8 17 253.2 195.4 41.0
-5 -8 18 100.1 94.4 24.4
-5 -8 19 436.7 341.5 77.2
-5 -8 20 299.5 641.8 56.1
-5 -8 21 44.1 110.4 20.1
-5 -8 22 75.0 252.9 24.5
-5 -8 23 29.4 161.5 18.0
-5 -7 -24 47.9 124.7 18.8
-5 -7 -22 125.6 238.9 19.9
-5 -7 -21 32.9 43.4 16.2
-5 -7 -19 29.2 5.1 13.7
-5 -7 -18 290.6 276.8 32.1
-5 -7 -17 576.9 507.2 59.4
-5 -7 -16 341.3 320.7 32.2
-5 -7 -15 13.4 8.7 8.8
-5 -7 -14 87.3 128.9 17.9
-5 -7 -13 257.7 684.3 37.5
-5 -7 -12 20.4 123.1 9.4
-5 -7 -11 85.0 106.0 8.7
-5 -7 -10 869.7 1245.2 52.4
-5 -7 -9 181.5 29.2 13.6
-5 -7 -8 323.5 541.0 21.3
-5 -7 -7 570.2 939.1 35.0
-5 -7 -6 59.6 1.4 7.0
-5 -7 -5 233.1 179.2 13.3
-5 -7 -4 38.5 7.1 6.1
-5 -7 -3 60.4 327.5 5.1
-5 -7 -2 486.9 1187.2 20.8
-5 -7 -1 137.2 345.6 8.2
-5 -7 0 163.2 19.9 8.9
-5 -7 1 155.3 337.3 9.1
-5 -7 2 539.0 1196.8 25.9
-5 -7 3 54.9 323.7 6.2
-5 -7 4 43.4 6.5 5.7
-5 -7 5 235.8 172.2 12.3
-5 -7 6 75.3 1.8 8.8
-5 -7 7 631.7 934.2 34.2
-5 -7 8 360.9 542.8 20.5
-5 -7 9 168.6 29.2 11.8
-5 -7 10 839.1 1256.6 44.4
-5 -7 11 98.0 113.2 9.0
-5 -7 12 30.9 119.7 7.0
-5 -7 13 204.3 690.5 17.4
-5 -7 14 124.4 132.9 22.2
-5 -7 15 43.4 9.7 9.4
-5 -7 16 313.0 317.6 24.7
-5 -7 17 527.7 506.4 44.8
-5 -7 18 295.9 278.8 33.0
-5 -7 19 32.9 5.2 17.4
-5 -7 20 58.0 125.7 19.1
-5 -7 21 74.7 46.0 23.2
-5 -7 22 143.8 243.8 31.8
-5 -7 24 46.0 121.8 18.0
-5 -6 -26 29.2 118.4 12.8
-5 -6 -24 33.5 186.9 16.9
-5 -6 -20 133.1 138.0 26.5
-5 -6 -19 133.1 128.3 17.3
-5 -6 -18 252.7 534.5 25.5
-5 -6 -17 345.2 494.6 31.7
-5 -6 -16 258.8 451.7 35.3
-5 -6 -15 91.6 20.6 12.7
-5 -6 -14 150.6 666.2 16.3
-5 -6 -13 114.2 549.7 13.4
-5 -6 -12 49.6 92.1 9.8
-5 -6 -11 161.0 46.2 24.3
-5 -6 -9 150.6 204.4 13.7
-5 -6 -8 287.0 371.6 17.1
-5 -6 -7 604.8 628.4 28.3
-5 -6 -6 517.4 584.3 23.8
-5 -6 -5 52.1 49.8 6.0
-5 -6 -4 257.1 596.3 12.3
-5 -6 -3 289.4 602.9 15.4
-5 -6 -2 283.5 460.9 11.2
-5 -6 -1 303.8 510.6 12.8
-5 -6 0 82.8 128.0 6.0
-5 -6 1 356.3 512.2 14.5
-5 -6 2 290.0 452.1 14.2
-5 -6 3 278.2 597.4 12.2
-5 -6 4 246.1 598.0 13.1
-5 -6 5 42.3 52.1 5.2
-5 -6 6 466.4 600.3 18.1
-5 -6 7 554.5 625.6 23.0
-5 -6 8 317.3 370.7 14.9
-5 -6 9 146.3 202.8 8.4
-5 -6 10 306.2 430.4 17.7
-5 -6 11 159.7 43.8 12.8
-5 -6 12 24.0 87.0 5.8
-5 -6 13 98.4 543.0 8.6
-5 -6 14 143.8 659.4 12.1
-5 -6 15 77.2 22.1 13.5
-5 -6 16 240.6 436.4 24.9
-5 -6 17 333.0 495.7 26.1
-5 -6 18 284.7 525.5 28.2
-5 -6 19 174.1 126.3 31.7
-5 -6 20 177.8 132.8 31.1
-5 -6 21 76.6 307.2 18.9
-5 -6 26 73.5 120.4 23.0
-5 -5 -27 265.0 629.1 39.2
-5 -5 -26 300.8 411.3 42.9
-5 -5 -24 56.2 105.5 12.5
-5 -5 -23 240.1 383.3 44.8
-5 -5 -22 42.5 49.9 11.1
-5 -5 -20 71.5 149.2 12.4
-5 -5 -19 176.4 114.7 15.3
-5 -5 -18 200.3 488.3 20.2
-5 -5 -17 33.5 42.1 8.9
-5 -5 -16 27.0 41.6 7.2
-5 -5 -15 76.6 62.4 14.3
-5 -5 -14 96.6 351.1 16.4
-5 -5 -13 59.6 165.1 9.7
-5 -5 -12 89.6 639.2 19.1
-5 -5 -11 668.1 690.1 43.2
-5 -5 -10 50.1 90.1 7.4
-5 -5 -9 421.6 438.3 23.6
-5 -5 -8 374.3 486.6 20.9
-5 -5 -7 274.2 662.2 15.6
-5 -5 -6 192.5 827.0 10.2
-5 -5 -5 35.3 148.7 4.6
-5 -5 -4 270.7 333.1 10.3
-5 -5 -3 392.7 125.7 14.5
-5 -5 -2 478.5 983.6 15.3
-5 -5 -1 872.8 1126.2 23.7
-5 -5 0 83.4 332.3 5.7
-5 -5 1 898.7 1113.0 24.0
-5 -5 2 433.8 972.6 14.5
-5 -5 3 368.9 130.5 12.1
-5 -5 4 262.2 334.2 9.6
-5 -5 5 20.1 149.2 4.2
-5 -5 6 163.2 824.5 9.4
-5 -5 7 295.9 651.2 15.0
-5 -5 8 379.7 500.0 19.0
-5 -5 9 420.1 431.2 17.9
-5 -5 10 73.2 88.1 6.0
-5 -5 11 619.5 694.2 33.0
-5 -5 12 163.2 626.8 13.4
-5 -5 13 50.8 164.9 7.2
-5 -5 14 75.3 363.2 8.5
-5 -5 15 101.1 64.6 10.5
-5 -5 18 178.7 476.1 16.3
-5 -5 19 119.4 115.4 17.1
-5 -5 20 48.6 142.4 17.7
-5 -5 21 55.6 49.8 18.5
-5 -5 23 228.4 381.0 43.7
-5 -5 24 57.2 104.7 20.3
-5 -5 25 50.1 79.8 19.5
-5 -5 26 346.5 403.1 69.4
-5 -5 27 227.8 622.7 47.4
-5 -4 -27 29.2 56.0 12.2
-5 -4 -26 213.3 240.6 29.0
-5 -4 -25 176.9 154.6 25.0
-5 -4 -24 143.0 342.5 22.1
-5 -4 -23 23.1 153.2 10.6
-5 -4 -22 52.1 216.2 16.1
-5 -4 -21 184.8 358.3 20.9
-5 -4 -20 219.5 461.9 22.7
-5 -4 -19 31.3 97.5 9.9
-5 -4 -18 209.8 399.6 18.2
-5 -4 -16 45.5 401.1 12.5
-5 -4 -15 115.3 515.7 16.8
-5 -4 -14 62.9 103.5 13.0
-5 -4 -13 854.4 731.5 53.0
-5 -4 -12 148.0 186.0 14.0
-5 -4 -11 241.7 251.1 17.9
-5 -4 -10 248.3 337.0 26.4
-5 -4 -9 1294.2 1614.2 65.2
-5 -4 -8 69.1 101.3 6.1
-5 -4 -7 361.6 286.3 13.3
-5 -4 -6 860.5 912.0 31.7
-5 -4 -5 620.3 480.7 20.8
-5 -4 -4 142.5 149.7 7.5
-5 -4 -3 749.8 1202.1 23.9
-5 -4 -2 2583.1 4067.9 78.0
-5 -4 -1 2656.3 3253.4 88.0
-5 -4 0 117.2 223.4 6.4
-5 -4 1 2533.8 3253.4 59.7
-5 -4 2 2460.6 4078.2 62.2
-5 -4 3 791.4 1224.4 20.6
-5 -4 4 122.5 148.6 6.6
-5 -4 5 615.1 475.7 19.0
-5 -4 6 763.2 916.9 26.0
-5 -4 7 378.4 296.9 11.5
-5 -4 8 66.8 101.3 5.7
-5 -4 9 1316.8 1603.2 50.6
-5 -4 10 238.5 342.5 12.4
-5 -4 11 308.7 249.6 13.5
-5 -4 12 135.6 190.4 10.1
-5 -4 13 769.9 733.1 33.9
-5 -4 14 78.4 107.5 6.5
-5 -4 15 129.1 510.8 11.5
-5 -4 16 56.4 403.2 8.1
-5 -4 17 25.9 39.5 14.0
-5 -4 18 186.2 395.1 14.7
-5 -4 19 24.7 105.8 11.3
-5 -4 20 227.3 466.2 33.6
-5 -4 21 185.3 364.9 29.4
-5 -4 22 87.9 215.2 21.2
-5 -4 26 257.7 244.1 49.2
-5 -3 -28 48.6 44.8 13.9
-5 -3 -27 162.3 248.3 26.6
-5 -3 -26 315.4 652.0 40.9
-5 -3 -25 62.3 80.0 14.0
-5 -3 -24 268.4 471.7 30.3
-5 -3 -23 460.3 798.1 47.9
-5 -3 -22 183.4 417.0 20.8
-5 -3 -20 191.0 298.9 27.9
-5 -3 -19 28.8 128.2 11.6
-5 -3 -18 241.2 397.5 17.3
-5 -3 -17 151.8 152.7 15.0
-5 -3 -16 55.4 53.0 9.1
-5 -3 -15 612.6 300.2 32.8
-5 -3 -14 170.0 279.0 12.3
-5 -3 -13 197.4 406.4 16.6
-5 -3 -12 830.1 844.9 53.2
-5 -3 -11 941.0 863.7 41.7
-5 -3 -10 73.8 65.6 6.6
-5 -3 -9 717.7 916.0 24.3
-5 -3 -8 644.0 605.3 23.9
-5 -3 -7 259.9 752.0 11.8
-5 -3 -6 13.0 118.7 4.3
-5 -3 -5 134.3 409.4 7.7
-5 -3 -4 1141.0 1935.1 35.3
-5 -3 -3 410.9 265.2 17.0
-5 -3 -2 437.5 1044.8 15.3
-5 -3 -1 550.4 289.8 17.2
-5 -3 0 867.6 556.9 23.6
-5 -3 1 587.8 279.4 15.2
-5 -3 2 484.6 1036.6 14.6
-5 -3 3 391.3 260.2 11.7
-5 -3 4 1158.7 1937.2 30.9
-5 -3 5 166.4 404.0 8.5
-5 -3 6 16.8 121.0 3.7
-5 -3 7 215.4 746.4 10.2
-5 -3 8 583.6 593.0 22.7
-5 -3 9 779.6 930.3 25.3
-5 -3 10 108.6 64.9 5.4
-5 -3 11 837.1 870.4 33.3
-5 -3 12 842.2 852.1 43.5
-5 -3 13 259.9 403.4 16.9
-5 -3 14 166.8 286.8 12.6
-5 -3 15 608.3 306.7 41.3
-5 -3 16 48.6 51.9 8.3
-5 -3 17 110.5 156.0 11.0
-5 -3 18 223.1 404.7 22.4
-5 -3 19 32.9 131.1 11.8
-5 -3 20 215.9 293.2 34.8
-5 -3 21 129.5 208.7 17.9
-5 -3 22 171.8 420.0 27.9
-5 -3 24 294.7 461.9 46.1
-5 -3 25 127.6 82.1 29.5
-5 -3 26 298.3 654.8 54.8
-5 -3 28 86.3 44.7 24.6
-5 -2 -28 119.0 627.8 20.5
-5 -2 -27 133.1 147.7 21.3
-5 -2 -26 269.6 1044.8 35.5
-5 -2 -25 193.0 212.5 23.7
-5 -2 -24 293.5 518.7 46.6
-5 -2 -23 136.0 136.3 24.8
-5 -2 -22 184.8 484.6 19.9
-5 -2 -21 32.9 51.0 10.4
-5 -2 -20 26.8 106.8 9.4
-5 -2 -19 104.3 65.1 12.8
-5 -2 -18 198.8 706.7 15.2
-5 -2 -17 501.6 651.5 31.2
-5 -2 -16 912.4 1454.8 46.3
-5 -2 -15 61.2 29.0 7.9
-5 -2 -14 78.7 136.2 8.3
-5 -2 -13 403.9 446.7 22.4
-5 -2 -12 404.6 610.1 22.4
-5 -2 -11 703.7 573.7 24.0
-5 -2 -10 598.8 1037.9 20.5
-5 -2 -9 54.9 104.7 5.7
-5 -2 -8 311.1 653.8 13.5
-5 -2 -7 454.4 239.0 17.8
-5 -2 -6 183.4 261.1 9.0
-5 -2 -5 200.3 127.0 8.9
-5 -2 -4 290.6 125.6 11.9
-5 -2 -3 586.1 1137.4 26.2
-5 -2 -2 146.3 81.8 6.7
-5 -2 -1 1684.8 1989.6 51.5
-5 -2 0 1089.8 1610.9 31.1
-5 -2 1 1635.1 1970.8 45.1
-5 -2 2 132.3 80.9 5.6
-5 -2 3 588.6 1140.2 15.2
-5 -2 4 303.8 124.2 9.7
-5 -2 5 200.3 122.7 6.9
-5 -2 6 183.4 253.0 7.1
-5 -2 7 441.1 243.3 13.9
-5 -2 8 269.6 651.1 10.3
-5 -2 9 35.5 102.4 5.4
-5 -2 10 586.1 1028.6 23.6
-5 -2 11 723.3 585.0 27.2
-5 -2 12 391.3 614.2 22.8
-5 -2 13 366.9 444.9 21.4
-5 -2 14 75.0 136.6 8.8
-5 -2 15 57.2 30.6 18.2
-5 -2 16 848.2 1465.6 43.7
-5 -2 17 492.3 641.3 31.7
-5 -2 18 201.8 705.3 19.8
-5 -2 19 97.7 66.0 13.8
-5 -2 20 37.6 102.2 11.8
-5 -2 22 151.0 496.9 19.3
-5 -2 23 128.0 138.5 26.0
-5 -2 24 248.8 517.4 39.6
-5 -2 25 245.5 214.0 42.1
-5 -2 26 255.5 1028.3 47.9
-5 -2 27 119.8 143.4 29.4
-5 -2 28 99.7 619.6 25.4
-5 -2 29 77.5 194.7 23.3
-5 -1 -29 92.9 250.5 17.5
-5 -1 -28 61.8 52.3 15.6
-5 -1 -27 47.2 19.9 12.4
-5 -1 -26 68.0 108.0 13.8
-5 -1 -25 54.6 64.9 12.6
-5 -1 -24 45.0 147.9 11.5
-5 -1 -23 105.7 17.1 14.3
-5 -1 -22 128.4 217.9 15.8
-5 -1 -21 437.5 633.3 40.1
-5 -1 -20 38.1 121.5 10.5
-5 -1 -18 208.8 335.9 19.6
-5 -1 -17 316.7 446.0 21.1
-5 -1 -16 106.5 232.0 9.7
-5 -1 -15 263.9 656.8 16.4
-5 -1 -14 508.7 599.6 24.4
-5 -1 -13 163.7 394.6 11.1
-5 -1 -12 82.8 42.9 6.0
-5 -1 -11 10.6 84.4 4.2
-5 -1 -10 149.3 140.9 8.9
-5 -1 -9 613.4 330.5 20.7
-5 -1 -8 100.4 370.4 6.3
-5 -1 -7 160.1 329.2 8.8
-5 -1 -6 64.0 159.9 5.3
-5 -1 -5 275.9 701.0 11.0
-5 -1 -4 64.8 54.5 5.1
-5 -1 -3 101.5 240.1 7.4
-5 -1 -2 447.7 734.4 14.8
-5 -1 -1 333.7 759.4 12.7
-5 -1 0 267.9 304.0 10.3
-5 -1 1 315.4 777.0 13.6
-5 -1 2 451.4 729.7 15.6
-5 -1 3 78.4 244.4 4.6
-5 -1 4 75.0 56.8 4.5
-5 -1 5 263.9 683.4 9.1
-5 -1 6 70.3 156.7 5.8
-5 -1 7 183.4 321.3 9.0
-5 -1 8 89.2 374.5 6.9
-5 -1 9 626.4 333.9 24.4
-5 -1 10 138.4 138.9 7.8
-5 -1 11 22.5 87.9 5.5
-5 -1 12 70.9 42.1 5.9
-5 -1 13 160.6 403.1 10.6
-5 -1 14 511.8 615.7 34.7
-5 -1 15 242.3 642.8 20.1
-5 -1 16 122.1 226.9 15.0
-5 -1 17 352.4 439.1 29.4
-5 -1 18 204.8 336.7 21.0
-5 -1 20 50.8 127.4 20.4
-5 -1 23 58.5 15.9 15.5
-5 -1 25 81.2 62.6 20.1
-5 -1 28 58.0 50.8 18.3
-5 -1 29 143.0 248.6 33.3
-4 -14 -8 71.8 208.6 21.6
-4 -14 -6 40.0 25.9 13.0
-4 -14 -5 109.4 145.9 20.4
-4 -14 -3 238.5 322.5 28.5
-4 -14 -2 132.3 38.6 22.5
-4 -14 -1 59.9 12.0 14.8
-4 -14 1 40.9 12.7 14.3
-4 -14 2 100.8 39.4 19.6
-4 -14 3 232.6 318.5 35.1
-4 -14 4 24.8 179.3 12.5
-4 -14 5 65.4 142.0 15.8
-4 -14 6 48.8 27.4 14.6
-4 -14 8 25.5 209.5 13.7
-4 -13 -14 50.1 44.7 22.2
-4 -13 -13 107.5 136.6 19.5
-4 -13 -12 278.8 276.9 57.6
-4 -13 -11 250.5 450.1 53.0
-4 -13 -10 138.8 213.5 32.0
-4 -13 -8 85.3 83.4 25.1
-4 -13 -7 71.8 80.3 20.7
-4 -13 -6 53.1 72.7 12.2
-4 -13 -4 265.0 400.9 28.4
-4 -13 -3 111.9 48.9 18.8
-4 -13 -2 37.4 15.8 14.5
-4 -13 0 372.3 358.7 40.4
-4 -13 2 32.9 14.7 11.8
-4 -13 3 99.7 48.4 13.9
-4 -13 4 306.2 392.7 32.3
-4 -13 5 20.1 29.5 9.4
-4 -13 6 30.9 71.8 10.1
-4 -13 7 47.9 81.7 13.0
-4 -13 8 96.3 84.1 14.0
-4 -13 10 153.1 210.6 23.3
-4 -13 11 272.4 445.8 40.3
-4 -13 12 384.5 283.7 54.0
-4 -13 13 102.2 135.1 19.4
-4 -13 14 97.7 44.0 19.3
-4 -13 15 65.1 74.6 17.4
-4 -12 -15 28.8 106.5 10.9
-4 -12 -14 115.3 72.5 28.8
-4 -12 -13 109.7 153.4 26.3
-4 -12 -11 63.4 60.9 20.5
-4 -12 -10 199.8 243.4 33.5
-4 -12 -9 149.3 274.7 29.0
-4 -12 -7 28.3 68.9 7.6
-4 -12 -6 68.5 67.7 10.1
-4 -12 -5 106.5 198.8 12.6
-4 -12 -4 62.3 369.3 12.1
-4 -12 -1 45.0 52.5 11.2
-4 -12 0 24.7 41.8 10.9
-4 -12 1 63.7 54.8 18.9
-4 -12 4 60.2 377.3 12.2
-4 -12 5 91.9 204.4 14.7
-4 -12 6 40.7 65.7 9.3
-4 -12 7 29.8 69.4 9.1
-4 -12 9 128.4 280.8 15.0
-4 -12 10 259.4 241.2 30.3
-4 -12 11 24.3 58.2 10.0
-4 -12 13 52.8 152.9 13.2
-4 -12 14 40.7 73.4 20.0
-4 -12 18 24.7 13.9 13.7
-4 -11 -21 40.5 101.9 17.1
-4 -11 -20 229.9 287.9 33.8
-4 -11 -19 507.9 438.0 62.1
-4 -11 -18 323.5 219.9 41.4
-4 -11 -16 69.7 24.4 14.0
-4 -11 -15 117.5 271.1 16.6
-4 -11 -14 323.5 593.1 36.4
-4 -11 -12 304.4 1053.2 43.2
-4 -11 -11 154.4 213.2 28.2
-4 -11 -10 205.8 382.9 17.0
-4 -11 -9 47.9 166.5 7.5
-4 -11 -8 78.1 96.7 9.5
-4 -11 -7 94.2 3.2 14.2
-4 -11 -6 151.4 208.2 18.0
-4 -11 -5 162.3 191.8 15.1
-4 -11 -4 54.9 172.3 8.3
-4 -11 -3 38.9 31.0 12.4
-4 -11 -1 76.9 333.2 11.9
-4 -11 0 41.6 17.2 10.3
-4 -11 1 71.8 338.8 11.8
-4 -11 3 46.0 27.2 8.7
-4 -11 4 32.9 177.2 7.0
-4 -11 5 211.8 192.3 16.7
-4 -11 6 122.9 210.4 12.8
-4 -11 7 104.7 2.9 12.1
-4 -11 8 40.9 101.0 9.1
-4 -11 9 64.3 172.2 10.6
-4 -11 10 198.8 387.8 17.7
-4 -11 11 175.9 212.0 16.6
-4 -11 12 316.1 1046.8 25.4
-4 -11 13 14.6 134.7 8.8
-4 -11 14 256.6 590.4 29.0
-4 -11 15 201.3 277.0 24.7
-4 -11 16 49.6 24.5 12.5
-4 -11 17 25.5 22.8 11.6
-4 -11 18 381.1 215.0 48.3
-4 -11 19 538.2 440.3 66.3
-4 -11 20 246.6 283.1 36.1
-4 -11 21 57.2 99.6 20.6
-4 -11 22 108.3 195.2 28.7
-4 -10 -23 109.4 288.2 19.3
-4 -10 -22 119.8 78.2 19.5
-4 -10 -21 308.1 355.4 40.4
-4 -10 -20 245.5 254.1 45.3
-4 -10 -19 151.4 50.5 19.3
-4 -10 -18 28.3 129.4 15.8
-4 -10 -17 201.8 108.0 32.7
-4 -10 -16 280.6 354.7 28.0
-4 -10 -15 114.9 115.2 14.6
-4 -10 -13 41.4 9.1 13.7
-4 -10 -12 264.4 253.1 35.7
-4 -10 -11 227.3 407.1 20.5
-4 -10 -10 220.0 903.2 13.4
-4 -10 -9 390.0 364.2 33.0
-4 -10 -8 1008.5 945.9 59.8
-4 -10 -7 331.7 208.5 27.9
-4 -10 -6 95.3 169.7 9.9
-4 -10 -5 26.8 67.4 12.8
-4 -10 -4 108.3 120.2 12.3
-4 -10 -3 10.6 75.6 6.9
-4 -10 -2 30.3 69.5 6.3
-4 -10 -1 386.5 596.3 19.2
-4 -10 0 834.1 929.0 53.4
-4 -10 1 387.9 590.9 22.0
-4 -10 2 45.0 74.3 6.3
-4 -10 3 15.8 71.5 6.1
-4 -10 4 132.7 117.5 10.4
-4 -10 5 29.2 66.8 6.4
-4 -10 6 37.6 174.2 7.3
-4 -10 7 322.3 214.5 27.5
-4 -10 8 985.4 959.7 59.1
-4 -10 9 369.6 364.6 24.8
-4 -10 10 194.9 891.5 19.0
-4 -10 11 217.9 402.2 16.5
-4 -10 12 352.4 259.7 27.5
-4 -10 13 59.9 8.3 9.7
-4 -10 15 117.2 118.5 13.2
-4 -10 16 283.5 350.7 23.5
-4 -10 17 265.0 111.0 30.1
-4 -10 18 48.4 123.6 12.4
-4 -10 19 189.1 47.5 23.0
-4 -10 20 326.7 258.4 41.0
-4 -10 21 404.6 350.3 71.5
-4 -10 22 130.3 78.5 29.1
-4 -10 23 121.3 287.2 29.6
-4 -10 24 28.3 48.8 17.2
-4 -9 -26 101.8 167.1 18.6
-4 -9 -25 40.7 110.8 14.7
-4 -9 -23 83.7 280.1 20.7
-4 -9 -22 193.5 186.8 36.8
-4 -9 -21 274.7 295.8 31.2
-4 -9 -20 149.7 114.1 26.9
-4 -9 -19 248.8 236.4 35.2
-4 -9 -18 128.4 90.4 22.5
-4 -9 -17 371.6 407.6 34.3
-4 -9 -16 63.4 370.3 16.1
-4 -9 -15 19.4 251.2 7.2
-4 -9 -14 160.6 470.8 23.0
-4 -9 -13 393.4 107.5 29.7
-4 -9 -12 127.2 36.3 11.0
-4 -9 -11 611.7 589.0 37.1
-4 -9 -10 1446.4 1232.1 72.9
-4 -9 -9 290.0 331.6 32.1
-4 -9 -8 19.8 48.6 6.0
-4 -9 -7 791.4 883.3 40.2
-4 -9 -6 1087.5 1272.1 47.1
-4 -9 -5 47.9 36.5 5.5
-4 -9 -4 298.9 205.4 17.5
-4 -9 -3 201.3 331.0 11.4
-4 -9 -2 869.7 1148.2 39.1
-4 -9 -1 64.8 289.8 7.3
-4 -9 1 105.4 279.5 8.9
-4 -9 2 937.8 1139.4 41.6
-4 -9 3 133.5 325.0 9.3
-4 -9 4 259.9 196.9 14.1
-4 -9 5 45.3 32.7 6.6
-4 -9 6 956.0 1298.2 43.1
-4 -9 7 716.7 878.3 32.7
-4 -9 8 17.4 49.8 6.4
-4 -9 9 270.1 337.6 17.2
-4 -9 10 1431.8 1250.3 72.5
-4 -9 11 593.7 583.0 36.5
-4 -9 12 107.5 32.7 10.8
-4 -9 13 415.9 110.9 27.0
-4 -9 14 184.8 465.0 15.2
-4 -9 15 25.9 244.7 8.2
-4 -9 16 61.2 375.9 9.3
-4 -9 17 282.9 401.7 22.9
-4 -9 18 183.9 93.8 16.5
-4 -9 19 198.3 234.9 21.1
-4 -9 20 145.9 110.7 18.9
-4 -9 21 281.7 289.5 30.4
-4 -9 22 259.9 185.7 48.9
-4 -9 23 107.5 277.1 25.3
-4 -9 25 50.8 110.1 21.4
-4 -9 26 105.0 170.6 27.9
-4 -8 -28 56.2 264.6 20.6
-4 -8 -27 138.4 201.3 23.0
-4 -8 -26 86.3 68.8 16.5
-4 -8 -24 105.0 76.6 17.1
-4 -8 -23 68.8 26.7 10.7
-4 -8 -22 64.8 163.9 13.2
-4 -8 -21 54.1 545.7 16.4
-4 -8 -20 115.6 54.5 19.1
-4 -8 -19 302.0 797.3 29.1
-4 -8 -18 208.3 507.4 20.1
-4 -8 -17 41.8 142.4 9.7
-4 -8 -16 288.8 843.6 24.3
-4 -8 -15 338.1 261.3 37.8
-4 -8 -14 67.4 178.6 7.2
-4 -8 -13 236.9 283.0 16.6
-4 -8 -12 866.6 1438.9 54.4
-4 -8 -11 680.8 753.1 43.7
-4 -8 -10 411.6 316.5 38.9
-4 -8 -9 176.4 51.3 13.9
-4 -8 -8 745.9 867.6 38.1
-4 -8 -7 161.9 312.5 12.4
-4 -8 -6 180.1 227.2 8.4
-4 -8 -5 217.9 618.2 9.3
-4 -8 -4 532.5 1013.9 20.1
-4 -8 -3 773.8 1292.2 27.2
-4 -8 -2 97.7 195.9 6.5
-4 -8 -1 857.4 1271.8 30.6
-4 -8 0 2055.2 2269.2 69.5
-4 -8 1 925.0 1265.4 29.7
-4 -8 2 97.7 200.1 6.5
-4 -8 3 645.8 1299.3 33.7
-4 -8 4 458.1 998.6 17.9
-4 -8 5 250.5 618.6 12.1
-4 -8 6 139.2 220.0 9.9
-4 -8 7 117.2 310.5 8.3
-4 -8 8 715.8 879.5 27.0
-4 -8 9 181.5 50.0 11.3
-4 -8 10 322.3 306.5 23.8
-4 -8 11 631.7 757.6 34.2
-4 -8 12 829.1 1433.1 53.2
-4 -8 13 281.7 278.2 17.6
-4 -8 14 54.6 181.4 8.2
-4 -8 15 370.9 258.9 24.8
-4 -8 16 338.1 857.3 23.1
-4 -8 17 30.3 148.3 7.7
-4 -8 18 181.5 505.6 17.8
-4 -8 19 239.5 803.0 24.8
-4 -8 20 172.7 55.9 15.6
-4 -8 21 68.3 550.7 11.8
-4 -8 22 61.2 169.0 18.0
-4 -8 23 106.5 26.9 22.3
-4 -8 24 81.8 75.8 21.1
-4 -8 26 92.2 66.9 23.4
-4 -8 27 131.9 197.4 32.4
-4 -8 28 42.3 262.7 19.5
-4 -7 -29 153.6 205.4 35.4
-4 -7 -28 100.8 182.3 17.8
-4 -7 -26 164.1 119.0 33.5
-4 -7 -23 118.3 272.5 15.2
-4 -7 -22 36.4 61.7 8.8
-4 -7 -21 46.7 101.5 14.5
-4 -7 -19 31.5 24.1 12.5
-4 -7 -18 19.4 329.6 7.8
-4 -7 -17 42.7 299.4 9.1
-4 -7 -16 55.9 59.3 13.0
-4 -7 -15 123.3 112.9 16.6
-4 -7 -14 41.8 6.5 5.9
-4 -7 -13 347.8 233.1 24.1
-4 -7 -12 73.2 15.6 6.3
-4 -7 -11 38.1 217.7 11.8
-4 -7 -10 446.2 379.7 24.3
-4 -7 -9 817.1 398.3 32.9
-4 -7 -8 572.7 975.4 30.9
-4 -7 -7 134.3 13.5 9.7
-4 -7 -6 585.3 1002.8 31.2
-4 -7 -5 792.3 2793.8 27.5
-4 -7 -4 251.6 573.3 10.0
-4 -7 -3 165.5 189.8 9.0
-4 -7 -2 1566.8 2124.8 46.9
-4 -7 -1 698.2 634.2 28.6
-4 -7 0 1696.3 3276.0 57.4
-4 -7 1 594.6 646.0 17.8
-4 -7 2 1453.0 2128.1 43.8
-4 -7 3 219.0 182.2 11.9
-4 -7 4 260.5 563.5 13.5
-4 -7 5 769.9 2808.8 39.7
-4 -7 6 641.4 994.7 23.8
-4 -7 7 168.2 14.9 8.6
-4 -7 8 579.4 969.3 20.1
-4 -7 9 862.5 406.5 31.7
-4 -7 10 440.4 372.0 18.3
-4 -7 11 43.2 213.4 8.7
-4 -7 12 68.5 15.5 6.9
-4 -7 13 338.8 241.7 17.3
-4 -7 14 62.3 6.4 8.5
-4 -7 15 71.5 109.4 6.5
-4 -7 16 35.9 57.0 7.5
-4 -7 17 40.9 301.9 7.8
-4 -7 18 39.2 322.2 7.9
-4 -7 20 17.9 135.5 8.3
-4 -7 21 20.7 103.8 7.0
-4 -7 22 42.5 62.7 10.9
-4 -7 23 112.3 279.2 22.5
-4 -7 24 35.9 80.2 15.3
-4 -7 25 168.2 214.6 30.7
-4 -7 26 201.3 118.8 39.6
-4 -7 28 167.7 181.9 36.6
-4 -7 29 245.0 201.8 50.2
-4 -6 -30 37.0 31.8 12.7
-4 -6 -29 70.3 86.5 15.2
-4 -6 -27 133.5 78.3 27.8
-4 -6 -26 158.4 263.7 20.2
-4 -6 -25 13.0 102.1 8.2
-4 -6 -24 68.8 324.9 11.9
-4 -6 -23 74.1 820.6 15.9
-4 -6 -22 73.8 176.8 15.0
-4 -6 -21 436.7 1687.8 47.4
-4 -6 -20 18.8 168.2 11.8
-4 -6 -19 88.6 58.5 14.8
-4 -6 -18 279.4 200.6 29.1
-4 -6 -17 52.8 373.1 7.1
-4 -6 -15 40.9 2.9 11.6
-4 -6 -14 294.1 234.7 17.3
-4 -6 -13 66.3 198.4 11.9
-4 -6 -12 21.5 361.6 11.2
-4 -6 -11 68.5 157.7 6.9
-4 -6 -10 204.3 466.8 12.5
-4 -6 -8 73.2 185.5 7.2
-4 -6 -7 208.3 277.4 12.1
-4 -6 -6 208.3 908.2 9.1
-4 -6 -5 270.1 256.2 9.2
-4 -6 -4 87.3 220.1 5.2
-4 -6 -3 1248.2 1413.4 39.4
-4 -6 -2 355.0 80.6 12.5
-4 -6 -1 404.6 622.9 15.4
-4 -6 1 394.8 624.3 12.5
-4 -6 2 389.3 75.5 12.4
-4 -6 3 1270.4 1387.3 33.5
-4 -6 4 78.1 211.8 5.2
-4 -6 5 273.0 252.8 8.6
-4 -6 6 231.0 898.6 9.5
-4 -6 7 223.1 283.6 8.3
-4 -6 8 62.1 180.4 4.9
-4 -6 10 202.8 457.0 8.4
-4 -6 11 67.1 154.2 6.0
-4 -6 12 23.1 371.1 4.5
-4 -6 13 113.4 190.1 7.4
-4 -6 14 247.2 247.4 8.8
-4 -6 15 23.6 2.2 3.6
-4 -6 17 45.0 376.4 7.5
-4 -6 18 249.4 203.7 28.1
-4 -6 19 81.2 56.3 9.7
-4 -6 20 58.0 173.0 11.4
-4 -6 21 378.4 1676.1 25.1
-4 -6 22 56.7 176.7 8.4
-4 -6 23 94.9 809.6 19.0
-4 -6 24 65.7 335.4 13.8
-4 -6 25 44.6 106.0 17.0
-4 -6 26 176.4 262.2 31.5
-4 -6 27 100.4 78.1 24.5
-4 -6 28 28.8 12.5 15.7
-4 -6 29 123.7 84.4 29.8
-4 -6 30 48.8 32.7 19.7
-4 -5 -31 34.9 247.2 11.5
-4 -5 -30 50.8 120.5 13.7
-4 -5 -27 37.4 60.7 15.8
-4 -5 -26 21.8 31.2 14.3
-4 -5 -25 60.7 27.8 17.1
-4 -5 -24 56.7 262.8 10.2
-4 -5 -23 50.8 158.3 8.7
-4 -5 -22 42.5 126.4 7.3
-4 -5 -21 78.7 314.0 13.9
-4 -5 -20 326.1 809.9 32.1
-4 -5 -19 242.3 317.7 25.0
-4 -5 -18 191.0 225.6 20.7
-4 -5 -17 255.5 435.8 18.9
-4 -5 -16 927.2 1287.4 37.2
-4 -5 -15 634.3 1368.7 44.8
-4 -5 -14 14.3 71.4 8.6
-4 -5 -13 34.1 407.9 10.6
-4 -5 -12 47.2 336.3 11.5
-4 -5 -10 134.7 276.5 8.5
-4 -5 -9 16.4 49.7 4.5
-4 -5 -8 519.7 385.4 21.5
-4 -5 -7 342.0 614.4 13.5
-4 -5 -6 342.6 917.2 14.8
-4 -5 -5 542.2 687.1 18.7
-4 -5 -4 879.0 1197.2 25.8
-4 -5 -3 374.3 559.4 12.1
-4 -5 -2 72.0 125.3 4.1
-4 -5 -1 831.1 379.4 22.1
-4 -5 0 447.0 795.7 11.8
-4 -5 1 778.7 369.5 21.4
-4 -5 2 93.6 129.4 4.7
-4 -5 3 327.3 558.5 9.5
-4 -5 4 813.1 1207.9 19.9
-4 -5 5 611.7 684.0 14.7
-4 -5 6 334.3 928.3 8.9
-4 -5 7 348.5 600.6 10.4
-4 -5 8 583.6 386.5 18.5
-4 -5 10 128.4 264.7 7.1
-4 -5 11 41.4 50.7 4.5
-4 -5 12 68.0 323.8 4.0
-4 -5 13 16.4 415.3 2.7
-4 -5 14 21.0 74.2 3.0
-4 -5 15 566.9 1348.9 17.4
-4 -5 16 837.1 1307.9 30.3
-4 -5 17 316.1 424.2 19.8
-4 -5 18 179.6 218.8 11.2
-4 -5 19 251.6 311.7 16.0
-4 -5 20 343.3 809.0 16.8
-4 -5 21 69.1 311.1 12.5
-4 -5 22 22.8 133.8 10.3
-4 -5 24 30.7 256.8 11.8
-4 -5 25 65.4 27.5 13.0
-4 -5 27 41.8 57.8 16.0
-4 -5 30 71.8 118.5 23.3
-4 -5 31 50.3 251.1 20.3
-4 -4 -32 76.9 361.8 16.2
-4 -4 -30 29.8 0.4 10.6
-4 -4 -29 34.9 14.5 10.9
-4 -4 -28 17.1 7.0 10.1
-4 -4 -27 28.3 138.6 9.5
-4 -4 -26 137.2 268.3 25.7
-4 -4 -25 382.4 1140.5 51.8
-4 -4 -24 87.3 84.7 12.0
-4 -4 -23 159.7 585.0 20.3
-4 -4 -22 121.0 181.9 18.0
-4 -4 -21 1210.3 1259.7 74.0
-4 -4 -20 183.9 63.8 14.7
-4 -4 -19 46.2 169.3 7.8
-4 -4 -18 599.7 461.7 52.9
-4 -4 -17 568.5 553.9 29.1
-4 -4 -16 775.8 1407.9 31.1
-4 -4 -15 23.1 283.2 6.7
-4 -4 -13 278.8 518.5 23.3
-4 -4 -12 40.7 128.6 10.7
-4 -4 -11 46.0 59.3 10.6
-4 -4 -10 938.9 1508.7 43.8
-4 -4 -9 712.1 903.5 35.3
-4 -4 -8 135.2 362.2 7.7
-4 -4 -7 266.7 209.9 12.0
-4 -4 -6 1122.2 1230.1 50.2
-4 -4 -5 1533.8 2413.6 54.6
-4 -4 -4 148.9 407.3 6.8
-4 -4 -3 124.4 179.2 5.1
-4 -4 -2 93.2 149.9 4.4
-4 -4 -1 822.1 1069.8 16.0
-4 -4 0 11.0 75.0 2.8
-4 -4 1 799.2 1091.3 15.8
-4 -4 2 86.3 148.9 3.9
-4 -4 3 143.8 179.0 5.4
-4 -4 4 156.6 418.0 6.1
-4 -4 5 1442.4 2416.7 31.8
-4 -4 6 1039.7 1234.6 25.9
-4 -4 7 281.7 200.9 9.4
-4 -4 8 141.7 363.8 5.0
-4 -4 9 749.8 892.4 17.2
-4 -4 10 955.0 1509.2 23.7
-4 -4 11 57.5 67.0 2.6
-4 -4 12 47.9 134.9 2.7
-4 -4 13 281.7 514.9 9.9
-4 -4 14 576.0 1056.4 21.8
-4 -4 15 41.6 289.4 4.5
-4 -4 16 701.9 1408.9 25.9
-4 -4 17 562.7 539.4 19.0
-4 -4 18 470.9 470.8 16.6
-4 -4 19 28.6 171.2 4.3
-4 -4 20 149.3 60.8 11.1
-4 -4 21 1128.1 1261.5 71.4
-4 -4 22 131.5 189.9 14.8
-4 -4 23 176.9 579.7 18.5
-4 -4 24 71.8 86.6 13.0
-4 -4 25 358.9 1148.7 34.3
-4 -4 26 66.0 261.8 14.7
-4 -4 27 74.1 145.8 17.7
-4 -4 28 59.6 8.3 18.6
-4 -4 32 75.0 364.5 21.1
-4 -3 -33 41.4 114.8 19.5
-4 -3 -31 285.8 498.5 37.1
-4 -3 -30 37.6 153.1 10.7
-4 -3 -29 151.4 473.8 26.6
-4 -3 -28 97.7 79.7 15.8
-4 -3 -27 982.1 1995.8 118.0
-4 -3 -26 80.6 69.1 19.4
-4 -3 -25 190.1 657.1 26.9
-4 -3 -24 158.4 417.0 22.8
-4 -3 -22 106.1 117.0 9.0
-4 -3 -21 110.1 272.7 10.6
-4 -3 -20 156.2 118.4 12.6
-4 -3 -19 324.8 19.8 18.2
-4 -3 -18 145.1 198.8 10.5
-4 -3 -17 305.6 429.7 14.0
-4 -3 -16 553.7 240.1 23.0
-4 -3 -15 319.8 864.2 18.7
-4 -3 -14 82.8 157.5 13.0
-4 -3 -13 152.3 547.9 15.9
-4 -3 -12 169.1 275.6 17.2
-4 -3 -11 169.1 1.7 17.2
-4 -3 -10 30.1 260.1 8.8
-4 -3 -9 545.5 1014.3 22.8
-4 -3 -8 1650.6 2295.1 75.1
-4 -3 -7 128.4 340.3 8.3
-4 -3 -6 295.9 496.3 18.6
-4 -3 -5 380.4 170.9 13.6
-4 -3 -4 846.2 1230.8 19.3
-4 -3 -3 569.3 572.5 12.5
-4 -3 -2 220.0 71.5 5.7
-4 -3 -1 47.4 133.1 3.4
-4 -3 0 26.4 147.3 2.7
-4 -3 1 53.8 130.4 3.3
-4 -3 2 216.9 66.6 5.6
-4 -3 3 528.5 594.4 10.4
-4 -3 4 834.1 1208.4 18.1
-4 -3 5 399.7 170.2 9.8
-4 -3 6 250.5 502.9 6.6
-4 -3 7 125.6 351.3 6.3
-4 -3 8 1814.6 2292.9 46.0
-4 -3 9 600.5 1013.3 17.1
-4 -3 10 40.9 250.9 3.3
-4 -3 11 176.4 1.2 6.5
-4 -3 12 155.3 283.7 5.6
-4 -3 13 116.8 544.0 5.7
-4 -3 14 86.6 165.4 4.9
-4 -3 15 345.2 847.6 14.9
-4 -3 16 565.2 232.9 19.9
-4 -3 17 294.7 436.4 12.6
-4 -3 18 132.7 203.0 13.7
-4 -3 19 329.2 19.1 13.9
-4 -3 20 151.4 114.0 15.0
-4 -3 21 97.3 265.2 8.6
-4 -3 22 104.3 122.5 14.2
-4 -3 23 874.8 1080.6 65.0
-4 -3 24 200.3 410.6 20.2
-4 -3 25 259.4 672.1 23.6
-4 -3 26 59.6 72.0 13.5
-4 -3 27 817.1 2000.6 70.7
-4 -3 28 103.6 76.3 22.4
-4 -3 29 210.8 469.6 35.4
-4 -3 30 29.4 151.6 14.9
-4 -3 33 40.5 113.9 15.7
-4 -2 -33 58.3 270.6 14.4
-4 -2 -32 233.7 299.5 34.1
-4 -2 -31 139.2 194.6 29.6
-4 -2 -29 49.6 179.9 12.3
-4 -2 -28 75.0 368.5 13.3
-4 -2 -27 269.6 360.3 37.2
-4 -2 -26 130.3 178.6 15.9
-4 -2 -25 273.0 688.2 24.2
-4 -2 -24 652.0 842.6 70.3
-4 -2 -23 441.1 611.5 33.7
-4 -2 -22 96.6 184.7 7.2
-4 -2 -21 90.6 7.5 9.0
-4 -2 -20 154.4 407.6 12.1
-4 -2 -19 671.7 1168.7 33.4
-4 -2 -18 778.7 1451.1 37.9
-4 -2 -17 219.5 586.8 11.4
-4 -2 -16 315.4 772.4 14.2
-4 -2 -15 343.3 33.1 18.7
-4 -2 -14 178.7 379.4 18.6
-4 -2 -13 201.3 210.3 18.3
-4 -2 -12 144.6 56.7 10.1
-4 -2 -11 827.1 1179.8 40.1
-4 -2 -9 345.9 343.5 13.6
-4 -2 -8 226.3 461.5 10.5
-4 -2 -7 2714.1 4341.7 90.8
-4 -2 -6 1455.7 1045.8 31.9
-4 -2 -5 181.5 261.2 6.6
-4 -2 -4 1122.2 1369.1 25.7
-4 -2 -3 302.0 143.5 7.9
-4 -2 -2 269.6 781.8 7.4
-4 -2 -1 7.0 31.2 2.8
-4 -2 0 16.1 16.0 2.8
-4 -2 1 17.9 32.4 2.8
-4 -2 2 263.9 777.0 6.2
-4 -2 3 289.4 149.5 6.5
-4 -2 4 1085.2 1381.1 20.7
-4 -2 5 182.0 256.8 5.6
-4 -2 6 1328.2 1036.1 22.9
-4 -2 7 2697.8 4357.6 56.1
-4 -2 8 283.5 467.1 7.6
-4 -2 9 366.2 330.8 12.0
-4 -2 10 313.6 239.0 10.5
-4 -2 11 798.2 1176.5 24.6
-4 -2 12 119.0 61.0 6.5
-4 -2 13 205.8 207.2 7.5
-4 -2 14 212.8 389.1 9.2
-4 -2 15 322.9 36.2 12.5
-4 -2 16 308.1 773.5 11.0
-4 -2 17 212.8 581.2 13.2
-4 -2 18 765.1 1425.9 41.5
-4 -2 19 731.7 1176.1 39.6
-4 -2 20 158.4 408.7 9.2
-4 -2 21 117.2 7.2 9.4
-4 -2 22 111.9 183.2 18.8
-4 -2 23 490.8 607.4 34.8
-4 -2 24 595.4 858.7 45.9
-4 -2 25 228.4 673.7 34.2
-4 -2 26 92.2 176.1 15.4
-4 -2 27 282.9 358.9 43.4
-4 -2 30 21.3 48.6 12.7
-4 -2 31 84.7 195.1 21.8
-4 -2 32 251.6 302.5 50.9
-4 -2 33 72.3 272.6 21.9
-4 -1 -33 66.3 238.7 21.3
-4 -1 -32 140.5 211.1 21.1
-4 -1 -31 35.9 82.5 11.9
-4 -1 -30 40.0 55.2 11.9
-4 -1 -29 359.6 899.2 54.9
-4 -1 -28 165.9 349.0 18.9
-4 -1 -27 125.6 180.7 15.6
-4 -1 -26 121.3 134.2 20.0
-4 -1 -25 251.0 309.8 22.1
-4 -1 -24 263.3 414.0 31.7
-4 -1 -23 56.4 493.6 9.2
-4 -1 -22 37.6 2.8 7.9
-4 -1 -21 189.1 281.2 11.5
-4 -1 -20 112.7 246.3 7.8
-4 -1 -19 61.2 21.0 5.7
-4 -1 -18 352.4 939.2 15.7
-4 -1 -17 351.7 281.3 13.7
-4 -1 -16 279.4 376.1 11.7
-4 -1 -15 306.8 688.5 14.0
-4 -1 -14 24.3 81.2 7.2
-4 -1 -13 1110.6 1042.0 51.1
-4 -1 -12 560.2 940.5 23.1
-4 -1 -11 139.2 342.0 8.6
-4 -1 -10 225.2 485.9 9.9
-4 -1 -9 121.3 44.7 6.1
-4 -1 -8 1037.5 1369.0 23.6
-4 -1 -7 850.3 2818.6 18.3
-4 -1 -6 744.0 1049.7 18.1
-4 -1 -5 1138.6 685.5 25.9
-4 -1 -4 559.4 1024.7 12.4
-4 -1 -3 46.2 231.3 3.6
-4 -1 -2 185.3 187.8 6.2
-4 -1 -1 77.8 971.9 4.6
-4 -1 0 838.1 1171.4 16.1
-4 -1 1 74.7 961.5 3.6
-4 -1 2 231.0 179.8 6.9
-4 -1 3 49.8 240.9 3.0
-4 -1 4 542.2 1012.9 10.6
-4 -1 5 1072.6 703.2 21.7
-4 -1 6 764.1 1046.5 15.4
-4 -1 7 857.4 2803.7 18.4
-4 -1 8 971.2 1349.0 22.8
-4 -1 9 115.3 49.0 5.6
-4 -1 10 248.8 471.1 10.4
-4 -1 11 138.4 351.9 7.8
-4 -1 12 548.7 957.7 16.3
-4 -1 13 985.4 1042.5 30.6
-4 -1 14 46.2 77.1 8.5
-4 -1 15 340.0 686.4 20.6
-4 -1 16 300.8 367.8 14.5
-4 -1 17 349.8 282.1 14.3
-4 -1 18 271.9 926.7 18.4
-4 -1 19 62.3 23.7 11.0
-4 -1 20 97.7 238.9 12.1
-4 -1 21 185.8 275.8 25.7
-4 -1 23 52.8 493.5 11.7
-4 -1 24 317.3 409.3 39.1
-4 -1 25 271.3 302.7 37.9
-4 -1 26 121.3 131.1 25.0
-4 -1 27 123.3 186.0 26.7
-4 -1 28 138.8 350.2 28.8
-4 -1 29 285.2 890.2 46.5
-4 -1 30 67.1 56.9 17.1
-4 -1 32 97.7 215.6 24.8
-4 -1 33 73.8 239.6 22.2
-3 -15 -11 36.8 39.9 16.5
-3 -15 -10 296.5 416.0 42.6
-3 -15 -8 91.6 10.4 27.4
-3 -15 -6 751.7 1004.9 146.2
-3 -15 -5 210.3 249.9 31.8
-3 -15 -4 33.5 98.2 11.3
-3 -15 -3 21.8 23.1 12.4
-3 -15 -2 433.1 317.0 54.4
-3 -15 0 66.8 232.0 15.1
-3 -15 2 375.6 313.3 66.9
-3 -15 5 227.3 249.4 49.4
-3 -15 6 748.8 1007.1 101.1
-3 -15 7 204.3 46.3 31.4
-3 -15 9 78.4 74.6 17.3
-3 -15 10 227.8 417.4 34.7
-3 -15 11 74.4 37.4 23.8
-3 -14 -16 261.1 326.5 55.2
-3 -14 -15 32.3 43.5 11.9
-3 -14 -14 59.6 68.1 14.5
-3 -14 -13 72.3 71.7 23.4
-3 -14 -12 107.5 121.6 28.2
-3 -14 -10 131.1 292.3 20.8
-3 -14 -9 111.9 138.5 18.1
-3 -14 -8 167.7 143.5 19.4
-3 -14 -6 219.5 119.8 25.8
-3 -14 -5 654.7 876.9 67.8
-3 -14 -4 38.5 7.0 12.1
-3 -14 -3 208.8 302.7 24.2
-3 -14 -2 171.3 143.0 21.9
-3 -14 -1 57.5 89.0 11.9
-3 -14 1 19.1 92.1 11.6
-3 -14 3 170.0 303.6 21.8
-3 -14 4 43.6 7.7 12.7
-3 -14 5 680.8 882.8 70.0
-3 -14 6 229.9 118.5 22.2
-3 -14 7 18.5 27.7 9.2
-3 -14 8 148.9 142.0 21.7
-3 -14 9 113.8 134.0 19.3
-3 -14 10 128.0 292.5 20.1
-3 -14 12 47.9 120.3 13.0
-3 -14 13 132.3 74.2 28.5
-3 -14 14 35.3 65.0 13.7
-3 -14 16 277.1 320.7 40.6
-3 -13 -20 27.0 49.6 13.4
-3 -13 -19 253.2 386.7 54.9
-3 -13 -18 185.8 378.1 29.0
-3 -13 -17 86.3 215.5 15.2
-3 -13 -15 329.2 297.4 60.1
-3 -13 -12 58.8 26.8 17.1
-3 -13 -11 325.4 219.9 35.2
-3 -13 -10 14.3 35.4 9.1
-3 -13 -9 374.3 384.7 29.0
-3 -13 -8 193.0 165.4 17.4
-3 -13 -7 532.5 395.6 48.3
-3 -13 -6 101.5 14.4 15.1
-3 -13 -5 342.6 246.6 26.5
-3 -13 -4 393.4 308.4 30.4
-3 -13 -3 38.9 47.1 8.5
-3 -13 -2 22.8 21.5 8.2
-3 -13 -1 53.1 22.0 11.2
-3 -13 0 22.5 21.5 8.3
-3 -13 1 42.7 23.4 8.9
-3 -13 3 27.0 47.7 10.3
-3 -13 4 362.9 310.5 34.5
-3 -13 5 277.6 244.2 28.5
-3 -13 6 88.3 13.6 11.8
-3 -13 7 554.5 407.7 41.0
-3 -13 8 194.9 164.1 21.4
-3 -13 9 410.9 383.6 38.9
-3 -13 11 333.7 221.9 29.9
-3 -13 12 47.4 27.0 10.6
-3 -13 13 43.6 55.2 12.7
-3 -13 14 16.4 33.2 10.6
-3 -13 15 331.7 299.1 41.9
-3 -13 16 31.5 1.9 12.5
-3 -13 17 34.3 213.3 12.7
-3 -13 18 173.2 370.0 27.5
-3 -13 19 277.6 385.5 32.5
-3 -13 20 48.8 47.1 13.4
-3 -12 -23 34.3 29.1 11.2
-3 -12 -22 67.7 113.9 12.6
-3 -12 -20 83.4 76.8 14.3
-3 -12 -19 109.0 198.4 25.1
-3 -12 -18 34.9 159.6 15.2
-3 -12 -17 373.6 254.0 33.0
-3 -12 -16 47.4 81.0 9.1
-3 -12 -13 438.9 750.6 32.1
-3 -12 -12 202.8 328.1 19.9
-3 -12 -11 129.5 509.3 12.3
-3 -12 -9 202.3 242.0 15.4
-3 -12 -8 63.7 243.1 10.3
-3 -12 -7 228.4 276.8 20.5
-3 -12 -6 285.2 175.5 24.1
-3 -12 -5 468.6 765.7 37.0
-3 -12 -4 23.3 261.2 9.1
-3 -12 -3 283.5 285.2 34.6
-3 -12 -2 205.3 313.6 19.5
-3 -12 -1 111.9 179.9 14.0
-3 -12 0 74.7 0.2 8.7
-3 -12 1 71.5 181.4 10.9
-3 -12 2 169.5 319.9 13.6
-3 -12 3 225.2 286.5 16.7
-3 -12 4 13.9 255.1 7.3
-3 -12 5 352.4 767.5 30.1
-3 -12 6 287.0 179.5 20.1
-3 -12 7 191.5 271.8 15.4
-3 -12 8 81.8 243.8 10.1
-3 -12 9 149.7 249.9 12.8
-3 -12 10 51.3 65.3 8.5
-3 -12 11 173.6 508.1 15.6
-3 -12 12 190.1 325.1 16.8
-3 -12 13 467.9 747.3 42.2
-3 -12 16 39.8 80.3 14.5
-3 -12 17 375.6 259.8 40.5
-3 -12 18 76.6 163.7 10.7
-3 -12 19 47.4 200.0 9.4
-3 -12 20 62.6 72.8 10.8
-3 -12 21 22.1 35.6 11.8
-3 -12 22 60.7 116.9 14.7
-3 -11 -26 277.1 216.1 40.0
-3 -11 -25 38.3 31.1 11.6
-3 -11 -24 86.6 72.1 13.3
-3 -11 -23 79.9 170.9 12.2
-3 -11 -22 71.5 51.3 10.3
-3 -11 -21 30.7 20.7 7.3
-3 -11 -20 42.7 299.4 10.7
-3 -11 -19 51.1 130.6 11.0
-3 -11 -18 45.3 114.0 10.3
-3 -11 -17 70.6 4.5 9.7
-3 -11 -16 745.0 1017.4 53.3
-3 -11 -15 269.6 473.3 19.5
-3 -11 -14 195.4 420.0 12.7
-3 -11 -13 805.2 761.6 59.3
-3 -11 -12 188.2 99.6 16.7
-3 -11 -11 403.2 267.3 25.9
-3 -11 -10 230.5 213.0 16.4
-3 -11 -9 83.4 281.2 8.3
-3 -11 -8 661.8 601.3 30.5
-3 -11 -7 756.5 1729.6 39.3
-3 -11 -6 413.7 342.6 26.9
-3 -11 -5 618.6 1115.2 28.6
-3 -11 -4 985.4 936.8 62.4
-3 -11 -3 928.2 1544.6 41.4
-3 -11 -2 219.5 504.1 17.6
-3 -11 -1 303.8 330.2 17.6
-3 -11 0 412.3 742.5 28.3
-3 -11 1 307.4 340.1 18.3
-3 -11 2 196.4 510.1 13.2
-3 -11 3 807.1 1542.1 42.6
-3 -11 4 879.0 949.7 45.5
-3 -11 5 584.4 1125.6 32.0
-3 -11 6 396.2 329.0 20.1
-3 -11 7 731.7 1720.8 33.9
-3 -11 8 722.3 600.2 46.8
-3 -11 9 131.5 285.1 13.6
-3 -11 10 274.7 205.2 24.3
-3 -11 11 348.5 262.0 23.4
-3 -11 12 190.1 95.2 15.4
-3 -11 13 852.3 760.0 51.9
-3 -11 14 170.0 424.0 14.5
-3 -11 15 305.6 470.3 21.3
-3 -11 16 658.2 1033.4 47.4
-3 -11 17 62.3 4.1 12.7
-3 -11 18 28.6 117.9 7.1
-3 -11 19 41.6 130.3 7.9
-3 -11 20 39.6 296.8 8.1
-3 -11 21 45.5 23.0 8.5
-3 -11 22 72.0 48.6 14.5
-3 -11 23 37.0 168.9 12.7
-3 -11 24 88.3 73.3 16.4
-3 -11 26 249.4 216.5 51.7
-3 -10 -28 70.6 163.0 14.3
-3 -10 -27 210.3 204.5 25.8
-3 -10 -26 127.2 323.1 15.7
-3 -10 -25 13.4 68.3 8.5
-3 -10 -24 174.5 225.1 21.2
-3 -10 -23 137.2 105.9 13.1
-3 -10 -22 344.6 454.8 25.9
-3 -10 -21 60.2 183.8 10.8
-3 -10 -20 80.9 80.8 10.3
-3 -10 -19 138.8 300.3 16.4
-3 -10 -18 52.6 75.7 10.4
-3 -10 -17 247.7 599.6 21.4
-3 -10 -16 369.6 164.4 29.5
-3 -10 -15 607.4 756.5 31.8
-3 -10 -14 1311.8 1761.0 56.8
-3 -10 -13 156.2 112.6 10.9
-3 -10 -12 90.9 31.5 8.0
-3 -10 -11 109.0 83.9 8.4
-3 -10 -10 330.5 129.1 16.5
-3 -10 -9 151.4 60.3 9.4
-3 -10 -8 459.6 813.5 15.7
-3 -10 -7 170.4 396.7 7.7
-3 -10 -6 316.7 556.2 11.8
-3 -10 -5 47.2 10.7 5.3
-3 -10 -4 532.5 689.7 28.2
-3 -10 -3 563.5 719.9 24.0
-3 -10 -2 78.1 590.5 7.1
-3 -10 -1 1319.4 1500.5 64.6
-3 -10 0 1339.7 764.1 52.3
-3 -10 1 1275.4 1479.9 51.0
-3 -10 2 67.1 581.8 6.9
-3 -10 3 594.6 711.6 32.3
-3 -10 4 491.5 688.9 22.4
-3 -10 5 71.8 10.2 8.0
-3 -10 6 328.6 544.9 14.5
-3 -10 7 168.6 399.4 9.5
-3 -10 8 398.3 806.3 16.7
-3 -10 9 137.2 63.9 11.0
-3 -10 10 317.9 125.1 23.0
-3 -10 11 118.7 90.3 10.6
-3 -10 12 83.7 34.3 9.6
-3 -10 13 165.0 116.3 15.2
-3 -10 14 1181.4 1776.4 59.9
-3 -10 15 610.0 770.2 37.9
-3 -10 16 373.6 171.3 24.9
-3 -10 17 279.4 609.0 18.6
-3 -10 18 55.6 73.4 7.3
-3 -10 19 149.3 294.6 12.4
-3 -10 20 75.6 82.0 8.2
-3 -10 21 32.9 183.2 7.6
-3 -10 22 355.0 445.4 30.2
-3 -10 23 177.8 110.8 21.4
-3 -10 24 157.5 228.0 20.6
-3 -10 25 23.6 70.0 15.3
-3 -10 26 148.4 318.7 32.7
-3 -10 27 209.8 200.0 43.9
-3 -10 28 86.0 167.3 22.6
-3 -9 -30 54.1 161.3 20.3
-3 -9 -28 70.6 32.0 11.1
-3 -9 -27 44.1 67.6 11.8
-3 -9 -26 30.9 185.6 7.9
-3 -9 -25 696.3 691.9 70.8
-3 -9 -24 98.0 227.2 10.4
-3 -9 -23 14.3 164.3 6.1
-3 -9 -22 101.1 98.5 9.8
-3 -9 -21 242.3 375.7 21.7
-3 -9 -20 186.2 17.8 17.6
-3 -9 -19 178.7 406.0 16.3
-3 -9 -18 453.6 326.6 29.0
-3 -9 -17 387.9 376.4 21.3
-3 -9 -16 33.1 22.0 12.8
-3 -9 -15 62.3 290.1 7.7
-3 -9 -14 66.5 29.0 9.1
-3 -9 -13 248.3 245.5 16.5
-3 -9 -12 635.2 929.7 27.2
-3 -9 -11 87.0 167.4 6.5
-3 -9 -10 1204.2 1878.5 48.4
-3 -9 -9 107.9 289.5 7.2
-3 -9 -8 224.7 563.9 8.9
-3 -9 -7 111.6 101.0 7.0
-3 -9 -6 247.2 191.9 11.5
-3 -9 -5 65.7 368.5 5.1
-3 -9 -4 104.7 171.6 8.6
-3 -9 -3 50.1 133.4 6.9
-3 -9 -2 321.7 259.2 14.4
-3 -9 -1 121.3 281.4 9.2
-3 -9 0 124.8 303.7 8.2
-3 -9 1 121.3 289.5 8.1
-3 -9 2 351.1 255.6 15.7
-3 -9 3 47.2 140.8 6.5
-3 -9 4 131.1 179.2 8.8
-3 -9 5 32.5 363.7 5.2
-3 -9 6 229.4 192.2 11.1
-3 -9 7 84.7 107.9 7.7
-3 -9 8 191.5 559.7 9.6
-3 -9 9 78.7 278.2 7.1
-3 -9 10 1242.0 1881.6 43.0
-3 -9 11 102.5 170.1 7.8
-3 -9 12 631.7 915.8 28.0
-3 -9 13 258.8 257.0 14.6
-3 -9 14 77.8 25.9 10.1
-3 -9 15 75.6 295.0 7.3
-3 -9 16 27.3 22.3 6.4
-3 -9 17 329.2 381.2 16.4
-3 -9 18 410.2 336.0 22.6
-3 -9 19 171.8 409.1 11.9
-3 -9 20 126.8 16.3 9.8
-3 -9 21 291.2 378.3 17.2
-3 -9 22 94.9 99.6 9.8
-3 -9 23 14.3 160.2 6.1
-3 -9 24 120.6 228.1 16.5
-3 -9 25 730.8 689.9 72.6
-3 -9 26 78.1 186.2 19.7
-3 -9 27 34.9 67.1 15.4
-3 -9 28 100.8 31.4 23.4
-3 -9 29 210.3 318.1 44.5
-3 -9 30 44.1 164.3 17.6
-3 -8 -31 91.9 345.2 17.4
-3 -8 -30 163.2 452.8 24.9
-3 -8 -28 87.0 20.2 15.3
-3 -8 -27 290.0 412.1 26.1
-3 -8 -26 240.6 778.3 22.2
-3 -8 -25 39.2 44.0 7.6
-3 -8 -24 168.2 169.2 12.7
-3 -8 -23 358.3 203.9 20.5
-3 -8 -22 163.2 198.8 12.9
-3 -8 -21 12.8 76.3 7.6
-3 -8 -20 981.0 1763.5 61.1
-3 -8 -19 384.5 465.0 26.0
-3 -8 -18 714.9 1133.9 37.3
-3 -8 -17 233.1 465.2 17.6
-3 -8 -16 462.6 326.2 36.7
-3 -8 -15 457.4 423.9 19.4
-3 -8 -14 163.7 596.7 12.5
-3 -8 -13 48.8 285.4 7.3
-3 -8 -12 89.9 284.6 5.9
-3 -8 -11 1179.0 1541.8 56.3
-3 -8 -10 394.1 1065.5 16.6
-3 -8 -9 202.8 356.4 13.4
-3 -8 -8 1573.7 1786.1 55.3
-3 -8 -7 451.4 400.9 15.6
-3 -8 -6 146.3 206.5 7.2
-3 -8 -5 156.2 108.3 9.1
-3 -8 -4 2164.0 1794.4 64.9
-3 -8 -3 786.5 698.0 29.3
-3 -8 -2 190.6 448.7 9.6
-3 -8 -1 563.5 816.0 22.3
-3 -8 0 69.7 9.6 6.4
-3 -8 1 636.1 808.1 24.6
-3 -8 2 167.3 465.1 9.0
-3 -8 3 745.9 716.6 35.2
-3 -8 4 2165.7 1799.4 95.7
-3 -8 5 57.5 111.4 5.8
-3 -8 6 109.4 204.5 6.6
-3 -8 7 433.1 408.7 16.0
-3 -8 8 1474.3 1800.7 46.8
-3 -8 9 175.5 369.2 10.6
-3 -8 10 376.3 1078.9 14.9
-3 -8 11 1079.4 1556.9 37.8
-3 -8 12 80.3 275.9 6.9
-3 -8 13 66.5 287.3 6.8
-3 -8 14 122.9 613.9 8.1
-3 -8 15 408.1 431.3 16.9
-3 -8 16 438.2 330.2 16.1
-3 -8 17 204.3 463.0 10.5
-3 -8 18 695.4 1114.3 31.3
-3 -8 19 367.6 475.2 16.7
-3 -8 20 976.6 1765.2 43.6
-3 -8 21 12.2 77.0 4.6
-3 -8 22 136.0 196.2 10.2
-3 -8 23 362.3 201.0 20.6
-3 -8 24 138.4 176.4 11.1
-3 -8 25 41.8 45.0 9.0
-3 -8 26 290.6 776.2 45.8
-3 -8 27 317.3 414.6 49.1
-3 -8 28 116.4 21.6 24.8
-3 -8 29 41.8 115.0 16.5
-3 -8 30 171.8 456.0 37.5
-3 -8 31 164.1 341.9 36.2
-3 -7 -30 87.0 107.6 15.3
-3 -7 -29 78.1 424.0 13.2
-3 -7 -28 15.2 47.5 7.9
-3 -7 -27 79.6 234.4 11.5
-3 -7 -26 36.2 9.6 14.7
-3 -7 -25 413.0 819.9 52.4
-3 -7 -24 159.7 280.8 15.0
-3 -7 -23 62.6 13.9 9.1
-3 -7 -22 157.5 192.5 20.1
-3 -7 -21 605.7 1227.1 54.0
-3 -7 -20 616.0 1095.0 32.9
-3 -7 -19 205.8 188.3 16.5
-3 -7 -18 131.9 35.5 11.6
-3 -7 -17 700.0 561.7 36.0
-3 -7 -16 547.1 824.9 23.6
-3 -7 -15 94.9 60.3 9.5
-3 -7 -14 80.6 43.8 5.3
-3 -7 -13 221.6 82.8 9.3
-3 -7 -12 37.0 153.7 6.1
-3 -7 -11 247.2 375.4 10.4
-3 -7 -10 314.2 830.4 14.2
-3 -7 -9 984.3 1112.9 31.7
-3 -7 -8 790.4 889.1 29.4
-3 -7 -7 1162.3 1527.9 35.7
-3 -7 -6 321.0 530.7 11.9
-3 -7 -5 401.1 354.2 11.2
-3 -7 -4 84.4 309.0 4.8
-3 -7 -3 49.6 188.1 4.2
-3 -7 -2 101.8 166.7 6.0
-3 -7 -1 60.7 83.0 5.7
-3 -7 0 484.6 1802.6 19.2
-3 -7 1 40.9 78.9 4.9
-3 -7 2 76.3 173.3 7.3
-3 -7 3 24.7 182.9 5.2
-3 -7 4 74.7 319.5 5.7
-3 -7 5 384.5 354.3 12.3
-3 -7 6 283.5 551.2 11.7
-3 -7 7 1215.1 1538.1 45.0
-3 -7 8 731.7 893.3 24.5
-3 -7 9 1026.3 1100.8 33.5
-3 -7 10 338.1 809.4 13.5
-3 -7 11 267.3 369.6 10.8
-3 -7 12 30.7 153.1 4.6
-3 -7 13 203.8 80.6 9.0
-3 -7 14 74.7 41.7 6.3
-3 -7 15 98.0 64.4 6.2
-3 -7 16 562.7 825.5 18.2
-3 -7 17 690.8 571.3 22.9
-3 -7 18 126.8 36.7 6.7
-3 -7 19 203.3 188.3 11.4
-3 -7 20 637.8 1082.3 25.5
-3 -7 21 687.2 1225.4 31.1
-3 -7 22 74.4 202.9 6.0
-3 -7 23 33.1 12.2 4.8
-3 -7 24 131.9 276.8 8.8
-3 -7 25 392.7 821.4 29.0
-3 -7 27 52.6 234.4 12.4
-3 -7 28 21.5 48.6 13.6
-3 -7 29 79.0 424.1 20.5
-3 -7 30 102.5 105.0 24.4
-3 -7 31 38.1 59.3 17.0
-3 -6 -33 54.6 88.7 18.5
-3 -6 -32 34.9 41.9 11.3
-3 -6 -31 66.3 57.6 19.0
-3 -6 -30 16.8 78.4 9.7
-3 -6 -29 37.0 100.2 12.1
-3 -6 -28 61.0 92.0 11.2
-3 -6 -27 372.9 642.6 34.3
-3 -6 -26 41.8 62.9 9.7
-3 -6 -25 14.6 72.6 7.3
-3 -6 -24 126.8 277.9 12.6
-3 -6 -23 61.2 160.4 13.4
-3 -6 -22 101.1 60.7 14.7
-3 -6 -21 243.9 306.2 19.1
-3 -6 -20 455.1 330.3 35.0
-3 -6 -19 461.1 878.8 35.2
-3 -6 -18 404.6 693.8 22.4
-3 -6 -17 559.4 1288.8 29.7
-3 -6 -16 254.3 662.1 15.0
-3 -6 -15 222.6 310.6 10.9
-3 -6 -14 106.8 319.0 4.7
-3 -6 -13 297.7 194.1 10.2
-3 -6 -12 248.3 755.1 10.4
-3 -6 -11 724.2 790.8 21.6
-3 -6 -10 586.1 429.5 20.3
-3 -6 -9 180.6 169.2 8.0
-3 -6 -8 59.3 107.6 6.7
-3 -6 -7 124.0 192.5 9.3
-3 -6 -6 891.4 892.5 23.9
-3 -6 -5 837.1 1075.1 23.2
-3 -6 -4 454.4 908.5 14.1
-3 -6 -3 143.8 191.3 8.4
-3 -6 -2 34.1 179.9 4.3
-3 -6 -1 327.9 775.6 10.1
-3 -6 0 1131.6 2260.1 37.5
-3 -6 1 280.0 761.8 9.9
-3 -6 2 21.5 186.6 4.5
-3 -6 3 127.6 187.2 5.9
-3 -6 4 469.4 922.0 13.6
-3 -6 5 820.1 1108.0 21.0
-3 -6 6 822.1 895.3 22.0
-3 -6 7 150.1 185.4 7.7
-3 -6 8 61.2 107.7 5.2
-3 -6 9 187.2 168.7 8.1
-3 -6 10 600.5 437.2 18.8
-3 -6 11 910.3 780.4 30.5
-3 -6 12 256.0 772.6 11.2
-3 -6 13 296.5 191.7 10.8
-3 -6 14 99.4 312.5 5.2
-3 -6 15 216.4 321.0 7.7
-3 -6 16 208.8 673.6 8.6
-3 -6 17 558.6 1318.0 20.6
-3 -6 18 456.6 688.3 15.6
-3 -6 19 488.4 878.4 18.5
-3 -6 20 362.9 330.3 13.3
-3 -6 21 223.6 295.9 10.4
-3 -6 22 54.6 61.3 4.6
-3 -6 23 41.8 154.8 4.5
-3 -6 24 148.4 283.2 9.3
-3 -6 25 43.2 72.9 5.5
-3 -6 26 41.6 59.1 11.0
-3 -6 27 342.0 657.7 32.9
-3 -6 28 61.2 91.4 12.5
-3 -6 29 80.9 102.0 19.4
-3 -6 31 58.0 55.4 18.1
-3 -6 33 127.6 86.2 31.1
-3 -5 -33 43.4 79.5 12.2
-3 -5 -32 28.6 273.3 10.6
-3 -5 -30 203.8 514.6 23.9
-3 -5 -29 34.7 184.3 9.0
-3 -5 -28 100.4 293.2 12.9
-3 -5 -27 268.4 534.5 22.3
-3 -5 -26 182.5 492.8 22.6
-3 -5 -25 106.1 309.2 16.2
-3 -5 -24 60.4 627.8 7.9
-3 -5 -23 526.9 1127.2 28.0
-3 -5 -22 130.7 339.9 15.9
-3 -5 -21 18.5 13.4 10.4
-3 -5 -20 267.3 196.3 22.2
-3 -5 -19 351.7 831.5 17.0
-3 -5 -18 231.0 665.4 10.1
-3 -5 -17 122.9 159.1 7.7
-3 -5 -16 1065.7 1823.3 34.1
-3 -5 -15 313.0 147.5 11.1
-3 -5 -14 622.1 1054.5 17.4
-3 -5 -13 296.5 958.4 10.8
-3 -5 -12 805.2 764.7 16.8
-3 -5 -11 78.1 36.1 6.5
-3 -5 -10 105.7 96.0 5.0
-3 -5 -9 845.2 1222.7 22.3
-3 -5 -8 1352.5 1869.3 29.5
-3 -5 -7 33.5 35.9 4.0
-3 -5 -6 166.8 31.4 8.1
-3 -5 -5 499.3 1825.9 12.5
-3 -5 -4 1453.0 1577.0 30.6
-3 -5 -3 495.4 396.0 13.2
-3 -5 -2 90.6 45.7 4.6
-3 -5 -1 189.6 279.1 7.2
-3 -5 0 1129.2 1140.9 26.9
-3 -5 1 172.3 289.2 7.8
-3 -5 2 81.8 42.2 4.7
-3 -5 3 458.1 409.3 13.4
-3 -5 4 1453.0 1574.2 35.9
-3 -5 5 533.3 1839.4 14.5
-3 -5 6 149.3 29.7 6.8
-3 -5 7 38.3 31.4 3.9
-3 -5 8 1361.5 1883.2 30.9
-3 -5 9 856.4 1196.9 20.4
-3 -5 10 100.1 90.0 6.3
-3 -5 11 104.3 34.3 6.1
-3 -5 12 777.7 772.2 19.4
-3 -5 13 291.2 970.3 9.5
-3 -5 14 586.1 1056.3 16.0
-3 -5 15 281.7 154.6 10.5
-3 -5 16 1007.4 1842.6 29.9
-3 -5 17 118.7 161.4 7.2
-3 -5 18 221.0 669.1 9.8
-3 -5 19 311.1 853.4 10.5
-3 -5 20 219.5 196.9 9.3
-3 -5 21 22.8 14.8 3.3
-3 -5 22 122.5 338.8 7.3
-3 -5 23 502.4 1115.6 21.1
-3 -5 24 61.2 617.1 4.9
-3 -5 25 107.2 317.4 7.2
-3 -5 26 138.4 502.1 11.9
-3 -5 27 278.8 538.0 25.0
-3 -5 28 129.1 299.9 17.0
-3 -5 29 21.8 186.2 10.6
-3 -5 30 217.4 508.8 26.2
-3 -5 31 27.3 88.9 14.0
-3 -5 32 70.9 272.5 19.4
-3 -4 -34 21.3 10.8 9.5
-3 -4 -32 95.9 41.2 15.0
-3 -4 -30 143.8 396.4 17.1
-3 -4 -29 322.3 555.2 30.7
-3 -4 -28 361.6 242.0 41.1
-3 -4 -27 31.9 9.9 7.9
-3 -4 -26 478.5 471.6 36.6
-3 -4 -25 311.1 675.5 30.1
-3 -4 -24 656.5 1595.4 40.2
-3 -4 -23 65.1 159.5 7.6
-3 -4 -22 863.5 2056.8 29.7
-3 -4 -21 458.9 1862.0 20.2
-3 -4 -20 300.8 1038.5 17.5
-3 -4 -19 247.7 215.8 13.7
-3 -4 -18 311.1 404.9 17.2
-3 -4 -17 50.8 245.7 5.5
-3 -4 -16 106.8 151.6 6.8
-3 -4 -15 89.6 393.7 5.6
-3 -4 -14 837.1 1007.9 20.2
-3 -4 -13 1387.3 1567.9 29.9
-3 -4 -12 139.2 58.2 7.4
-3 -4 -11 26.4 198.3 4.8
-3 -4 -10 1179.0 1143.3 27.5
-3 -4 -9 243.9 172.9 8.2
-3 -4 -8 996.3 2396.4 28.6
-3 -4 -7 208.3 157.5 7.5
-3 -4 -6 106.5 447.1 5.4
-3 -4 -5 1209.1 1840.8 29.1
-3 -4 -4 73.2 656.6 3.6
-3 -4 -3 347.8 532.7 11.1
-3 -4 -2 2474.4 1900.1 55.5
-3 -4 -1 129.5 334.7 4.8
-3 -4 0 521.3 399.7 11.1
-3 -4 1 143.8 325.8 5.0
-3 -4 2 2398.7 1920.9 44.4
-3 -4 3 249.4 527.0 8.3
-3 -4 4 86.3 648.5 6.8
-3 -4 5 1165.8 1840.0 22.6
-3 -4 6 91.2 443.7 4.3
-3 -4 7 207.8 148.7 6.5
-3 -4 8 922.9 2379.0 21.2
-3 -4 9 241.7 168.9 8.1
-3 -4 10 1156.3 1140.1 26.1
-3 -4 11 37.0 200.9 3.4
-3 -4 12 109.0 55.9 4.4
-3 -4 13 1383.4 1565.3 25.9
-3 -4 14 808.1 1028.0 18.8
-3 -4 15 101.8 390.9 4.9
-3 -4 16 65.4 151.5 5.4
-3 -4 17 39.2 244.1 3.3
-3 -4 18 327.9 420.8 13.3
-3 -4 19 220.0 226.6 6.7
-3 -4 20 323.5 1023.2 11.3
-3 -4 21 517.4 1852.0 17.4
-3 -4 22 860.5 2065.1 29.7
-3 -4 23 24.0 164.6 4.8
-3 -4 24 552.8 1593.3 25.4
-3 -4 25 331.1 660.8 17.1
-3 -4 26 450.7 475.8 22.2
-3 -4 28 306.2 243.3 37.8
-3 -4 29 367.6 557.4 48.8
-3 -4 30 139.6 407.0 18.5
-3 -4 32 87.9 40.0 20.3
-3 -4 33 46.7 71.7 16.9
-3 -3 -35 23.6 38.8 14.6
-3 -3 -34 65.1 56.2 13.5
-3 -3 -33 16.8 69.8 9.7
-3 -3 -32 20.7 11.4 13.3
-3 -3 -31 115.3 397.9 23.2
-3 -3 -30 292.9 205.9 28.6
-3 -3 -29 90.9 208.7 12.3
-3 -3 -27 199.8 348.2 25.6
-3 -3 -26 341.3 242.6 23.2
-3 -3 -25 66.0 182.0 8.5
-3 -3 -24 7.9 189.3 4.6
-3 -3 -23 266.1 561.1 12.5
-3 -3 -22 157.5 189.9 8.3
-3 -3 -20 311.7 1863.9 14.2
-3 -3 -19 385.8 647.2 16.4
-3 -3 -18 134.3 130.5 6.9
-3 -3 -17 48.4 53.2 4.4
-3 -3 -16 62.9 94.6 4.1
-3 -3 -15 45.3 110.8 4.0
-3 -3 -14 719.5 680.1 16.8
-3 -3 -13 423.0 614.4 11.5
-3 -3 -12 726.1 1041.7 28.2
-3 -3 -11 2106.1 2590.6 70.4
-3 -3 -10 589.5 812.6 23.7
-3 -3 -9 464.8 210.9 18.8
-3 -3 -8 1130.4 2644.8 38.7
-3 -3 -7 291.2 587.4 8.9
-3 -3 -6 581.1 133.6 15.1
-3 -3 -5 702.8 445.6 25.0
-3 -3 -4 1833.9 1988.6 40.3
-3 -3 -3 982.1 733.3 18.6
-3 -3 -2 52.8 2.0 3.5
-3 -3 -1 217.9 97.9 6.7
-3 -3 0 3900.0 5924.6 63.1
-3 -3 1 247.2 101.5 6.0
-3 -3 2 41.4 2.6 2.7
-3 -3 3 936.7 739.4 18.1
-3 -3 4 1792.4 2004.6 31.0
-3 -3 5 572.7 460.7 10.8
-3 -3 6 561.9 137.2 12.4
-3 -3 7 262.7 603.2 7.3
-3 -3 8 1080.6 2652.5 27.5
-3 -3 9 475.4 219.0 13.7
-3 -3 10 637.8 818.7 16.7
-3 -3 11 1986.2 2614.3 34.2
-3 -3 12 714.9 1014.8 14.0
-3 -3 13 415.9 610.5 10.7
-3 -3 14 764.1 680.3 14.5
-3 -3 15 54.1 106.8 3.1
-3 -3 16 77.2 90.9 4.3
-3 -3 17 53.6 55.2 4.6
-3 -3 18 108.6 125.5 5.1
-3 -3 19 366.9 662.3 14.0
-3 -3 20 319.2 1882.5 10.0
-3 -3 21 10.1 31.9 3.3
-3 -3 22 163.7 180.1 7.1
-3 -3 23 280.0 573.2 12.2
-3 -3 24 17.9 193.5 4.6
-3 -3 25 66.5 189.3 5.1
-3 -3 26 348.5 237.3 15.6
-3 -3 27 184.8 357.1 12.3
-3 -3 28 398.3 722.8 32.7
-3 -3 29 111.9 207.6 16.2
-3 -3 30 260.5 210.3 27.0
-3 -3 31 199.3 394.7 25.1
-3 -3 32 51.6 12.6 23.3
-3 -3 34 66.3 57.5 19.6
-3 -3 35 40.0 39.3 17.6
-3 -2 -36 137.2 412.6 22.9
-3 -2 -35 42.7 56.1 12.1
-3 -2 -34 19.1 91.8 10.1
-3 -2 -33 23.3 175.4 9.1
-3 -2 -31 78.7 163.2 11.8
-3 -2 -30 32.3 153.2 9.1
-3 -2 -29 42.7 156.3 9.8
-3 -2 -28 297.7 360.1 24.7
-3 -2 -27 34.1 148.5 8.8
-3 -2 -26 64.0 305.4 7.3
-3 -2 -25 216.4 252.6 11.8
-3 -2 -24 72.0 59.9 8.3
-3 -2 -23 108.3 262.8 9.1
-3 -2 -22 121.0 13.3 6.5
-3 -2 -21 729.8 1447.7 28.3
-3 -2 -20 313.0 236.4 16.7
-3 -2 -19 101.1 125.2 6.3
-3 -2 -18 157.5 357.1 7.9
-3 -2 -17 31.9 227.1 4.3
-3 -2 -16 170.0 83.5 6.8
-3 -2 -15 854.4 1342.7 22.4
-3 -2 -14 892.5 974.7 22.9
-3 -2 -13 861.5 698.8 22.5
-3 -2 -12 1449.0 2468.0 75.6
-3 -2 -11 321.0 681.2 14.4
-3 -2 -10 592.9 421.4 22.1
-3 -2 -9 187.7 26.7 10.5
-3 -2 -8 888.3 1907.9 42.6
-3 -2 -7 1462.3 1131.9 45.3
-3 -2 -6 1199.4 2639.3 37.4
-3 -2 -5 1360.2 2380.0 29.6
-3 -2 -4 250.5 332.2 9.9
-3 -2 -3 677.2 735.8 18.1
-3 -2 -2 1141.0 580.5 21.2
-3 -2 -1 3727.8 5890.2 63.9
-3 -2 0 330.5 446.6 8.9
-3 -2 1 3685.3 5847.7 59.3
-3 -2 2 1188.6 585.1 19.2
-3 -2 3 669.0 730.6 14.4
-3 -2 4 188.6 323.4 8.6
-3 -2 5 1386.0 2379.6 26.0
-3 -2 6 1279.2 2646.4 23.7
-3 -2 7 1434.5 1156.4 26.4
-3 -2 8 847.2 1915.2 16.2
-3 -2 9 193.9 29.4 9.2
-3 -2 10 583.6 412.3 12.6
-3 -2 11 355.0 667.7 8.5
-3 -2 12 1388.6 2465.1 29.9
-3 -2 13 877.9 689.7 18.6
-3 -2 14 932.5 966.3 19.2
-3 -2 15 808.1 1327.0 18.8
-3 -2 16 168.6 87.4 6.3
-3 -2 17 36.4 232.0 3.6
-3 -2 18 141.3 351.5 5.8
-3 -2 19 99.0 124.5 4.9
-3 -2 20 362.3 242.3 11.9
-3 -2 21 728.9 1465.0 22.6
-3 -2 22 92.2 10.7 6.0
-3 -2 23 94.9 251.3 6.8
-3 -2 24 65.1 61.2 6.2
-3 -2 25 213.3 256.5 12.2
-3 -2 26 69.1 313.1 7.0
-3 -2 27 18.2 158.3 6.1
-3 -2 28 285.2 370.6 25.3
-3 -2 29 42.3 159.6 11.3
-3 -2 30 39.2 154.3 10.7
-3 -2 31 38.1 159.9 11.6
-3 -2 35 42.7 57.3 18.0
-3 -2 36 138.0 412.0 31.9
-3 -1 -36 60.7 181.9 19.6
-3 -1 -34 97.0 546.7 23.3
-3 -1 -33 118.3 215.8 22.7
-3 -1 -32 44.6 29.6 10.7
-3 -1 -31 13.4 218.1 8.2
-3 -1 -30 69.7 108.4 11.6
-3 -1 -29 570.2 860.7 44.1
-3 -1 -28 171.8 435.0 16.9
-3 -1 -27 154.9 93.4 11.7
-3 -1 -26 276.5 1256.8 16.8
-3 -1 -25 610.8 1339.9 31.0
-3 -1 -24 396.9 572.9 15.3
-3 -1 -23 53.8 389.5 5.1
-3 -1 -22 507.9 810.5 18.9
-3 -1 -21 930.3 1469.6 41.5
-3 -1 -20 521.3 739.6 21.5
-3 -1 -19 21.5 105.2 4.2
-3 -1 -18 248.8 339.4 11.0
-3 -1 -17 558.6 886.0 18.9
-3 -1 -16 20.1 89.8 3.0
-3 -1 -15 448.5 438.4 11.8
-3 -1 -14 455.1 1131.1 14.1
-3 -1 -13 1197.0 1641.5 33.8
-3 -1 -12 1052.1 620.9 53.1
-3 -1 -11 128.4 26.0 8.7
-3 -1 -10 983.2 1035.2 28.4
-3 -1 -9 830.1 1433.9 29.1
-3 -1 -8 1757.1 3412.0 55.5
-3 -1 -7 860.5 1068.6 28.6
-3 -1 -6 1490.4 2015.2 39.0
-3 -1 -5 3183.1 3490.6 96.4
-3 -1 -4 3891.3 6383.3 73.9
-3 -1 -3 1912.4 2153.5 35.1
-3 -1 -2 219.0 184.5 5.7
-3 -1 -1 1826.5 2578.7 32.8
-3 -1 0 38.9 6.7 2.4
-3 -1 1 1758.6 2584.7 29.2
-3 -1 2 220.0 187.9 4.7
-3 -1 3 2048.9 2113.3 34.7
-3 -1 4 3822.0 6418.1 66.8
-3 -1 5 3145.9 3513.5 54.7
-3 -1 6 1384.7 2049.3 28.5
-3 -1 7 908.2 1061.6 17.9
-3 -1 8 1820.5 3379.7 32.7
-3 -1 9 717.7 1408.3 16.8
-3 -1 10 935.7 1040.3 24.5
-3 -1 11 121.0 28.4 5.0
-3 -1 12 871.8 614.4 19.6
-3 -1 13 1144.5 1642.2 25.9
-3 -1 14 530.1 1123.6 11.2
-3 -1 15 444.0 425.2 16.2
-3 -1 16 31.3 88.8 3.3
-3 -1 17 589.5 874.1 20.3
-3 -1 18 193.0 339.9 7.7
-3 -1 20 488.4 738.0 16.9
-3 -1 21 905.0 1467.1 29.4
-3 -1 22 473.9 819.3 18.2
-3 -1 23 65.1 388.4 5.9
-3 -1 24 400.4 559.7 25.1
-3 -1 25 548.7 1330.3 25.3
-3 -1 26 297.7 1257.6 18.0
-3 -1 27 118.7 93.0 9.9
-3 -1 28 158.4 436.0 17.5
-3 -1 29 520.5 849.0 57.3
-3 -1 32 29.4 28.8 12.7
-3 -1 33 79.3 211.4 15.2
-3 -1 34 141.7 540.3 22.0
-2 -16 -9 485.4 452.9 67.6
-2 -16 -8 93.6 78.0 15.2
-2 -16 -7 720.5 705.6 79.5
-2 -16 -6 24.7 4.7 9.7
-2 -16 -5 223.6 163.6 27.1
-2 -16 -4 88.3 43.2 14.4
-2 -16 -2 98.7 333.2 15.6
-2 -16 -1 16.8 41.4 9.7
-2 -16 0 43.4 11.1 11.9
-2 -16 2 88.9 329.3 18.1
-2 -16 4 71.8 43.8 16.8
-2 -16 5 214.4 160.9 32.7
-2 -16 7 524.5 704.0 102.2
-2 -16 8 146.3 78.8 32.0
-2 -16 9 444.8 455.6 86.7
-2 -15 -16 93.6 299.8 13.2
-2 -15 -15 65.1 51.5 11.0
-2 -15 -14 50.8 137.5 10.9
-2 -15 -13 33.1 126.0 11.6
-2 -15 -11 30.3 7.5 10.4
-2 -15 -10 113.4 63.8 17.4
-2 -15 -9 293.5 264.0 37.6
-2 -15 -8 48.6 78.8 9.7
-2 -15 -7 20.7 88.1 9.2
-2 -15 -6 106.5 44.0 13.7
-2 -15 -5 34.7 32.1 9.4
-2 -15 -4 79.0 162.4 11.5
-2 -15 -3 148.0 80.8 16.1
-2 -15 -2 324.2 659.4 29.5
-2 -15 -1 38.3 25.6 9.9
-2 -15 2 287.0 648.8 26.6
-2 -15 3 114.2 81.0 17.1
-2 -15 4 46.7 168.3 10.7
-2 -15 5 30.3 32.8 9.4
-2 -15 6 102.5 44.4 16.2
-2 -15 7 38.3 90.5 18.3
-2 -15 8 30.3 84.3 10.4
-2 -15 9 231.5 265.8 43.5
-2 -15 10 87.0 62.6 21.1
-2 -15 11 27.9 7.6 15.1
-2 -15 13 86.3 125.2 22.0
-2 -15 14 70.9 142.0 22.6
-2 -15 15 70.3 50.0 21.3
-2 -15 16 102.5 302.3 26.5
-2 -14 -20 19.1 27.7 9.2
-2 -14 -19 52.6 83.5 12.4
-2 -14 -18 48.8 152.0 10.7
-2 -14 -17 52.8 19.3 12.4
-2 -14 -16 169.1 323.5 19.0
-2 -14 -15 143.8 64.7 15.0
-2 -14 -14 71.5 102.7 13.6
-2 -14 -13 360.3 310.5 31.1
-2 -14 -12 96.6 118.4 11.7
-2 -14 -11 262.7 312.7 23.7
-2 -14 -10 33.1 12.1 8.4
-2 -14 -9 411.6 427.6 30.4
-2 -14 -8 138.4 151.1 11.9
-2 -14 -7 336.8 304.4 22.4
-2 -14 -6 148.4 250.8 12.3
-2 -14 -5 94.9 33.6 9.8
-2 -14 -4 216.4 105.9 15.9
-2 -14 -3 52.1 160.9 7.8
-2 -14 -2 132.3 178.6 11.6
-2 -14 -1 1289.2 1528.7 77.6
-2 -14 0 847.2 637.6 51.7
-2 -14 1 1213.9 1515.9 83.8
-2 -14 2 137.2 174.6 12.2
-2 -14 3 56.4 166.8 9.4
-2 -14 4 153.6 110.0 13.0
-2 -14 5 90.9 32.2 11.0
-2 -14 6 166.4 254.6 15.3
-2 -14 7 317.3 298.9 24.8
-2 -14 8 143.0 148.1 12.1
-2 -14 9 305.0 424.2 23.7
-2 -14 10 22.8 13.5 8.2
-2 -14 11 239.0 315.5 28.0
-2 -14 12 86.0 114.4 19.7
-2 -14 13 357.0 310.6 53.3
-2 -14 14 148.9 104.8 27.2
-2 -14 15 105.4 62.8 24.0
-2 -14 16 115.3 316.8 24.3
-2 -14 17 49.8 18.4 17.0
-2 -14 18 64.3 156.2 19.8
-2 -14 19 72.0 85.1 14.2
-2 -14 20 28.3 29.1 9.5
-2 -13 -23 200.3 502.4 24.7
-2 -13 -22 46.7 296.2 8.8
-2 -13 -21 30.3 79.9 8.8
-2 -13 -20 103.3 76.7 11.7
-2 -13 -19 249.9 182.7 32.5
-2 -13 -17 36.8 24.0 7.8
-2 -13 -16 30.3 102.3 8.3
-2 -13 -15 149.7 77.5 10.7
-2 -13 -14 60.7 29.2 7.6
-2 -13 -13 47.4 26.8 6.7
-2 -13 -12 351.1 548.1 20.9
-2 -13 -11 47.9 2.5 7.0
-2 -13 -10 325.4 629.2 22.0
-2 -13 -9 322.9 245.8 26.9
-2 -13 -8 408.1 676.1 23.2
-2 -13 -7 632.6 849.6 34.2
-2 -13 -6 27.7 118.0 7.3
-2 -13 -5 717.7 1252.5 53.2
-2 -13 -4 386.5 327.9 21.2
-2 -13 -3 977.7 544.9 45.8
-2 -13 -2 242.8 601.1 13.6
-2 -13 -1 1048.7 727.6 54.2
-2 -13 0 765.1 1239.0 40.5
-2 -13 1 1123.4 719.0 51.4
-2 -13 2 233.1 607.2 13.3
-2 -13 3 950.7 544.2 49.4
-2 -13 4 383.8 322.6 25.3
-2 -13 5 737.4 1221.7 45.4
-2 -13 6 18.2 116.4 8.2
-2 -13 7 519.7 859.0 33.4
-2 -13 8 372.3 673.4 30.3
-2 -13 9 275.3 239.7 23.7
-2 -13 10 257.1 622.9 22.9
-2 -13 11 52.6 2.3 10.9
-2 -13 12 369.6 540.6 34.2
-2 -13 13 58.5 27.0 12.3
-2 -13 14 70.3 29.8 12.3
-2 -13 15 116.0 73.4 15.8
-2 -13 16 52.8 99.4 13.9
-2 -13 17 38.1 20.6 16.1
-2 -13 18 47.2 0.2 14.8
-2 -13 19 273.6 183.8 35.2
-2 -13 20 110.5 78.5 16.9
-2 -13 21 34.7 76.0 8.4
-2 -13 22 28.3 297.9 8.2
-2 -13 23 222.6 496.6 32.2
-2 -12 -26 18.2 43.0 10.9
-2 -12 -25 171.3 277.8 26.5
-2 -12 -24 25.5 59.9 8.8
-2 -12 -22 151.4 116.0 15.0
-2 -12 -21 15.5 113.3 5.8
-2 -12 -20 186.2 102.0 14.3
-2 -12 -19 81.2 203.7 9.7
-2 -12 -18 186.7 235.4 12.9
-2 -12 -17 552.0 732.7 30.3
-2 -12 -16 210.3 453.6 14.7
-2 -12 -15 62.1 37.8 8.0
-2 -12 -14 985.4 726.5 50.3
-2 -12 -13 998.5 1400.2 59.5
-2 -12 -12 402.5 807.3 22.4
-2 -12 -11 17.9 151.1 4.0
-2 -12 -10 651.1 662.1 40.9
-2 -12 -9 206.8 121.7 12.5
-2 -12 -8 65.7 66.0 5.7
-2 -12 -7 16.8 30.5 4.9
-2 -12 -6 637.8 480.6 32.6
-2 -12 -5 1286.7 1310.9 55.0
-2 -12 -4 86.0 52.8 7.1
-2 -12 -3 451.4 592.2 21.5
-2 -12 -2 147.2 62.3 8.5
-2 -12 -1 644.0 741.0 25.7
-2 -12 0 19.4 2.0 5.5
-2 -12 1 585.3 747.0 27.0
-2 -12 2 131.1 64.1 8.4
-2 -12 3 489.2 584.7 20.8
-2 -12 4 62.9 50.2 6.9
-2 -12 5 1169.4 1316.5 58.4
-2 -12 6 604.8 465.9 32.6
-2 -12 7 48.8 31.4 9.7
-2 -12 8 74.1 67.2 10.5
-2 -12 9 190.1 124.2 15.9
-2 -12 10 557.8 655.6 37.0
-2 -12 11 26.8 153.7 9.2
-2 -12 12 447.7 789.8 34.7
-2 -12 13 891.4 1387.1 65.6
-2 -12 14 990.8 728.0 73.5
-2 -12 15 53.8 37.2 13.6
-2 -12 16 179.2 455.8 20.1
-2 -12 17 576.0 738.6 51.0
-2 -12 18 199.8 237.8 17.2
-2 -12 19 73.5 201.5 11.1
-2 -12 20 177.8 98.6 20.9
-2 -12 21 26.1 115.2 8.5
-2 -12 22 134.7 114.5 14.2
-2 -12 23 26.8 52.5 8.5
-2 -12 24 23.3 62.0 10.6
-2 -12 25 199.8 271.7 29.1
-2 -12 26 61.8 44.7 13.4
-2 -11 -27 71.5 180.9 19.4
-2 -11 -25 107.2 402.1 12.6
-2 -11 -24 155.3 311.8 14.3
-2 -11 -23 176.4 411.2 13.4
-2 -11 -22 58.0 114.7 6.9
-2 -11 -21 216.4 237.8 13.8
-2 -11 -20 149.3 109.2 11.9
-2 -11 -19 129.5 240.4 9.1
-2 -11 -18 476.9 671.1 22.8
-2 -11 -17 26.4 85.8 4.5
-2 -11 -16 208.3 152.4 11.6
-2 -11 -15 275.9 199.9 12.7
-2 -11 -14 338.1 452.2 14.7
-2 -11 -13 176.4 226.6 8.3
-2 -11 -12 159.7 132.1 7.0
-2 -11 -11 45.3 42.5 4.2
-2 -11 -10 534.1 694.8 24.2
-2 -11 -9 161.4 122.9 8.4
-2 -11 -8 1327.0 1616.3 44.4
-2 -11 -7 881.0 1104.9 31.0
-2 -11 -6 708.3 884.6 23.2
-2 -11 -5 990.8 982.1 34.0
-2 -11 -4 1193.4 851.9 40.9
-2 -11 -3 350.4 238.2 14.4
-2 -11 -2 55.4 119.9 5.2
-2 -11 0 21.3 150.2 4.5
-2 -11 2 29.4 123.1 5.1
-2 -11 3 294.7 238.7 13.2
-2 -11 4 1171.8 839.0 46.5
-2 -11 5 919.7 986.7 38.1
-2 -11 6 639.6 885.6 27.3
-2 -11 7 830.1 1108.8 42.2
-2 -11 8 1221.2 1611.7 48.7
-2 -11 9 137.2 119.5 11.4
-2 -11 10 557.8 706.5 29.6
-2 -11 11 44.3 41.9 8.8
-2 -11 12 157.9 136.7 14.0
-2 -11 13 212.8 220.7 17.8
-2 -11 14 310.5 436.5 31.3
-2 -11 15 239.5 204.1 18.9
-2 -11 16 203.8 150.0 18.9
-2 -11 17 58.0 85.7 10.4
-2 -11 18 465.6 669.5 29.3
-2 -11 19 103.3 242.9 10.6
-2 -11 20 163.2 103.6 12.5
-2 -11 21 214.9 234.3 15.3
-2 -11 22 37.0 115.8 9.1
-2 -11 23 171.8 405.6 16.4
-2 -11 24 174.5 324.5 20.7
-2 -11 25 120.2 407.4 18.0
-2 -11 27 52.1 181.1 11.6
-2 -11 28 20.7 8.6 9.4
-2 -10 -30 18.5 22.2 9.2
-2 -10 -29 100.8 186.1 14.7
-2 -10 -28 30.1 75.7 9.2
-2 -10 -27 147.6 273.9 21.6
-2 -10 -26 84.4 158.5 11.5
-2 -10 -24 8.2 99.5 4.9
-2 -10 -23 44.1 169.4 6.0
-2 -10 -22 119.4 332.9 9.1
-2 -10 -21 221.0 143.3 11.9
-2 -10 -20 56.2 151.4 5.0
-2 -10 -19 979.9 1107.9 44.7
-2 -10 -18 261.6 166.7 12.4
-2 -10 -17 52.3 4.6 5.0
-2 -10 -16 120.2 84.8 6.9
-2 -10 -15 580.2 1105.5 23.5
-2 -10 -14 42.7 90.6 4.8
-2 -10 -13 38.1 7.2 4.9
-2 -10 -12 91.9 167.6 4.3
-2 -10 -11 583.6 698.5 15.2
-2 -10 -10 929.3 1328.0 28.7
-2 -10 -9 76.9 123.3 5.2
-2 -10 -8 113.8 8.2 5.9
-2 -10 -7 792.3 668.8 26.5
-2 -10 -6 342.0 175.4 12.9
-2 -10 -5 222.6 113.4 8.3
-2 -10 -4 487.7 653.1 15.4
-2 -10 -3 122.1 83.0 6.5
-2 -10 -2 166.8 238.6 9.0
-2 -10 -1 191.5 341.0 10.1
-2 -10 0 262.2 172.1 10.7
-2 -10 1 185.3 343.5 9.0
-2 -10 2 169.5 243.5 8.6
-2 -10 3 103.3 87.0 7.1
-2 -10 4 490.0 641.3 20.8
-2 -10 5 183.4 113.5 10.4
-2 -10 6 283.5 180.3 16.4
-2 -10 7 710.2 678.2 34.4
-2 -10 8 91.6 9.5 8.0
-2 -10 9 94.2 113.9 10.2
-2 -10 10 861.5 1328.5 43.0
-2 -10 11 539.8 691.3 23.5
-2 -10 12 86.0 173.2 9.7
-2 -10 13 32.3 7.4 9.5
-2 -10 14 28.3 87.5 10.4
-2 -10 15 562.7 1095.5 51.3
-2 -10 16 161.4 82.2 20.4
-2 -10 17 43.2 5.3 6.6
-2 -10 18 268.4 162.5 14.3
-2 -10 19 900.8 1107.5 46.0
-2 -10 20 70.9 149.2 7.6
-2 -10 21 228.4 138.7 14.2
-2 -10 22 133.9 339.7 9.7
-2 -10 23 45.3 176.0 6.3
-2 -10 26 72.3 156.9 11.6
-2 -10 27 106.1 273.2 16.2
-2 -10 28 27.9 73.3 9.0
-2 -10 29 98.4 183.6 16.2
-2 -9 -31 72.3 11.6 12.5
-2 -9 -29 58.0 52.6 10.1
-2 -9 -28 291.8 158.6 26.2
-2 -9 -27 71.5 147.7 10.6
-2 -9 -26 47.4 131.3 7.7
-2 -9 -25 20.1 35.3 5.2
-2 -9 -24 11.8 164.4 4.5
-2 -9 -23 119.8 252.5 8.4
-2 -9 -22 26.4 46.3 5.2
-2 -9 -21 563.5 1155.0 20.7
-2 -9 -20 584.4 709.4 19.4
-2 -9 -19 54.9 62.2 4.6
-2 -9 -18 175.0 355.2 7.8
-2 -9 -17 699.1 1005.5 22.1
-2 -9 -16 241.2 248.5 9.2
-2 -9 -15 94.6 243.4 5.4
-2 -9 -14 143.8 121.9 6.7
-2 -9 -13 7.3 73.1 3.7
-2 -9 -12 178.7 72.6 7.5
-2 -9 -11 628.2 941.0 19.2
-2 -9 -10 196.4 241.9 5.9
-2 -9 -9 1723.7 2057.6 43.4
-2 -9 -8 68.5 290.4 4.0
-2 -9 -7 663.6 809.4 18.0
-2 -9 -6 79.0 369.9 4.6
-2 -9 -5 765.1 841.1 23.1
-2 -9 -4 528.5 476.4 16.0
-2 -9 -3 360.9 869.2 11.9
-2 -9 -2 449.9 791.4 18.5
-2 -9 -1 160.6 89.0 8.4
-2 -9 0 104.0 68.4 5.7
-2 -9 1 147.6 97.4 7.2
-2 -9 2 457.4 797.8 16.4
-2 -9 3 402.5 866.9 14.7
-2 -9 4 486.1 466.4 18.4
-2 -9 5 705.6 839.5 46.3
-2 -9 6 68.5 366.5 10.1
-2 -9 7 695.4 813.8 26.7
-2 -9 8 62.1 295.9 6.0
-2 -9 9 1575.1 2057.2 58.1
-2 -9 10 169.1 246.7 10.0
-2 -9 11 598.8 944.4 30.7
-2 -9 12 206.3 72.6 13.5
-2 -9 13 17.9 71.3 8.3
-2 -9 14 176.4 126.1 17.1
-2 -9 15 109.0 231.4 11.3
-2 -9 16 244.4 241.9 16.3
-2 -9 17 700.0 989.7 25.8
-2 -9 18 175.0 351.1 10.1
-2 -9 19 70.9 62.1 7.3
-2 -9 20 547.9 700.3 22.8
-2 -9 21 513.4 1168.9 21.3
-2 -9 22 35.5 43.4 4.8
-2 -9 23 90.9 262.0 7.0
-2 -9 25 27.7 36.9 6.4
-2 -9 26 52.3 135.1 7.1
-2 -9 27 82.8 148.4 10.8
-2 -9 28 269.0 155.5 29.7
-2 -9 29 45.3 52.4 10.1
-2 -9 31 27.7 13.0 9.4
-2 -8 -31 130.7 214.6 19.5
-2 -8 -30 93.6 174.8 13.8
-2 -8 -28 59.9 152.4 9.2
-2 -8 -27 40.0 14.5 7.9
-2 -8 -26 383.8 1028.7 21.9
-2 -8 -25 25.2 19.5 4.5
-2 -8 -24 62.6 72.9 6.3
-2 -8 -23 260.5 484.3 12.4
-2 -8 -22 295.9 892.4 13.2
-2 -8 -21 55.6 25.7 5.2
-2 -8 -20 331.7 761.0 12.1
-2 -8 -19 431.6 154.5 11.6
-2 -8 -18 66.3 235.7 4.3
-2 -8 -17 41.6 68.8 4.0
-2 -8 -16 533.3 668.7 16.1
-2 -8 -15 262.7 343.9 9.6
-2 -8 -14 319.2 441.0 11.2
-2 -8 -13 56.2 26.9 4.2
-2 -8 -12 839.1 764.5 24.2
-2 -8 -11 129.5 615.1 5.6
-2 -8 -10 64.8 241.6 3.9
-2 -8 -9 239.5 612.5 5.9
-2 -8 -8 53.8 104.6 3.3
-2 -8 -7 1559.9 2364.4 30.3
-2 -8 -6 212.3 317.2 7.1
-2 -8 -5 581.1 444.5 14.3
-2 -8 -4 1564.0 1027.2 42.7
-2 -8 -3 425.9 1518.8 12.2
-2 -8 -2 340.0 635.5 11.6
-2 -8 -1 300.8 369.5 10.3
-2 -8 0 831.1 796.6 24.1
-2 -8 1 253.2 375.2 11.6
-2 -8 2 396.2 643.8 16.0
-2 -8 3 449.2 1500.7 18.5
-2 -8 4 1449.0 1041.9 49.1
-2 -8 5 571.8 436.4 18.3
-2 -8 6 180.6 302.6 13.6
-2 -8 7 1437.1 2355.0 48.9
-2 -8 8 62.6 103.6 6.9
-2 -8 9 260.5 615.2 10.7
-2 -8 10 51.3 248.5 6.0
-2 -8 11 121.3 613.3 8.1
-2 -8 12 833.1 762.8 32.2
-2 -8 13 41.6 28.4 6.1
-2 -8 14 260.5 441.1 12.9
-2 -8 15 240.6 335.4 13.0
-2 -8 16 500.8 659.1 20.3
-2 -8 17 52.8 72.4 6.1
-2 -8 18 71.2 241.5 7.1
-2 -8 19 399.0 158.7 15.3
-2 -8 20 285.8 752.6 11.2
-2 -8 21 28.8 28.2 5.4
-2 -8 22 267.9 914.9 12.0
-2 -8 23 272.4 479.5 13.8
-2 -8 24 47.6 72.3 5.1
-2 -8 25 27.9 18.1 5.7
-2 -8 26 377.7 1014.7 21.0
-2 -8 27 86.3 13.4 8.4
-2 -8 28 77.2 147.3 9.5
-2 -8 29 24.7 31.7 6.8
-2 -8 30 109.7 172.7 14.6
-2 -8 31 144.2 212.9 20.1
-2 -8 33 46.4 55.3 17.8
-2 -7 -33 64.8 177.1 13.2
-2 -7 -31 72.0 173.9 10.1
-2 -7 -30 53.1 153.0 8.9
-2 -7 -29 178.7 293.6 18.6
-2 -7 -28 331.1 585.6 30.4
-2 -7 -27 36.8 4.5 6.1
-2 -7 -26 147.2 218.8 11.4
-2 -7 -25 38.5 70.3 5.8
-2 -7 -24 269.6 423.3 13.7
-2 -7 -23 97.3 204.2 6.2
-2 -7 -22 55.6 115.0 4.7
-2 -7 -21 775.8 1878.8 24.3
-2 -7 -20 185.3 514.6 8.1
-2 -7 -19 105.4 417.4 5.7
-2 -7 -18 530.9 1486.4 14.5
-2 -7 -17 372.9 1071.5 12.1
-2 -7 -16 98.0 291.1 4.5
-2 -7 -15 652.0 623.5 16.9
-2 -7 -14 498.5 216.3 13.2
-2 -7 -13 390.0 413.9 9.6
-2 -7 -12 401.8 395.5 9.8
-2 -7 -11 1989.3 2512.3 37.3
-2 -7 -10 3095.2 3917.0 58.2
-2 -7 -9 539.0 1050.9 12.1
-2 -7 -8 150.6 362.4 4.3
-2 -7 -7 1510.7 1184.5 28.5
-2 -7 -6 758.4 1148.2 17.3
-2 -7 -5 2616.9 3876.5 60.6
-2 -7 -4 1151.6 1206.2 27.2
-2 -7 -3 720.5 380.7 19.6
-2 -7 -2 6436.5 7071.3 198.6
-2 -7 -1 3041.2 3702.9 78.8
-2 -7 0 525.3 480.7 16.0
-2 -7 1 2811.2 3681.1 88.7
-2 -7 2 6179.1 7059.4 156.2
-2 -7 3 748.8 375.0 21.9
-2 -7 4 1086.3 1186.3 29.9
-2 -7 5 2827.8 3854.2 74.1
-2 -7 6 746.9 1142.7 19.1
-2 -7 7 1445.0 1203.3 39.8
-2 -7 8 124.4 376.7 8.6
-2 -7 9 540.6 1051.5 21.1
-2 -7 10 3033.5 3933.5 80.6
-2 -7 11 1868.4 2512.0 64.8
-2 -7 12 375.6 387.5 16.9
-2 -7 13 360.3 415.5 17.2
-2 -7 14 506.3 208.4 21.2
-2 -7 15 601.4 611.9 20.5
-2 -7 16 101.8 287.6 5.6
-2 -7 17 346.5 1058.8 13.0
-2 -7 18 566.9 1467.2 19.9
-2 -7 19 99.7 413.9 6.6
-2 -7 20 175.0 526.8 7.4
-2 -7 21 729.8 1862.4 26.4
-2 -7 22 53.6 117.7 4.8
-2 -7 23 100.1 202.6 5.9
-2 -7 24 242.3 423.6 11.4
-2 -7 25 43.6 67.2 4.6
-2 -7 26 124.8 212.2 10.5
-2 -7 27 25.2 4.0 5.8
-2 -7 28 345.9 578.2 22.7
-2 -7 29 200.3 288.2 14.8
-2 -7 30 54.1 147.7 8.2
-2 -7 31 97.0 169.7 12.0
-2 -7 33 87.6 175.4 21.9
-2 -6 -35 59.3 44.5 19.1
-2 -6 -30 24.7 24.4 6.9
-2 -6 -29 138.4 486.5 13.1
-2 -6 -28 27.3 18.5 6.4
-2 -6 -27 204.8 668.2 15.0
-2 -6 -26 169.5 180.1 10.0
-2 -6 -25 42.3 31.2 5.4
-2 -6 -24 61.0 105.6 6.0
-2 -6 -23 30.7 40.3 4.8
-2 -6 -22 24.0 156.6 4.3
-2 -6 -21 75.0 35.2 5.7
-2 -6 -20 449.9 799.7 16.3
-2 -6 -19 106.8 273.0 5.4
-2 -6 -18 190.1 601.1 7.2
-2 -6 -17 554.5 1101.1 15.6
-2 -6 -16 650.2 1162.1 17.8
-2 -6 -15 320.4 316.4 7.5
-2 -6 -14 513.4 708.1 10.3
-2 -6 -13 484.6 294.0 11.5
-2 -6 -12 1883.5 2556.4 33.3
-2 -6 -11 449.9 155.1 11.8
-2 -6 -10 712.1 1199.6 14.9
-2 -6 -9 2597.3 3082.4 48.0
-2 -6 -8 4089.5 5048.4 82.5
-2 -6 -7 2077.4 2868.6 38.1
-2 -6 -6 408.1 438.9 9.2
-2 -6 -5 575.2 1161.6 15.9
-2 -6 -4 113.0 218.4 5.9
-2 -6 -3 1795.3 1504.1 48.7
-2 -6 -2 5682.5 7582.3 136.6
-2 -6 -1 591.2 526.5 20.3
-2 -6 0 43.6 352.6 5.1
-2 -6 1 569.3 517.4 16.6
-2 -6 2 6037.4 7584.1 143.6
-2 -6 3 1801.2 1476.7 45.9
-2 -6 4 162.8 215.4 7.1
-2 -6 5 518.2 1167.1 13.5
-2 -6 6 404.6 430.0 13.3
-2 -6 7 2101.3 2914.1 47.9
-2 -6 8 3981.0 5031.5 88.0
-2 -6 9 2464.1 3135.1 79.6
-2 -6 10 712.1 1208.4 26.0
-2 -6 11 473.9 156.6 19.7
-2 -6 12 1885.0 2551.9 51.5
-2 -6 13 480.0 298.3 14.5
-2 -6 14 530.9 710.3 14.5
-2 -6 15 336.8 307.1 9.6
-2 -6 16 620.3 1148.1 19.1
-2 -6 17 612.6 1084.6 19.0
-2 -6 18 192.5 607.6 8.7
-2 -6 19 106.5 291.5 6.1
-2 -6 20 410.2 789.6 14.8
-2 -6 21 65.4 37.8 5.1
-2 -6 22 17.6 156.4 4.2
-2 -6 23 53.8 45.0 5.1
-2 -6 24 48.8 109.0 4.6
-2 -6 25 41.4 35.0 4.5
-2 -6 26 137.2 181.0 11.0
-2 -6 27 195.9 666.5 12.2
-2 -6 28 9.4 18.9 5.8
-2 -6 29 128.0 476.7 10.6
-2 -6 30 26.8 24.5 7.9
-2 -6 33 26.4 67.0 11.3
-2 -6 35 42.3 48.6 18.1
-2 -5 -35 40.0 209.3 11.0
-2 -5 -34 90.6 126.8 14.9
-2 -5 -33 41.6 45.0 14.2
-2 -5 -32 185.8 525.6 29.9
-2 -5 -31 19.1 26.7 7.9
-2 -5 -30 97.0 75.1 10.6
-2 -5 -29 108.3 279.0 8.3
-2 -5 -28 149.3 95.1 11.1
-2 -5 -27 248.3 484.4 14.3
-2 -5 -26 109.4 273.9 8.4
-2 -5 -25 105.7 358.9 15.4
-2 -5 -24 532.5 1283.8 22.5
-2 -5 -23 546.3 968.5 22.8
-2 -5 -22 1055.5 1777.3 29.4
-2 -5 -21 196.4 664.7 7.8
-2 -5 -20 612.6 1264.4 19.0
-2 -5 -19 322.3 472.2 9.4
-2 -5 -18 374.3 612.6 12.1
-2 -5 -17 30.7 66.7 3.7
-2 -5 -16 813.1 1984.7 17.9
-2 -5 -15 1179.0 1757.7 26.3
-2 -5 -14 664.5 527.0 15.3
-2 -5 -13 221.6 456.6 6.7
-2 -5 -12 217.4 106.4 7.2
-2 -5 -11 3399.1 4166.5 69.1
-2 -5 -10 1188.6 806.0 22.8
-2 -5 -9 94.6 154.9 4.1
-2 -5 -8 3284.2 3937.1 69.9
-2 -5 -7 293.5 324.2 9.6
-2 -5 -6 1597.3 3058.0 34.8
-2 -5 -5 2776.2 5067.8 58.8
-2 -5 -4 2889.3 2484.1 61.8
-2 -5 -3 1395.1 1125.7 36.5
-2 -5 -2 1315.6 1084.9 35.4
-2 -5 -1 1811.6 2690.0 46.0
-2 -5 0 126.4 597.8 7.1
-2 -5 1 1961.5 2673.0 49.4
-2 -5 2 1344.8 1065.5 34.5
-2 -5 3 1420.0 1129.7 36.8
-2 -5 4 2991.4 2511.7 89.6
-2 -5 5 2739.6 5139.9 67.5
-2 -5 6 1598.7 3025.6 34.8
-2 -5 7 370.9 321.7 12.8
-2 -5 8 3433.7 3951.7 83.7
-2 -5 9 78.7 161.3 5.3
-2 -5 10 1181.4 788.7 28.8
-2 -5 11 3280.2 4235.6 85.8
-2 -5 12 212.3 102.7 11.2
-2 -5 13 223.6 459.4 6.8
-2 -5 14 653.8 513.2 15.2
-2 -5 15 1129.2 1729.0 26.9
-2 -5 16 816.1 1967.0 20.9
-2 -5 17 35.3 64.2 3.9
-2 -5 18 394.8 603.0 12.5
-2 -5 19 370.9 467.4 10.1
-2 -5 20 619.5 1283.5 18.2
-2 -5 21 208.3 675.6 7.5
-2 -5 22 958.2 1759.0 29.1
-2 -5 23 535.8 962.1 17.8
-2 -5 24 598.0 1292.2 18.8
-2 -5 25 96.3 363.4 5.5
-2 -5 26 146.3 270.0 8.0
-2 -5 27 219.5 494.4 13.4
-2 -5 28 141.7 98.5 9.5
-2 -5 29 90.6 272.9 7.3
-2 -5 30 81.8 71.7 8.2
-2 -5 31 13.4 29.0 6.1
-2 -5 32 162.3 527.9 14.2
-2 -5 33 30.7 46.5 7.9
-2 -5 34 121.7 128.0 20.0
-2 -5 35 38.9 210.3 17.4
-2 -4 -36 59.6 140.6 12.7
-2 -4 -34 35.3 14.6 9.7
-2 -4 -33 38.5 80.0 9.7
-2 -4 -32 233.7 542.2 23.4
-2 -4 -31 150.1 478.1 15.4
-2 -4 -30 407.4 914.0 22.5
-2 -4 -29 199.8 163.4 13.8
-2 -4 -28 475.4 1586.4 25.1
-2 -4 -27 31.9 208.1 5.7
-2 -4 -26 138.4 103.2 9.0
-2 -4 -25 1047.6 2263.6 40.6
-2 -4 -24 88.3 47.2 5.6
-2 -4 -23 295.9 637.4 12.0
-2 -4 -22 118.3 113.9 5.3
-2 -4 -21 176.9 131.6 6.5
-2 -4 -20 375.6 274.5 11.5
-2 -4 -19 63.2 79.9 4.4
-2 -4 -18 1845.9 2359.0 32.9
-2 -4 -17 340.0 225.9 9.6
-2 -4 -16 219.0 511.5 6.7
-2 -4 -15 248.3 145.5 7.7
-2 -4 -14 524.5 484.4 12.0
-2 -4 -13 1401.6 1729.2 27.4
-2 -4 -12 148.4 1514.6 4.7
-2 -4 -11 904.0 1813.3 17.8
-2 -4 -10 1956.8 2414.9 38.6
-2 -4 -9 2003.4 4536.8 43.7
-2 -4 -8 211.8 659.1 8.1
-2 -4 -7 565.2 422.6 13.3
-2 -4 -6 4285.7 5465.6 102.7
-2 -4 -5 215.9 439.0 7.2
-2 -4 -4 490.8 468.8 13.9
-2 -4 -3 538.2 1694.2 13.7
-2 -4 -2 1165.8 373.2 30.9
-2 -4 -1 1720.8 2299.1 43.4
-2 -4 0 938.9 2347.9 31.0
-2 -4 1 1857.9 2327.8 48.1
-2 -4 2 1100.1 373.8 28.9
-2 -4 3 513.4 1706.6 13.4
-2 -4 4 640.5 464.4 18.5
-2 -4 5 203.3 429.2 7.5
-2 -4 6 4677.6 5375.5 97.7
-2 -4 7 572.7 416.0 16.7
-2 -4 8 201.8 662.7 6.9
-2 -4 9 1976.9 4510.6 43.4
-2 -4 10 1950.7 2443.4 43.1
-2 -4 11 882.1 1809.6 18.6
-2 -4 12 137.2 1515.7 4.9
-2 -4 13 1346.1 1741.1 25.6
-2 -4 14 562.7 492.6 15.7
-2 -4 15 260.5 139.6 8.4
-2 -4 16 216.4 503.0 6.7
-2 -4 17 367.6 227.3 8.0
-2 -4 18 1730.9 2349.0 33.4
-2 -4 19 66.5 77.9 4.5
-2 -4 20 344.6 269.1 9.7
-2 -4 21 183.4 134.1 7.1
-2 -4 22 111.9 113.3 4.8
-2 -4 23 302.0 627.1 11.5
-2 -4 24 90.2 45.9 6.3
-2 -4 25 1003.0 2251.3 30.9
-2 -4 26 102.9 98.7 7.8
-2 -4 27 22.8 204.3 4.5
-2 -4 28 451.4 1579.9 21.5
-2 -4 29 155.7 166.3 10.4
-2 -4 30 413.7 917.8 23.4
-2 -4 31 126.8 482.9 10.2
-2 -4 32 213.3 535.2 15.3
-2 -4 33 25.9 77.0 8.9
-2 -4 34 65.1 16.3 13.8
-2 -4 36 50.1 138.8 14.6
-2 -4 37 87.3 335.1 24.4
-2 -3 -36 84.7 247.8 14.4
-2 -3 -34 159.2 217.0 19.4
-2 -3 -33 14.3 21.4 6.3
-2 -3 -32 13.7 33.7 6.3
-2 -3 -31 87.9 125.1 8.5
-2 -3 -30 26.1 25.0 5.2
-2 -3 -29 103.3 94.4 8.1
-2 -3 -28 95.6 32.8 9.9
-2 -3 -27 396.2 1547.9 20.8
-2 -3 -26 108.3 252.8 6.2
-2 -3 -25 150.1 157.6 7.7
-2 -3 -24 71.2 23.4 5.0
-2 -3 -23 186.7 406.7 8.1
-2 -3 -22 363.6 144.8 16.6
-2 -3 -21 126.0 156.3 4.7
-2 -3 -20 1355.1 2156.5 34.6
-2 -3 -19 384.5 428.3 9.6
-2 -3 -18 939.9 1085.1 18.2
-2 -3 -17 476.2 494.4 12.2
-2 -3 -16 1495.8 1271.7 36.4
-2 -3 -15 68.0 34.8 3.7
-2 -3 -14 214.9 31.2 6.1
-2 -3 -13 334.3 580.6 8.9
-2 -3 -12 637.8 809.5 14.1
-2 -3 -11 2652.7 4662.2 46.7
-2 -3 -10 506.3 248.5 11.0
-2 -3 -9 576.0 358.8 12.5
-2 -3 -8 986.5 387.2 21.9
-2 -3 -7 730.8 658.4 17.0
-2 -3 -6 46.0 65.1 2.8
-2 -3 -5 3815.5 4439.2 81.8
-2 -3 -4 1832.4 1857.6 32.8
-2 -3 -3 1719.3 3735.6 43.4
-2 -3 -2 1216.4 2872.2 31.6
-2 -3 -1 1099.0 1586.4 28.9
-2 -3 0 4484.2 9761.5 109.7
-2 -3 1 843.2 1563.2 23.3
-2 -3 2 1173.0 2933.3 27.5
-2 -3 3 1684.8 3702.0 38.6
-2 -3 4 1886.5 1817.2 59.0
-2 -3 5 3908.7 4404.0 85.0
-2 -3 6 39.6 69.5 3.3
-2 -3 7 747.9 643.1 16.2
-2 -3 8 914.5 394.5 19.0
-2 -3 9 580.2 347.9 13.4
-2 -3 10 503.2 251.2 10.9
-2 -3 11 2586.7 4636.8 49.6
-2 -3 12 596.3 830.7 13.6
-2 -3 13 354.3 591.6 7.9
-2 -3 14 190.6 28.5 5.3
-2 -3 15 71.2 36.7 2.9
-2 -3 16 1400.3 1264.3 23.5
-2 -3 17 432.4 495.5 8.0
-2 -3 18 841.2 1099.9 14.2
-2 -3 19 405.3 437.4 9.1
-2 -3 20 1244.5 2170.0 29.5
-2 -3 21 110.1 160.1 4.8
-2 -3 22 368.3 148.6 12.0
-2 -3 23 208.8 399.6 8.1
-2 -3 24 63.2 20.5 4.4
-2 -3 25 152.7 153.7 6.9
-2 -3 26 86.6 262.3 5.2
-2 -3 27 376.3 1526.1 15.6
-2 -3 28 105.7 30.5 5.7
-2 -3 29 67.4 96.6 7.2
-2 -3 30 26.4 22.1 6.6
-2 -3 31 86.6 123.0 11.4
-2 -3 32 15.2 32.6 6.1
-2 -3 34 186.7 218.6 18.1
-2 -3 36 104.3 247.2 23.9
-2 -2 -37 29.2 80.4 14.9
-2 -2 -36 120.2 137.3 26.4
-2 -2 -35 145.1 346.3 18.1
-2 -2 -34 89.2 341.3 10.2
-2 -2 -33 87.6 130.7 10.1
-2 -2 -32 321.7 564.7 23.8
-2 -2 -31 100.4 255.1 9.8
-2 -2 -30 171.8 112.6 12.3
-2 -2 -29 75.0 346.4 7.2
-2 -2 -28 126.4 344.1 7.4
-2 -2 -27 86.6 47.9 5.8
-2 -2 -26 238.5 781.4 11.8
-2 -2 -25 55.4 367.9 5.4
-2 -2 -24 168.2 34.1 6.8
-2 -2 -23 634.3 1001.6 17.6
-2 -2 -22 325.4 661.5 10.7
-2 -2 -21 548.7 1027.4 18.8
-2 -2 -20 1156.3 2050.9 34.4
-2 -2 -19 644.0 893.0 16.8
-2 -2 -18 1167.0 1550.5 23.8
-2 -2 -17 168.2 330.9 5.0
-2 -2 -16 1136.3 2303.6 24.7
-2 -2 -15 1699.2 2303.6 40.2
-2 -2 -14 1285.4 1101.1 30.0
-2 -2 -13 1065.7 2535.3 25.0
-2 -2 -12 2985.7 3147.7 64.8
-2 -2 -11 750.7 722.1 16.2
-2 -2 -10 57.5 91.0 3.2
-2 -2 -9 416.6 1547.7 12.8
-2 -2 -8 1025.2 888.7 32.4
-2 -2 -7 2618.7 3431.8 64.2
-2 -2 -6 2006.5 1211.8 42.2
-2 -2 -5 849.3 2024.0 19.3
-2 -2 -4 121.0 321.6 6.1
-2 -2 -3 4800.0 10474.0 89.4
-2 -2 -2 1467.7 1283.1 28.0
-2 -2 -1 3839.3 6689.9 67.0
-2 -2 0 168.6 177.5 6.3
-2 -2 1 3981.0 6631.5 63.8
-2 -2 2 1414.7 1267.7 30.2
-2 -2 3 5037.2 10353.0 86.6
-2 -2 4 100.1 326.2 5.6
-2 -2 5 810.1 2039.1 16.9
-2 -2 6 2042.6 1203.7 39.4
-2 -2 7 2574.3 3408.1 49.5
-2 -2 8 959.3 909.1 16.2
-2 -2 9 425.9 1586.9 7.9
-2 -2 10 52.3 93.0 2.5
-2 -2 11 723.3 725.4 14.1
-2 -2 12 2925.1 3161.1 50.9
-2 -2 13 1089.8 2569.5 20.7
-2 -2 14 1136.3 1080.0 21.2
-2 -2 15 1573.7 2294.7 30.4
-2 -2 16 1031.9 2309.8 23.5
-2 -2 17 164.6 322.4 5.8
-2 -2 18 1137.4 1537.4 25.9
-2 -2 19 604.8 912.8 13.7
-2 -2 20 1104.8 2075.0 25.5
-2 -2 21 532.5 1038.2 15.3
-2 -2 22 368.9 661.4 12.7
-2 -2 23 595.4 984.2 17.9
-2 -2 24 190.6 36.6 8.7
-2 -2 25 68.5 382.0 5.8
-2 -2 26 235.3 775.7 9.6
-2 -2 27 88.3 48.7 6.2
-2 -2 28 107.2 340.4 9.0
-2 -2 29 57.7 358.7 6.1
-2 -2 30 122.9 108.6 8.5
-2 -2 31 81.8 247.8 6.9
-2 -2 32 311.1 565.9 20.9
-2 -2 33 84.4 130.7 9.0
-2 -2 34 78.7 345.8 9.6
-2 -2 35 64.3 347.2 15.1
-2 -2 36 82.8 140.8 17.4
-2 -2 37 45.5 84.5 16.7
-2 -1 -37 105.0 203.2 23.6
-2 -1 -36 201.3 300.5 26.2
-2 -1 -35 28.8 90.6 9.7
-2 -1 -34 173.2 636.0 20.2
-2 -1 -33 25.9 50.1 8.9
-2 -1 -32 77.8 16.1 11.1
-2 -1 -31 48.8 223.4 7.3
-2 -1 -30 293.5 1068.8 16.7
-2 -1 -29 141.3 350.9 8.7
-2 -1 -28 491.5 693.0 20.1
-2 -1 -27 31.5 125.5 4.3
-2 -1 -26 826.1 2025.1 26.0
-2 -1 -25 408.8 586.5 15.5
-2 -1 -24 302.0 252.1 12.1
-2 -1 -23 83.7 70.1 5.4
-2 -1 -22 29.4 170.9 3.4
-2 -1 -21 19.1 78.0 4.0
-2 -1 -20 112.3 362.4 7.8
-2 -1 -19 36.2 179.1 4.0
-2 -1 -18 24.0 215.7 3.9
-2 -1 -17 1823.5 2275.7 37.2
-2 -1 -16 1188.6 851.7 25.2
-2 -1 -15 88.3 241.8 4.3
-2 -1 -14 1046.5 1632.7 24.8
-2 -1 -13 2344.4 2124.2 50.6
-2 -1 -12 735.5 674.1 17.0
-2 -1 -11 72.9 208.0 3.9
-2 -1 -10 1374.4 490.0 34.9
-2 -1 -9 1061.2 1876.3 34.1
-2 -1 -8 104.3 257.3 5.3
-2 -1 -7 1246.9 1878.7 32.0
-2 -1 -6 70.9 293.7 7.3
-2 -1 -5 1719.3 2300.5 79.5
-2 -1 -4 2257.5 1781.9 71.2
-2 -1 -3 3630.5 5610.3 77.7
-2 -1 -2 3826.3 5690.3 114.3
-2 -1 -1 3025.8 4159.8 49.9
-2 -1 0 2195.0 3310.2 34.3
-2 -1 1 2951.5 4152.0 53.0
-2 -1 2 3893.5 5634.0 67.4
-2 -1 3 3582.4 5567.2 75.1
-2 -1 4 2125.3 1747.8 37.0
-2 -1 5 1669.1 2335.6 29.9
-2 -1 6 44.3 282.8 2.8
-2 -1 7 1251.9 1851.3 25.9
-2 -1 8 97.7 254.5 3.8
-2 -1 9 1072.6 1846.1 18.3
-2 -1 10 1286.7 504.3 23.8
-2 -1 11 75.0 223.5 3.0
-2 -1 12 695.4 672.2 12.9
-2 -1 13 2204.8 2117.0 39.3
-2 -1 14 979.9 1602.1 22.9
-2 -1 15 103.6 229.6 4.3
-2 -1 16 1228.6 839.0 26.9
-2 -1 17 1763.0 2273.6 36.6
-2 -1 18 32.3 214.1 3.0
-2 -1 19 44.3 179.3 3.2
-2 -1 20 105.4 375.4 4.3
-2 -1 22 32.5 165.7 4.0
-2 -1 23 75.3 67.2 4.8
-2 -1 24 293.5 246.7 10.2
-2 -1 25 484.6 575.6 16.9
-2 -1 26 734.6 2007.2 26.5
-2 -1 27 18.5 117.3 4.8
-2 -1 28 499.3 685.1 21.0
-2 -1 29 176.4 357.8 9.3
-2 -1 30 247.2 1049.2 14.8
-2 -1 31 30.7 219.7 7.0
-2 -1 32 70.6 14.8 10.0
-2 -1 33 31.3 46.0 8.8
-2 -1 34 189.1 646.4 24.4
-2 -1 35 17.9 88.3 11.2
-2 -1 36 182.0 301.0 26.3
-2 -1 37 109.7 201.1 19.4
-2 -1 38 39.6 126.9 23.5
-1 -17 -2 65.1 82.8 21.4
-1 -17 -1 428.0 263.6 84.4
-1 -17 0 150.1 93.9 34.6
-1 -17 1 375.6 267.3 75.0
-1 -16 -13 43.6 88.9 11.3
-1 -16 -12 58.5 76.0 11.2
-1 -16 -11 66.5 33.6 11.7
-1 -16 -10 13.0 118.8 8.2
-1 -16 -9 18.8 158.6 8.2
-1 -16 -8 148.9 234.9 15.7
-1 -16 -4 177.8 178.7 24.2
-1 -16 -3 49.6 81.9 12.5
-1 -16 -2 34.1 190.9 11.2
-1 -16 -1 242.3 342.8 32.0
-1 -16 0 18.2 34.2 10.9
-1 -16 1 307.4 348.6 39.1
-1 -16 2 40.0 184.2 17.6
-1 -16 3 46.4 80.7 18.5
-1 -16 4 250.5 175.2 46.9
-1 -16 7 28.6 2.7 18.3
-1 -16 8 193.5 235.0 38.8
-1 -16 9 37.4 161.9 11.3
-1 -16 10 43.6 115.8 12.7
-1 -16 11 39.6 35.4 12.5
-1 -16 12 85.3 77.1 17.4
-1 -16 13 44.6 89.3 13.7
-1 -15 -18 168.6 180.3 21.3
-1 -15 -17 246.1 256.0 29.0
-1 -15 -16 236.9 260.1 28.4
-1 -15 -14 229.4 290.1 24.8
-1 -15 -13 157.5 65.5 16.2
-1 -15 -12 310.5 424.1 28.3
-1 -15 -11 182.9 77.1 17.9
-1 -15 -10 233.7 199.5 21.8
-1 -15 -9 24.3 126.7 7.9
-1 -15 -8 83.7 124.9 9.9
-1 -15 -7 66.5 123.2 10.5
-1 -15 -6 309.9 96.2 33.8
-1 -15 -5 332.4 365.8 35.6
-1 -15 -4 109.0 122.9 13.1
-1 -15 -2 422.3 420.7 31.5
-1 -15 -1 36.4 11.6 8.4
-1 -15 1 27.3 11.1 8.6
-1 -15 2 401.1 424.2 30.7
-1 -15 3 13.0 22.2 7.9
-1 -15 4 107.5 120.2 12.7
-1 -15 5 382.4 368.1 33.4
-1 -15 6 324.2 101.8 28.9
-1 -15 7 45.0 123.2 9.8
-1 -15 8 79.0 125.7 12.7
-1 -15 9 28.3 126.6 10.9
-1 -15 10 216.4 196.7 20.5
-1 -15 11 210.3 75.4 20.2
-1 -15 12 274.2 426.3 28.9
-1 -15 13 182.5 65.5 20.7
-1 -15 14 261.1 293.6 27.6
-1 -15 15 16.1 37.2 8.5
-1 -15 16 207.3 262.4 25.1
-1 -15 17 232.6 257.6 34.0
-1 -15 18 143.8 182.6 23.0
-1 -14 -22 53.1 123.8 9.7
-1 -14 -21 159.2 202.7 20.7
-1 -14 -20 39.8 32.6 9.7
-1 -14 -19 36.4 35.2 9.5
-1 -14 -18 124.4 112.1 13.6
-1 -14 -17 106.5 115.6 10.8
-1 -14 -16 28.8 4.6 7.3
-1 -14 -15 90.6 101.4 9.0
-1 -14 -13 99.7 49.3 10.8
-1 -14 -12 207.3 478.6 15.1
-1 -14 -11 75.6 221.6 7.3
-1 -14 -10 316.1 382.8 18.6
-1 -14 -9 127.2 6.7 9.8
-1 -14 -8 72.9 56.3 8.6
-1 -14 -7 395.5 394.0 26.3
-1 -14 -6 311.7 394.9 19.1
-1 -14 -5 30.7 195.0 6.4
-1 -14 -4 51.6 38.6 6.8
-1 -14 -3 161.4 496.2 13.3
-1 -14 -2 161.4 134.4 13.3
-1 -14 -1 166.4 271.3 13.0
-1 -14 0 105.4 38.1 8.9
-1 -14 1 195.9 281.5 15.1
-1 -14 2 149.3 128.9 12.4
-1 -14 3 139.2 492.8 11.9
-1 -14 4 35.3 36.8 8.3
-1 -14 5 45.5 196.8 8.2
-1 -14 6 262.2 399.0 18.6
-1 -14 7 403.9 396.9 26.6
-1 -14 8 118.3 55.0 11.8
-1 -14 9 144.6 6.5 13.8
-1 -14 10 311.1 380.6 20.9
-1 -14 11 71.5 230.2 8.5
-1 -14 12 213.8 485.9 15.3
-1 -14 13 101.1 47.5 10.2
-1 -14 15 65.4 96.1 9.9
-1 -14 16 27.0 4.5 8.5
-1 -14 17 111.2 110.0 11.4
-1 -14 18 88.3 115.5 10.5
-1 -14 19 18.8 35.8 7.0
-1 -14 20 40.9 30.4 11.1
-1 -14 21 173.6 205.0 21.6
-1 -14 22 63.2 124.2 11.9
-1 -13 -24 106.5 54.7 12.9
-1 -13 -23 104.7 217.5 12.1
-1 -13 -22 11.8 7.7 7.3
-1 -13 -21 142.5 183.5 15.0
-1 -13 -20 52.6 39.5 8.6
-1 -13 -19 577.7 256.2 41.9
-1 -13 -18 128.4 135.1 9.9
-1 -13 -17 200.3 213.7 12.3
-1 -13 -16 69.7 107.7 6.7
-1 -13 -15 285.2 279.5 21.8
-1 -13 -14 57.5 76.0 5.8
-1 -13 -13 234.7 843.7 14.4
-1 -13 -12 226.8 134.6 14.2
-1 -13 -11 1104.8 1071.1 51.0
-1 -13 -10 161.4 221.8 15.1
-1 -13 -9 919.7 944.0 48.6
-1 -13 -8 1301.7 1160.8 56.6
-1 -13 -7 905.0 895.9 40.9
-1 -13 -6 20.7 75.5 6.3
-1 -13 -5 18.8 79.3 5.1
-1 -13 -4 178.2 230.3 10.7
-1 -13 -3 166.4 227.7 9.9
-1 -13 -2 160.6 438.3 10.2
-1 -13 -1 832.1 1710.5 37.2
-1 -13 0 1371.8 1079.0 59.4
-1 -13 1 853.3 1703.6 38.7
-1 -13 2 167.7 439.4 10.4
-1 -13 3 150.6 242.6 9.8
-1 -13 4 225.2 229.8 14.6
-1 -13 6 19.4 76.8 7.5
-1 -13 7 976.6 878.4 50.1
-1 -13 8 1194.6 1167.4 60.2
-1 -13 9 1061.2 941.1 62.5
-1 -13 10 195.4 223.8 12.7
-1 -13 11 1132.8 1070.8 57.5
-1 -13 12 226.3 136.2 14.2
-1 -13 13 213.8 841.3 13.8
-1 -13 14 62.6 74.6 8.0
-1 -13 15 272.4 279.2 18.4
-1 -13 16 95.3 107.1 9.5
-1 -13 17 162.3 218.2 18.2
-1 -13 18 144.2 133.3 14.7
-1 -13 19 508.7 261.2 51.9
-1 -13 20 72.9 39.5 10.1
-1 -13 21 127.2 180.2 15.3
-1 -13 22 27.0 8.0 8.1
-1 -13 23 97.0 219.7 16.5
-1 -13 24 98.7 55.7 16.6
-1 -12 -28 114.9 135.6 26.5
-1 -12 -26 114.5 214.3 14.9
-1 -12 -25 143.0 282.8 14.6
-1 -12 -24 234.2 272.6 25.1
-1 -12 -22 24.0 11.4 6.7
-1 -12 -21 665.4 781.1 36.9
-1 -12 -19 46.2 60.7 6.2
-1 -12 -18 43.2 222.1 5.3
-1 -12 -17 223.1 202.6 11.5
-1 -12 -16 47.2 293.1 4.8
-1 -12 -15 30.3 142.8 4.6
-1 -12 -14 352.4 252.8 15.1
-1 -12 -13 151.0 158.8 8.1
-1 -12 -12 52.1 103.5 4.5
-1 -12 -11 207.3 522.0 11.0
-1 -12 -10 1399.0 1932.2 53.5
-1 -12 -9 613.4 257.2 27.6
-1 -12 -8 132.3 338.7 8.4
-1 -12 -7 68.3 7.5 5.8
-1 -12 -6 1421.3 1602.0 56.5
-1 -12 -5 330.5 426.6 13.9
-1 -12 -4 85.3 254.4 6.4
-1 -12 -3 465.6 400.9 18.1
-1 -12 -2 2299.1 2444.2 78.6
-1 -12 -1 99.7 123.2 7.3
-1 -12 0 297.7 668.6 13.2
-1 -12 1 49.6 121.8 6.6
-1 -12 2 2075.8 2468.7 61.9
-1 -12 3 462.6 396.9 15.7
-1 -12 4 70.9 249.2 6.7
-1 -12 5 326.1 414.7 13.8
-1 -12 6 1313.0 1612.5 45.5
-1 -12 7 38.1 8.1 6.5
-1 -12 8 145.9 344.0 11.4
-1 -12 9 589.5 255.7 31.3
-1 -12 10 1338.4 1948.2 66.3
-1 -12 11 257.1 513.2 15.7
-1 -12 12 38.3 103.2 7.3
-1 -12 13 165.0 162.0 14.8
-1 -12 14 336.2 266.7 24.3
-1 -12 15 32.9 147.4 8.6
-1 -12 16 46.2 296.4 9.5
-1 -12 17 241.7 196.2 15.2
-1 -12 18 39.2 212.9 6.3
-1 -12 19 38.9 59.2 7.6
-1 -12 21 683.5 772.4 41.9
-1 -12 22 30.9 10.8 6.6
-1 -12 24 229.9 272.8 23.8
-1 -12 25 106.5 280.0 23.0
-1 -12 26 62.1 217.6 12.6
-1 -12 28 150.6 133.5 33.4
-1 -11 -30 20.1 31.4 10.3
-1 -11 -29 21.8 47.0 9.8
-1 -11 -28 399.7 761.4 49.5
-1 -11 -27 18.5 4.0 9.8
-1 -11 -26 428.0 567.5 28.1
-1 -11 -25 68.8 101.7 10.7
-1 -11 -24 67.1 68.4 9.4
-1 -11 -23 91.2 51.4 9.0
-1 -11 -22 147.2 380.0 11.4
-1 -11 -20 75.6 79.7 6.7
-1 -11 -19 53.1 45.4 4.8
-1 -11 -18 89.6 93.6 5.6
-1 -11 -17 102.9 557.5 5.3
-1 -11 -16 544.7 718.5 20.3
-1 -11 -15 652.0 1511.0 22.3
-1 -11 -14 46.2 200.3 4.0
-1 -11 -13 515.0 382.9 13.4
-1 -11 -12 1168.2 868.8 32.2
-1 -11 -11 88.3 99.2 4.9
-1 -11 -10 357.0 665.4 14.5
-1 -11 -9 408.1 413.4 14.1
-1 -11 -8 364.2 310.3 14.6
-1 -11 -7 228.9 192.1 9.5
-1 -11 -6 102.9 130.7 6.4
-1 -11 -5 240.1 207.1 11.9
-1 -11 -4 1811.6 1902.4 57.9
-1 -11 -3 30.7 43.2 4.8
-1 -11 -2 337.5 961.9 12.8
-1 -11 -1 834.1 832.9 25.2
-1 -11 0 2857.6 2178.1 89.4
-1 -11 1 833.1 827.4 28.2
-1 -11 2 377.0 959.7 16.9
-1 -11 3 37.4 41.8 5.5
-1 -11 4 1848.9 1937.3 58.5
-1 -11 5 224.2 206.5 10.4
-1 -11 6 97.7 122.7 7.6
-1 -11 7 203.3 195.6 9.9
-1 -11 8 355.7 308.6 14.5
-1 -11 9 376.3 415.6 17.6
-1 -11 10 315.4 673.0 19.2
-1 -11 11 94.9 98.6 9.8
-1 -11 12 1199.4 879.8 59.2
-1 -11 13 511.8 386.1 27.6
-1 -11 14 52.3 200.8 11.3
-1 -11 15 656.5 1514.2 58.1
-1 -11 16 544.7 744.7 29.3
-1 -11 17 128.4 561.8 8.7
-1 -11 18 94.9 98.0 7.5
-1 -11 19 54.6 45.9 7.0
-1 -11 20 88.9 84.1 8.2
-1 -11 22 120.2 370.3 9.6
-1 -11 23 124.4 52.6 10.5
-1 -11 24 86.0 69.1 8.4
-1 -11 25 54.1 103.5 7.2
-1 -11 26 408.1 568.8 34.5
-1 -11 27 46.4 4.3 14.5
-1 -11 28 367.6 757.8 64.8
-1 -11 29 21.5 46.5 13.1
-1 -11 30 22.8 31.4 13.7
-1 -10 -31 43.6 120.8 11.7
-1 -10 -30 211.3 729.6 23.3
-1 -10 -29 157.5 243.4 31.5
-1 -10 -28 42.7 125.9 9.1
-1 -10 -27 486.1 526.8 40.7
-1 -10 -26 37.4 3.9 6.6
-1 -10 -25 192.0 344.3 14.0
-1 -10 -24 465.6 557.1 29.3
-1 -10 -23 29.8 108.0 4.9
-1 -10 -22 221.0 729.8 9.8
-1 -10 -21 17.1 130.5 3.3
-1 -10 -20 30.1 225.7 4.0
-1 -10 -19 106.5 191.8 6.1
-1 -10 -18 784.5 1708.3 28.3
-1 -10 -17 80.6 55.8 5.0
-1 -10 -16 1076.0 740.0 27.4
-1 -10 -15 85.7 56.9 4.2
-1 -10 -14 28.8 116.9 3.0
-1 -10 -13 30.1 184.7 3.1
-1 -10 -12 90.6 87.4 4.6
-1 -10 -11 1137.4 1571.9 32.9
-1 -10 -10 233.7 46.1 8.5
-1 -10 -9 43.2 487.2 3.9
-1 -10 -8 718.6 514.7 19.6
-1 -10 -7 467.9 947.3 14.3
-1 -10 -6 284.7 331.2 9.4
-1 -10 -5 335.6 527.8 11.5
-1 -10 -4 197.4 910.2 7.8
-1 -10 -3 469.4 225.5 15.1
-1 -10 -2 1660.6 2262.5 46.9
-1 -10 -1 438.9 511.9 14.6
-1 -10 0 104.7 80.0 5.3
-1 -10 1 463.3 530.3 19.5
-1 -10 2 1667.7 2277.3 61.2
-1 -10 3 525.3 224.0 17.6
-1 -10 4 225.2 914.4 11.0
-1 -10 5 342.6 550.1 12.9
-1 -10 6 269.6 331.7 22.3
-1 -10 7 435.3 936.0 31.3
-1 -10 8 764.1 504.7 35.7
-1 -10 9 28.6 488.2 5.4
-1 -10 10 197.8 46.7 10.8
-1 -10 11 1053.2 1583.7 39.6
-1 -10 12 94.2 88.4 7.4
-1 -10 13 59.3 180.2 8.3
-1 -10 14 30.1 116.3 7.1
-1 -10 15 93.2 51.3 13.1
-1 -10 16 971.2 747.2 46.7
-1 -10 17 86.0 53.9 7.4
-1 -10 18 727.0 1706.5 36.7
-1 -10 19 128.7 190.7 9.9
-1 -10 20 34.9 230.3 6.0
-1 -10 22 203.8 734.4 12.4
-1 -10 23 65.7 101.6 6.2
-1 -10 24 467.9 562.2 29.4
-1 -10 25 182.0 348.5 13.2
-1 -10 26 23.3 3.7 5.7
-1 -10 27 413.0 524.7 26.9
-1 -10 28 54.4 124.1 10.3
-1 -10 29 210.3 238.6 26.8
-1 -10 31 48.4 120.4 16.0
-1 -9 -32 34.9 95.7 11.5
-1 -9 -31 75.0 68.8 14.2
-1 -9 -30 37.6 75.8 8.1
-1 -9 -29 52.1 77.7 9.1
-1 -9 -28 20.4 141.5 7.2
-1 -9 -27 13.4 20.4 6.4
-1 -9 -26 38.5 318.4 9.7
-1 -9 -25 81.8 11.3 6.6
-1 -9 -24 22.5 127.8 3.0
-1 -9 -23 21.3 41.1 4.2
-1 -9 -22 348.5 611.0 13.7
-1 -9 -21 38.9 16.6 3.3
-1 -9 -20 141.3 495.1 5.4
-1 -9 -19 138.8 780.1 7.0
-1 -9 -18 241.2 200.3 8.7
-1 -9 -17 326.7 804.1 10.1
-1 -9 -16 405.3 932.0 12.6
-1 -9 -15 63.7 385.2 4.2
-1 -9 -14 615.1 498.1 15.6
-1 -9 -13 137.2 310.4 4.9
-1 -9 -12 188.2 19.6 6.2
-1 -9 -11 109.7 138.8 4.4
-1 -9 -10 402.5 709.7 11.9
-1 -9 -9 124.4 216.3 4.7
-1 -9 -8 357.0 187.6 9.2
-1 -9 -7 239.5 612.0 7.0
-1 -9 -6 252.7 109.9 7.2
-1 -9 -5 93.6 260.7 4.7
-1 -9 -4 63.2 8.8 3.9
-1 -9 -3 446.2 435.8 11.0
-1 -9 -2 141.3 138.6 5.8
-1 -9 -1 1121.0 991.4 31.5
-1 -9 0 563.5 2657.5 18.2
-1 -9 1 1007.4 998.9 25.4
-1 -9 2 169.1 137.5 6.8
-1 -9 3 436.7 448.3 13.1
-1 -9 4 58.8 9.8 6.4
-1 -9 5 79.3 261.4 7.1
-1 -9 6 270.7 105.7 17.8
-1 -9 7 234.7 622.4 17.6
-1 -9 8 339.4 184.0 12.2
-1 -9 9 136.0 227.9 7.3
-1 -9 10 377.0 713.8 16.2
-1 -9 11 104.0 140.3 7.1
-1 -9 12 161.0 18.4 9.3
-1 -9 13 125.2 325.6 8.2
-1 -9 14 574.3 504.4 23.4
-1 -9 15 29.8 399.8 7.0
-1 -9 16 423.7 940.7 18.7
-1 -9 17 341.3 792.9 14.2
-1 -9 18 216.9 203.6 11.3
-1 -9 19 129.5 789.0 7.1
-1 -9 20 131.1 496.9 7.2
-1 -9 21 38.9 18.1 4.6
-1 -9 22 340.7 618.1 16.7
-1 -9 23 18.8 38.5 4.5
-1 -9 24 9.4 128.7 4.6
-1 -9 25 90.9 9.3 8.0
-1 -9 26 36.2 315.2 6.1
-1 -9 28 16.8 138.6 6.1
-1 -9 29 51.6 82.2 10.0
-1 -9 30 44.1 74.0 10.0
-1 -9 31 17.4 72.1 8.6
-1 -8 -34 270.1 427.0 38.4
-1 -8 -32 19.4 39.8 7.8
-1 -8 -31 177.3 371.0 17.6
-1 -8 -29 85.7 159.9 10.0
-1 -8 -28 108.3 48.5 17.8
-1 -8 -27 58.3 151.8 6.1
-1 -8 -26 162.3 514.5 10.2
-1 -8 -25 35.5 94.0 3.7
-1 -8 -24 256.6 655.3 9.5
-1 -8 -23 82.8 258.8 4.4
-1 -8 -22 107.2 196.3 4.7
-1 -8 -21 33.5 5.5 3.6
-1 -8 -20 104.7 5.6 5.0
-1 -8 -19 30.9 316.0 3.3
-1 -8 -18 564.4 706.8 15.7
-1 -8 -17 44.6 205.2 3.3
-1 -8 -16 105.4 61.2 4.7
-1 -8 -15 906.1 908.9 22.0
-1 -8 -14 241.7 739.4 7.0
-1 -8 -13 444.8 643.8 9.6
-1 -8 -12 59.9 276.5 2.7
-1 -8 -11 37.0 140.1 2.8
-1 -8 -10 127.6 57.6 4.3
-1 -8 -9 116.8 515.4 4.9
-1 -8 -8 1927.6 1616.0 36.7
-1 -8 -7 404.6 835.3 9.1
-1 -8 -6 72.0 192.1 3.3
-1 -8 -5 490.0 743.7 10.8
-1 -8 -4 1294.2 848.4 27.6
-1 -8 -3 4073.9 6661.6 91.2
-1 -8 -2 62.1 395.6 5.8
-1 -8 -1 143.0 203.8 7.5
-1 -8 0 58.0 36.1 5.6
-1 -8 1 104.3 209.6 5.7
-1 -8 2 36.4 402.6 5.3
-1 -8 3 4149.9 6668.3 184.1
-1 -8 4 1246.9 833.2 43.1
-1 -8 5 474.7 758.7 15.2
-1 -8 6 67.7 186.4 5.4
-1 -8 7 355.7 827.0 11.8
-1 -8 8 1927.6 1633.6 50.5
-1 -8 9 117.2 514.1 6.4
-1 -8 10 121.0 53.3 5.8
-1 -8 11 54.1 137.0 6.4
-1 -8 12 55.4 284.3 5.4
-1 -8 13 421.6 635.5 15.0
-1 -8 14 222.6 733.1 10.4
-1 -8 15 875.9 905.2 33.0
-1 -8 16 66.5 61.6 6.0
-1 -8 17 37.0 199.5 4.2
-1 -8 18 534.1 694.5 18.5
-1 -8 19 32.9 311.3 4.6
-1 -8 20 103.6 5.5 6.0
-1 -8 21 27.7 4.5 4.2
-1 -8 22 108.6 195.0 6.5
-1 -8 23 100.1 255.6 6.3
-1 -8 24 275.9 643.3 14.5
-1 -8 25 37.0 92.1 4.5
-1 -8 26 165.9 528.1 12.6
-1 -8 27 58.8 147.4 5.9
-1 -8 28 99.4 47.8 9.0
-1 -8 29 74.4 162.6 9.0
-1 -8 31 186.7 369.6 18.1
-1 -8 32 25.5 38.8 8.3
-1 -8 34 220.5 423.2 31.6
-1 -7 -36 111.9 238.4 27.7
-1 -7 -34 30.9 60.4 11.4
-1 -7 -33 54.1 253.1 11.3
-1 -7 -32 297.7 458.9 32.5
-1 -7 -30 78.4 225.3 9.6
-1 -7 -29 75.6 238.3 9.1
-1 -7 -28 175.5 456.6 11.1
-1 -7 -27 207.3 447.4 12.5
-1 -7 -26 700.0 1264.9 27.7
-1 -7 -25 314.8 1294.7 14.8
-1 -7 -24 92.6 47.2 7.0
-1 -7 -23 314.8 466.7 9.9
-1 -7 -22 100.4 253.2 4.9
-1 -7 -21 825.1 1748.2 23.0
-1 -7 -20 297.7 565.5 9.0
-1 -7 -19 303.8 548.6 8.5
-1 -7 -18 1699.2 1861.3 34.5
-1 -7 -17 551.2 389.9 13.9
-1 -7 -16 598.0 943.3 15.3
-1 -7 -15 347.8 190.0 8.5
-1 -7 -14 71.2 195.5 3.2
-1 -7 -13 460.3 944.7 10.5
-1 -7 -12 1007.4 1844.4 19.9
-1 -7 -11 324.8 491.7 8.8
-1 -7 -10 1886.5 2515.2 34.8
-1 -7 -9 972.3 1519.9 20.7
-1 -7 -8 316.1 184.0 8.1
-1 -7 -7 439.6 1244.3 9.5
-1 -7 -6 807.1 1744.7 16.8
-1 -7 -5 420.1 1302.1 11.4
-1 -7 -4 422.3 504.9 12.2
-1 -7 -3 5438.2 7131.4 115.7
-1 -7 -2 740.2 635.6 20.9
-1 -7 -1 635.2 878.4 15.8
-1 -7 0 734.6 332.2 35.0
-1 -7 1 623.0 874.7 21.8
-1 -7 2 632.6 629.5 21.9
-1 -7 3 5074.3 7113.6 151.5
-1 -7 4 468.6 527.4 14.3
-1 -7 5 475.4 1300.2 22.8
-1 -7 6 795.3 1693.3 21.6
-1 -7 7 422.3 1251.0 12.9
-1 -7 8 331.7 185.2 9.5
-1 -7 9 983.2 1503.0 24.0
-1 -7 10 1836.9 2511.0 41.8
-1 -7 11 348.5 495.9 11.7
-1 -7 12 1004.1 1884.5 35.3
-1 -7 13 430.9 933.5 18.1
-1 -7 14 70.9 198.7 5.6
-1 -7 15 322.9 196.2 11.9
-1 -7 16 543.9 974.8 13.0
-1 -7 17 568.5 396.4 17.5
-1 -7 18 1607.0 1878.2 40.5
-1 -7 19 337.5 560.4 11.5
-1 -7 20 321.0 552.3 11.9
-1 -7 21 822.1 1743.2 32.0
-1 -7 22 104.7 238.1 6.4
-1 -7 23 349.8 458.6 13.7
-1 -7 24 125.6 46.6 7.0
-1 -7 25 292.9 1288.0 13.1
-1 -7 26 728.9 1240.0 29.2
-1 -7 27 216.9 451.7 12.8
-1 -7 28 166.4 466.3 10.8
-1 -7 29 60.2 234.0 7.3
-1 -7 30 74.1 225.1 7.8
-1 -7 31 37.6 17.1 6.6
-1 -7 32 279.4 451.9 24.5
-1 -7 33 63.7 256.3 10.3
-1 -7 35 14.8 6.4 9.1
-1 -7 36 88.3 238.6 21.9
-1 -6 -37 189.1 546.7 40.3
-1 -6 -34 153.6 83.5 22.0
-1 -6 -33 368.3 619.3 31.4
-1 -6 -31 229.9 701.4 18.0
-1 -6 -30 387.9 664.2 24.7
-1 -6 -29 37.0 9.0 6.4
-1 -6 -28 367.6 877.1 20.0
-1 -6 -27 504.0 1661.6 18.8
-1 -6 -26 728.0 1385.8 29.2
-1 -6 -25 445.5 684.1 15.5
-1 -6 -24 28.8 140.1 3.9
-1 -6 -23 314.2 477.8 11.1
-1 -6 -22 590.3 744.5 16.1
-1 -6 -21 438.2 736.5 15.3
-1 -6 -20 1290.4 2346.5 31.3
-1 -6 -19 561.1 826.7 14.0
-1 -6 -18 256.6 163.1 6.7
-1 -6 -17 1566.8 2671.8 29.0
-1 -6 -16 586.1 906.3 10.1
-1 -6 -15 75.3 321.1 3.0
-1 -6 -14 2085.3 2026.3 36.6
-1 -6 -13 589.5 1372.5 12.7
-1 -6 -12 237.4 127.0 6.4
-1 -6 -11 2620.5 4467.4 50.0
-1 -6 -10 1086.3 1247.7 21.8
-1 -6 -9 1261.8 1506.9 24.8
-1 -6 -8 112.7 38.2 4.1
-1 -6 -7 224.7 135.2 5.2
-1 -6 -6 951.7 2009.0 18.3
-1 -6 -5 1351.2 1106.0 24.3
-1 -6 -4 1632.3 956.2 32.4
-1 -6 -3 1352.5 2383.3 32.0
-1 -6 -2 3989.8 3491.8 83.7
-1 -6 -1 1835.4 2992.3 56.7
-1 -6 0 370.3 422.8 14.8
-1 -6 1 1833.9 2989.4 46.3
-1 -6 2 3664.2 3503.0 90.7
-1 -6 3 1248.2 2370.9 32.0
-1 -6 4 1726.6 950.7 43.5
-1 -6 5 1342.3 1111.9 34.5
-1 -6 6 933.5 2024.6 24.5
-1 -6 7 215.9 136.8 7.2
-1 -6 8 133.9 35.2 5.6
-1 -6 9 1126.9 1501.6 25.7
-1 -6 10 1158.7 1257.6 30.9
-1 -6 11 2694.1 4388.2 83.2
-1 -6 12 241.2 130.5 9.2
-1 -6 13 566.0 1358.7 14.9
-1 -6 14 2063.1 2030.7 42.8
-1 -6 15 87.9 316.5 3.9
-1 -6 16 619.5 907.5 15.6
-1 -6 17 1412.1 2705.6 30.1
-1 -6 18 274.7 159.7 8.1
-1 -6 19 562.7 825.0 17.4
-1 -6 20 1199.4 2351.5 33.8
-1 -6 21 404.6 725.7 13.3
-1 -6 22 627.3 746.7 18.3
-1 -6 23 327.3 481.3 11.4
-1 -6 24 27.0 137.5 3.6
-1 -6 25 472.4 675.7 15.9
-1 -6 26 760.3 1395.2 33.6
-1 -6 27 459.6 1696.5 20.9
-1 -6 28 394.1 871.8 18.7
-1 -6 29 38.5 9.0 5.8
-1 -6 30 383.1 657.1 21.2
-1 -6 31 235.8 707.6 23.0
-1 -6 32 18.2 49.8 6.1
-1 -6 33 355.7 607.2 30.9
-1 -6 34 161.9 84.3 16.4
-1 -6 36 30.9 6.0 9.5
-1 -6 37 203.8 545.8 29.9
-1 -5 -37 34.3 6.9 16.3
-1 -5 -35 244.4 393.4 44.7
-1 -5 -34 53.1 146.2 10.7
-1 -5 -33 36.4 37.5 9.0
-1 -5 -32 126.0 126.7 11.3
-1 -5 -31 408.1 779.8 25.4
-1 -5 -30 263.3 306.3 15.3
-1 -5 -29 46.7 116.6 4.3
-1 -5 -28 222.6 837.9 9.4
-1 -5 -27 23.3 46.4 3.4
-1 -5 -26 769.9 1150.9 22.2
-1 -5 -25 46.7 77.2 4.0
-1 -5 -24 421.6 521.4 14.3
-1 -5 -23 223.1 63.2 8.3
-1 -5 -22 90.6 84.2 5.3
-1 -5 -21 359.6 629.6 9.3
-1 -5 -20 227.8 347.7 6.8
-1 -5 -19 1175.4 2340.9 20.3
-1 -5 -18 182.9 4.7 4.7
-1 -5 -17 658.2 1564.9 14.3
-1 -5 -16 541.4 794.0 9.7
-1 -5 -15 350.4 820.9 7.2
-1 -5 -14 429.5 315.3 9.4
-1 -5 -13 621.2 982.1 12.2
-1 -5 -12 501.6 1073.7 12.5
-1 -5 -11 614.3 1500.0 12.1
-1 -5 -10 60.2 68.4 2.4
-1 -5 -9 1459.7 2533.8 26.6
-1 -5 -8 2551.3 4751.3 40.5
-1 -5 -7 6124.4 7785.2 111.8
-1 -5 -6 1031.9 1438.3 19.0
-1 -5 -5 3605.4 3821.0 69.1
-1 -5 -4 3571.9 6155.4 68.8
-1 -5 -3 1835.4 2069.3 35.8
-1 -5 -2 102.2 136.2 4.2
-1 -5 -1 3772.6 4025.8 92.1
-1 -5 0 47.4 24.1 3.6
-1 -5 1 3736.3 3973.6 91.6
-1 -5 2 78.1 138.3 4.6
-1 -5 3 1632.3 2099.1 40.8
-1 -5 4 3175.3 6187.9 76.6
-1 -5 5 3681.1 3806.2 88.8
-1 -5 6 1107.1 1468.2 24.4
-1 -5 7 6015.7 7731.7 124.4
-1 -5 8 2737.7 4735.8 67.5
-1 -5 9 1506.6 2480.8 39.2
-1 -5 10 90.6 66.5 6.0
-1 -5 11 591.2 1503.0 17.0
-1 -5 12 564.4 1050.7 14.1
-1 -5 13 593.7 1006.3 13.6
-1 -5 14 410.9 310.4 9.2
-1 -5 15 346.5 803.6 8.4
-1 -5 16 534.9 812.7 11.3
-1 -5 17 637.0 1563.8 15.0
-1 -5 18 185.3 3.9 5.7
-1 -5 19 1175.4 2382.3 23.9
-1 -5 20 243.9 353.6 8.2
-1 -5 21 377.7 622.1 10.8
-1 -5 22 68.3 79.0 4.9
-1 -5 23 251.0 60.7 8.3
-1 -5 24 390.0 522.2 12.4
-1 -5 25 36.8 82.7 4.0
-1 -5 26 732.7 1159.8 23.6
-1 -5 27 43.4 47.7 4.8
-1 -5 28 194.4 852.1 9.2
-1 -5 29 58.0 125.1 5.8
-1 -5 30 247.2 306.5 16.4
-1 -5 31 476.9 779.1 29.7
-1 -5 32 144.2 130.5 11.7
-1 -5 34 34.9 149.9 8.9
-1 -5 35 228.4 390.2 24.8
-1 -5 36 22.8 75.0 8.8
-1 -5 37 30.3 7.3 12.7
-1 -4 -37 36.2 270.3 15.1
-1 -4 -36 179.6 172.1 34.6
-1 -4 -34 66.5 127.2 9.1
-1 -4 -33 94.6 172.7 11.9
-1 -4 -32 18.8 49.2 5.4
-1 -4 -31 75.3 325.6 6.7
-1 -4 -30 45.0 155.5 5.1
-1 -4 -29 57.5 228.9 5.3
-1 -4 -28 581.1 635.6 21.0
-1 -4 -27 198.3 831.7 9.3
-1 -4 -26 769.9 722.9 21.3
-1 -4 -25 295.3 700.3 9.6
-1 -4 -24 86.6 169.6 3.9
-1 -4 -23 5.5 5.5 2.4
-1 -4 -22 364.2 1596.9 10.6
-1 -4 -21 76.9 158.1 3.4
-1 -4 -20 274.2 822.3 6.3
-1 -4 -19 147.2 233.3 4.2
-1 -4 -18 1223.7 2680.5 20.7
-1 -4 -17 428.7 474.0 7.9
-1 -4 -16 610.8 310.5 10.3
-1 -4 -15 132.3 255.7 4.4
-1 -4 -14 1308.0 3033.0 22.7
-1 -4 -13 114.2 2.8 3.7
-1 -4 -12 347.2 562.8 7.8
-1 -4 -11 1143.3 1079.4 21.2
-1 -4 -10 2556.6 2966.0 49.4
-1 -4 -9 278.2 228.6 5.8
-1 -4 -8 315.4 1371.0 7.4
-1 -4 -7 2768.8 4044.3 44.0
-1 -4 -6 1537.9 1678.6 30.1
-1 -4 -5 490.0 1216.5 11.6
-1 -4 -4 604.8 187.6 12.9
-1 -4 -3 847.2 1436.0 19.3
-1 -4 -2 12412.0 14865.8 295.2
-1 -4 -1 2547.8 3116.4 54.5
-1 -4 0 649.3 1210.6 18.7
-1 -4 1 2347.8 3099.5 59.1
-1 -4 2 12118.6 14981.6 284.0
-1 -4 3 826.1 1448.9 22.0
-1 -4 4 536.6 175.8 14.5
-1 -4 5 491.5 1201.6 13.9
-1 -4 6 1569.5 1689.3 48.3
-1 -4 7 2761.5 4019.1 67.8
-1 -4 8 381.1 1337.3 11.6
-1 -4 9 254.9 227.1 8.9
-1 -4 10 2366.4 2933.3 45.8
-1 -4 11 1139.8 1085.5 23.5
-1 -4 12 364.2 546.5 9.3
-1 -4 13 140.5 3.2 5.0
-1 -4 14 1365.3 2958.2 25.8
-1 -4 15 163.2 260.7 5.3
-1 -4 16 566.9 307.9 11.6
-1 -4 17 413.7 467.2 9.2
-1 -4 18 1179.0 2675.9 22.7
-1 -4 19 142.5 236.4 4.6
-1 -4 20 299.5 809.3 8.4
-1 -4 21 69.7 160.1 3.8
-1 -4 22 390.0 1600.2 12.4
-1 -4 23 9.7 5.5 3.7
-1 -4 24 85.3 156.3 4.5
-1 -4 25 324.8 699.1 9.4
-1 -4 26 757.4 723.8 26.9
-1 -4 27 193.9 831.1 7.8
-1 -4 28 560.2 632.8 19.0
-1 -4 29 47.9 232.4 5.5
-1 -4 30 51.3 152.2 6.5
-1 -4 31 96.6 321.9 8.9
-1 -4 32 22.8 46.6 6.2
-1 -4 33 92.6 170.1 9.1
-1 -4 34 58.3 123.6 8.0
-1 -4 35 18.2 102.6 9.4
-1 -4 36 201.8 178.2 22.3
-1 -4 37 48.6 271.9 9.7
-1 -3 -38 125.2 61.2 28.9
-1 -3 -37 104.7 182.8 16.0
-1 -3 -36 28.3 49.3 8.9
-1 -3 -35 83.7 176.9 12.8
-1 -3 -34 127.6 241.1 14.2
-1 -3 -33 111.9 299.8 11.1
-1 -3 -32 10.1 228.8 4.9
-1 -3 -31 150.1 484.2 9.8
-1 -3 -30 346.5 658.1 16.2
-1 -3 -29 26.8 158.9 4.5
-1 -3 -28 900.8 2018.7 27.2
-1 -3 -27 236.9 660.5 9.7
-1 -3 -26 1063.5 1997.7 31.8
-1 -3 -25 242.3 352.9 8.1
-1 -3 -24 157.0 80.8 6.1
-1 -3 -23 87.3 212.2 3.9
-1 -3 -22 132.3 434.1 5.2
-1 -3 -21 430.2 1486.6 9.4
-1 -3 -20 290.6 1002.3 6.5
-1 -3 -19 891.4 2429.6 15.6
-1 -3 -18 32.9 88.7 2.8
-1 -3 -17 1246.9 2369.2 20.9
-1 -3 -16 781.6 798.8 12.7
-1 -3 -15 73.2 371.8 2.7
-1 -3 -14 270.1 316.3 5.7
-1 -3 -13 42.3 98.5 2.0
-1 -3 -12 768.0 2211.7 13.5
-1 -3 -11 74.7 555.0 2.1
-1 -3 -10 386.5 642.6 6.2
-1 -3 -9 560.2 1127.5 10.7
-1 -3 -8 3943.6 6363.8 67.9
-1 -3 -7 2159.2 3010.1 40.5
-1 -3 -6 389.3 2979.9 8.9
-1 -3 -5 1447.7 2124.9 29.2
-1 -3 -4 178.2 629.3 6.5
-1 -3 -3 14572.5 20971.0 593.3
-1 -3 -2 3448.0 3971.7 83.9
-1 -3 -1 11463.9 15595.1 470.3
-1 -3 0 14212.9 14355.4 577.7
-1 -3 1 11367.0 15647.5 464.6
-1 -3 4 222.6 636.9 9.4
-1 -3 5 1442.4 2134.0 37.1
-1 -3 6 364.9 2958.3 13.3
-1 -3 7 2083.7 3014.9 63.6
-1 -3 8 3856.6 6358.9 95.3
-1 -3 9 521.3 1120.8 12.7
-1 -3 10 362.3 661.7 8.6
-1 -3 11 91.9 548.7 4.3
-1 -3 12 817.1 2194.0 16.9
-1 -3 13 36.4 106.9 2.7
-1 -3 14 273.0 310.2 6.3
-1 -3 15 54.6 382.1 2.8
-1 -3 16 844.2 779.1 16.2
-1 -3 17 1173.0 2367.0 22.7
-1 -3 18 42.3 86.2 3.4
-1 -3 19 928.2 2392.9 18.1
-1 -3 20 260.5 1010.0 7.3
-1 -3 21 437.5 1475.5 9.5
-1 -3 22 136.0 417.5 5.3
-1 -3 23 108.3 205.0 4.4
-1 -3 24 156.6 82.6 5.2
-1 -3 25 257.7 356.3 8.4
-1 -3 26 1058.9 2016.6 28.4
-1 -3 27 205.8 665.4 8.0
-1 -3 28 834.1 2037.3 29.2
-1 -3 29 42.3 165.8 6.1
-1 -3 30 349.8 658.5 15.0
-1 -3 31 189.6 494.6 17.3
-1 -3 32 24.3 227.0 6.0
-1 -3 33 101.1 297.7 10.2
-1 -3 34 130.7 247.4 11.2
-1 -3 35 46.4 177.1 9.0
-1 -3 36 51.1 48.0 9.5
-1 -3 37 122.9 186.6 15.5
-1 -3 38 113.8 65.5 19.0
-1 -2 -38 42.5 35.0 11.8
-1 -2 -37 62.9 379.1 12.4
-1 -2 -36 93.2 231.6 14.1
-1 -2 -35 54.4 259.7 10.5
-1 -2 -34 282.9 627.0 26.4
-1 -2 -33 164.6 345.8 13.9
-1 -2 -31 123.3 205.5 7.7
-1 -2 -30 113.0 589.4 5.9
-1 -2 -29 153.6 432.1 7.8
-1 -2 -28 317.9 381.9 10.6
-1 -2 -27 607.4 834.4 18.0
-1 -2 -26 38.9 177.9 3.9
-1 -2 -25 336.8 843.8 12.2
-1 -2 -24 27.9 86.9 3.3
-1 -2 -23 143.8 418.7 5.9
-1 -2 -22 424.4 1462.1 9.3
-1 -2 -21 167.7 585.3 5.4
-1 -2 -20 800.2 533.4 15.8
-1 -2 -19 775.8 1065.7 15.5
-1 -2 -18 162.3 40.5 4.9
-1 -2 -17 96.3 29.6 3.4
-1 -2 -16 589.5 420.1 11.0
-1 -2 -15 899.8 1624.9 13.6
-1 -2 -14 350.4 1945.0 5.2
-1 -2 -13 1133.9 1900.0 17.6
-1 -2 -12 240.1 688.2 4.9
-1 -2 -11 550.4 706.7 9.8
-1 -2 -10 728.9 456.2 14.1
-1 -2 -9 1532.5 2853.1 24.6
-1 -2 -8 1706.3 2637.4 27.4
-1 -2 -7 347.2 141.0 9.1
-1 -2 -6 686.3 630.4 14.6
-1 -2 -5 4027.3 9041.3 97.3
-1 -2 -4 1770.3 2183.0 52.8
-1 -2 -3 1649.2 2829.7 35.4
-1 -2 -2 2066.3 6213.8 61.8
-1 -2 -1 5435.6 10894.1 159.3
-1 -2 0 58.5 22.9 3.7
-1 -2 1 5622.3 10960.3 135.9
-1 -2 2 2075.8 6206.4 52.4
-1 -2 3 1562.6 2841.5 40.0
-1 -2 4 1702.0 2177.8 43.1
-1 -2 5 3744.8 9200.5 91.7
-1 -2 6 603.1 620.8 17.1
-1 -2 7 340.7 152.3 9.0
-1 -2 8 1692.0 2645.5 37.3
-1 -2 9 1524.3 2815.0 34.0
-1 -2 10 703.7 450.2 16.6
-1 -2 11 561.1 670.9 10.7
-1 -2 12 270.1 683.1 6.9
-1 -2 13 1114.1 1906.3 23.3
-1 -2 14 345.2 1945.0 8.4
-1 -2 15 942.1 1583.8 19.3
-1 -2 16 534.1 424.1 13.7
-1 -2 17 99.7 30.2 3.1
-1 -2 18 182.0 40.1 5.2
-1 -2 19 721.4 1065.0 15.0
-1 -2 20 765.1 538.1 17.4
-1 -2 21 164.1 596.0 5.4
-1 -2 22 430.2 1465.2 11.6
-1 -2 23 156.6 410.0 6.1
-1 -2 24 41.8 86.0 3.4
-1 -2 25 316.1 841.6 13.0
-1 -2 26 66.3 180.7 4.3
-1 -2 27 601.4 851.2 18.0
-1 -2 28 343.3 381.5 11.0
-1 -2 29 155.7 441.2 9.6
-1 -2 30 120.6 590.2 7.3
-1 -2 31 156.6 204.3 10.9
-1 -2 32 10.6 32.8 6.4
-1 -2 33 158.8 351.6 11.0
-1 -2 34 251.6 623.9 17.1
-1 -2 35 41.4 261.6 7.4
-1 -2 36 97.3 233.2 11.7
-1 -2 37 100.8 386.1 14.0
-1 -2 38 46.2 34.2 12.1
-1 -1 -36 333.7 399.3 35.7
-1 -1 -35 112.3 164.2 14.0
-1 -1 -34 108.3 184.8 13.4
-1 -1 -33 14.6 39.8 7.3
-1 -1 -32 159.7 222.7 10.1
-1 -1 -31 150.1 388.9 8.1
-1 -1 -30 148.9 310.4 8.1
-1 -1 -29 628.2 1848.6 21.0
-1 -1 -28 258.2 594.6 8.4
-1 -1 -27 221.6 528.2 7.8
-1 -1 -26 308.1 710.4 9.2
-1 -1 -25 137.2 58.1 5.7
-1 -1 -24 57.5 81.2 4.0
-1 -1 -23 30.7 111.7 3.3
-1 -1 -22 452.2 1223.6 9.6
-1 -1 -21 506.3 998.8 11.8
-1 -1 -20 642.2 356.5 15.0
-1 -1 -19 1485.1 2870.8 33.6
-1 -1 -18 5510.4 6466.9 98.3
-1 -1 -17 357.6 264.9 9.9
-1 -1 -16 225.2 1004.5 6.3
-1 -1 -15 1337.2 2524.1 26.8
-1 -1 -14 322.3 758.4 6.9
-1 -1 -13 759.3 1352.4 15.4
-1 -1 -12 588.6 668.2 10.1
-1 -1 -11 977.7 1686.6 16.3
-1 -1 -10 8242.9 11342.8 139.3
-1 -1 -9 1669.1 3316.2 32.8
-1 -1 -8 430.2 301.3 8.7
-1 -1 -7 5116.6 7677.2 94.8
-1 -1 -6 4336.0 4582.8 103.3
-1 -1 -4 4215.2 4047.5 88.3
-1 -1 -3 5471.7 8853.2 116.0
-1 -1 -2 368.9 1621.4 10.0
-1 -1 -1 969.0 2234.6 25.0
-1 -1 0 34.9 1232.9 2.1
-1 -1 1 985.4 2221.5 31.7
-1 -1 2 358.9 1620.5 17.8
-1 -1 3 4865.5 8770.3 92.4
-1 -1 4 3948.0 4097.7 74.5
-1 -1 5 10816.4 19398.0 181.3
-1 -1 6 4389.0 4507.6 80.8
-1 -1 7 4902.0 7628.6 92.7
-1 -1 8 411.6 295.7 8.5
-1 -1 9 1742.5 3342.8 33.5
-1 -1 10 8179.7 11262.7 195.5
-1 -1 11 1053.2 1687.0 23.8
-1 -1 12 631.7 687.8 14.0
-1 -1 13 728.0 1312.0 15.0
-1 -1 14 374.3 754.1 8.1
-1 -1 15 1325.7 2501.1 26.7
-1 -1 16 212.8 1011.9 6.6
-1 -1 17 389.3 264.6 8.9
-1 -1 18 5669.4 6457.9 110.2
-1 -1 19 1466.3 2870.0 30.7
-1 -1 20 617.7 346.8 14.7
-1 -1 21 479.2 987.0 10.7
-1 -1 22 532.5 1196.0 12.1
-1 -1 23 40.5 105.3 4.0
-1 -1 24 55.6 81.4 3.9
-1 -1 25 124.4 55.6 6.2
-1 -1 26 286.4 727.2 10.6
-1 -1 27 227.3 530.1 8.4
-1 -1 28 265.6 600.1 9.7
-1 -1 29 613.4 1863.5 22.4
-1 -1 30 141.3 310.2 7.5
-1 -1 31 168.2 379.1 11.3
-1 -1 32 167.7 221.9 13.5
-1 -1 33 9.1 38.2 5.5
-1 -1 34 96.6 184.2 9.9
-1 -1 35 95.6 163.4 9.9
-1 -1 36 282.9 397.1 24.6
-1 -1 37 36.2 204.2 10.1
0 -17 -5 263.3 758.3 54.3
0 -17 -4 30.1 151.3 12.4
0 -17 -3 18.5 50.4 11.6
0 -17 -1 97.3 64.5 18.6
0 -16 -14 20.7 21.8 10.0
0 -16 -12 29.4 2.6 10.4
0 -16 -10 221.6 734.8 29.6
0 -16 -9 324.8 306.3 41.5
0 -16 -8 53.8 15.1 13.6
0 -16 -7 372.9 228.3 37.7
0 -16 -6 24.8 24.5 8.9
0 -16 -5 58.8 4.4 11.0
0 -16 -4 84.4 32.4 12.8
0 -16 -3 97.7 64.6 13.4
0 -16 -2 52.8 93.4 10.6
0 -16 -1 34.7 2.8 9.4
0 -16 0 91.2 288.3 22.6
0 -15 -17 161.4 203.4 20.4
0 -15 -14 18.5 138.3 11.0
0 -15 -13 111.9 184.9 18.1
0 -15 -12 26.4 1.6 7.9
0 -15 -11 217.4 310.5 20.6
0 -15 -10 71.5 119.7 12.7
0 -15 -9 140.5 58.1 17.8
0 -15 -7 17.1 1.8 8.2
0 -15 -6 150.1 84.7 14.1
0 -15 -5 38.3 55.5 8.8
0 -15 -4 373.6 644.7 28.3
0 -15 -3 629.1 945.0 39.3
0 -15 -2 37.4 177.7 7.3
0 -14 -23 26.8 57.7 10.1
0 -14 -21 29.4 0.0 9.1
0 -14 -20 118.7 516.0 12.9
0 -14 -19 108.3 147.9 12.3
0 -14 -17 199.3 47.4 19.7
0 -14 -16 147.6 159.2 15.7
0 -14 -15 36.8 1.4 7.8
0 -14 -14 22.5 10.1 6.4
0 -14 -13 679.9 598.0 37.3
0 -14 -12 120.6 88.8 10.7
0 -14 -11 95.3 151.9 10.5
0 -14 -10 49.6 75.3 8.8
0 -14 -9 208.8 76.2 18.1
0 -14 -8 115.3 128.6 9.4
0 -14 -7 9.7 14.4 6.1
0 -14 -6 24.7 57.0 6.1
0 -14 -5 32.3 263.0 6.3
0 -14 -4 134.7 403.4 12.1
0 -14 -3 119.8 218.3 11.1
0 -14 -2 17.1 0.2 7.1
0 -14 -1 324.2 166.3 18.8
0 -14 0 284.1 257.6 24.1
0 -13 -24 63.4 50.6 13.6
0 -13 -21 158.8 648.7 14.1
0 -13 -20 101.1 105.4 10.5
0 -13 -19 22.1 0.0 7.5
0 -13 -18 69.7 130.8 7.3
0 -13 -17 31.5 199.3 5.7
0 -13 -16 795.3 1156.7 39.3
0 -13 -15 40.0 80.4 6.2
0 -13 -14 82.8 22.0 7.9
0 -13 -13 354.3 606.8 20.3
0 -13 -12 83.7 127.0 6.7
0 -13 -11 38.3 7.5 5.4
0 -13 -10 54.1 10.2 7.7
0 -13 -9 75.0 8.5 7.9
0 -13 -8 430.2 280.2 21.0
0 -13 -7 682.6 1318.3 31.0
0 -13 -6 249.9 639.2 13.2
0 -13 -5 145.1 46.8 9.7
0 -13 -4 50.1 1.2 6.4
0 -13 -3 386.5 661.2 19.2
0 -13 -2 12.4 19.8 5.2
0 -13 -1 733.6 1203.0 37.8
0 -12 -25 23.6 82.3 9.3
0 -12 -23 107.2 80.0 12.3
0 -12 -22 65.4 38.4 8.2
0 -12 -21 1033.0 1905.1 56.0
0 -12 -20 304.4 481.2 19.5
0 -12 -19 238.5 91.7 13.5
0 -12 -18 1341.0 1555.7 61.3
0 -12 -17 385.8 1177.6 19.2
0 -12 -16 861.5 1318.0 44.0
0 -12 -15 16.1 4.1 5.4
0 -12 -14 233.7 94.4 11.2
0 -12 -13 254.3 51.6 15.6
0 -12 -12 11.8 12.7 5.7
0 -12 -11 2798.3 3635.3 134.6
0 -12 -10 420.1 685.7 22.9
0 -12 -9 1663.4 1608.4 64.0
0 -12 -8 52.8 9.4 6.6
0 -12 -7 79.0 13.6 7.7
0 -12 -6 2250.8 2094.5 86.0
0 -12 -5 234.7 61.9 11.7
0 -12 -4 473.9 1330.4 19.0
0 -12 -3 247.2 69.1 11.5
0 -12 -2 1618.2 1980.0 54.7
0 -12 -1 1276.7 297.7 43.6
0 -12 0 232.6 221.8 15.4
0 -11 -30 390.0 1219.2 75.7
0 -11 -29 110.1 87.2 18.3
0 -11 -28 75.9 39.4 13.7
0 -11 -27 32.3 26.7 10.1
0 -11 -24 13.0 3.1 6.9
0 -11 -23 70.0 487.9 6.7
0 -11 -22 289.4 1221.4 14.2
0 -11 -21 745.9 733.1 35.2
0 -11 -20 920.8 1149.1 42.3
0 -11 -19 182.5 134.5 10.4
0 -11 -18 808.1 1038.8 31.7
0 -11 -17 374.3 198.3 16.2
0 -11 -16 29.2 31.5 4.9
0 -11 -15 637.0 730.5 28.2
0 -11 -14 362.3 423.4 14.6
0 -11 -13 335.6 342.7 14.0
0 -11 -12 115.3 218.8 7.1
0 -11 -11 3085.6 4757.2 100.7
0 -11 -10 522.9 918.5 38.3
0 -11 -9 435.3 406.9 19.6
0 -11 -8 527.7 442.9 22.4
0 -11 -7 170.0 393.0 8.2
0 -11 -4 151.8 15.3 7.7
0 -11 -3 711.1 682.1 24.2
0 -11 -2 34.9 0.5 4.5
0 -11 -1 689.9 795.2 23.8
0 -10 -32 124.0 143.6 28.7
0 -10 -31 120.6 212.1 27.6
0 -10 -29 302.0 919.9 38.2
0 -10 -28 30.3 157.6 10.6
0 -10 -27 30.3 87.8 8.3
0 -10 -26 20.4 26.1 5.8
0 -10 -25 80.9 229.4 6.9
0 -10 -24 542.2 1526.1 26.0
0 -10 -23 11.2 31.3 4.5
0 -10 -22 145.9 670.3 9.7
0 -10 -21 150.6 226.3 7.7
0 -10 -20 117.2 136.4 7.2
0 -10 -19 1352.5 2067.2 57.7
0 -10 -18 1848.9 1597.8 55.5
0 -10 -17 25.5 29.7 4.2
0 -10 -16 24.3 0.1 4.6
0 -10 -14 523.7 635.5 17.6
0 -10 -13 256.0 101.9 12.3
0 -10 -12 483.8 1035.4 17.6
0 -10 -11 196.9 92.4 9.3
0 -10 -10 1144.5 1537.2 36.6
0 -10 -9 622.1 815.6 24.3
0 -10 -8 838.1 1073.2 27.2
0 -10 -7 98.0 14.9 8.3
0 -10 -6 99.7 27.8 5.6
0 -10 -5 500.8 694.4 20.3
0 -10 -4 1679.1 3097.0 52.9
0 -10 -3 79.0 41.6 8.4
0 -10 -2 9.7 8.9 3.7
0 -10 -1 300.2 1003.4 10.3
0 -10 0 688.1 418.3 36.6
0 -9 -34 26.8 8.5 14.3
0 -9 -33 257.7 756.5 52.0
0 -9 -32 49.8 314.2 12.5
0 -9 -30 88.6 337.8 14.1
0 -9 -29 44.6 34.8 8.1
0 -9 -28 912.4 1668.8 63.2
0 -9 -27 8.5 254.6 5.2
0 -9 -26 290.0 36.9 14.8
0 -9 -25 44.3 0.1 5.1
0 -9 -24 228.4 673.9 13.7
0 -9 -23 33.1 135.4 5.4
0 -9 -22 199.8 302.8 10.8
0 -9 -21 526.9 877.3 21.6
0 -9 -20 70.3 38.2 5.0
0 -9 -18 479.2 956.8 17.6
0 -9 -17 455.9 359.1 15.6
0 -9 -16 334.3 280.8 11.5
0 -9 -15 42.5 326.7 4.3
0 -9 -14 100.1 354.4 5.2
0 -9 -13 115.3 139.0 6.0
0 -9 -12 61.8 13.4 4.9
0 -9 -11 64.0 29.6 4.5
0 -9 -10 234.7 680.4 7.5
0 -9 -9 616.9 203.3 17.3
0 -9 -8 48.6 293.6 4.1
0 -9 -7 1055.5 1049.6 30.6
0 -9 -6 522.1 582.9 14.3
0 -9 -5 2211.3 2392.8 50.8
0 -9 -4 866.6 381.0 22.6
0 -9 -3 1470.3 1061.8 34.8
0 -9 -2 310.5 459.9 9.8
0 -9 -1 117.5 298.2 5.3
0 -8 -35 30.9 169.9 14.5
0 -8 -34 90.9 39.6 17.3
0 -8 -33 21.8 106.0 10.6
0 -8 -30 54.6 361.3 9.0
0 -8 -28 128.7 161.9 9.1
0 -8 -27 143.8 426.5 9.6
0 -8 -26 739.3 769.0 37.9
0 -8 -25 6.0 195.0 3.9
0 -8 -24 191.0 103.9 9.2
0 -8 -23 8.5 4.9 4.0
0 -8 -22 24.7 31.4 4.0
0 -8 -21 20.1 3.8 3.6
0 -8 -20 186.7 8.3 8.6
0 -8 -19 46.2 158.6 4.0
0 -8 -18 229.4 115.1 9.0
0 -8 -17 45.5 85.0 4.2
0 -8 -16 701.9 1202.5 19.4
0 -8 -15 49.8 1.8 3.9
0 -8 -14 27.9 714.9 3.3
0 -8 -13 151.4 36.5 6.0
0 -8 -12 45.3 35.0 4.0
0 -8 -11 2180.3 3355.0 48.8
0 -8 -10 10.3 25.9 3.4
0 -8 -9 26.1 10.2 4.6
0 -8 -8 12.4 1.6 4.3
0 -8 -7 760.3 413.6 19.2
0 -8 -6 142.1 869.8 6.2
0 -8 -5 3397.1 3956.3 89.4
0 -8 -4 302.6 261.6 10.9
0 -8 -3 669.9 425.9 17.1
0 -8 -2 245.5 123.1 7.6
0 -8 -1 458.1 74.6 12.7
0 -8 0 882.1 607.6 30.0
0 -7 -36 118.7 250.5 20.5
0 -7 -35 212.8 559.9 42.7
0 -7 -34 73.5 17.3 23.3
0 -7 -33 368.9 865.0 31.5
0 -7 -32 27.3 28.8 7.7
0 -7 -31 32.3 290.2 6.7
0 -7 -30 89.6 466.1 8.2
0 -7 -29 200.3 237.7 12.3
0 -7 -28 998.5 1439.7 50.7
0 -7 -27 89.6 58.8 6.6
0 -7 -26 1122.2 1475.6 47.9
0 -7 -25 111.6 386.4 6.6
0 -7 -24 1357.6 2490.4 39.8
0 -7 -23 210.3 109.0 9.6
0 -7 -22 738.3 621.1 22.7
0 -7 -21 137.2 283.5 6.1
0 -7 -20 58.5 19.5 4.0
0 -7 -19 175.0 332.7 6.9
0 -7 -18 726.1 731.7 19.7
0 -7 -17 2919.4 6875.9 67.8
0 -7 -16 2071.0 2911.9 39.7
0 -7 -15 444.8 367.4 10.3
0 -7 -14 448.5 311.2 10.3
0 -7 -13 129.1 8.9 4.8
0 -7 -12 21.3 6.0 3.7
0 -7 -11 3161.5 3575.1 62.7
0 -7 -10 2728.6 4000.8 60.1
0 -7 -9 46.4 0.2 3.6
0 -7 -8 539.0 253.6 16.2
0 -7 -7 22.1 17.5 4.3
0 -7 -6 124.4 480.9 5.4
0 -7 -5 75.9 21.9 4.6
0 -7 -4 711.1 2741.2 19.5
0 -7 -3 3509.7 3710.5 86.7
0 -7 -2 885.2 236.0 20.7
0 -7 -1 1869.9 3177.5 40.7
0 -6 -37 88.9 129.2 23.0
0 -6 -36 245.0 687.5 44.7
0 -6 -34 23.3 153.6 10.3
0 -6 -33 499.3 1565.2 41.3
0 -6 -32 114.2 284.2 13.4
0 -6 -31 131.5 238.7 10.0
0 -6 -30 20.4 77.2 5.8
0 -6 -29 137.6 168.3 7.8
0 -6 -28 33.1 110.2 4.8
0 -6 -27 39.6 100.6 4.6
0 -6 -26 327.9 105.3 14.5
0 -6 -25 2512.7 5089.2 73.4
0 -6 -24 208.8 52.9 8.1
0 -6 -23 16.8 425.0 3.3
0 -6 -22 184.4 270.7 6.6
0 -6 -21 859.5 1652.6 24.5
0 -6 -20 139.2 36.0 5.3
0 -6 -19 567.7 2040.8 17.4
0 -6 -18 1397.7 885.4 26.1
0 -6 -17 1527.0 1794.2 30.0
0 -6 -16 275.3 574.5 6.9
0 -6 -15 1577.8 2241.2 30.5
0 -6 -14 1984.7 1098.3 37.3
0 -6 -13 1081.7 1274.4 21.8
0 -6 -12 3751.2 3369.4 64.1
0 -6 -11 51.3 343.4 3.0
0 -6 -10 28.6 3.5 3.4
0 -6 -9 696.3 1487.4 16.6
0 -6 -8 62.1 0.3 3.8
0 -6 -7 1679.1 2971.1 42.9
0 -6 -6 4855.7 6007.4 116.6
0 -6 -5 783.5 371.4 21.5
0 -6 -4 1814.6 2083.2 46.0
0 -6 -3 357.0 377.4 11.2
0 -6 -2 1715.0 4055.3 44.8
0 -6 -1 1163.5 825.0 26.2
0 -6 0 2472.7 2871.0 76.3
0 -5 -38 44.3 61.1 16.5
0 -5 -37 77.5 179.6 20.3
0 -5 -35 201.3 325.1 19.3
0 -5 -34 554.5 1460.3 46.0
0 -5 -33 70.3 77.7 9.1
0 -5 -32 50.1 38.9 10.1
0 -5 -31 156.2 396.1 9.1
0 -5 -30 352.4 812.8 17.0
0 -5 -29 17.1 77.0 4.6
0 -5 -28 53.8 833.0 5.1
0 -5 -27 899.8 1031.4 27.2
0 -5 -25 13.4 9.6 3.7
0 -5 -24 394.1 822.2 11.8
0 -5 -23 1270.4 2084.9 32.3
0 -5 -22 343.3 278.0 10.3
0 -5 -21 51.6 83.4 3.8
0 -5 -20 453.6 501.3 9.7
0 -5 -19 153.6 409.9 4.8
0 -5 -18 756.5 1095.3 15.3
0 -5 -17 6.0 122.0 2.4
0 -5 -16 1785.0 1769.2 30.9
0 -5 -15 3091.4 4255.3 52.3
0 -5 -14 480.0 338.3 9.2
0 -5 -13 3294.2 6497.2 58.0
0 -5 -12 1767.4 2106.9 32.2
0 -5 -11 2354.6 2733.6 42.3
0 -5 -10 772.8 378.0 14.5
0 -5 -9 1004.1 2291.7 21.0
0 -5 -8 4677.6 4151.8 97.7
0 -5 -7 1561.3 1086.4 33.1
0 -5 -6 436.7 1158.7 12.4
0 -5 -5 1042.0 1678.1 32.6
0 -5 -4 777.7 3865.1 25.3
0 -5 -3 1021.8 1128.6 26.7
0 -5 -2 591.2 53.9 16.1
0 -5 -1 1906.3 2363.3 47.2
0 -4 -38 16.8 7.6 9.7
0 -4 -36 47.2 121.3 9.8
0 -4 -35 347.8 870.8 29.9
0 -4 -34 113.8 296.9 11.9
0 -4 -33 193.0 210.4 16.0
0 -4 -32 34.9 523.9 6.6
0 -4 -31 93.6 316.2 8.1
0 -4 -30 32.3 23.2 4.6
0 -4 -29 9.1 64.1 4.0
0 -4 -28 79.0 13.3 5.6
0 -4 -27 170.9 450.8 6.8
0 -4 -26 49.6 9.4 4.9
0 -4 -25 1042.0 1570.1 27.0
0 -4 -24 26.1 0.0 3.6
0 -4 -23 24.3 170.9 2.8
0 -4 -22 128.4 274.9 4.7
0 -4 -21 79.0 38.5 3.7
0 -4 -20 439.6 332.3 10.2
0 -4 -19 50.8 438.1 3.0
0 -4 -18 3939.3 3979.5 78.8
0 -4 -17 932.5 1206.3 18.1
0 -4 -16 814.1 1387.4 14.9
0 -4 -15 4538.0 6736.6 72.8
0 -4 -14 217.4 119.7 6.2
0 -4 -13 3344.4 6365.2 54.4
0 -4 -12 465.6 3056.9 9.8
0 -4 -11 348.5 153.2 7.8
0 -4 -10 8891.3 12655.1 147.9
0 -4 -9 1449.0 2141.1 25.2
0 -4 -8 1992.5 4124.1 43.6
0 -4 -7 1699.2 3877.1 35.9
0 -4 -6 4078.3 4588.4 84.6
0 -4 -5 1823.5 2005.9 46.1
0 -4 -4 67.1 162.3 4.6
0 -4 -3 2800.1 4424.4 83.0
0 -4 -2 2940.2 2419.3 71.8
0 -4 -1 7512.9 12344.8 178.3
0 -4 0 1441.1 4000.4 45.0
0 -3 -39 56.4 73.3 13.6
0 -3 -35 27.9 93.2 7.9
0 -3 -34 256.0 729.9 20.1
0 -3 -33 16.8 0.0 5.4
0 -3 -32 75.9 398.2 6.7
0 -3 -31 648.4 2329.7 30.2
0 -3 -30 5.8 15.9 3.7
0 -3 -29 6.7 3.0 3.3
0 -3 -28 65.7 79.7 4.5
0 -3 -27 20.7 3.6 3.6
0 -3 -26 89.2 1020.6 4.9
0 -3 -25 78.4 287.8 4.6
0 -3 -24 138.0 226.8 5.3
0 -3 -23 46.0 23.2 3.3
0 -3 -22 23.1 237.7 2.7
0 -3 -21 259.4 484.6 6.2
0 -3 -20 193.5 17.0 5.3
0 -3 -19 40.7 57.2 2.4
0 -3 -18 219.5 370.0 6.2
0 -3 -17 2388.5 3899.4 42.6
0 -3 -16 4047.2 3822.6 64.3
0 -3 -15 2168.9 2534.0 35.7
0 -3 -14 65.7 119.0 2.8
0 -3 -13 1019.6 1811.9 17.8
0 -3 -12 1540.7 4508.1 27.4
0 -3 -11 1156.3 2931.3 20.2
0 -3 -10 1212.7 393.1 20.6
0 -3 -9 1109.4 1386.4 20.9
0 -3 -8 18858.7 22211.8 378.2
0 -3 -7 2754.2 2637.1 47.6
0 -3 -6 183.9 321.8 5.2
0 -3 -5 697.3 1543.1 15.6
0 -3 -4 5994.1 17903.4 143.0
0 -3 -3 6383.5 11292.6 183.8
0 -3 -2 2280.7 2452.2 68.3
0 -3 -1 1783.5 2389.5 44.2
0 -2 -39 21.3 16.9 10.0
0 -2 -38 74.1 32.3 13.8
0 -2 -36 158.4 56.8 19.3
0 -2 -35 100.8 240.4 11.2
0 -2 -34 67.1 78.4 10.3
0 -2 -33 221.0 214.5 13.5
0 -2 -32 16.8 12.7 5.1
0 -2 -30 90.9 138.0 6.3
0 -2 -29 74.4 311.5 4.5
0 -2 -28 114.5 752.0 6.0
0 -2 -26 324.8 414.1 10.1
0 -2 -25 126.0 188.4 5.1
0 -2 -24 21.5 70.6 3.1
0 -2 -23 62.1 34.0 3.6
0 -2 -22 150.1 434.1 5.1
0 -2 -21 22.1 45.5 2.8
0 -2 -20 36.4 2037.3 4.2
0 -2 -19 413.7 535.8 9.2
0 -2 -18 345.9 191.6 7.1
0 -2 -17 7.9 2.3 2.2
0 -2 -16 33.5 473.7 2.4
0 -2 -15 548.7 1099.4 9.8
0 -2 -14 56.7 644.2 2.1
0 -2 -13 452.2 790.7 11.9
0 -2 -12 600.5 0.0 12.0
0 -2 -11 4096.1 7862.3 64.7
0 -2 -10 1857.9 1522.9 30.1
0 -2 -9 2752.3 3869.1 47.5
0 -2 -8 5323.1 7467.1 83.9
0 -2 -7 165.9 768.8 3.6
0 -2 -6 123.7 245.7 3.1
0 -2 -5 925.0 1207.5 17.0
0 -2 -4 673.5 195.5 15.4
0 -2 -3 4354.4 7571.7 103.5
0 -1 -39 22.5 7.7 10.2
0 -1 -37 61.2 825.5 12.0
0 -1 -36 285.8 660.0 31.2
0 -1 -34 15.8 51.1 5.8
0 -1 -33 30.9 61.4 5.8
0 -1 -32 14.6 249.4 4.5
0 -1 -31 156.2 434.3 7.8
0 -1 -30 17.1 8.1 4.3
0 -1 -29 16.1 65.2 4.6
0 -1 -28 515.8 569.5 15.8
0 -1 -27 174.5 482.0 6.9
0 -1 -26 1110.6 1632.3 29.0
0 -1 -25 10.6 33.7 3.3
0 -1 -24 126.4 491.1 5.5
0 -1 -23 343.3 711.7 8.4
0 -1 -22 8.8 42.1 3.0
0 -1 -21 86.0 160.9 4.2
0 -1 -20 14.8 108.8 3.1
0 -1 -19 1659.2 2969.9 38.3
0 -1 -18 1303.0 2075.1 26.4
0 -1 -17 48.4 301.7 3.4
0 -1 -16 347.8 265.6 13.7
0 -1 -15 28.8 143.5 3.6
0 -1 -14 513.4 1791.6 10.3
0 -1 -13 1459.7 3169.4 26.6
0 -1 -12 138.4 674.6 3.7
0 -1 -11 5894.7 10514.0 109.7
0 -1 -9 193.0 5.2 4.4
0 -1 -8 1907.8 6345.3 33.5
0 -1 -7 234.7 117.5 4.8
0 -1 -6 12945.8 23496.3 368.9
0 -1 -5 5.1 6262.8 1.5
0 0 6 68.8 1504.8 4.9
0 0 10 3622.1 5194.6 157.3
0 0 12 3014.3 3166.3 74.6
0 0 14 543.0 1199.8 13.0
0 0 16 1408.2 4094.7 27.5
0 0 18 333.0 690.6 8.3
0 0 20 1640.7 5470.4 33.9
0 0 22 110.1 72.7 4.0
0 0 24 580.2 311.9 14.3
0 0 26 530.1 1366.6 12.8
0 0 28 129.5 267.0 5.6
0 0 30 26.8 10.6 3.6
0 0 32 846.2 720.1 38.5
0 0 34 28.6 1.4 7.3
0 0 36 22.8 55.0 9.7
0 0 38 140.9 386.0 20.3
0 1 6 12540.5 23496.3 253.7
0 1 7 222.6 117.5 4.7
0 1 8 1892.6 6345.3 28.8
0 1 11 6154.4 10514.0 251.6
0 1 12 143.0 674.6 5.8
0 1 13 1481.0 3169.4 24.1
0 1 14 539.0 1791.6 9.7
0 1 15 33.1 143.5 2.4
0 1 16 364.2 265.6 6.7
0 1 17 55.4 301.7 2.9
0 1 18 1352.5 2075.1 23.1
0 1 19 1687.7 2969.9 28.6
0 1 20 11.0 108.8 2.1
0 1 21 80.6 160.9 3.4
0 1 22 7.9 42.1 2.4
0 1 23 327.9 711.7 7.6
0 1 24 122.9 491.1 4.6
0 1 25 7.9 33.7 2.7
0 1 26 1063.5 1632.3 26.1
0 1 27 166.4 482.0 5.8
0 1 28 504.0 569.5 14.1
0 1 30 21.8 8.1 3.9
0 1 31 132.7 434.3 6.8
0 1 32 22.1 249.4 6.1
0 1 33 48.6 61.4 7.5
0 1 34 28.3 51.1 9.1
0 1 36 342.6 660.0 52.3
0 1 37 32.3 825.5 15.3
0 1 39 38.3 7.7 15.7
0 2 5 911.3 1207.5 21.0
0 2 6 132.3 245.7 4.0
0 2 7 172.7 768.8 4.6
0 2 8 5420.2 7467.1 92.4
0 2 9 2785.4 3869.1 47.8
0 2 10 1901.7 1522.9 33.4
0 2 11 4167.8 7862.3 65.3
0 2 12 593.7 0.0 11.0
0 2 13 466.4 790.7 9.8
0 2 14 49.8 644.2 2.7
0 2 15 593.7 1099.4 11.9
0 2 16 25.5 473.7 2.5
0 2 17 14.3 2.3 2.4
0 2 18 350.4 191.6 7.2
0 2 19 428.0 535.8 9.4
0 2 20 31.5 2037.3 2.3
0 2 21 27.0 45.5 2.7
0 2 22 149.7 434.1 5.1
0 2 23 52.1 34.0 3.3
0 2 24 17.1 70.6 3.0
0 2 25 131.9 188.4 5.2
0 2 26 331.1 414.1 9.5
0 2 27 7.3 0.1 3.4
0 2 28 110.1 752.0 5.5
0 2 29 55.6 311.5 4.7
0 2 30 79.9 138.0 5.6
0 2 33 222.1 214.5 19.2
0 2 34 58.0 78.4 10.6
0 2 35 122.9 240.4 14.7
0 2 36 118.7 56.8 15.9
0 2 38 97.0 32.3 23.7
0 3 1 1814.6 2389.5 78.7
0 3 2 2213.0 2452.2 67.2
0 3 3 6154.4 11292.6 180.5
0 3 4 5876.0 17903.4 173.7
0 3 5 692.7 1543.1 23.9
0 3 6 186.2 321.8 8.1
0 3 7 2789.0 2637.1 70.0
0 3 9 1133.9 1386.4 29.3
0 3 10 1212.7 393.1 26.7
0 3 11 1194.6 2931.3 24.1
0 3 12 1602.8 4508.1 30.7
0 3 13 1044.2 1811.9 21.4
0 3 14 52.3 119.0 3.0
0 3 15 2167.3 2534.0 37.3
0 3 16 4127.4 3822.6 69.4
0 3 17 2458.9 3899.4 43.2
0 3 18 204.8 370.0 6.0
0 3 19 39.8 57.2 3.3
0 3 20 208.3 17.0 5.5
0 3 21 249.9 484.6 7.2
0 3 22 26.4 237.7 3.6
0 3 23 42.3 23.2 3.6
0 3 24 141.7 226.8 5.8
0 3 25 80.9 287.8 4.7
0 3 26 98.7 1020.6 5.5
0 3 27 7.3 3.6 4.2
0 3 28 87.0 79.7 6.2
0 3 31 607.4 2329.7 31.8
0 3 32 30.7 398.2 8.5
0 3 33 13.0 0.0 7.9
0 3 34 235.3 729.9 23.5
0 3 39 35.3 73.3 18.6
0 4 1 7359.6 12344.8 305.0
0 4 2 2976.2 2419.3 127.4
0 4 3 2670.7 4424.4 81.1
0 4 4 61.8 162.3 4.4
0 4 5 1819.0 2005.9 58.0
0 4 6 4082.8 4588.4 124.7
0 4 7 1672.0 3877.1 52.7
0 4 8 1969.2 4124.1 61.9
0 4 9 1399.0 2141.1 44.3
0 4 10 9000.1 12655.1 261.3
0 4 11 358.9 153.2 11.2
0 4 12 436.7 3056.9 13.1
0 4 13 3439.9 6365.2 83.8
0 4 14 237.4 119.7 8.6
0 4 15 4687.2 6736.6 112.2
0 4 16 863.5 1387.4 23.6
0 4 17 917.6 1206.3 22.2
0 4 18 3967.8 3979.5 87.8
0 4 19 48.6 438.1 4.1
0 4 20 440.4 332.3 12.4
0 4 21 72.3 38.5 5.0
0 4 22 128.4 274.9 7.1
0 4 23 25.5 170.9 4.2
0 4 24 17.9 0.0 4.6
0 4 25 1068.0 1570.1 35.3
0 4 26 43.2 9.4 5.7
0 4 27 167.7 450.8 9.9
0 4 28 72.9 13.3 8.0
0 4 29 10.3 64.1 6.4
0 4 30 26.4 23.2 7.0
0 4 31 84.7 316.2 10.6
0 4 32 50.3 523.9 9.4
0 4 33 163.2 210.4 17.8
0 4 34 127.2 296.9 15.3
0 4 35 290.6 870.8 31.5
0 4 36 61.2 121.3 17.7
0 4 37 72.6 137.6 19.3
0 5 2 569.3 53.9 26.6
0 5 3 1033.0 1128.6 47.1
0 5 4 805.2 3865.1 26.7
0 5 5 989.7 1678.1 32.9
0 5 6 426.6 1158.7 15.8
0 5 7 1542.0 1086.4 49.3
0 5 8 4627.7 4151.8 139.9
0 5 9 1007.4 2291.7 45.4
0 5 10 797.3 378.0 27.6
0 5 11 2385.1 2733.6 73.2
0 5 12 1801.2 2106.9 56.2
0 5 13 3391.0 6497.2 101.5
0 5 14 504.0 338.3 24.3
0 5 15 3177.2 4255.3 98.2
0 5 16 1844.4 1769.2 47.9
0 5 18 795.3 1095.3 22.6
0 5 19 153.6 409.9 7.3
0 5 20 472.4 501.3 15.2
0 5 21 53.1 83.4 5.8
0 5 22 336.8 278.0 14.7
0 5 23 1332.1 2084.9 48.3
0 5 24 366.2 822.2 16.0
0 5 25 21.3 9.6 5.8
0 5 26 17.1 7.9 5.8
0 5 27 889.3 1031.4 36.4
0 5 28 41.8 833.0 6.8
0 5 30 339.4 812.8 27.6
0 5 31 161.0 396.1 15.5
0 5 32 56.7 38.9 11.3
0 5 33 51.1 77.7 11.0
0 5 34 601.4 1460.3 88.1
0 5 35 250.5 325.1 40.8
0 5 37 71.5 179.6 22.1
0 6 2 1693.4 4055.3 73.2
0 6 3 387.2 377.4 20.6
0 6 4 1802.7 2083.2 79.9
0 6 5 777.7 371.4 36.9
0 6 6 4706.3 6007.4 143.5
0 6 7 1632.3 2971.1 52.1
0 6 8 77.5 0.3 6.8
0 6 9 760.3 1487.4 26.9
0 6 10 42.7 3.5 5.5
0 6 11 57.2 343.4 5.8
0 6 12 3847.9 3369.4 162.2
0 6 13 1237.1 1274.4 58.9
0 6 14 1913.9 1098.3 62.5
0 6 15 1677.7 2241.2 54.3
0 6 16 328.6 574.5 13.9
0 6 17 1614.0 1794.2 53.2
0 6 18 1443.7 885.4 39.7
0 6 19 604.8 2040.8 23.1
0 6 20 143.0 36.0 8.3
0 6 21 850.3 1652.6 32.5
0 6 22 183.9 270.7 9.9
0 6 23 17.6 425.0 5.4
0 6 24 202.8 52.9 11.9
0 6 25 2458.9 5089.2 93.3
0 6 26 271.9 105.3 16.7
0 6 27 16.1 100.6 6.7
0 6 28 40.9 110.2 8.5
0 6 29 85.0 168.3 12.2
0 6 31 128.7 238.7 15.8
0 6 32 176.9 284.2 26.9
0 6 33 506.3 1565.2 74.5
0 6 36 240.1 687.5 45.9
0 6 37 123.3 129.2 31.7
0 7 4 728.9 2741.2 34.8
0 7 5 82.1 21.9 9.5
0 7 6 141.3 480.9 11.6
0 7 7 25.2 17.5 4.5
0 7 8 588.6 253.6 22.0
0 7 9 46.2 0.2 5.4
0 7 10 2677.9 4000.8 119.1
0 7 11 3191.0 3575.1 141.8
0 7 12 19.8 6.0 6.7
0 7 13 129.1 8.9 8.3
0 7 14 486.1 311.2 27.7
0 7 15 396.2 367.4 24.3
0 7 16 2067.8 2911.9 96.7
0 7 17 2923.2 6875.9 124.4
0 7 18 677.2 731.7 32.7
0 7 19 188.6 332.7 12.4
0 7 20 51.1 19.5 7.5
0 7 21 158.4 283.5 11.4
0 7 22 777.7 621.1 38.9
0 7 23 243.9 109.0 16.3
0 7 24 1338.4 2490.4 52.3
0 7 25 70.0 386.4 8.2
0 7 26 1123.4 1475.6 70.1
0 7 27 48.8 58.8 10.0
0 7 28 928.2 1439.7 68.0
0 7 29 148.4 237.7 15.3
0 7 30 83.4 466.1 17.5
0 7 31 41.6 290.2 16.4
0 7 33 348.5 865.0 52.7
0 7 35 241.7 559.9 46.1
0 7 36 180.1 250.5 38.4
0 8 5 3284.2 3956.3 151.8
0 8 6 166.4 869.8 14.4
0 8 7 755.5 413.6 39.3
0 8 8 20.1 1.6 7.7
0 8 9 25.9 10.2 5.1
0 8 10 19.1 25.9 5.5
0 8 11 2086.9 3355.0 97.1
0 8 12 46.2 35.0 9.0
0 8 13 185.3 36.5 10.4
0 8 14 34.7 714.9 6.2
0 8 15 39.8 1.8 6.4
0 8 16 696.3 1202.5 46.9
0 8 17 71.8 85.0 12.1
0 8 18 205.3 115.1 13.5
0 8 19 48.4 158.6 7.3
0 8 20 165.5 8.3 12.1
0 8 21 16.4 3.8 6.3
0 8 22 24.8 31.4 7.8
0 8 24 217.9 103.9 17.5
0 8 25 27.0 195.0 8.1
0 8 26 806.1 769.0 59.4
0 8 27 177.3 426.5 23.7
0 8 28 138.0 161.9 21.3
0 8 30 51.1 361.3 15.2
0 8 31 42.5 36.1 15.2
0 8 34 86.6 39.6 23.7
0 9 6 582.7 582.9 32.8
0 9 7 1088.6 1049.6 55.2
0 9 9 577.7 203.3 33.5
0 9 10 217.9 680.4 17.5
0 9 11 79.9 29.6 12.5
0 9 12 61.0 13.4 10.6
0 9 13 94.2 139.0 8.5
0 9 14 96.6 354.4 8.9
0 9 15 52.8 326.7 7.9
0 9 16 323.5 280.8 18.8
0 9 17 444.8 359.1 24.3
0 9 18 488.4 956.8 38.5
0 9 20 51.1 38.2 8.5
0 9 21 557.8 877.3 36.2
0 9 22 165.5 302.8 13.9
0 9 23 36.2 135.4 9.4
0 9 24 200.3 673.9 26.6
0 9 25 89.6 0.1 16.5
0 9 26 362.9 36.9 41.2
0 9 28 928.2 1668.8 112.6
0 9 29 60.7 34.8 17.9
0 9 30 109.0 337.8 22.6
0 9 32 48.4 314.2 17.9
0 9 33 279.4 756.5 57.1
0 10 8 818.1 1073.2 54.8
0 10 9 594.6 815.6 41.6
0 10 10 1121.0 1537.2 74.7
0 10 11 233.1 92.4 21.8
0 10 12 464.8 1035.4 33.1
0 10 13 232.1 101.9 21.2
0 10 14 580.2 635.5 43.7
0 10 17 33.5 29.7 7.3
0 10 18 1903.2 1597.8 91.2
0 10 19 1358.9 2067.2 82.2
0 10 20 115.3 136.4 16.5
0 10 21 151.4 226.3 21.0
0 10 22 190.1 670.3 26.0
0 10 24 553.7 1526.1 60.7
0 10 25 77.2 229.4 16.8
0 10 27 61.2 87.8 17.7
0 10 28 55.4 157.6 17.9
0 10 29 300.8 919.9 55.0
0 10 31 146.3 212.1 33.7
0 10 32 83.1 143.6 24.8
0 11 11 3012.4 4757.2 200.9
0 11 12 134.3 218.8 17.0
0 11 13 355.7 342.7 30.9
0 11 14 277.6 423.4 25.6
0 11 15 551.2 730.5 50.7
0 11 19 178.2 134.5 24.2
0 11 20 986.5 1149.1 101.8
0 11 21 772.8 733.1 82.4
0 11 22 367.6 1221.4 42.1
0 11 23 109.4 487.9 20.8
0 11 28 38.5 39.4 18.6
0 11 29 145.5 87.2 33.2
0 11 30 318.5 1219.2 63.5
1 0 -38 26.8 13.5 14.1
1 0 -36 135.6 256.4 15.0
1 0 -34 220.5 320.5 18.1
1 0 -33 322.3 1479.5 21.9
1 0 -32 281.7 427.8 17.0
1 0 -31 52.8 4.7 7.3
1 0 -30 69.7 11.4 5.2
1 0 -29 7.3 217.2 3.7
1 0 -28 94.6 709.4 5.1
1 0 -27 14.6 22.4 3.3
1 0 -26 18.2 35.9 3.3
1 0 -24 435.3 443.1 13.1
1 0 -23 592.0 898.7 16.1
1 0 -22 285.2 6.9 6.5
1 0 -21 27.0 6.1 2.7
1 0 -20 2033.1 2342.2 42.4
1 0 -19 124.0 269.7 4.7
1 0 -18 2579.6 4050.8 44.3
1 0 -17 1112.9 1284.5 23.3
1 0 -16 4197.2 4506.1 101.6
1 0 -15 6064.5 11467.4 114.0
1 0 -14 113.8 1365.2 4.8
1 0 -13 746.9 948.3 14.3
1 0 -12 797.3 1246.9 14.8
1 0 -11 1227.3 3553.4 23.2
1 0 -10 432.4 1.6 16.7
1 0 -9 3103.0 5376.3 77.7
1 0 -7 3779.0 3408.2 115.7
1 0 -6 507.9 1885.7 11.0
1 0 -5 21701.4 34390.7 878.1
1 0 -4 15219.2 36069.2 623.6
1 0 -2 180.6 1304.3 8.4
1 0 -1 84.1 24.0 3.2
1 0 1 85.7 24.0 3.9
1 0 6 556.9 1885.7 16.5
1 0 7 3493.2 3408.2 101.0
1 0 9 2592.0 5376.3 104.7
1 0 10 393.4 1.6 10.4
1 0 11 1197.0 3553.4 21.7
1 0 12 865.6 1246.9 19.5
1 0 13 808.1 948.3 18.8
1 0 14 157.5 1365.2 6.1
1 0 15 6129.8 11467.4 147.4
1 0 16 4556.8 4506.1 108.2
1 0 17 1036.3 1284.5 28.1
1 0 18 2521.5 4050.8 56.0
1 0 19 142.5 269.7 5.0
1 0 20 2039.4 2342.2 37.8
1 0 21 32.3 6.1 2.8
1 0 22 223.6 6.9 6.8
1 0 23 584.4 898.7 16.0
1 0 24 451.4 443.1 11.9
1 0 26 16.1 35.9 3.6
1 0 27 15.8 22.4 4.3
1 0 28 89.9 709.4 5.6
1 0 29 11.8 217.2 3.6
1 0 30 63.2 11.4 5.5
1 0 31 53.8 4.7 5.4
1 0 32 246.1 427.8 14.8
1 0 33 301.4 1479.5 17.5
1 0 34 297.1 320.5 28.2
1 0 36 180.6 256.4 21.5
1 1 -39 31.3 10.2 16.2
1 1 -36 283.5 399.3 30.5
1 1 -35 84.1 164.2 10.9
1 1 -34 94.2 184.8 11.2
1 1 -33 16.8 39.8 7.9
1 1 -32 166.8 222.7 11.7
1 1 -31 161.0 388.9 10.2
1 1 -30 127.2 310.4 9.0
1 1 -29 620.3 1848.6 27.8
1 1 -28 259.9 594.6 11.8
1 1 -27 226.8 528.2 10.0
1 1 -26 290.6 710.4 10.7
1 1 -25 106.5 58.1 6.1
1 1 -24 68.3 81.2 5.2
1 1 -23 25.5 111.7 4.6
1 1 -22 490.8 1223.6 16.2
1 1 -21 458.1 998.8 13.4
1 1 -20 626.4 356.5 16.6
1 1 -19 1512.1 2870.8 42.0
1 1 -18 5598.8 6466.9 143.5
1 1 -17 383.8 264.9 13.0
1 1 -16 211.3 1004.5 7.1
1 1 -15 1348.6 2524.1 30.7
1 1 -14 367.6 758.4 10.0
1 1 -13 689.9 1352.4 19.2
1 1 -12 571.0 668.1 16.7
1 1 -11 1109.4 1686.6 25.5
1 1 -10 8126.2 11342.9 194.8
1 1 -9 1749.8 3316.2 45.2
1 1 -8 410.2 301.3 10.6
1 1 -7 5019.9 7677.2 103.7
1 1 -6 4389.0 4582.8 106.2
1 1 -5 10812.8 19350.2 311.7
1 1 -4 3985.4 4047.5 83.6
1 1 -3 4960.8 8853.2 120.3
1 1 -2 370.3 1621.4 12.7
1 1 -1 996.3 2234.6 44.0
1 1 0 35.5 1232.9 2.1
1 1 1 916.6 2221.5 24.3
1 1 2 333.7 1620.5 8.9
1 1 3 5651.0 8770.3 133.6
1 1 4 4056.1 4097.6 122.1
1 1 6 4723.1 4507.6 112.6
1 1 7 5287.6 7628.5 154.6
1 1 8 418.0 295.7 12.1
1 1 9 1611.2 3342.8 39.2
1 1 10 8385.9 11262.7 169.2
1 1 11 1068.0 1687.0 20.5
1 1 12 595.4 687.8 12.8
1 1 13 785.5 1312.0 21.5
1 1 14 374.3 754.1 9.4
1 1 15 1475.7 2501.1 37.5
1 1 16 237.9 1011.9 12.4
1 1 17 370.9 264.6 10.1
1 1 18 5711.5 6457.9 123.8
1 1 19 1462.3 2870.0 34.7
1 1 20 653.8 346.8 13.4
1 1 21 510.2 987.0 11.0
1 1 22 465.6 1196.0 10.5
1 1 23 21.5 105.3 3.1
1 1 24 52.1 81.4 4.0
1 1 25 129.5 55.6 5.2
1 1 26 289.4 727.2 8.9
1 1 27 237.9 530.1 8.6
1 1 28 241.7 600.1 9.2
1 1 29 636.1 1863.5 25.5
1 1 30 154.0 310.2 7.8
1 1 31 151.4 379.1 8.6
1 1 32 167.7 221.9 11.3
1 1 34 84.1 184.2 12.5
1 1 35 79.3 163.4 12.4
1 1 36 329.2 397.1 49.3
1 1 37 59.9 204.2 17.3
1 1 38 41.8 87.7 15.6
1 1 39 26.8 10.4 17.0
1 2 -38 29.2 35.0 17.3
1 2 -36 106.5 231.6 22.7
1 2 -35 58.5 259.7 11.7
1 2 -34 267.9 627.0 21.7
1 2 -33 143.8 345.8 12.5
1 2 -31 140.5 205.5 10.3
1 2 -30 104.7 589.4 7.1
1 2 -29 151.4 432.1 8.6
1 2 -28 322.9 381.9 11.3
1 2 -27 567.7 834.4 17.4
1 2 -26 47.4 177.9 4.6
1 2 -25 320.4 843.8 12.5
1 2 -24 31.3 86.9 4.5
1 2 -23 164.6 418.7 7.6
1 2 -22 382.4 1462.1 12.3
1 2 -21 143.8 585.3 6.7
1 2 -20 785.5 533.4 18.6
1 2 -19 759.3 1065.7 17.3
1 2 -18 169.1 40.5 6.3
1 2 -17 100.1 29.6 5.2
1 2 -16 539.0 420.1 14.6
1 2 -15 963.6 1624.9 22.7
1 2 -14 355.7 1945.0 10.5
1 2 -13 1129.2 1900.1 25.8
1 2 -12 265.6 688.2 9.1
1 2 -11 527.7 706.7 13.6
1 2 -10 742.1 456.2 20.9
1 2 -9 1540.7 2853.1 49.3
1 2 -8 1676.2 2637.4 52.8
1 2 -7 356.3 141.0 13.8
1 2 -6 581.9 630.4 28.6
1 2 -5 3895.6 9041.4 117.5
1 2 -4 1694.8 2183.0 43.1
1 2 -3 1586.1 2829.8 48.6
1 2 -2 2117.3 6213.8 93.0
1 2 -1 5575.3 10894.1 164.0
1 2 0 64.0 22.9 3.3
1 2 1 5761.6 10960.3 169.3
1 2 2 2164.0 6206.4 53.5
1 2 3 1669.1 2841.5 35.6
1 2 4 1787.9 2177.8 38.3
1 2 5 3906.5 9200.5 65.4
1 2 6 686.3 620.8 18.3
1 2 7 372.9 152.3 14.1
1 2 8 1790.9 2645.5 57.5
1 2 9 1568.1 2815.0 34.5
1 2 10 712.1 450.2 14.9
1 2 11 592.0 670.9 12.7
1 2 12 243.3 683.1 6.5
1 2 13 1096.7 1906.3 25.4
1 2 14 342.6 1945.0 13.6
1 2 15 952.8 1583.8 22.6
1 2 16 607.4 424.1 15.5
1 2 17 108.3 30.2 3.6
1 2 18 171.3 40.1 5.5
1 2 19 783.5 1065.0 14.6
1 2 20 801.2 538.1 14.8
1 2 21 195.9 596.0 6.3
1 2 22 420.1 1465.2 9.3
1 2 23 150.1 410.0 5.6
1 2 24 31.5 86.0 3.3
1 2 25 357.0 841.6 11.2
1 2 26 41.4 180.7 4.3
1 2 27 587.8 851.2 16.9
1 2 28 321.7 381.5 11.9
1 2 29 127.6 441.2 7.5
1 2 30 89.2 590.2 7.6
1 2 31 131.1 204.3 11.2
1 2 33 194.9 351.6 19.5
1 2 34 259.9 623.9 24.7
1 2 35 60.2 261.6 16.8
1 2 36 119.8 233.2 24.4
1 2 37 101.5 386.1 22.8
1 2 38 41.6 34.2 16.6
1 3 -38 91.2 61.2 23.0
1 3 -37 103.6 182.8 23.8
1 3 -35 101.8 176.9 21.1
1 3 -34 106.1 241.1 14.4
1 3 -33 86.6 299.8 12.0
1 3 -32 19.1 228.8 6.4
1 3 -31 111.9 484.2 10.0
1 3 -30 344.6 658.1 20.1
1 3 -29 35.5 158.9 5.4
1 3 -28 843.2 2018.7 25.3
1 3 -27 195.4 660.5 8.3
1 3 -26 1036.3 1997.7 29.2
1 3 -25 229.4 352.9 9.0
1 3 -24 170.9 80.8 7.7
1 3 -23 103.3 212.2 5.7
1 3 -22 116.4 434.1 5.6
1 3 -21 424.4 1486.6 11.5
1 3 -20 269.0 1002.3 8.6
1 3 -19 962.5 2429.6 20.5
1 3 -18 30.1 88.7 3.6
1 3 -17 1206.7 2369.2 29.1
1 3 -16 860.5 798.8 23.5
1 3 -15 67.4 371.8 4.9
1 3 -14 271.3 316.3 9.2
1 3 -13 43.6 98.5 3.7
1 3 -12 767.0 2211.7 19.3
1 3 -11 110.8 555.0 5.5
1 3 -10 370.9 642.6 12.1
1 3 -9 521.3 1127.5 12.7
1 3 -8 3983.2 6363.8 85.8
1 3 -7 2141.4 3010.1 54.8
1 3 -6 371.6 2979.9 14.1
1 3 -5 1461.0 2124.9 46.6
1 3 -4 204.8 629.3 9.0
1 3 -3 14568.3 20971.0 593.3
1 3 -2 3268.3 3971.6 99.6
1 3 2 3495.3 4006.0 72.1
1 3 3 14779.4 20835.2 415.3
1 3 4 186.7 636.9 7.6
1 3 5 1474.3 2134.0 45.5
1 3 6 379.7 2958.3 21.1
1 3 8 4276.6 6358.9 129.9
1 3 9 550.4 1120.8 15.5
1 3 10 390.7 661.7 9.0
1 3 11 78.4 548.7 3.1
1 3 12 809.1 2194.0 18.8
1 3 13 38.3 106.9 3.0
1 3 14 268.4 310.2 8.0
1 3 15 71.2 382.1 4.1
1 3 16 807.1 779.1 18.8
1 3 17 1250.6 2367.0 25.9
1 3 18 30.1 86.2 3.6
1 3 19 915.5 2392.9 20.0
1 3 20 289.4 1010.0 8.9
1 3 21 445.5 1475.5 11.8
1 3 22 122.1 417.5 5.8
1 3 23 81.8 205.0 5.0
1 3 24 152.7 82.6 6.9
1 3 25 237.9 356.3 10.2
1 3 26 1035.2 2016.6 35.9
1 3 27 219.5 665.4 10.3
1 3 28 913.4 2037.3 31.6
1 3 29 30.7 165.8 5.8
1 3 30 340.7 658.5 19.3
1 3 31 148.4 494.6 11.9
1 3 32 10.6 227.0 6.7
1 3 33 73.8 297.7 11.1
1 3 34 131.1 247.4 15.2
1 3 35 68.3 177.1 18.1
1 3 37 96.6 186.6 23.3
1 3 38 70.9 65.5 22.6
1 4 -37 54.6 270.3 19.3
1 4 -36 161.4 172.1 32.3
1 4 -34 33.1 127.2 14.2
1 4 -33 118.3 172.7 22.0
1 4 -31 83.1 325.6 8.9
1 4 -30 37.4 155.5 6.6
1 4 -29 52.6 228.9 6.3
1 4 -28 558.6 635.6 25.5
1 4 -27 183.4 831.7 11.8
1 4 -26 743.1 722.9 26.6
1 4 -25 289.4 700.3 12.5
1 4 -24 73.8 169.6 6.0
1 4 -22 378.4 1596.9 14.2
1 4 -21 68.3 158.1 5.5
1 4 -20 298.3 822.4 9.6
1 4 -19 143.8 233.3 6.3
1 4 -18 1294.2 2680.5 30.1
1 4 -17 406.7 474.0 11.2
1 4 -16 608.3 310.5 15.5
1 4 -15 170.0 255.7 6.4
1 4 -14 1373.1 3033.0 31.0
1 4 -13 138.0 2.8 6.6
1 4 -12 319.8 562.8 10.6
1 4 -11 1167.0 1079.5 27.4
1 4 -10 2443.3 2966.0 62.0
1 4 -9 257.1 228.7 10.6
1 4 -8 385.2 1371.0 14.4
1 4 -7 2868.8 4044.3 87.8
1 4 -6 1590.3 1678.6 41.7
1 4 -5 470.9 1216.5 13.6
1 4 -4 548.7 187.6 15.5
1 4 -3 877.9 1436.0 23.8
1 4 -2 12299.7 14865.8 289.9
1 4 -1 2412.4 3116.4 59.9
1 4 0 652.0 1210.6 18.7
1 4 1 2611.5 3099.5 64.1
1 4 2 12716.8 14981.6 361.7
1 4 3 809.1 1449.0 24.8
1 4 4 583.6 175.8 26.1
1 4 5 507.9 1201.6 22.8
1 4 7 2898.7 4019.0 127.6
1 4 8 290.6 1337.3 17.8
1 4 9 274.7 227.1 17.3
1 4 10 2565.4 2933.3 79.5
1 4 11 1175.4 1085.4 38.2
1 4 12 351.1 546.5 10.5
1 4 13 116.0 3.2 5.6
1 4 14 1408.2 2958.2 28.8
1 4 15 127.2 260.7 5.9
1 4 16 618.6 307.9 16.5
1 4 17 435.3 467.2 10.9
1 4 18 1211.5 2675.9 25.5
1 4 19 161.0 236.4 5.8
1 4 20 278.2 809.3 9.3
1 4 21 79.0 160.1 5.0
1 4 22 378.4 1600.2 12.2
1 4 23 15.2 5.5 3.9
1 4 24 74.4 156.3 5.4
1 4 25 282.9 699.1 12.3
1 4 26 772.8 723.8 27.1
1 4 27 194.4 831.1 9.7
1 4 28 595.4 632.8 31.5
1 4 29 34.7 232.4 7.0
1 4 30 36.8 152.2 6.8
1 4 31 92.2 321.9 9.4
1 4 33 69.1 170.1 11.3
1 4 34 60.4 123.6 12.2
1 4 36 206.8 178.2 39.6
1 4 37 47.9 271.9 18.1
1 4 38 24.8 22.9 15.1
1 5 -35 249.9 393.4 45.7
1 5 -34 36.4 146.2 14.5
1 5 -33 23.6 37.5 13.4
1 5 -32 125.6 126.7 21.9
1 5 -31 382.4 779.8 25.2
1 5 -30 227.3 306.3 16.3
1 5 -29 23.3 116.6 6.1
1 5 -28 178.7 837.9 10.7
1 5 -27 32.9 46.4 6.0
1 5 -26 695.4 1150.9 25.7
1 5 -25 28.3 77.2 5.6
1 5 -24 390.7 521.4 15.8
1 5 -23 219.0 63.2 9.8
1 5 -22 83.7 84.2 6.1
1 5 -21 374.3 629.6 14.2
1 5 -20 251.6 347.7 10.5
1 5 -19 1156.3 2340.9 28.4
1 5 -18 213.3 4.7 8.1
1 5 -17 664.5 1564.9 17.1
1 5 -16 594.6 794.0 17.8
1 5 -15 368.9 820.9 12.7
1 5 -14 411.6 315.3 11.3
1 5 -13 621.2 982.1 15.6
1 5 -12 567.7 1073.7 19.9
1 5 -11 653.8 1500.0 22.3
1 5 -10 92.6 68.4 5.0
1 5 -9 1470.3 2533.8 38.8
1 5 -8 2706.8 4751.3 68.9
1 5 -7 6059.1 7785.2 146.5
1 5 -6 1117.5 1438.3 30.3
1 5 -5 3706.5 3821.0 91.3
1 5 -4 3294.2 6155.4 82.0
1 5 -3 1601.5 2069.3 40.5
1 5 -2 84.4 136.2 4.2
1 5 -1 3768.3 4025.8 111.3
1 5 0 46.0 24.1 4.0
1 5 1 3770.5 3973.6 111.3
1 5 2 128.4 138.3 5.9
1 5 3 1836.9 2099.1 79.2
1 5 4 3749.1 6187.9 153.7
1 5 11 641.4 1503.0 32.7
1 5 12 573.5 1050.7 28.4
1 5 13 619.5 1006.3 21.7
1 5 14 441.1 310.4 14.6
1 5 15 365.6 803.6 15.3
1 5 16 516.6 812.7 15.8
1 5 17 649.3 1563.8 16.0
1 5 18 189.6 3.9 7.2
1 5 19 1150.4 2382.3 28.4
1 5 20 227.8 353.6 9.5
1 5 21 338.8 622.1 11.5
1 5 22 109.0 79.0 6.2
1 5 23 237.4 60.7 9.7
1 5 24 387.2 522.2 15.1
1 5 25 46.4 82.7 5.5
1 5 26 722.3 1159.8 26.2
1 5 27 15.5 47.7 6.3
1 5 28 197.4 852.1 13.2
1 5 29 20.4 125.1 6.6
1 5 30 246.1 306.5 17.5
1 5 31 452.9 779.1 35.6
1 5 32 71.2 130.5 11.8
1 5 33 30.1 36.9 10.3
1 5 34 43.2 149.9 10.3
1 5 35 258.2 390.2 47.1
1 5 36 37.6 75.0 16.0
1 6 -37 206.8 546.7 43.6
1 6 -35 32.5 1.9 16.1
1 6 -34 145.5 83.5 26.1
1 6 -33 359.6 619.3 55.5
1 6 -31 237.9 701.4 33.9
1 6 -30 334.9 664.2 39.6
1 6 -29 34.3 9.0 9.2
1 6 -28 377.0 877.1 19.0
1 6 -27 403.2 1661.6 19.6
1 6 -26 647.6 1385.8 30.2
1 6 -25 417.3 684.1 17.1
1 6 -24 9.7 140.1 4.9
1 6 -23 292.9 477.8 12.5
1 6 -22 624.7 744.5 21.8
1 6 -21 390.0 736.5 15.1
1 6 -20 1276.7 2346.5 41.1
1 6 -19 552.8 826.7 18.9
1 6 -18 284.7 163.1 10.0
1 6 -17 1517.5 2671.8 35.3
1 6 -16 613.4 906.3 18.1
1 6 -15 90.2 321.1 6.3
1 6 -14 2136.6 2026.3 56.4
1 6 -13 611.7 1372.5 18.1
1 6 -12 231.0 127.0 11.1
1 6 -11 2770.7 4467.4 86.2
1 6 -10 1097.8 1247.7 30.0
1 6 -9 1171.8 1506.9 31.0
1 6 -8 143.0 38.2 8.3
1 6 -7 235.3 135.2 8.6
1 6 -6 884.2 2009.0 30.1
1 6 -5 1335.9 1106.0 43.3
1 6 -4 1732.4 956.2 53.7
1 6 -3 1232.2 2383.3 39.2
1 6 -2 3804.8 3491.8 111.8
1 6 -1 1825.0 2992.3 56.6
1 6 0 392.7 422.8 13.8
1 6 1 1820.5 2989.4 56.5
1 6 2 4199.4 3503.0 173.9
1 6 3 1346.1 2370.9 57.6
1 6 4 1586.1 950.7 68.0
1 6 12 234.7 130.5 15.5
1 6 13 601.4 1358.7 30.8
1 6 14 2159.2 2030.7 98.8
1 6 15 57.7 316.5 9.0
1 6 16 583.6 907.5 21.9
1 6 17 1572.3 2705.6 52.5
1 6 18 278.8 159.7 14.6
1 6 19 570.2 825.0 27.5
1 6 20 1343.5 2351.5 60.1
1 6 21 437.5 725.7 18.2
1 6 22 608.3 746.7 24.1
1 6 23 329.8 481.3 15.2
1 6 24 19.8 137.5 5.7
1 6 25 445.5 675.7 24.3
1 6 26 714.9 1395.2 44.7
1 6 27 486.1 1696.5 32.3
1 6 28 399.0 871.8 27.9
1 6 29 43.2 9.0 9.2
1 6 30 354.3 657.1 28.9
1 6 31 203.8 707.6 20.9
1 6 33 329.8 607.2 35.5
1 6 34 114.5 84.3 25.7
1 6 37 172.7 545.8 37.6
1 7 -36 94.6 238.4 26.4
1 7 -34 33.5 60.4 15.7
1 7 -33 94.2 253.1 22.3
1 7 -32 284.1 458.9 44.7
1 7 -31 75.6 16.2 17.9
1 7 -30 110.1 225.3 20.1
1 7 -29 38.1 238.3 15.3
1 7 -28 183.4 456.6 25.0
1 7 -27 168.2 447.4 17.2
1 7 -26 623.8 1264.9 34.0
1 7 -25 282.9 1294.7 17.6
1 7 -24 84.1 47.2 8.3
1 7 -23 319.8 466.7 15.6
1 7 -22 91.9 253.2 8.0
1 7 -21 790.4 1748.2 32.3
1 7 -20 308.7 565.5 14.1
1 7 -19 325.4 548.6 14.5
1 7 -18 1628.1 1861.3 59.1
1 7 -17 539.8 389.9 21.9
1 7 -16 534.1 943.3 16.9
1 7 -15 323.5 190.0 11.9
1 7 -14 89.2 195.5 7.2
1 7 -13 441.1 944.7 17.6
1 7 -12 1035.2 1844.4 35.9
1 7 -11 338.8 491.7 14.1
1 7 -10 1862.4 2515.2 61.7
1 7 -9 935.7 1519.9 33.1
1 7 -8 314.8 184.0 13.0
1 7 -7 459.6 1244.4 17.2
1 7 -6 724.2 1744.7 25.3
1 7 -5 411.6 1302.1 22.6
1 7 -4 455.1 504.9 17.1
1 7 -3 4965.7 7131.4 147.4
1 7 -2 641.4 635.6 22.1
1 7 -1 555.3 878.4 19.7
1 7 0 830.1 332.2 38.2
1 7 1 677.2 874.7 34.5
1 7 2 752.6 629.5 35.4
1 7 3 5630.1 7113.6 232.8
1 7 14 82.8 198.7 9.8
1 7 15 334.3 196.2 22.3
1 7 16 575.2 974.8 39.3
1 7 17 567.7 396.4 39.9
1 7 18 1712.1 1878.2 75.0
1 7 19 349.1 560.4 18.9
1 7 20 336.8 552.3 18.6
1 7 21 827.1 1743.2 41.1
1 7 22 83.4 238.1 9.2
1 7 23 296.5 458.6 18.0
1 7 24 93.2 46.6 10.1
1 7 25 283.5 1288.0 20.5
1 7 26 678.1 1240.0 43.6
1 7 27 205.8 451.7 18.5
1 7 28 151.0 466.3 15.8
1 7 29 43.4 234.0 9.6
1 7 30 73.2 225.1 11.3
1 7 31 47.2 17.1 14.4
1 7 32 308.7 451.9 47.2
1 7 33 27.0 256.3 14.8
1 7 36 109.0 238.6 26.9
1 8 -35 55.9 292.8 21.4
1 8 -34 242.3 427.0 50.5
1 8 -33 32.5 94.6 15.7
1 8 -32 54.1 39.8 20.0
1 8 -31 221.0 371.0 35.2
1 8 -29 115.3 159.9 21.3
1 8 -28 86.6 48.5 18.2
1 8 -27 72.3 151.8 16.6
1 8 -26 175.5 514.5 24.0
1 8 -25 25.2 94.0 11.5
1 8 -24 282.9 655.3 22.3
1 8 -23 96.3 258.8 10.6
1 8 -22 89.2 196.3 9.9
1 8 -21 30.7 5.5 7.5
1 8 -20 96.6 5.6 9.3
1 8 -19 48.4 316.0 8.0
1 8 -18 571.8 706.8 28.3
1 8 -17 23.1 205.2 6.0
1 8 -16 107.2 61.2 9.0
1 8 -15 848.2 908.9 39.6
1 8 -14 241.7 739.4 14.1
1 8 -13 459.6 643.8 19.4
1 8 -12 52.8 276.5 6.6
1 8 -11 56.4 140.1 6.8
1 8 -10 100.1 57.6 10.8
1 8 -9 134.7 515.4 12.9
1 8 -8 1938.4 1616.0 64.5
1 8 -7 382.4 835.3 22.5
1 8 -6 71.2 192.1 7.1
1 8 -5 481.5 743.7 18.4
1 8 -4 1255.6 848.4 42.0
1 8 -3 4089.5 6661.6 129.3
1 8 -2 47.6 395.6 5.1
1 8 -1 120.6 203.8 10.0
1 8 0 63.2 36.1 7.5
1 8 1 166.4 209.6 13.5
1 8 2 62.3 402.6 8.8
1 8 16 127.6 61.5 13.8
1 8 17 18.8 199.5 9.1
1 8 18 629.1 694.5 42.8
1 8 19 52.8 311.3 10.9
1 8 20 78.7 5.5 13.6
1 8 22 90.2 195.0 9.9
1 8 23 123.7 255.6 12.4
1 8 24 303.2 643.3 22.5
1 8 26 146.3 528.1 14.8
1 8 27 50.3 147.4 10.4
1 8 28 40.9 47.8 10.3
1 8 29 92.6 162.6 18.8
1 8 31 174.5 369.6 29.9
1 8 32 36.4 38.8 16.0
1 8 34 276.5 423.2 55.6
1 9 -32 24.8 95.7 15.5
1 9 -30 70.3 75.8 18.4
1 9 -29 24.0 77.7 15.9
1 9 -27 59.9 20.4 16.5
1 9 -26 32.5 318.4 13.3
1 9 -25 93.2 11.3 17.2
1 9 -24 24.7 127.8 11.9
1 9 -22 381.1 611.0 38.8
1 9 -21 28.3 16.6 8.0
1 9 -20 138.8 495.1 11.9
1 9 -19 121.0 780.1 11.1
1 9 -18 207.3 200.3 14.1
1 9 -17 333.0 804.1 19.7
1 9 -16 418.0 932.0 23.5
1 9 -15 40.7 385.2 6.9
1 9 -14 571.0 498.1 28.3
1 9 -13 158.8 310.4 11.4
1 9 -12 186.7 19.6 11.4
1 9 -11 100.8 138.8 8.7
1 9 -10 403.2 709.7 21.0
1 9 -9 137.6 216.3 9.0
1 9 -8 347.2 187.6 14.9
1 9 -7 214.4 612.0 15.3
1 9 -6 229.4 109.9 16.9
1 9 -5 74.1 260.7 6.3
1 9 -4 77.2 8.8 10.7
1 9 -3 476.2 435.8 26.6
1 9 -2 159.7 138.7 13.2
1 9 -1 1011.8 991.4 49.9
1 9 0 583.6 2657.5 31.2
1 9 1 1122.2 998.9 54.9
1 9 19 181.5 789.0 19.3
1 9 20 162.3 496.9 17.8
1 9 21 28.3 18.1 12.4
1 9 22 357.6 618.1 35.6
1 10 -31 70.0 120.8 22.7
1 10 -30 247.7 729.6 47.2
1 10 -29 144.6 243.4 30.2
1 10 -28 86.3 125.9 20.4
1 10 -27 407.4 526.8 61.2
1 10 -25 199.8 344.3 29.6
1 10 -24 476.2 557.1 61.6
1 10 -23 47.4 108.0 13.4
1 10 -22 249.4 729.8 31.4
1 10 -20 44.3 225.7 12.8
1 10 -19 149.3 191.8 18.7
1 10 -18 739.3 1708.3 47.4
1 10 -17 62.9 55.8 10.0
1 10 -16 982.1 740.0 49.2
1 10 -15 106.5 56.9 10.1
1 10 -14 21.3 116.9 6.9
1 10 -13 57.5 184.7 7.7
1 10 -12 73.8 87.4 9.0
1 10 -11 1109.4 1571.9 51.1
1 10 -10 246.6 46.1 20.8
1 10 -9 19.8 487.2 9.8
1 10 -8 745.9 514.7 51.4
1 10 -7 443.3 947.3 31.6
1 10 -6 294.1 331.2 24.5
1 10 -5 355.7 527.8 27.6
1 10 -4 217.4 910.2 19.0
1 10 -3 536.6 225.5 38.0
1 10 -2 1639.3 2262.5 103.0
1 10 -1 437.5 511.9 30.6
1 11 -28 406.7 761.4 71.7
1 11 -27 34.9 4.0 17.9
1 11 -26 383.1 567.6 58.0
1 11 -25 100.4 101.7 22.7
1 11 -24 104.7 68.4 20.0
1 11 -23 96.3 51.4 21.6
1 11 -22 143.0 380.0 23.8
1 11 -20 89.2 79.7 17.5
1 11 -19 41.4 45.4 13.9
1 11 -18 124.8 93.6 17.1
1 11 -17 127.6 557.5 16.9
1 11 -16 560.2 718.5 51.2
1 11 -15 687.2 1511.0 61.2
1 11 -14 32.3 200.3 8.5
1 11 -13 493.1 382.9 27.1
1 11 -12 1170.6 868.8 58.4
1 11 -11 86.3 99.2 13.3
1 11 -10 305.6 665.4 26.8
1 11 -9 396.9 413.4 22.2
1 11 -8 373.6 310.3 31.0
1 11 -7 210.3 192.1 20.7
1 11 -6 68.0 130.7 11.8
1 11 -5 261.1 207.1 22.0
1 11 -4 1906.3 1902.4 121.8
1 11 -3 48.8 43.2 11.2
1 12 -28 209.8 135.6 44.4
1 12 -25 109.7 282.8 25.6
1 12 -24 217.4 272.6 40.6
1 12 -21 655.6 781.1 82.1
1 12 -19 46.4 60.7 15.7
1 12 -18 38.5 222.1 13.6
1 12 -17 253.8 202.6 31.1
1 12 -16 57.2 293.1 14.2
1 12 -14 338.1 252.8 34.0
1 12 -13 130.3 158.8 17.5
1 12 -12 47.6 103.5 10.8
1 12 -9 543.9 257.2 50.4
1 12 -7 85.7 7.5 14.5
1 12 -6 1367.9 1602.0 96.7
1 12 -5 236.9 426.6 23.6
1 13 -24 122.1 54.7 29.3
1 13 -23 122.1 217.5 26.6
1 13 -21 111.9 183.5 25.4
1 13 -20 51.3 39.5 15.7
1 13 -19 526.1 256.2 76.0
1 13 -18 115.3 135.1 23.6
1 13 -17 181.5 213.7 27.7
2 0 -38 95.3 235.1 25.2
2 0 -36 36.2 0.1 13.4
2 0 -35 138.8 70.0 19.3
2 0 -34 171.8 110.5 21.5
2 0 -33 33.5 108.9 18.2
2 0 -32 63.4 28.8 9.2
2 0 -31 127.2 310.5 10.2
2 0 -30 156.6 35.9 11.3
2 0 -29 21.5 378.9 6.1
2 0 -28 1969.2 3748.1 95.9
2 0 -27 375.0 343.5 18.2
2 0 -26 1450.3 2038.0 57.1
2 0 -25 10.1 173.1 6.1
2 0 -24 2023.7 3269.3 91.0
2 0 -23 2289.0 6481.4 83.4
2 0 -22 314.2 1075.9 13.0
2 0 -21 127.2 94.9 6.3
2 0 -19 24.7 16.7 4.3
2 0 -18 12.4 94.2 3.7
2 0 -17 485.4 770.4 13.8
2 0 -16 453.6 306.0 11.9
2 0 -15 1371.8 1290.3 28.4
2 0 -14 168.6 204.2 5.9
2 0 -13 378.4 510.5 9.5
2 0 -12 855.4 737.1 18.4
2 0 -11 1976.9 2275.5 40.3
2 0 -10 430.2 1136.3 9.4
2 0 -9 1114.1 768.4 18.6
2 0 -8 1767.4 1188.0 35.2
2 0 -7 3142.0 6564.2 60.6
2 0 -6 12.8 951.6 2.5
2 0 -5 253.8 1662.5 6.1
2 0 -4 1780.6 3402.4 32.4
2 0 -3 5585.7 7388.0 104.2
2 0 -2 147.6 469.4 4.7
2 0 -1 148.4 870.7 4.2
2 0 0 5126.6 3238.0 87.4
2 0 1 273.0 870.7 13.8
2 0 2 104.3 469.4 3.9
2 0 3 5637.9 7388.0 117.8
2 0 4 2170.5 3402.4 56.8
2 0 5 345.9 1662.5 13.0
2 0 6 19.4 951.6 4.6
2 0 7 3530.4 6564.2 149.1
2 0 8 2114.1 1188.0 67.3
2 0 9 1056.6 768.4 51.0
2 0 10 478.5 1136.3 13.7
2 0 11 1986.2 2275.5 41.9
2 0 12 966.9 737.1 21.7
2 0 13 336.2 510.5 8.9
2 0 14 197.4 204.2 6.4
2 0 15 1352.5 1290.3 30.8
2 0 16 539.0 306.0 14.6
2 0 17 536.6 770.4 14.5
2 0 18 14.3 94.2 3.3
2 0 19 30.1 16.7 3.6
2 0 20 18.5 73.0 3.6
2 0 21 126.8 94.9 7.5
2 0 22 313.6 1075.9 9.3
2 0 23 2295.7 6481.4 70.1
2 0 24 2284.0 3269.3 63.3
2 0 25 9.1 173.1 4.2
2 0 26 1542.0 2038.0 46.5
2 0 27 301.4 343.5 11.5
2 0 28 2201.5 3748.1 91.6
2 0 29 31.9 378.9 6.1
2 0 30 186.2 35.9 16.7
2 0 31 107.5 310.5 11.9
2 0 32 32.9 28.8 8.6
2 0 34 218.5 110.5 24.2
2 0 35 99.0 70.0 14.6
2 0 36 25.9 0.1 10.1
2 0 38 76.6 235.1 15.3
2 1 -38 34.1 124.6 17.1
2 1 -37 146.3 203.2 22.3
2 1 -36 203.3 300.5 29.3
2 1 -35 20.7 90.6 11.9
2 1 -34 136.4 636.0 19.9
2 1 -33 24.3 50.1 10.7
2 1 -32 60.4 16.1 9.5
2 1 -31 45.3 223.4 7.3
2 1 -30 256.0 1068.8 15.6
2 1 -29 161.0 350.9 10.6
2 1 -28 455.9 693.0 22.3
2 1 -27 20.7 125.5 6.0
2 1 -26 765.1 2025.1 31.8
2 1 -25 513.4 586.5 19.7
2 1 -24 280.6 252.1 13.4
2 1 -23 77.5 70.1 6.1
2 1 -22 25.2 170.9 4.5
2 1 -21 15.5 78.0 4.0
2 1 -20 115.3 362.4 5.6
2 1 -19 42.7 179.1 5.2
2 1 -18 13.0 215.7 3.6
2 1 -17 1713.6 2275.7 41.8
2 1 -16 1212.7 851.7 30.3
2 1 -15 91.6 241.8 4.7
2 1 -14 952.8 1632.7 23.7
2 1 -13 2144.6 2124.3 48.4
2 1 -12 679.9 674.1 20.0
2 1 -11 78.4 208.0 5.9
2 1 -10 1294.2 490.0 30.1
2 1 -9 1061.2 1876.3 25.0
2 1 -8 102.5 257.3 4.6
2 1 -7 1227.3 1878.7 29.3
2 1 -6 48.8 293.7 3.7
2 1 -5 1687.7 2300.5 44.4
2 1 -4 2186.8 1781.9 44.0
2 1 -3 3597.0 5610.3 108.7
2 1 -2 3772.6 5690.3 72.8
2 1 -1 2893.1 4159.8 63.7
2 1 0 2178.7 3310.2 48.8
2 1 1 3037.3 4152.0 65.3
2 1 2 3891.3 5634.0 73.9
2 1 3 3624.2 5567.1 63.0
2 1 4 2188.4 1747.8 44.0
2 1 5 1773.2 2335.6 35.2
2 1 6 70.6 282.8 5.0
2 1 7 1224.9 1851.3 32.9
2 1 8 94.9 254.5 7.5
2 1 9 1087.5 1846.1 34.5
2 1 10 1290.4 504.3 31.3
2 1 11 66.3 223.5 2.6
2 1 12 760.3 672.2 17.3
2 1 13 2280.7 2117.0 43.3
2 1 14 1084.0 1602.1 35.6
2 1 15 96.3 229.6 3.8
2 1 16 1255.6 839.0 35.8
2 1 17 1783.5 2273.6 48.6
2 1 18 25.5 214.1 4.9
2 1 19 37.4 179.3 4.3
2 1 20 97.7 375.4 5.9
2 1 22 28.8 165.7 4.5
2 1 23 83.4 67.2 7.3
2 1 24 331.7 246.7 13.3
2 1 25 441.1 575.6 14.6
2 1 26 811.1 2007.2 28.8
2 1 27 30.3 117.3 4.6
2 1 28 501.6 685.1 23.4
2 1 29 175.0 357.8 14.8
2 1 30 319.2 1049.2 25.5
2 1 31 37.0 219.7 7.8
2 1 32 78.1 14.8 11.4
2 1 33 48.8 46.0 10.0
2 1 34 170.4 646.4 20.5
2 1 36 217.4 301.0 28.8
2 1 37 139.2 201.1 20.2
2 1 38 46.0 126.9 16.8
2 2 -37 41.6 80.4 18.9
2 2 -36 90.2 137.3 16.6
2 2 -35 118.3 346.3 17.4
2 2 -34 64.0 341.3 13.9
2 2 -33 87.6 130.7 14.7
2 2 -32 314.8 564.8 30.3
2 2 -31 70.3 255.1 8.2
2 2 -30 129.5 112.6 10.3
2 2 -29 76.9 346.4 7.6
2 2 -28 137.2 344.1 9.8
2 2 -27 67.4 47.9 6.9
2 2 -26 237.9 781.4 12.9
2 2 -25 88.3 367.9 9.2
2 2 -24 165.9 34.1 9.0
2 2 -23 567.7 1001.6 18.3
2 2 -22 358.3 661.5 14.5
2 2 -21 546.3 1027.4 19.6
2 2 -20 1129.2 2050.9 35.1
2 2 -19 610.0 893.0 17.2
2 2 -18 1128.1 1550.5 32.8
2 2 -17 165.5 330.9 8.5
2 2 -16 1016.2 2303.6 30.0
2 2 -15 1546.1 2303.6 43.9
2 2 -14 1171.8 1101.1 28.6
2 2 -13 1101.3 2535.3 39.3
2 2 -12 3072.0 3147.7 98.5
2 2 -11 716.7 722.1 20.5
2 2 -10 59.3 90.9 7.0
2 2 -9 415.9 1547.7 16.3
2 2 -8 959.3 888.7 25.9
2 2 -7 2558.4 3431.8 65.2
2 2 -6 2052.0 1211.8 52.1
2 2 -5 854.4 2024.1 23.4
2 2 -4 104.0 321.6 4.6
2 2 -3 4941.1 10474.0 120.1
2 2 -2 1333.3 1283.1 35.6
2 2 -1 4082.8 6689.9 124.7
2 2 0 140.5 177.5 17.8
2 2 1 3647.3 6631.5 111.6
2 2 2 1562.6 1267.7 56.5
2 2 3 4865.5 10353.0 119.1
2 2 4 115.3 326.2 11.6
2 2 5 838.1 2039.1 23.2
2 2 6 1981.6 1203.7 43.4
2 2 7 2688.7 3408.1 57.8
2 2 8 1033.0 909.1 26.9
2 2 9 426.6 1586.9 10.8
2 2 10 43.4 93.0 1.8
2 2 11 738.3 725.4 19.9
2 2 12 2872.5 3161.1 61.7
2 2 13 1085.2 2569.5 35.6
2 2 14 1291.7 1080.0 30.1
2 2 15 1619.6 2294.7 39.3
2 2 16 1187.4 2309.8 33.6
2 2 17 171.3 322.4 7.8
2 2 18 1111.7 1537.4 32.5
2 2 19 629.9 912.8 17.5
2 2 20 1117.5 2075.1 29.1
2 2 21 547.9 1038.2 18.8
2 2 22 342.6 661.4 14.8
2 2 23 634.3 984.2 25.5
2 2 24 192.5 36.6 10.2
2 2 25 82.8 382.0 7.9
2 2 26 264.4 775.7 11.9
2 2 27 71.8 48.7 6.5
2 2 28 141.3 340.4 12.8
2 2 29 81.5 358.7 10.1
2 2 30 149.3 108.6 14.9
2 2 31 97.0 247.8 16.5
2 2 32 357.6 565.8 45.5
2 2 33 65.1 130.7 15.5
2 2 34 90.6 345.8 19.2
2 2 35 126.4 347.2 23.9
2 2 36 75.9 140.8 21.0
2 2 37 24.3 84.5 14.3
2 3 -36 75.6 247.8 22.4
2 3 -35 29.4 72.1 14.0
2 3 -34 203.8 217.0 33.3
2 3 -32 38.5 33.7 13.6
2 3 -31 90.9 125.1 16.6
2 3 -30 15.5 25.0 8.8
2 3 -29 70.6 94.4 8.5
2 3 -28 98.4 32.8 11.4
2 3 -27 387.9 1548.0 26.8
2 3 -26 82.8 252.8 9.8
2 3 -25 180.6 157.6 11.2
2 3 -24 68.8 23.4 6.9
2 3 -23 200.3 406.7 11.3
2 3 -22 355.7 144.8 20.4
2 3 -21 126.4 156.3 10.6
2 3 -20 1289.2 2156.5 58.8
2 3 -19 413.0 428.3 19.1
2 3 -18 902.9 1085.1 33.5
2 3 -17 478.5 494.4 20.6
2 3 -16 1498.5 1271.7 52.6
2 3 -15 55.6 34.8 7.0
2 3 -14 198.8 31.2 10.8
2 3 -13 342.6 580.6 14.8
2 3 -12 556.9 809.5 32.1
2 3 -11 2649.1 4662.2 82.5
2 3 -10 476.9 248.5 18.3
2 3 -9 592.9 358.8 22.1
2 3 -8 887.3 387.2 43.6
2 3 -7 755.5 658.4 26.8
2 3 -6 60.2 65.1 8.4
2 3 -5 3937.1 4439.2 118.1
2 3 -4 1801.2 1857.7 45.9
2 3 -3 1676.2 3735.6 42.8
2 3 -2 1188.6 2872.2 31.2
2 3 -1 801.2 1586.4 26.6
2 3 0 4684.8 9761.5 114.5
2 3 1 1016.2 1563.2 30.0
2 3 2 1240.8 2933.3 41.7
2 3 3 1755.7 3702.0 45.3
2 3 4 1950.7 1817.2 49.3
2 3 5 3961.2 4403.9 83.4
2 3 6 41.4 69.5 3.6
2 3 7 747.9 643.1 17.2
2 3 8 988.7 394.5 19.7
2 3 9 579.4 347.9 10.9
2 3 10 526.1 251.2 11.2
2 3 11 2694.1 4636.8 66.9
2 3 12 567.7 830.7 22.4
2 3 13 354.3 591.6 11.2
2 3 14 197.8 28.5 7.4
2 3 15 73.8 36.7 4.8
2 3 16 1535.2 1264.3 43.7
2 3 17 433.1 495.5 14.5
2 3 18 887.3 1099.9 26.0
2 3 19 375.6 437.4 13.5
2 3 20 1369.2 2169.9 50.3
2 3 21 100.8 160.1 7.7
2 3 22 334.9 148.6 17.9
2 3 23 169.1 399.6 11.8
2 3 24 72.3 20.5 8.9
2 3 25 146.3 153.7 11.8
2 3 26 86.0 262.3 12.6
2 4 -37 60.4 333.6 20.6
2 4 -36 74.7 140.6 21.4
2 4 -35 24.0 42.0 15.2
2 4 -34 47.4 14.6 16.8
2 4 -33 56.7 80.0 18.1
2 4 -32 242.8 542.2 34.8
2 4 -31 98.4 478.1 21.4
2 4 -30 408.1 914.0 46.5
2 4 -29 167.3 163.4 24.8
2 4 -28 440.4 1586.4 30.7
2 4 -27 30.7 208.1 6.4
2 4 -26 92.6 103.2 8.7
2 4 -25 947.4 2263.6 38.6
2 4 -24 71.8 47.2 6.5
2 4 -23 288.8 637.4 13.0
2 4 -22 110.1 113.9 7.3
2 4 -21 182.5 131.6 8.9
2 4 -20 347.2 274.5 15.6
2 4 -19 63.4 79.9 6.7
2 4 -18 1777.6 2359.0 50.0
2 4 -17 358.9 225.9 13.9
2 4 -16 224.2 511.5 13.0
2 4 -15 246.1 145.5 13.1
2 4 -14 594.6 484.4 24.6
2 4 -13 1371.8 1729.2 47.8
2 4 -12 121.0 1514.6 8.4
2 4 -11 900.8 1813.3 31.4
2 4 -10 2135.0 2414.9 67.6
2 4 -9 1958.4 4536.8 89.5
2 4 -8 162.8 659.1 12.5
2 4 -7 569.3 422.6 28.3
2 4 -6 4841.2 5465.6 208.6
2 4 -5 186.7 439.0 13.8
2 4 -4 696.3 468.8 19.3
2 4 -3 491.5 1694.2 14.7
2 4 -2 1112.9 373.2 30.2
2 4 -1 1906.3 2299.1 48.7
2 4 0 990.8 2347.9 23.0
2 4 1 1715.0 2327.8 39.0
2 4 2 1197.0 373.8 27.7
2 4 3 543.0 1706.6 16.2
2 4 4 496.9 464.4 15.5
2 4 5 231.5 429.2 6.9
2 4 6 4658.6 5375.5 97.5
2 4 7 582.7 416.0 14.3
2 4 8 201.3 662.7 6.9
2 4 9 2022.1 4510.6 81.5
2 4 10 1955.3 2443.4 92.5
2 4 11 876.9 1809.6 32.0
2 4 12 132.7 1515.7 8.8
2 4 13 1392.5 1741.1 68.9
2 4 14 446.2 492.6 19.1
2 4 15 239.0 139.6 8.6
2 4 16 241.2 502.9 8.7
2 4 17 324.2 227.3 10.7
2 4 18 1863.9 2349.0 51.2
2 4 19 77.2 77.9 6.4
2 4 20 368.9 269.1 21.4
2 4 21 186.7 134.1 11.4
2 4 22 120.6 113.3 9.2
2 4 23 299.5 627.1 16.9
2 4 24 76.9 45.9 8.9
2 4 25 937.8 2251.3 67.3
2 5 -35 119.8 209.3 27.5
2 5 -34 121.7 126.8 26.9
2 5 -32 166.4 525.6 29.2
2 5 -30 82.5 75.1 17.7
2 5 -29 95.3 279.0 16.7
2 5 -28 151.8 95.1 22.3
2 5 -27 218.5 484.4 17.5
2 5 -26 125.6 273.9 12.5
2 5 -25 79.3 358.9 7.8
2 5 -24 596.3 1283.8 26.4
2 5 -23 552.8 968.6 21.3
2 5 -22 1025.2 1777.3 35.7
2 5 -21 199.8 664.7 9.9
2 5 -20 678.1 1264.4 22.7
2 5 -19 338.1 472.2 13.5
2 5 -18 403.9 612.6 14.7
2 5 -17 25.5 66.7 4.6
2 5 -16 825.1 1984.7 26.0
2 5 -15 1115.2 1757.7 32.6
2 5 -14 641.4 527.0 17.7
2 5 -13 249.4 456.6 8.8
2 5 -12 219.5 106.4 9.3
2 5 -11 3435.8 4166.5 89.9
2 5 -10 1162.3 806.0 33.3
2 5 -9 70.0 154.9 7.3
2 5 -8 3542.8 3937.1 107.9
2 5 -7 340.7 324.2 14.2
2 5 -6 1611.2 3058.0 53.2
2 5 -5 2837.1 5067.8 72.4
2 5 -4 3081.7 2484.1 94.8
2 5 -3 1409.5 1125.7 45.8
2 5 -2 1397.7 1084.9 36.5
2 5 -1 2037.8 2690.0 51.9
2 5 0 147.2 597.8 8.5
2 5 1 1915.4 2673.0 61.0
2 5 2 1334.6 1065.5 44.6
2 5 3 1375.7 1129.7 36.2
2 5 4 3012.4 2511.7 65.1
2 5 5 2837.1 5139.9 61.3
2 5 6 1632.3 3025.6 36.6
2 5 7 286.4 321.7 12.4
2 5 8 3336.4 3951.7 100.7
2 5 9 118.7 161.3 6.8
2 5 10 1141.0 788.7 60.1
2 5 11 3354.5 4235.6 155.5
2 5 12 182.9 102.7 16.5
2 5 13 199.8 459.4 17.2
2 5 14 609.1 513.2 35.3
2 5 15 1234.7 1729.0 66.1
2 5 17 48.6 64.2 13.1
2 5 18 390.7 603.0 22.7
2 5 19 282.9 467.4 12.3
2 5 20 571.8 1283.5 26.7
2 5 21 217.4 675.6 12.3
2 5 22 1009.6 1759.0 48.7
2 5 23 496.2 962.1 24.8
2 6 -35 58.0 44.5 19.4
2 6 -32 35.9 118.1 16.1
2 6 -30 32.9 24.4 14.4
2 6 -29 84.7 486.5 18.3
2 6 -28 23.3 18.5 12.1
2 6 -27 190.6 668.2 26.9
2 6 -26 181.5 180.1 23.5
2 6 -25 27.7 31.2 8.3
2 6 -24 54.6 105.6 9.0
2 6 -23 18.8 40.3 6.7
2 6 -22 24.7 156.6 5.2
2 6 -21 87.0 35.2 7.2
2 6 -20 421.6 799.7 16.5
2 6 -19 99.4 273.0 7.0
2 6 -18 173.6 601.1 8.7
2 6 -17 618.6 1101.1 24.3
2 6 -16 629.1 1162.1 24.5
2 6 -15 295.9 316.4 12.0
2 6 -14 494.6 708.1 16.3
2 6 -13 500.1 294.0 16.4
2 6 -12 1883.5 2556.4 53.0
2 6 -11 455.9 155.1 16.4
2 6 -10 724.2 1199.6 22.5
2 6 -9 2730.4 3082.4 72.9
2 6 -8 4082.8 5048.4 131.4
2 6 -7 2159.2 2868.6 72.9
2 6 -6 413.7 438.9 13.5
2 6 -5 478.5 1161.6 19.1
2 6 -4 126.4 218.4 7.8
2 6 -3 1736.7 1504.1 46.5
2 6 -2 5978.0 7582.3 145.5
2 6 -1 680.8 526.5 24.6
2 6 0 59.3 352.6 6.2
2 6 1 581.1 517.4 17.6
2 6 2 5991.4 7584.1 148.4
2 6 3 1820.5 1476.7 47.6
2 6 4 125.6 215.4 5.9
2 6 5 601.4 1167.1 19.7
2 6 6 369.6 430.0 19.4
2 6 7 2131.7 2914.0 95.0
2 6 8 4078.3 5031.4 173.6
2 6 9 2572.5 3135.1 120.2
2 6 10 724.2 1208.4 40.3
2 6 11 424.4 156.6 27.3
2 6 12 1780.6 2551.8 85.3
2 6 14 513.4 710.3 30.0
2 6 15 302.6 307.1 24.3
2 6 16 528.5 1148.1 39.3
2 6 17 563.5 1084.6 41.4
2 6 18 174.5 607.6 20.3
2 6 19 73.5 291.5 15.8
2 6 20 357.6 789.6 31.0
2 7 -33 145.1 177.1 29.8
2 7 -31 79.9 173.9 19.3
2 7 -30 75.9 153.0 18.5
2 7 -29 138.4 293.7 23.8
2 7 -28 349.1 585.6 46.2
2 7 -27 48.8 4.5 14.4
2 7 -26 135.2 218.8 19.9
2 7 -25 55.9 70.3 14.9
2 7 -24 214.9 423.3 23.5
2 7 -23 91.9 204.2 10.7
2 7 -22 75.0 115.0 9.7
2 7 -21 721.4 1878.8 37.5
2 7 -20 154.0 514.6 11.7
2 7 -19 66.5 417.4 9.1
2 7 -18 522.9 1486.4 21.5
2 7 -17 380.4 1071.5 17.0
2 7 -16 96.6 291.1 7.2
2 7 -15 640.5 623.5 25.6
2 7 -14 490.0 216.3 20.1
2 7 -13 375.0 413.9 13.5
2 7 -12 370.9 395.5 13.4
2 7 -11 1868.4 2512.3 52.7
2 7 -10 3149.8 3917.0 86.1
2 7 -9 562.7 1050.9 18.2
2 7 -8 148.4 362.4 7.6
2 7 -7 1467.7 1184.5 41.4
2 7 -6 684.4 1148.2 21.9
2 7 -5 2800.1 3876.5 75.6
2 7 -4 1136.3 1206.2 34.1
2 7 -3 752.6 380.7 23.0
2 7 -2 6377.9 7071.3 206.0
2 7 -1 2951.5 3702.9 79.5
2 7 0 560.2 480.7 17.3
2 7 1 3105.0 3681.1 99.1
2 7 2 6799.5 7059.4 209.8
2 7 3 708.3 375.0 25.0
2 7 4 1163.5 1186.3 38.0
2 7 5 2581.3 3854.2 118.7
2 7 6 807.1 1142.7 39.6
2 7 7 1514.8 1203.3 69.2
2 8 -32 58.3 42.8 18.1
2 8 -31 135.6 214.6 28.8
2 8 -30 129.9 174.9 25.0
2 8 -28 73.8 152.4 17.4
2 8 -27 100.8 14.5 19.9
2 8 -26 390.7 1028.7 46.2
2 8 -25 66.5 19.5 14.5
2 8 -24 59.9 72.9 14.0
2 8 -23 281.7 484.3 30.4
2 8 -22 241.7 892.4 26.0
2 8 -21 16.8 25.7 10.0
2 8 -20 311.7 761.0 20.3
2 8 -19 415.9 154.5 24.2
2 8 -18 74.4 235.7 9.3
2 8 -17 49.1 68.8 7.6
2 8 -16 504.7 668.7 25.8
2 8 -15 223.1 343.9 14.1
2 8 -14 315.4 441.0 14.9
2 8 -13 42.5 26.9 5.7
2 8 -12 879.0 764.5 34.1
2 8 -11 154.0 615.1 9.1
2 8 -10 49.8 241.6 5.7
2 8 -9 250.5 612.5 10.5
2 8 -8 41.8 104.6 5.2
2 8 -7 1482.4 2364.4 42.9
2 8 -6 193.0 317.2 8.7
2 8 -5 539.8 444.5 17.8
2 8 -4 1497.2 1027.2 54.0
2 8 -3 447.0 1518.8 28.0
2 8 -2 385.2 635.5 15.7
2 8 -1 280.6 369.5 12.3
2 8 0 808.1 796.6 29.7
2 8 1 294.1 375.2 12.6
2 8 2 324.2 643.8 13.8
2 8 3 442.6 1500.7 24.9
2 8 4 1569.5 1041.9 76.0
2 8 5 577.7 436.4 31.0
2 8 6 226.8 302.6 15.2
2 8 7 1551.6 2355.0 71.4
2 9 -32 29.4 9.3 19.1
2 9 -31 42.7 11.6 18.2
2 9 -29 98.4 52.6 22.5
2 9 -28 294.7 158.6 45.5
2 9 -27 89.6 147.7 19.5
2 9 -26 32.5 131.3 13.9
2 9 -25 36.4 35.3 13.5
2 9 -23 159.2 252.5 24.2
2 9 -22 30.3 46.3 11.9
2 9 -21 623.0 1155.0 56.6
2 9 -20 607.4 709.4 55.8
2 9 -19 83.7 62.2 13.7
2 9 -18 203.8 355.2 16.9
2 9 -17 678.1 1005.5 36.3
2 9 -16 231.0 248.5 15.4
2 9 -15 102.2 243.4 9.9
2 9 -14 157.9 121.9 11.8
2 9 -12 174.5 72.6 12.0
2 9 -11 660.9 941.0 32.3
2 9 -10 163.7 241.9 12.0
2 9 -9 1700.6 2057.6 76.2
2 9 -8 85.3 290.4 8.4
2 9 -7 707.4 809.4 34.3
2 9 -6 78.4 369.9 8.0
2 9 -5 732.7 841.1 34.9
2 9 -4 580.2 476.4 28.5
2 9 -3 438.2 869.2 32.8
2 9 -2 438.2 791.4 21.9
2 9 -1 145.1 89.0 9.2
2 9 0 102.2 68.4 7.8
2 9 1 160.1 97.4 10.1
2 9 2 409.5 797.8 30.3
2 9 3 385.8 866.9 28.8
2 9 4 571.8 466.4 39.2
2 9 5 745.9 839.5 48.6
2 10 -29 86.0 186.1 23.9
2 10 -27 138.0 273.9 28.7
2 10 -26 68.3 158.5 17.9
2 10 -23 73.5 169.4 17.6
2 10 -22 99.0 332.9 18.4
2 10 -21 216.4 143.3 28.2
2 10 -20 84.7 151.4 17.6
2 10 -19 984.3 1107.9 100.6
2 10 -18 261.1 166.7 28.2
2 10 -17 33.1 4.6 11.8
2 10 -16 124.8 84.8 16.4
2 10 -15 530.1 1105.5 35.3
2 10 -14 33.5 90.6 7.9
2 10 -12 56.7 167.6 8.4
2 10 -11 572.7 698.5 30.0
2 10 -10 936.7 1328.0 46.9
2 10 -9 97.0 123.3 9.3
2 10 -8 90.6 8.2 8.6
2 10 -7 743.1 668.8 36.1
2 10 -6 290.6 175.4 23.2
2 10 -5 211.8 113.4 19.3
2 10 -4 482.3 653.1 36.7
2 10 -3 111.2 83.0 9.2
2 10 -2 150.6 238.6 16.3
2 10 -1 203.8 341.0 11.9
2 10 0 305.6 172.1 23.8
2 10 1 164.6 343.5 16.5
2 10 2 184.8 243.5 17.5
2 10 3 114.5 87.0 12.3
2 10 4 459.6 641.3 34.4
2 11 -27 93.9 180.9 23.3
2 11 -25 126.4 402.0 27.0
2 11 -24 157.5 311.8 28.0
2 11 -23 156.6 411.2 27.5
2 11 -22 53.6 114.7 14.8
2 11 -21 167.3 237.8 27.0
2 11 -20 174.5 109.2 27.2
2 11 -19 130.7 240.4 18.7
2 11 -18 517.4 671.1 56.3
2 11 -17 25.9 85.8 11.2
2 11 -16 205.8 152.4 26.5
2 11 -15 212.3 199.9 24.4
2 11 -14 313.0 452.2 31.5
2 11 -13 240.1 226.6 26.5
2 11 -12 165.5 132.1 19.7
2 11 -11 37.4 42.5 11.5
2 11 -10 500.8 694.8 27.3
2 11 -9 189.6 122.9 14.4
2 11 -8 1238.3 1616.3 61.3
2 11 -7 813.1 1104.9 41.7
2 11 -6 632.6 884.6 50.0
2 11 -5 966.9 982.1 48.8
2 11 -4 1162.3 851.9 84.4
2 11 -3 312.4 238.2 26.5
2 11 -2 41.4 119.9 10.5
2 11 0 20.1 150.2 10.3
2 11 1 35.5 170.8 10.4
2 11 2 41.6 123.1 10.3
2 11 3 371.6 238.7 29.6
2 12 -26 43.2 43.0 17.9
2 12 -25 192.5 277.8 40.6
2 12 -23 41.4 52.3 18.6
2 12 -22 170.0 116.0 30.4
2 12 -21 45.0 113.3 15.2
2 12 -20 197.4 102.0 33.3
2 12 -19 134.7 203.7 22.7
2 12 -18 208.8 235.4 30.7
2 12 -17 438.9 732.7 56.2
2 12 -16 180.6 453.6 27.2
2 12 -15 59.6 37.8 15.6
2 12 -14 1015.1 726.5 104.4
2 12 -13 883.1 1400.3 92.2
2 12 -12 376.3 807.3 41.3
2 12 -10 542.2 662.1 50.3
2 12 -9 193.5 121.7 22.3
2 12 -8 77.2 66.0 10.1
2 12 -7 37.0 30.5 11.9
2 12 -6 592.0 480.6 57.7
2 12 -5 1201.8 1310.9 107.6
2 12 -4 31.3 52.8 12.5
2 12 -3 476.9 592.2 45.7
2 12 -2 136.0 62.3 18.3
2 12 -1 555.3 741.0 50.9
2 12 1 606.5 747.0 55.8
2 13 -23 160.1 502.4 36.2
2 13 -22 44.3 296.2 16.7
2 13 -20 58.5 76.7 17.6
2 13 -19 245.5 182.7 45.9
2 13 -18 26.4 0.1 15.2
2 13 -17 59.9 24.0 17.3
2 13 -16 41.4 102.3 15.9
2 13 -15 146.7 77.5 24.9
2 13 -14 108.6 29.2 20.0
2 13 -13 61.8 26.8 14.5
2 13 -12 318.5 548.1 41.7
2 13 -11 60.7 2.5 15.2
2 13 -10 285.8 629.2 33.6
2 13 -9 272.4 245.8 31.6
2 13 -3 789.4 544.9 84.2
2 13 -2 220.5 601.1 28.5
2 13 -1 1044.2 727.6 107.0
2 14 -20 44.3 27.7 19.5
2 14 -19 29.2 83.5 17.7
2 14 -18 66.3 152.0 20.7
2 14 -16 165.9 323.5 32.8
2 14 -15 128.4 64.7 28.0
2 14 -14 99.7 102.7 21.2
2 14 -13 281.7 310.5 44.5
3 0 -36 47.4 236.1 20.2
3 0 -35 27.7 0.2 13.8
3 0 -34 33.5 58.2 13.1
3 0 -33 59.3 145.4 14.0
3 0 -31 507.1 795.4 45.5
3 0 -30 87.0 205.2 14.6
3 0 -28 80.6 3.2 19.7
3 0 -27 328.6 265.0 19.6
3 0 -26 566.9 2022.5 29.9
3 0 -25 18.5 397.2 6.5
3 0 -24 322.9 831.6 16.3
3 0 -23 2064.7 5115.1 79.2
3 0 -22 19.1 360.6 4.9
3 0 -20 17.1 112.0 3.9
3 0 -19 877.9 332.9 26.9
3 0 -18 55.6 26.0 4.7
3 0 -17 215.4 86.9 7.7
3 0 -16 44.6 88.3 6.7
3 0 -15 418.0 1199.3 14.3
3 0 -14 17.1 162.9 3.0
3 0 -13 71.8 1.0 4.1
3 0 -12 663.6 1922.2 16.2
3 0 -11 201.8 496.5 6.4
3 0 -10 1213.9 4088.4 26.7
3 0 -9 142.1 174.2 5.0
3 0 -8 42.3 763.0 5.2
3 0 -7 79.3 0.2 4.3
3 0 -6 1547.5 3249.3 37.0
3 0 -5 1566.8 1384.5 30.4
3 0 -4 804.2 1961.1 18.8
3 0 -3 5596.1 9008.9 96.5
3 0 -2 122.9 14.3 3.9
3 0 -1 185.3 71.9 4.7
3 0 1 174.5 71.9 6.0
3 0 2 146.7 14.3 5.5
3 0 3 5632.7 9008.9 107.3
3 0 4 676.3 1961.1 15.4
3 0 5 1532.5 1384.5 35.5
3 0 6 1486.4 3249.3 30.9
3 0 7 101.1 0.2 6.0
3 0 8 53.1 763.0 4.8
3 0 9 101.1 174.2 5.3
3 0 10 1245.7 4088.4 30.8
3 0 11 257.1 496.5 10.1
3 0 12 746.9 1922.2 22.9
3 0 13 79.3 1.0 5.3
3 0 14 10.3 162.9 2.7
3 0 15 436.0 1199.3 12.4
3 0 16 41.4 88.3 3.4
3 0 17 183.4 86.9 6.6
3 0 18 91.2 26.0 5.0
3 0 19 853.3 332.9 28.5
3 0 22 14.6 360.6 3.6
3 0 23 2147.9 5115.1 69.5
3 0 24 277.6 831.6 17.4
3 0 25 21.8 397.2 6.4
3 0 26 629.1 2022.5 32.3
3 0 27 363.6 265.0 25.3
3 0 28 46.7 3.2 9.3
3 0 30 175.9 205.2 26.8
3 0 31 554.5 795.4 69.8
3 0 33 67.1 145.4 16.6
3 0 34 38.5 58.2 16.7
3 0 36 71.2 236.1 21.5
3 1 -36 63.7 181.9 21.1
3 1 -34 87.0 546.7 17.9
3 1 -33 95.9 215.8 17.1
3 1 -32 39.8 29.6 13.0
3 1 -30 58.0 108.4 13.0
3 1 -29 529.3 860.7 40.9
3 1 -28 193.9 435.0 19.4
3 1 -27 125.2 93.4 10.1
3 1 -26 254.3 1256.8 15.6
3 1 -25 619.5 1339.9 41.6
3 1 -24 425.9 572.9 25.2
3 1 -23 79.9 389.5 10.9
3 1 -22 493.8 810.5 27.9
3 1 -21 944.2 1469.6 48.2
3 1 -20 474.7 739.6 25.8
3 1 -19 14.8 105.2 4.6
3 1 -18 206.8 339.4 10.0
3 1 -17 592.9 886.0 32.3
3 1 -16 16.4 89.8 5.8
3 1 -15 415.9 438.4 16.3
3 1 -14 496.9 1131.1 18.7
3 1 -13 1116.4 1641.5 33.8
3 1 -12 890.4 620.9 22.9
3 1 -11 116.4 26.0 5.6
3 1 -10 907.1 1035.2 23.1
3 1 -9 728.9 1433.9 17.9
3 1 -8 1745.4 3412.0 40.8
3 1 -7 929.3 1068.6 22.3
3 1 -6 1339.7 2015.2 38.3
3 1 -5 3198.9 3490.6 80.8
3 1 -4 3785.5 6383.3 81.5
3 1 -3 2085.3 2153.5 46.2
3 1 -2 208.8 184.5 8.1
3 1 -1 1672.0 2578.7 54.2
3 1 0 35.5 6.7 3.3
3 1 1 1857.9 2584.7 37.6
3 1 2 228.4 187.9 7.4
3 1 3 1973.8 2113.3 44.9
3 1 4 3937.1 6418.1 98.4
3 1 5 3161.5 3513.5 68.6
3 1 6 1427.9 2049.3 29.0
3 1 7 849.3 1061.6 18.3
3 1 8 1947.6 3379.7 38.5
3 1 9 745.0 1408.3 19.0
3 1 10 1009.6 1040.3 25.5
3 1 11 128.4 28.4 6.7
3 1 12 994.1 614.4 28.6
3 1 13 1244.5 1642.2 29.5
3 1 14 461.8 1123.6 11.2
3 1 15 416.6 425.2 9.2
3 1 16 24.0 88.8 2.4
3 1 17 578.5 874.1 14.3
3 1 18 186.2 339.9 7.1
3 1 19 15.5 112.3 2.5
3 1 20 540.6 738.0 16.2
3 1 21 955.0 1467.1 36.6
3 1 22 500.8 819.3 26.5
3 1 23 67.1 388.4 8.3
3 1 24 366.9 559.7 20.0
3 1 25 599.7 1330.3 38.4
3 1 26 272.4 1257.6 29.9
3 1 27 152.7 93.0 21.1
3 1 28 216.4 436.0 28.2
3 1 29 656.5 849.0 68.8
3 1 30 58.3 108.8 15.4
3 1 31 22.5 224.7 13.4
3 1 32 39.2 28.8 15.3
3 1 33 110.8 211.4 23.1
3 1 34 122.9 540.3 27.0
3 1 36 24.8 179.9 16.3
3 2 -36 169.1 412.6 37.6
3 2 -33 23.1 175.4 12.7
3 2 -30 22.5 153.2 11.6
3 2 -29 29.4 156.3 11.9
3 2 -28 288.2 360.1 37.9
3 2 -26 81.5 305.4 9.8
3 2 -25 216.4 252.6 14.9
3 2 -24 62.6 59.9 9.9
3 2 -23 87.0 262.8 8.1
3 2 -22 106.1 13.3 10.1
3 2 -21 759.3 1447.7 31.7
3 2 -20 358.9 236.4 21.1
3 2 -19 99.7 125.2 9.4
3 2 -18 136.8 357.1 10.2
3 2 -17 34.1 227.1 5.7
3 2 -16 193.0 83.5 10.2
3 2 -15 810.1 1342.7 26.8
3 2 -14 932.5 974.7 24.5
3 2 -13 908.2 698.8 25.2
3 2 -12 1371.8 2467.9 40.0
3 2 -11 344.6 681.2 12.9
3 2 -10 577.7 421.4 15.1
3 2 -9 194.9 26.7 8.3
3 2 -8 810.1 1907.9 22.8
3 2 -7 1498.5 1131.9 33.7
3 2 -6 1282.9 2639.3 30.0
3 2 -5 1316.8 2380.0 35.4
3 2 -4 210.3 332.2 10.1
3 2 -3 692.7 735.8 20.2
3 2 -2 1175.4 580.5 32.3
3 2 -1 3992.0 5890.2 99.1
3 2 0 249.4 446.6 12.1
3 2 1 3569.9 5847.7 89.6
3 2 2 1334.6 585.1 35.7
3 2 3 664.5 730.6 19.8
3 2 4 284.1 323.4 8.2
3 2 5 1265.5 2379.6 34.7
3 2 6 1259.3 2646.4 29.7
3 2 7 1510.7 1156.4 40.6
3 2 8 947.4 1915.1 23.6
3 2 9 152.7 29.4 7.3
3 2 10 561.1 412.3 14.9
3 2 11 359.6 667.7 9.3
3 2 12 1439.7 2465.1 33.1
3 2 13 924.0 689.7 23.3
3 2 14 986.5 966.3 21.9
3 2 15 801.2 1327.0 14.8
3 2 16 160.6 87.4 5.3
3 2 17 32.3 232.0 4.0
3 2 18 140.5 351.5 8.7
3 2 19 89.6 124.5 6.6
3 2 20 334.3 242.3 15.3
3 2 21 750.7 1465.0 37.2
3 2 22 124.4 10.7 9.3
3 2 23 122.9 251.3 9.7
3 2 24 93.6 61.2 13.8
3 2 25 253.2 256.5 26.6
3 2 26 61.8 313.1 14.2
3 2 27 24.8 158.3 11.8
3 2 28 333.7 370.6 38.8
3 2 29 67.4 159.6 15.5
3 2 30 33.7 154.3 14.4
3 2 31 32.9 159.9 11.8
3 3 -34 88.3 56.2 22.9
3 3 -32 34.9 11.4 15.4
3 3 -31 187.7 397.9 32.5
3 3 -30 264.4 205.9 36.8
3 3 -29 58.3 208.7 17.3
3 3 -28 454.4 718.3 51.3
3 3 -27 229.9 348.2 30.1
3 3 -25 44.3 182.0 13.7
3 3 -24 29.2 189.3 8.3
3 3 -23 286.4 561.1 18.3
3 3 -22 98.4 189.9 13.8
3 3 -20 285.8 1863.9 24.2
3 3 -19 357.0 647.2 27.7
3 3 -18 117.9 130.5 11.7
3 3 -17 55.4 53.2 8.8
3 3 -16 76.6 94.6 9.2
3 3 -15 67.1 110.8 12.9
3 3 -14 727.0 680.1 30.1
3 3 -13 420.1 614.4 19.3
3 3 -12 689.9 1041.7 27.5
3 3 -11 2031.5 2590.6 69.1
3 3 -10 642.2 812.6 25.6
3 3 -9 483.1 210.9 16.1
3 3 -8 1111.7 2644.8 39.5
3 3 -7 293.5 587.4 13.1
3 3 -6 576.9 133.7 17.6
3 3 -5 550.4 445.6 17.2
3 3 -4 1847.4 1988.6 80.9
3 3 -3 924.0 733.3 31.8
3 3 -2 38.9 2.0 5.4
3 3 -1 275.9 97.9 12.2
3 3 0 3908.7 5924.6 98.1
3 3 1 206.8 101.5 8.5
3 3 2 49.6 2.6 5.9
3 3 3 997.4 739.4 27.5
3 3 4 1894.1 2004.6 60.7
3 3 5 805.2 460.7 22.8
3 3 6 610.8 137.2 15.5
3 3 7 310.5 603.2 9.2
3 3 8 1076.0 2652.5 26.3
3 3 9 483.8 219.0 15.3
3 3 10 718.6 818.7 17.8
3 3 11 2030.0 2614.3 42.4
3 3 12 733.6 1014.8 15.1
3 3 13 397.6 610.5 8.3
3 3 14 809.1 680.3 17.8
3 3 15 47.9 106.8 3.4
3 3 16 63.2 90.9 5.3
3 3 17 43.4 55.2 5.5
3 3 18 138.8 125.5 8.2
3 3 19 358.3 662.3 23.8
3 3 20 258.8 1882.5 18.5
3 3 21 20.7 31.9 7.3
3 3 22 216.4 180.1 16.9
3 4 -34 33.7 10.8 17.4
3 4 -32 108.3 41.2 22.9
3 4 -30 129.5 396.4 23.4
3 4 -29 375.6 555.2 50.0
3 4 -28 282.9 242.0 36.4
3 4 -27 26.4 9.9 14.5
3 4 -26 586.9 471.6 64.2
3 4 -25 441.8 675.5 43.2
3 4 -24 539.0 1595.4 36.4
3 4 -23 26.8 159.5 10.1
3 4 -21 490.0 1862.0 39.4
3 4 -20 323.5 1038.5 28.2
3 4 -19 240.1 215.8 23.2
3 4 -18 349.1 404.9 28.7
3 4 -17 12.8 245.6 8.2
3 4 -16 92.9 151.6 10.1
3 4 -15 110.8 393.7 8.1
3 4 -14 860.5 1007.9 32.7
3 4 -13 1383.4 1567.9 76.5
3 4 -12 116.8 58.2 9.8
3 4 -11 17.1 198.3 6.3
3 4 -10 1222.5 1143.3 60.9
3 4 -9 191.5 172.9 15.4
3 4 -8 871.8 2396.4 44.3
3 4 -7 193.5 157.5 15.5
3 4 -6 71.2 447.1 8.8
3 4 -5 1183.8 1840.8 42.0
3 4 -4 79.3 656.6 7.1
3 4 -3 231.5 532.7 9.0
3 4 -2 2422.7 1900.1 65.2
3 4 -1 125.6 334.7 6.6
3 4 0 522.9 399.7 15.9
3 4 1 127.2 325.8 5.9
3 4 2 2393.6 1920.9 64.8
3 4 3 367.6 527.0 12.7
3 4 4 80.3 648.5 5.0
3 4 5 1171.8 1840.0 28.6
3 4 6 138.4 443.7 6.2
3 4 7 198.8 148.7 6.9
3 4 8 995.2 2379.0 24.2
3 4 9 237.4 168.9 7.5
3 4 10 1164.6 1140.1 27.4
3 4 11 27.9 200.9 2.2
3 4 12 110.8 55.9 3.3
3 4 13 1314.3 1565.3 27.8
3 4 14 817.1 1027.9 19.9
3 4 15 71.2 390.9 4.7
3 4 16 81.8 151.5 4.1
3 4 17 40.9 244.1 3.1
3 4 18 336.2 420.8 14.7
3 4 19 216.4 226.6 14.4
3 4 20 329.2 1023.2 22.1
3 4 21 483.1 1852.0 32.2
3 5 -34 40.9 73.3 20.7
3 5 -33 66.8 79.5 19.7
3 5 -32 44.1 273.3 17.4
3 5 -30 220.0 514.6 35.7
3 5 -28 116.8 293.2 22.6
3 5 -27 184.8 534.5 26.1
3 5 -26 121.7 492.8 18.5
3 5 -25 82.1 309.2 16.7
3 5 -24 91.9 627.8 16.4
3 5 -23 515.8 1127.2 49.9
3 5 -22 143.0 339.9 13.3
3 5 -21 46.7 13.4 8.6
3 5 -20 235.8 196.3 15.5
3 5 -19 345.9 831.5 20.1
3 5 -18 248.3 665.4 15.9
3 5 -17 74.7 159.1 13.3
3 5 -16 1016.2 1823.3 48.9
3 5 -15 297.7 147.5 18.0
3 5 -14 628.2 1054.5 29.7
3 5 -13 229.4 958.4 21.1
3 5 -12 865.6 764.7 45.1
3 5 -11 98.7 36.1 9.0
3 5 -10 124.0 96.0 14.0
3 5 -9 858.4 1222.7 46.0
3 5 -8 1386.0 1869.3 48.0
3 5 -7 18.2 35.9 8.5
3 5 -6 154.4 31.4 13.4
3 5 -5 511.8 1825.9 21.3
3 5 -4 1529.7 1577.0 53.2
3 5 -3 479.2 396.0 16.0
3 5 -2 85.3 45.7 5.8
3 5 -1 176.4 279.1 6.9
3 5 0 1130.4 1140.9 28.1
3 5 1 172.3 289.2 6.9
3 5 2 77.8 42.2 4.6
3 5 3 508.7 409.3 14.2
3 5 4 1494.5 1574.3 36.4
3 5 5 504.7 1839.4 14.1
3 5 6 185.8 29.7 6.7
3 5 7 29.8 31.4 3.0
3 5 8 1386.0 1883.2 33.7
3 5 9 859.5 1196.8 21.5
3 5 10 110.1 90.0 6.2
3 5 11 89.9 34.3 5.3
3 5 12 772.8 772.2 28.1
3 5 13 263.9 970.3 24.3
3 5 14 494.6 1056.3 37.2
3 5 15 280.6 154.6 26.3
3 6 -33 51.1 88.7 18.9
3 6 -32 55.4 41.9 20.0
3 6 -31 92.6 57.6 24.1
3 6 -29 36.8 100.2 16.5
3 6 -28 40.5 92.0 14.6
3 6 -27 380.4 642.6 50.3
3 6 -25 93.9 72.6 17.6
3 6 -24 166.8 277.9 23.9
3 6 -23 55.6 160.4 14.8
3 6 -22 62.9 60.7 14.4
3 6 -21 175.5 306.2 15.2
3 6 -20 351.7 330.3 20.9
3 6 -19 471.6 878.8 25.7
3 6 -18 467.9 693.8 26.4
3 6 -17 599.7 1288.8 32.4
3 6 -16 239.0 662.1 15.6
3 6 -15 224.2 310.6 14.6
3 6 -14 131.1 319.0 8.8
3 6 -13 302.6 194.1 14.6
3 6 -12 245.5 755.1 12.0
3 6 -11 928.2 790.8 35.0
3 6 -10 584.4 429.5 22.8
3 6 -9 175.0 169.2 8.8
3 6 -8 58.0 107.6 6.1
3 6 -7 112.3 192.5 7.0
3 6 -6 841.2 892.5 26.3
3 6 -5 905.0 1075.1 28.3
3 6 -4 515.0 908.5 17.4
3 6 -3 150.6 191.4 7.3
3 6 -2 28.3 179.9 4.3
3 6 -1 278.2 775.6 11.0
3 6 0 1148.1 2260.1 34.3
3 6 1 302.6 761.8 10.9
3 6 2 30.1 186.6 4.2
3 6 3 132.3 187.2 6.0
3 6 4 455.9 922.0 13.4
3 6 5 825.1 1108.0 22.0
3 6 6 873.8 895.3 25.8
3 6 7 160.6 185.4 6.2
3 6 8 63.4 107.7 3.3
3 6 9 182.9 168.7 8.5
3 6 10 537.4 437.2 25.9
3 6 11 742.1 780.4 35.1
3 6 12 267.9 772.6 14.3
3 6 13 269.6 191.7 25.8
3 7 -32 27.3 9.2 16.0
3 7 -31 52.8 57.7 18.7
3 7 -30 100.8 107.6 24.1
3 7 -29 82.8 424.0 20.9
3 7 -28 38.9 47.5 15.4
3 7 -27 88.3 234.4 19.0
3 7 -26 20.4 9.6 13.4
3 7 -25 341.3 819.9 46.4
3 7 -24 157.5 280.8 24.5
3 7 -23 19.1 13.9 12.2
3 7 -22 96.3 192.5 16.4
3 7 -21 605.7 1227.1 56.6
3 7 -20 656.5 1095.0 59.8
3 7 -19 181.5 188.3 16.0
3 7 -18 126.4 35.5 11.4
3 7 -17 653.8 561.7 34.8
3 7 -16 573.5 824.9 30.9
3 7 -15 113.8 60.3 10.8
3 7 -14 87.0 43.8 9.1
3 7 -13 201.8 82.8 13.4
3 7 -12 12.4 153.7 6.6
3 7 -11 282.9 375.4 16.4
3 7 -10 343.9 830.4 16.2
3 7 -9 994.1 1112.9 38.5
3 7 -8 757.4 889.1 29.7
3 7 -7 1269.2 1527.9 47.2
3 7 -6 311.7 530.7 14.8
3 7 -5 371.6 354.2 13.4
3 7 -4 76.6 309.0 6.1
3 7 -3 32.9 188.1 5.2
3 7 -2 97.7 166.7 6.2
3 7 -1 44.6 83.0 4.9
3 7 0 484.6 1802.6 16.9
3 7 1 37.0 78.9 4.5
3 7 2 94.2 173.3 5.8
3 7 3 59.6 182.9 4.8
3 7 4 74.1 319.5 4.8
3 7 5 368.3 354.3 12.7
3 7 6 302.6 551.2 12.7
3 7 7 1129.2 1538.1 41.0
3 7 8 804.2 893.3 38.6
3 7 9 1038.6 1100.8 47.2
3 7 10 342.6 809.4 23.9
3 7 11 258.2 369.6 17.9
3 8 -31 110.1 345.2 27.8
3 8 -30 148.9 452.8 34.4
3 8 -29 39.8 113.0 19.1
3 8 -28 59.6 20.2 19.1
3 8 -27 265.6 412.1 42.0
3 8 -26 262.7 778.3 42.4
3 8 -25 35.5 44.0 13.7
3 8 -24 146.7 169.2 24.1
3 8 -23 342.0 203.9 40.6
3 8 -22 121.3 198.8 21.5
3 8 -20 1029.6 1763.5 91.7
3 8 -19 333.7 465.0 35.0
3 8 -18 619.5 1133.9 58.1
3 8 -17 237.9 465.2 26.9
3 8 -16 460.3 326.2 26.2
3 8 -15 438.2 423.9 25.5
3 8 -14 116.0 596.7 11.3
3 8 -13 79.6 285.4 9.0
3 8 -12 93.2 284.6 9.8
3 8 -11 1068.0 1541.8 53.5
3 8 -10 343.9 1065.5 20.0
3 8 -9 158.4 356.4 12.3
3 8 -8 1591.7 1786.1 72.3
3 8 -7 444.8 400.9 23.5
3 8 -6 97.7 206.5 7.6
3 8 -5 75.6 108.3 7.0
3 8 -4 2088.5 1794.4 78.1
3 8 -3 718.6 698.0 29.0
3 8 -2 173.6 448.7 9.6
3 8 -1 617.7 816.0 25.1
3 8 0 88.6 9.6 6.6
3 8 1 565.2 808.1 24.0
3 8 2 166.4 465.1 9.0
3 8 3 761.3 716.6 29.8
3 8 4 2188.4 1799.4 79.9
3 8 5 133.5 111.4 8.1
3 8 6 127.2 204.5 7.9
3 8 7 393.4 408.7 27.7
3 8 8 1547.5 1800.7 96.0
3 8 9 217.4 369.2 18.0
3 8 10 403.9 1078.9 27.3
3 9 -29 189.1 323.0 39.8
3 9 -28 43.6 32.0 18.4
3 9 -27 39.8 67.6 17.6
3 9 -26 26.1 185.6 14.2
3 9 -25 617.7 691.9 90.1
3 9 -24 87.0 227.2 20.2
3 9 -23 29.8 164.3 14.6
3 9 -22 88.9 98.5 18.7
3 9 -21 324.8 375.7 39.0
3 9 -20 137.2 17.8 20.4
3 9 -19 129.5 406.0 19.8
3 9 -18 451.4 326.6 50.4
3 9 -17 316.7 376.4 32.3
3 9 -16 22.8 22.0 11.0
3 9 -15 86.0 290.1 14.2
3 9 -14 54.4 29.0 8.5
3 9 -13 253.2 245.5 17.2
3 9 -12 561.1 929.7 31.4
3 9 -11 56.4 167.4 9.2
3 9 -10 1253.1 1878.5 62.9
3 9 -9 100.1 289.5 9.4
3 9 -8 209.8 563.9 14.1
3 9 -7 113.8 101.0 10.4
3 9 -6 219.0 191.9 15.0
3 9 -5 55.9 368.5 7.3
3 9 -4 106.5 171.6 9.0
3 9 -3 38.1 133.4 6.5
3 9 -2 340.7 259.2 18.7
3 9 -1 125.6 281.4 7.8
3 9 0 129.5 303.7 8.3
3 9 1 84.1 289.5 7.0
3 9 2 328.6 255.6 26.5
3 9 3 30.3 140.8 4.8
3 9 4 97.7 179.2 7.2
3 9 5 68.8 363.7 10.4
3 9 6 273.0 192.2 22.5
3 9 7 115.3 107.9 12.4
3 9 8 229.4 559.7 19.5
3 9 9 124.8 278.2 12.9
3 10 -28 143.4 163.0 33.8
3 10 -27 213.3 204.5 44.8
3 10 -26 163.2 323.1 33.8
3 10 -24 131.9 225.1 25.2
3 10 -23 185.3 105.9 32.3
3 10 -22 372.3 454.8 56.5
3 10 -21 53.1 183.8 14.5
3 10 -20 86.3 80.8 17.8
3 10 -19 97.7 300.3 18.9
3 10 -18 22.5 75.7 12.7
3 10 -17 307.4 599.6 36.7
3 10 -16 371.6 164.4 43.0
3 10 -15 647.6 756.5 69.2
3 10 -14 1246.9 1761.1 108.3
3 10 -13 208.8 112.6 24.2
3 10 -12 104.3 31.5 15.7
3 10 -11 87.0 83.9 10.7
3 10 -10 276.5 129.1 20.3
3 10 -9 156.6 60.3 13.5
3 10 -8 403.9 813.5 23.8
3 10 -7 156.2 396.7 18.7
3 10 -6 319.8 556.2 28.1
3 10 -5 20.7 10.7 10.9
3 10 -4 504.7 689.7 42.3
3 10 -3 553.7 719.9 30.3
3 10 -2 73.8 590.5 13.2
3 10 -1 1318.1 1500.5 92.4
3 10 0 1325.7 764.1 64.7
3 10 1 1191.0 1479.9 86.6
3 10 2 50.3 581.8 6.4
3 10 3 578.5 711.6 30.2
3 10 4 481.5 688.9 37.5
3 10 5 35.5 10.2 9.8
3 10 6 296.5 544.9 25.2
3 10 7 176.9 399.4 17.6
3 10 8 452.2 806.3 33.4
3 11 -26 262.7 216.1 53.7
3 11 -24 83.7 72.1 23.6
3 11 -23 28.6 170.9 17.7
3 11 -22 85.0 51.3 22.5
3 11 -21 72.9 20.7 18.8
3 11 -20 76.9 299.4 19.9
3 11 -19 41.4 130.6 15.2
3 11 -17 46.4 4.5 13.3
3 11 -16 736.5 1017.4 89.9
3 11 -15 345.9 473.3 39.5
3 11 -14 175.9 420.0 25.0
3 11 -13 991.9 761.6 102.1
3 11 -12 200.3 99.6 26.1
3 11 -11 265.6 267.3 32.4
3 11 -10 248.3 213.0 30.8
3 11 -9 80.6 281.2 14.1
3 11 -8 603.1 601.3 40.2
3 11 -7 721.4 1729.6 47.7
3 11 -6 391.3 342.6 26.9
3 11 -5 590.3 1115.2 39.0
3 11 -4 904.0 936.8 57.6
3 11 -3 864.6 1544.6 78.9
3 11 -2 183.9 504.1 20.8
3 11 -1 334.3 330.2 34.4
3 11 0 395.5 742.5 27.0
3 11 1 260.5 340.1 18.6
3 11 2 147.2 510.1 19.9
3 11 3 833.1 1542.1 76.5
3 11 4 998.5 949.7 88.1
3 11 5 576.9 1125.6 52.7
3 11 6 466.4 329.0 42.2
3 11 7 776.7 1720.8 69.0
3 12 -22 97.7 113.9 25.8
3 12 -20 35.3 76.8 17.0
3 12 -19 70.3 198.4 19.9
3 12 -18 82.1 159.6 19.9
3 12 -17 413.7 254.0 61.7
3 12 -16 73.5 81.0 18.2
3 12 -15 21.8 187.5 13.4
3 12 -14 21.3 22.4 13.0
3 12 -13 375.0 750.6 49.3
3 12 -12 198.3 328.1 29.0
3 12 -11 197.8 509.3 29.4
3 12 -9 195.4 242.0 25.3
3 12 -8 87.3 243.1 15.3
3 12 -7 264.4 276.8 31.7
3 12 -6 240.6 175.5 28.7
3 12 -5 374.3 765.7 30.3
3 12 -4 16.4 261.2 7.9
3 12 -3 280.0 285.2 23.3
3 12 -2 166.4 313.6 15.3
3 12 -1 97.0 179.9 17.5
3 12 0 109.7 0.2 18.6
3 12 1 100.4 181.4 17.8
3 12 2 200.8 319.9 25.7
3 12 3 253.2 286.5 30.0
3 12 4 50.8 255.1 12.4
3 12 5 438.2 767.5 47.4
3 13 -20 54.1 49.6 19.5
3 13 -19 346.5 386.7 68.8
3 13 -18 128.4 378.1 30.0
3 13 -17 68.8 215.5 20.2
3 13 -15 260.5 297.4 48.4
3 13 -14 32.9 35.4 14.6
3 13 -13 38.9 59.1 15.4
3 13 -11 383.8 219.9 57.4
3 13 -10 36.8 35.4 14.6
3 13 -9 430.2 384.7 55.7
3 13 -8 198.3 165.4 28.0
3 13 -7 608.3 395.6 75.7
3 13 -6 79.0 14.4 16.1
3 13 -5 266.1 246.6 34.7
3 13 -4 358.3 308.4 46.2
3 13 1 63.4 23.4 15.3
3 14 -16 300.2 326.5 60.4
3 14 -15 54.6 43.5 19.3
3 14 -13 112.3 71.7 24.8
3 14 -12 85.3 121.6 21.9
3 14 -10 131.5 292.3 27.6
3 14 -9 73.8 138.5 20.1
3 14 -8 174.5 143.5 33.6
3 14 -7 20.4 28.8 11.8
3 15 -11 69.1 39.9 19.7
4 0 -32 50.8 73.2 19.9
4 0 -28 43.6 0.9 12.2
4 0 -27 39.8 787.2 20.7
4 0 -26 290.6 629.6 37.4
4 0 -24 133.5 95.4 25.4
4 0 -23 41.8 663.8 10.4
4 0 -22 25.5 9.0 10.0
4 0 -20 135.2 78.2 13.8
4 0 -18 50.8 30.4 8.4
4 0 -17 40.0 594.5 7.1
4 0 -16 136.8 69.2 7.3
4 0 -15 573.5 92.2 20.0
4 0 -14 74.7 53.1 7.2
4 0 -13 14.3 22.4 5.8
4 0 -12 197.4 637.2 9.8
4 0 -11 570.2 400.0 20.0
4 0 -10 12.2 11.4 4.6
4 0 -8 31.9 62.3 3.7
4 0 -7 1145.7 1351.4 35.4
4 0 -6 14.8 109.6 3.9
4 0 -5 1051.0 1728.9 24.9
4 0 -4 636.1 845.3 14.9
4 0 -3 816.1 1369.1 16.9
4 0 -2 41.6 4.9 3.1
4 0 -1 454.4 1258.2 10.4
4 0 0 149.7 453.8 6.0
4 0 1 408.1 1258.2 11.3
4 0 2 41.4 4.9 3.6
4 0 3 894.5 1369.1 22.9
4 0 4 639.6 845.3 15.9
4 0 5 1015.1 1728.9 23.3
4 0 6 21.3 109.6 3.7
4 0 7 1136.3 1351.4 29.4
4 0 8 23.6 62.3 3.4
4 0 9 13.7 104.0 3.3
4 0 10 11.8 11.4 3.4
4 0 11 631.7 400.0 21.9
4 0 12 201.3 637.2 8.4
4 0 13 21.5 22.4 4.5
4 0 14 89.9 53.1 5.9
4 0 15 576.0 92.2 17.6
4 0 16 146.3 69.2 6.7
4 0 17 42.5 594.5 3.6
4 0 18 50.3 30.4 4.0
4 0 19 17.4 0.0 3.3
4 0 20 115.3 78.2 5.6
4 0 21 20.1 126.7 6.1
4 0 22 49.6 9.0 8.6
4 0 23 51.6 663.8 8.8
4 0 24 114.5 95.4 13.4
4 0 26 333.0 629.6 28.0
4 0 27 37.0 787.2 10.0
4 0 28 36.2 0.9 14.7
4 0 30 90.9 154.3 19.6
4 0 31 387.9 833.7 68.7
4 0 32 48.6 73.2 17.7
4 1 -33 78.4 238.7 23.1
4 1 -32 122.1 211.1 28.1
4 1 -31 65.1 82.5 20.5
4 1 -30 37.6 55.2 16.7
4 1 -29 357.0 899.2 38.9
4 1 -28 192.0 349.0 34.8
4 1 -27 148.4 180.7 29.3
4 1 -26 99.0 134.2 20.8
4 1 -25 267.3 309.8 25.1
4 1 -24 257.1 414.0 24.0
4 1 -23 28.6 493.6 17.9
4 1 -22 77.5 2.8 19.6
4 1 -21 114.5 281.2 21.3
4 1 -20 94.2 246.3 11.2
4 1 -19 52.6 21.0 10.1
4 1 -18 275.9 939.2 18.5
4 1 -17 339.4 281.4 17.3
4 1 -16 323.5 376.0 16.9
4 1 -15 301.4 688.5 18.8
4 1 -14 60.7 81.2 6.8
4 1 -13 958.2 1042.0 44.2
4 1 -12 561.1 940.5 19.8
4 1 -11 154.0 342.0 8.2
4 1 -10 211.8 485.9 9.6
4 1 -9 131.1 44.7 7.6
4 1 -8 994.1 1369.0 30.8
4 1 -7 846.2 2818.6 26.4
4 1 -6 726.1 1049.7 23.5
4 1 -5 1085.2 685.5 27.6
4 1 -4 546.3 1024.7 18.7
4 1 -3 47.6 231.3 4.6
4 1 -2 190.6 187.8 9.6
4 1 -1 80.9 971.9 7.5
4 1 0 851.3 1171.4 26.4
4 1 1 66.5 961.5 4.3
4 1 2 177.3 179.8 6.5
4 1 3 41.4 240.9 5.4
4 1 4 555.3 1012.9 14.0
4 1 5 1177.8 703.2 29.9
4 1 6 726.1 1046.5 16.0
4 1 7 823.1 2803.7 20.0
4 1 8 1054.4 1349.0 24.9
4 1 9 122.9 49.0 5.0
4 1 10 234.7 471.1 8.0
4 1 11 146.3 351.9 7.2
4 1 12 542.2 957.7 18.7
4 1 13 1046.5 1042.5 33.8
4 1 14 56.4 77.1 5.2
4 1 15 335.6 686.4 12.8
4 1 16 332.4 367.8 18.4
4 1 17 327.9 282.1 13.9
4 1 18 340.7 926.7 11.6
4 1 19 75.6 23.7 5.2
4 1 20 105.4 238.9 8.9
4 1 21 233.7 275.8 18.1
4 1 22 54.1 3.6 12.6
4 1 23 72.0 493.5 13.9
4 1 24 329.2 409.3 38.6
4 1 25 283.5 302.7 33.5
4 1 26 123.7 131.1 20.5
4 1 27 116.8 186.0 20.3
4 1 28 128.4 350.2 22.5
4 1 29 361.6 890.2 55.0
4 1 30 38.9 56.9 16.7
4 1 32 97.7 215.6 23.4
4 1 33 58.8 239.6 20.0
4 2 -33 111.9 270.6 29.1
4 2 -32 222.6 299.5 46.8
4 2 -31 85.0 194.6 23.5
4 2 -29 67.4 179.9 15.2
4 2 -28 44.1 368.5 14.4
4 2 -27 248.3 360.3 25.8
4 2 -26 99.0 178.6 25.0
4 2 -25 314.8 688.2 40.8
4 2 -24 601.4 842.6 67.5
4 2 -23 475.4 611.5 48.6
4 2 -22 119.4 184.7 22.9
4 2 -21 88.9 7.5 20.7
4 2 -20 129.9 407.6 13.9
4 2 -19 654.7 1168.7 51.7
4 2 -18 783.5 1451.1 41.0
4 2 -17 214.4 586.8 22.5
4 2 -16 259.9 772.4 24.2
4 2 -15 289.4 33.1 25.5
4 2 -14 210.8 379.4 14.2
4 2 -13 195.4 210.3 19.5
4 2 -12 123.3 56.7 9.7
4 2 -11 819.1 1179.8 31.9
4 2 -10 335.6 231.3 15.3
4 2 -9 337.5 343.5 13.4
4 2 -8 285.2 461.5 12.4
4 2 -7 2652.7 4341.7 123.9
4 2 -6 1391.2 1045.8 40.3
4 2 -5 183.4 261.2 9.0
4 2 -4 1096.7 1369.1 39.2
4 2 -3 287.6 143.5 11.2
4 2 -2 257.7 781.8 11.2
4 2 -1 25.9 31.2 4.8
4 2 0 7.9 16.0 4.6
4 2 1 25.9 32.4 6.0
4 2 2 248.3 777.0 10.4
4 2 3 261.6 149.5 11.3
4 2 4 1084.0 1381.1 32.1
4 2 5 199.8 256.8 8.4
4 2 6 1343.5 1036.1 34.5
4 2 7 2685.1 4357.6 63.2
4 2 8 246.1 467.1 9.3
4 2 9 357.0 330.7 13.8
4 2 10 375.6 239.0 14.2
4 2 11 794.3 1176.5 26.5
4 2 12 131.1 61.0 8.4
4 2 13 202.8 207.2 9.9
4 2 14 205.8 389.1 8.5
4 2 15 312.4 36.2 14.2
4 2 16 343.3 773.5 18.1
4 2 17 219.0 581.2 8.8
4 2 18 673.5 1425.9 25.3
4 2 19 556.1 1176.1 37.0
4 2 20 177.8 408.7 20.9
4 2 21 100.8 7.2 15.7
4 2 22 161.4 183.2 19.9
4 2 23 493.8 607.4 53.5
4 2 24 635.2 858.7 67.6
4 2 25 261.1 673.7 32.1
4 2 26 107.9 176.1 21.0
4 2 27 241.7 358.9 34.7
4 2 28 50.8 370.9 16.4
4 3 -33 77.5 114.8 23.9
4 3 -31 243.9 498.5 46.3
4 3 -30 80.9 153.1 21.9
4 3 -29 156.2 473.8 29.6
4 3 -28 143.0 79.7 27.5
4 3 -27 858.4 1995.8 106.2
4 3 -24 317.9 417.0 39.2
4 3 -23 871.8 1073.0 92.6
4 3 -19 305.6 19.8 28.6
4 3 -18 137.2 198.8 17.1
4 3 -17 302.6 429.7 27.3
4 3 -16 574.3 240.1 45.9
4 3 -15 355.0 864.2 30.9
4 3 -14 95.3 157.5 14.6
4 3 -13 137.2 547.9 15.9
4 3 -12 146.3 275.6 17.3
4 3 -11 189.1 1.7 19.2
4 3 -10 49.8 260.1 6.6
4 3 -9 605.7 1014.3 30.0
4 3 -8 1811.6 2295.1 80.1
4 3 -7 136.0 340.3 10.2
4 3 -6 260.5 496.3 13.5
4 3 -5 435.3 170.9 25.5
4 3 -4 883.1 1230.8 33.1
4 3 -3 527.7 572.5 22.4
4 3 -2 226.3 71.5 12.6
4 3 -1 62.3 133.1 7.7
4 3 0 12.2 147.3 4.6
4 3 1 47.2 130.4 6.5
4 3 2 210.8 66.6 9.6
4 3 3 566.9 594.4 19.1
4 3 4 784.5 1208.4 30.3
4 3 5 357.0 170.2 13.2
4 3 6 234.7 502.9 11.7
4 3 7 123.7 351.3 6.6
4 3 8 1755.7 2292.9 65.7
4 3 9 556.9 1013.3 19.7
4 3 10 57.2 250.9 5.5
4 3 11 168.2 1.2 10.8
4 3 12 146.3 283.7 7.6
4 3 13 94.9 544.0 6.8
4 3 14 87.6 165.4 4.2
4 3 15 321.0 847.6 11.2
4 3 16 511.0 232.9 15.8
4 3 17 257.1 436.4 11.7
4 3 18 128.4 203.0 8.7
4 3 19 322.3 19.1 24.4
4 3 20 170.0 114.0 16.8
4 4 -32 33.1 361.8 16.0
4 4 -31 28.3 0.4 16.5
4 4 -27 62.1 138.6 18.7
4 4 -26 72.3 268.3 18.1
4 4 -25 431.6 1140.5 55.0
4 4 -24 59.6 84.7 17.8
4 4 -23 159.7 585.0 23.8
4 4 -22 162.8 181.9 24.5
4 4 -19 18.5 169.3 12.2
4 4 -18 516.6 461.7 28.5
4 4 -17 531.7 553.9 43.4
4 4 -16 700.9 1407.9 52.6
4 4 -14 636.1 1055.3 49.2
4 4 -13 282.9 518.5 17.6
4 4 -12 37.0 128.6 11.9
4 4 -11 28.6 59.3 9.7
4 4 -10 1018.5 1508.7 70.1
4 4 -9 682.6 903.5 49.2
4 4 -8 104.7 362.2 13.9
4 4 -7 281.1 209.9 17.0
4 4 -6 1103.6 1230.1 42.8
4 4 -5 1547.5 2413.6 71.3
4 4 -4 174.5 407.3 9.7
4 4 -3 111.6 179.2 7.7
4 4 -2 76.6 149.9 6.1
4 4 -1 775.8 1069.8 31.1
4 4 0 8.8 75.0 4.9
4 4 1 843.2 1091.3 26.3
4 4 2 60.2 148.9 7.3
4 4 3 113.0 179.0 9.3
4 4 4 148.9 418.0 8.9
4 4 5 1479.7 2416.7 53.6
4 4 6 1088.6 1234.6 41.4
4 4 7 265.0 200.9 12.5
4 4 8 126.4 363.8 7.4
4 4 9 743.1 892.4 28.5
4 4 10 1031.9 1509.1 38.1
4 4 11 59.9 67.0 4.9
4 4 12 67.4 134.9 4.6
4 4 13 316.7 514.9 9.9
4 4 14 568.5 1056.4 19.1
4 4 15 23.1 289.4 2.5
4 4 16 760.3 1408.9 36.5
4 4 17 504.7 539.4 24.3
4 5 -31 68.0 247.2 22.1
4 5 -30 33.7 120.5 17.6
4 5 -26 44.6 31.2 16.8
4 5 -25 36.2 27.8 16.8
4 5 -24 61.8 262.7 17.3
4 5 -23 29.4 158.3 14.5
4 5 -22 41.4 126.4 14.6
4 5 -19 286.4 317.7 31.9
4 5 -18 196.4 225.6 23.0
4 5 -17 323.5 435.8 35.1
4 5 -16 946.4 1287.4 49.3
4 5 -15 636.1 1368.7 33.4
4 5 -14 21.3 71.4 7.2
4 5 -13 41.4 407.9 12.8
4 5 -12 40.9 336.3 7.8
4 5 -11 40.0 47.7 11.2
4 5 -10 108.3 276.5 10.2
4 5 -9 19.1 49.7 6.1
4 5 -8 557.8 385.4 28.8
4 5 -7 292.4 614.4 17.3
4 5 -6 329.8 917.2 19.0
4 5 -5 569.3 687.1 23.3
4 5 -4 809.1 1197.2 32.7
4 5 -3 302.0 559.4 14.5
4 5 -2 92.6 125.3 7.4
4 5 -1 756.5 379.4 29.7
4 5 0 415.9 795.7 17.8
4 5 1 831.1 369.5 32.2
4 5 2 85.0 129.4 7.1
4 5 3 359.6 558.5 16.5
4 5 4 845.2 1207.9 28.4
4 5 5 560.2 684.0 19.8
4 5 6 367.6 928.3 14.0
4 5 7 359.6 600.6 15.2
4 5 8 530.1 386.5 20.9
4 5 9 15.8 45.8 4.3
4 5 10 126.0 264.7 6.7
4 5 11 27.9 50.7 3.9
4 5 12 45.5 323.8 4.0
4 5 14 22.5 74.2 2.1
4 5 15 469.4 1348.9 35.5
4 6 -30 46.0 31.8 19.9
4 6 -29 82.8 86.5 24.4
4 6 -27 120.2 78.3 26.0
4 6 -26 195.4 263.7 34.1
4 6 -24 49.1 324.9 16.4
4 6 -23 76.6 820.6 18.0
4 6 -22 83.7 176.8 18.8
4 6 -21 453.6 1687.8 50.5
4 6 -20 66.5 168.2 15.4
4 6 -19 60.7 58.5 14.9
4 6 -18 231.0 200.6 25.4
4 6 -17 78.1 373.1 14.8
4 6 -15 37.0 2.9 8.9
4 6 -14 253.2 234.7 17.2
4 6 -13 117.9 198.4 11.4
4 6 -12 31.5 361.6 8.2
4 6 -11 68.0 157.7 9.2
4 6 -10 203.8 466.8 14.4
4 6 -9 13.4 109.3 7.0
4 6 -8 77.8 185.6 8.9
4 6 -7 247.2 277.4 14.8
4 6 -6 249.9 908.2 15.4
4 6 -5 321.7 256.2 18.1
4 6 -4 64.0 220.1 7.0
4 6 -3 1211.5 1413.4 47.3
4 6 -2 354.3 80.6 16.4
4 6 -1 380.4 622.9 15.0
4 6 0 9.7 16.2 4.9
4 6 1 394.1 624.3 15.2
4 6 2 372.3 75.5 14.1
4 6 3 1253.1 1387.3 42.0
4 6 4 116.4 211.8 8.3
4 6 5 261.1 252.8 12.4
4 6 6 228.9 898.6 10.5
4 6 7 229.9 283.6 11.1
4 6 8 84.1 180.4 5.8
4 6 10 205.3 457.0 9.5
4 6 11 58.5 154.2 4.0
4 6 12 27.9 371.1 5.2
4 6 13 96.6 190.1 7.2
4 6 14 263.3 247.4 18.1
4 7 -29 235.3 205.4 49.2
4 7 -28 78.7 182.3 23.2
4 7 -27 37.4 17.1 17.7
4 7 -26 251.6 119.0 47.0
4 7 -25 176.4 216.9 31.5
4 7 -24 52.6 75.8 17.9
4 7 -23 129.1 272.5 23.0
4 7 -22 55.9 61.7 14.9
4 7 -17 33.5 299.4 11.9
4 7 -16 38.3 59.3 12.5
4 7 -15 99.7 112.9 17.1
4 7 -14 65.4 6.5 10.1
4 7 -13 311.7 233.1 22.8
4 7 -12 43.4 15.6 9.2
4 7 -11 42.5 217.7 8.2
4 7 -10 507.1 379.7 28.3
4 7 -9 816.1 398.3 41.8
4 7 -8 556.1 975.4 29.6
4 7 -7 136.0 13.5 11.4
4 7 -6 610.0 1002.8 32.7
4 7 -5 749.8 2793.8 38.2
4 7 -4 263.9 573.3 15.9
4 7 -3 197.4 189.8 13.7
4 7 -2 1514.8 2124.9 73.3
4 7 -1 580.2 634.2 25.2
4 7 0 1683.4 3276.0 67.2
4 7 1 672.6 646.0 28.9
4 7 2 1564.0 2128.1 62.0
4 7 3 162.8 182.2 10.2
4 7 4 261.6 563.4 13.0
4 7 5 825.1 2808.8 34.0
4 7 6 652.0 994.7 27.6
4 7 7 152.3 14.9 8.6
4 7 8 585.3 969.3 24.5
4 7 9 780.6 406.5 31.2
4 7 10 454.4 372.0 24.5
4 7 11 41.8 213.4 6.3
4 7 12 63.2 15.5 8.0
4 8 -28 45.3 264.6 19.5
4 8 -27 161.4 201.3 35.4
4 8 -26 107.9 68.8 25.3
4 8 -25 33.5 25.7 16.3
4 8 -24 84.4 76.6 22.4
4 8 -23 79.3 26.7 18.9
4 8 -22 54.9 163.9 16.3
4 8 -21 51.3 545.7 16.5
4 8 -20 190.1 54.5 28.4
4 8 -19 264.4 797.3 35.7
4 8 -18 174.5 507.4 24.4
4 8 -17 41.4 142.4 13.7
4 8 -16 387.2 843.6 42.5
4 8 -15 298.3 261.3 35.5
4 8 -14 52.6 178.6 13.4
4 8 -13 301.4 283.0 30.9
4 8 -12 761.3 1438.9 49.1
4 8 -11 592.9 753.1 39.0
4 8 -10 321.0 316.5 23.7
4 8 -9 207.8 51.3 16.6
4 8 -8 735.5 867.6 38.8
4 8 -7 135.2 312.5 11.3
4 8 -6 143.8 227.2 11.7
4 8 -5 247.7 618.2 15.9
4 8 -4 429.5 1013.9 23.8
4 8 -3 593.7 1292.2 31.4
4 8 -2 96.6 195.9 9.3
4 8 -1 981.0 1271.8 50.2
4 8 0 2061.5 2269.2 101.3
4 8 1 898.7 1265.4 46.0
4 8 2 81.2 200.1 8.2
4 8 3 722.3 1299.3 37.5
4 8 4 523.7 998.6 23.1
4 8 5 233.7 618.6 11.7
4 8 6 145.1 220.0 8.4
4 8 7 148.9 310.5 8.1
4 8 8 649.3 879.5 34.6
4 8 9 219.0 50.0 22.2
4 8 10 344.6 306.5 31.7
4 8 11 608.3 757.6 52.4
4 9 -26 94.9 167.1 24.8
4 9 -25 31.3 110.8 16.8
4 9 -23 91.6 280.1 23.0
4 9 -22 155.7 186.8 33.5
4 9 -21 307.4 295.8 48.3
4 9 -20 111.6 114.1 21.7
4 9 -19 172.7 236.4 27.9
4 9 -18 180.6 90.4 27.2
4 9 -17 285.2 407.6 40.0
4 9 -16 26.8 370.3 14.3
4 9 -14 169.1 470.8 24.0
4 9 -13 379.7 107.5 43.5
4 9 -12 119.8 36.3 19.5
4 9 -11 616.0 589.0 66.6
4 9 -10 1438.4 1232.1 126.9
4 9 -9 233.1 331.6 18.1
4 9 -8 21.8 48.6 8.5
4 9 -7 679.9 883.3 44.5
4 9 -6 966.9 1272.1 61.8
4 9 -5 36.2 36.5 7.5
4 9 -4 204.3 205.4 16.9
4 9 -3 151.4 331.0 13.3
4 9 -2 897.7 1148.2 57.4
4 9 -1 108.6 289.8 10.5
4 9 0 17.1 3.3 6.3
4 9 1 105.4 279.5 10.0
4 9 2 833.1 1139.4 53.3
4 9 3 159.7 325.0 12.8
4 9 4 242.3 196.9 17.4
4 9 5 70.9 32.7 7.3
4 9 6 1027.4 1298.2 90.5
4 9 7 798.2 878.3 70.9
4 9 8 34.3 49.8 9.4
4 9 9 239.5 337.6 24.8
4 10 -23 91.9 288.2 24.4
4 10 -22 89.9 78.2 23.8
4 10 -21 319.2 355.4 57.9
4 10 -20 274.7 254.1 50.3
4 10 -19 149.3 50.5 29.0
4 10 -18 52.1 129.4 17.6
4 10 -17 274.2 108.0 43.3
4 10 -16 269.6 354.7 37.2
4 10 -15 111.2 115.2 21.3
4 10 -13 73.5 9.1 16.7
4 10 -12 347.8 253.1 45.5
4 10 -11 165.9 407.1 22.9
4 10 -10 211.3 903.2 26.3
4 10 -9 382.4 364.2 42.3
4 10 -8 1028.5 945.9 106.2
4 10 -7 322.9 208.5 26.9
4 10 -6 17.4 169.7 7.6
4 10 -4 95.3 120.2 10.9
4 10 -2 40.7 69.5 7.6
4 10 -1 367.6 596.3 26.1
4 10 0 844.2 929.0 53.7
4 10 1 325.4 590.9 33.3
4 10 2 18.5 74.3 5.7
4 10 4 99.4 117.5 16.3
4 10 6 55.4 174.2 11.9
4 10 7 297.1 214.5 33.6
4 11 -22 74.1 194.2 21.6
4 11 -21 41.4 101.9 17.9
4 11 -20 217.9 287.9 45.8
4 11 -19 473.2 438.0 82.6
4 11 -18 341.3 219.9 60.5
4 11 -17 34.9 21.7 17.1
4 11 -16 91.6 24.4 20.3
4 11 -15 108.3 271.1 21.8
4 11 -14 241.7 593.1 39.0
4 11 -12 327.3 1053.2 43.5
4 11 -11 142.5 213.2 23.7
4 11 -10 229.9 382.9 31.7
4 11 -9 57.7 166.5 14.3
4 11 -8 55.9 96.7 14.3
4 11 -7 108.6 3.2 18.5
4 11 -6 176.4 208.2 25.5
4 11 -5 210.3 191.8 25.8
4 11 -4 50.8 172.3 9.2
4 11 -3 18.2 31.0 8.2
4 11 -1 58.8 333.2 15.2
4 11 1 78.4 338.8 16.4
4 11 3 31.5 27.2 12.7
4 11 4 33.5 177.2 12.1
4 11 5 141.3 192.3 22.4
4 12 -14 70.0 72.5 20.7
4 12 -13 37.4 153.4 14.5
4 12 -11 41.6 60.9 15.5
4 12 -10 300.8 243.4 45.9
4 12 -9 133.5 274.7 24.6
4 12 -8 54.4 54.7 14.6
4 12 -6 47.9 67.7 14.2
4 12 -5 89.9 198.8 18.2
4 12 -4 46.4 369.3 12.4
4 12 -1 27.0 52.5 14.5
4 13 -15 84.7 75.5 25.0
4 13 -14 65.7 44.7 20.1
4 13 -13 56.4 136.6 19.1
4 13 -12 244.4 276.9 50.7
4 13 -11 217.9 450.1 45.8
4 13 -10 138.8 213.5 28.8
4 13 -8 109.4 83.4 22.6
5 0 -27 195.9 381.2 38.1
5 0 -23 129.9 117.9 21.5
5 0 -20 47.9 111.2 11.8
5 0 -19 716.7 764.6 78.4
5 0 -18 209.8 325.6 30.8
5 0 -16 895.6 1223.7 83.5
5 0 -15 62.9 52.3 18.2
5 0 -14 204.3 514.9 26.9
5 0 -13 62.6 440.0 9.1
5 0 -12 52.8 20.9 6.1
5 0 -11 324.2 376.9 14.4
5 0 -10 34.9 5.2 6.0
5 0 -9 61.8 5.8 6.0
5 0 -8 165.5 5.6 10.3
5 0 -7 102.5 72.0 7.8
5 0 -6 10.6 87.2 5.1
5 0 -5 363.6 66.1 15.3
5 0 -4 249.9 498.3 12.1
5 0 -3 561.9 1304.9 31.4
5 0 -2 81.2 484.6 7.5
5 0 -1 19.8 30.5 3.9
5 0 1 39.2 30.5 3.9
5 0 2 88.3 484.6 5.2
5 0 3 561.1 1304.9 20.6
5 0 4 263.3 498.3 10.7
5 0 5 347.2 66.1 13.0
5 0 6 11.0 87.2 4.3
5 0 7 118.3 72.0 6.8
5 0 8 178.7 5.6 8.4
5 0 9 72.6 5.8 5.3
5 0 10 43.6 5.2 5.5
5 0 11 351.1 376.9 13.1
5 0 12 57.7 20.9 5.6
5 0 13 73.8 440.0 6.6
5 0 14 170.4 514.9 11.8
5 0 15 37.6 52.3 6.0
5 0 16 882.1 1223.7 45.6
5 0 17 20.7 14.6 6.3
5 0 18 222.6 325.6 20.3
5 0 19 633.4 764.6 48.3
5 0 20 42.5 111.2 10.0
5 0 22 51.1 3.6 11.2
5 0 23 133.5 117.9 16.5
5 0 25 40.9 37.1 14.9
5 0 26 19.1 50.8 10.4
5 0 27 286.4 381.2 52.5
5 0 29 27.3 51.2 16.0
5 1 -22 87.0 217.9 15.0
5 1 -21 403.9 633.3 54.6
5 1 -18 224.2 335.9 30.8
5 1 -14 515.0 599.6 50.6
5 1 -12 64.3 42.9 8.4
5 1 -11 34.9 84.4 8.4
5 1 -10 136.4 140.9 11.4
5 1 -9 547.1 330.5 30.2
5 1 -8 73.2 370.4 9.5
5 1 -7 148.4 329.2 11.9
5 1 -6 76.9 159.9 7.9
5 1 -5 247.7 701.0 13.7
5 1 -4 85.7 54.5 7.7
5 1 -3 97.0 240.1 8.6
5 1 -2 464.8 734.4 21.8
5 1 -1 309.9 759.4 19.6
5 1 0 249.9 304.0 13.8
5 1 1 285.2 777.0 15.3
5 1 2 437.5 729.7 17.5
5 1 3 105.4 244.4 7.2
5 1 4 62.9 56.8 5.8
5 1 5 269.0 683.4 10.9
5 1 6 66.3 156.7 5.4
5 1 7 183.4 321.3 9.0
5 1 8 88.3 374.5 5.9
5 1 9 629.1 333.9 27.1
5 1 10 143.8 138.9 8.4
5 1 11 14.8 87.9 4.8
5 1 12 81.5 42.1 5.7
5 1 13 176.4 403.1 14.4
5 1 14 552.0 615.7 25.4
5 1 15 275.3 642.8 20.2
5 1 16 120.2 226.9 10.3
5 1 17 360.3 439.1 23.8
5 1 18 205.3 336.7 15.0
5 1 20 39.8 127.4 12.8
5 1 21 511.0 631.8 63.8
5 1 22 73.5 217.9 16.7
5 1 23 54.4 15.9 15.2
5 1 24 69.7 149.1 17.5
5 1 25 66.0 62.6 17.8
5 1 26 68.3 111.7 20.2
5 1 27 38.1 19.4 15.9
5 1 28 57.7 50.8 19.3
5 1 29 116.8 248.6 29.0
5 2 -29 37.4 196.6 19.2
5 2 -14 81.2 136.2 13.5
5 2 -13 303.8 446.7 32.8
5 2 -12 357.0 610.1 25.0
5 2 -11 742.1 573.7 38.0
5 2 -10 619.5 1037.9 33.8
5 2 -9 62.3 104.7 8.8
5 2 -8 262.7 653.8 17.5
5 2 -7 420.1 239.0 24.3
5 2 -6 165.0 261.1 10.7
5 2 -5 230.5 127.0 22.8
5 2 -4 290.0 125.6 15.4
5 2 -3 632.6 1137.4 28.1
5 2 -2 134.3 81.8 12.1
5 2 -1 1669.1 1989.6 66.9
5 2 0 977.7 1610.9 40.3
5 2 1 1601.5 1970.8 65.6
5 2 2 127.6 80.9 9.4
5 2 3 616.0 1140.2 32.9
5 2 4 290.6 124.2 17.8
5 2 5 225.2 122.7 14.6
5 2 6 204.3 253.0 11.5
5 2 7 437.5 243.3 19.7
5 2 8 276.5 651.1 16.8
5 2 9 56.2 102.4 6.8
5 2 10 562.7 1028.6 30.6
5 2 11 679.9 585.0 29.1
5 2 12 396.9 614.2 27.1
5 2 13 403.2 444.9 26.6
5 2 14 72.6 136.6 12.5
5 2 15 84.4 30.6 13.1
5 2 16 976.6 1465.6 86.1
5 2 17 536.6 641.3 57.3
5 3 -27 208.3 248.3 45.3
5 3 -26 285.8 652.0 53.0
5 3 -12 762.2 844.9 40.4
5 3 -11 867.6 863.7 54.4
5 3 -10 112.3 65.6 11.1
5 3 -9 754.5 916.0 39.3
5 3 -8 597.1 605.3 43.4
5 3 -7 225.2 752.0 16.2
5 3 -6 15.8 118.7 7.9
5 3 -5 159.2 409.4 13.2
5 3 -4 1123.4 1935.1 57.2
5 3 -3 403.9 265.2 24.5
5 3 -2 483.1 1044.8 22.2
5 3 -1 575.2 289.8 30.9
5 3 0 859.5 556.9 36.8
5 3 1 526.9 279.4 24.0
5 3 2 414.4 1036.6 23.4
5 3 3 355.7 260.2 21.0
5 3 4 1188.6 1937.2 58.9
5 3 5 136.0 404.0 11.4
5 3 6 62.6 121.0 8.6
5 3 7 247.2 746.4 15.3
5 3 8 609.1 593.0 31.0
5 3 9 832.1 930.3 59.3
5 3 10 73.5 64.9 6.9
5 3 11 926.1 870.4 58.3
5 3 12 786.5 852.1 47.9
5 3 13 206.8 403.4 22.1
5 3 14 161.4 286.8 19.0
5 4 -28 61.2 9.1 22.6
5 4 -26 246.6 240.6 47.1
5 4 -25 207.8 154.6 42.2
5 4 -24 149.3 342.5 29.4
5 4 -16 83.7 401.1 16.9
5 4 -13 725.1 731.5 67.6
5 4 -12 125.6 186.0 19.9
5 4 -10 234.7 337.0 19.2
5 4 -9 1240.8 1614.2 76.1
5 4 -8 68.0 101.3 10.3
5 4 -7 371.6 286.3 18.1
5 4 -6 852.3 912.0 36.6
5 4 -5 627.3 480.7 27.1
5 4 -4 119.0 149.7 9.5
5 4 -3 770.9 1202.1 32.9
5 4 -2 2409.0 4067.9 114.6
5 4 -1 2417.6 3253.4 94.3
5 4 0 143.0 223.4 17.1
5 4 1 2649.1 3253.4 125.6
5 4 2 2523.2 4078.2 168.1
5 4 3 683.5 1224.4 35.5
5 4 4 180.6 148.6 14.1
5 4 5 582.7 475.7 31.1
5 4 6 852.3 916.9 60.0
5 4 7 396.9 296.9 21.5
5 4 8 77.8 101.3 8.9
5 4 9 1470.3 1603.2 124.3
5 4 10 205.3 342.5 15.0
5 4 11 231.0 249.6 13.2
5 4 12 133.9 190.4 11.7
5 4 13 657.3 733.1 59.9
5 5 -27 323.5 629.1 64.6
5 5 -26 208.8 411.3 45.3
5 5 -24 71.8 105.5 21.3
5 5 -23 205.8 383.3 40.0
5 5 -22 66.3 49.9 20.1
5 5 -20 99.7 149.2 21.2
5 5 -19 214.9 114.7 32.2
5 5 -18 196.4 488.3 31.3
5 5 -17 29.4 42.1 15.5
5 5 -15 110.8 62.4 18.7
5 5 -14 123.7 351.1 20.2
5 5 -13 22.1 165.1 12.8
5 5 -12 230.5 639.2 27.0
5 5 -11 691.7 690.1 65.1
5 5 -10 71.2 90.1 11.2
5 5 -9 423.0 438.3 41.6
5 5 -8 433.1 486.6 30.5
5 5 -7 269.6 662.2 20.6
5 5 -6 178.7 827.0 12.6
5 5 -5 21.3 148.7 6.9
5 5 -4 251.6 333.1 14.4
5 5 -3 358.9 125.7 21.1
5 5 -2 480.0 983.6 27.5
5 5 -1 888.3 1126.2 45.7
5 5 0 100.1 332.3 10.5
5 5 1 853.3 1113.0 60.1
5 5 2 461.1 972.6 37.4
5 5 3 375.0 130.5 20.9
5 5 4 249.9 334.2 16.0
5 5 6 165.5 824.5 11.2
5 5 7 267.3 651.2 15.4
5 5 8 337.5 500.0 18.6
5 5 9 399.7 431.2 21.6
5 5 10 65.4 88.1 8.2
5 5 11 523.7 694.2 49.5
5 5 12 75.9 626.8 13.4
5 6 -26 40.7 118.4 18.2
5 6 -24 39.6 186.9 18.0
5 6 -21 168.6 308.3 29.9
5 6 -20 152.7 138.0 28.4
5 6 -19 139.2 128.3 27.1
5 6 -18 358.9 534.5 47.6
5 6 -17 317.9 494.6 43.5
5 6 -16 284.1 451.7 39.4
5 6 -15 102.5 20.6 19.1
5 6 -14 148.4 666.2 21.7
5 6 -13 78.7 549.7 16.4
5 6 -12 45.3 92.1 14.1
5 6 -11 175.9 46.2 23.6
5 6 -10 376.3 416.9 42.6
5 6 -9 146.7 204.4 14.8
5 6 -8 321.7 371.6 24.4
5 6 -7 595.4 628.4 40.0
5 6 -6 492.3 584.3 33.3
5 6 -5 31.9 49.8 8.9
5 6 -4 223.6 596.3 18.2
5 6 -3 257.1 602.9 19.6
5 6 -2 276.5 460.9 20.3
5 6 -1 367.6 510.6 25.4
5 6 0 129.9 128.0 11.9
5 6 1 325.4 512.2 22.6
5 6 2 309.3 452.1 21.5
5 6 3 291.2 597.4 20.2
5 6 4 267.9 598.0 19.4
5 6 5 62.1 52.1 8.5
5 6 6 467.9 600.3 24.9
5 6 7 552.8 625.6 28.7
5 6 8 251.0 370.7 19.3
5 6 9 133.9 202.8 11.7
5 6 11 137.2 43.8 19.6
5 6 12 22.8 87.0 11.3
5 7 -24 49.6 124.7 20.1
5 7 -23 47.2 111.7 19.4
5 7 -22 112.7 238.9 27.0
5 7 -21 64.8 43.4 20.5
5 7 -20 62.9 123.0 19.4
5 7 -19 72.3 5.1 19.6
5 7 -18 232.6 276.8 37.7
5 7 -17 504.0 507.2 73.6
5 7 -16 372.9 320.7 49.8
5 7 -14 148.0 128.9 24.6
5 7 -13 207.3 684.3 29.6
5 7 -12 35.5 123.1 15.2
5 7 -11 100.8 106.0 18.2
5 7 -10 759.3 1245.2 79.7
5 7 -9 212.3 29.2 26.9
5 7 -8 364.9 541.0 29.3
5 7 -7 651.1 939.1 49.8
5 7 -6 54.6 1.4 9.8
5 7 -5 235.3 179.2 18.2
5 7 -4 22.8 7.1 8.8
5 7 -3 67.1 327.5 9.4
5 7 -2 481.5 1187.2 32.1
5 7 -1 120.2 345.6 12.2
5 7 0 132.7 19.9 12.4
5 7 1 153.1 337.3 13.4
5 7 2 459.6 1196.8 30.6
5 7 3 74.4 323.7 9.0
5 7 4 39.8 6.5 7.9
5 7 5 291.2 172.2 20.2
5 7 6 73.2 1.8 14.0
5 7 7 493.8 934.2 51.9
5 8 -22 107.2 251.4 28.5
5 8 -21 70.6 112.5 24.0
5 8 -20 266.1 634.9 48.3
5 8 -19 334.3 347.8 59.9
5 8 -18 151.8 97.8 30.5
5 8 -17 274.2 197.7 43.3
5 8 -16 161.4 29.0 28.3
5 8 -15 841.2 1025.7 119.3
5 8 -14 95.3 89.9 21.4
5 8 -13 197.8 333.6 29.4
5 8 -12 1021.8 1053.4 121.5
5 8 -11 328.6 554.0 44.9
5 8 -10 36.2 22.1 15.5
5 8 -9 206.8 128.7 29.6
5 8 -8 772.8 476.4 82.4
5 8 -7 1021.8 1504.5 104.7
5 8 -5 316.7 529.6 26.1
5 8 -4 222.6 140.8 19.8
5 8 -3 665.4 1068.3 50.4
5 8 -1 141.7 109.8 14.1
5 8 0 394.8 55.7 31.2
5 8 1 123.3 105.3 13.5
5 8 2 31.3 33.5 7.6
5 8 3 651.1 1072.6 70.3
5 8 4 196.9 137.9 24.9
5 8 5 225.2 530.4 27.2
5 9 -21 30.1 14.2 17.4
5 9 -20 94.2 358.5 26.4
5 9 -18 390.7 792.2 69.6
5 9 -17 128.0 108.1 27.2
5 9 -15 107.2 96.3 23.8
5 9 -14 437.5 731.8 64.9
5 9 -13 121.7 112.1 25.0
5 9 -12 227.8 314.5 35.8
5 9 -11 58.5 82.8 16.3
5 9 -10 635.2 598.2 78.2
5 9 -9 443.3 594.3 55.0
5 9 -8 48.4 64.0 14.5
5 9 -7 177.3 151.7 26.0
5 9 -6 91.6 189.3 17.3
5 9 -5 340.0 418.3 44.4
5 9 -3 443.3 499.6 39.6
5 9 -2 585.3 1224.6 51.4
5 9 -1 125.6 73.3 14.5
5 9 0 26.4 0.0 13.4
5 9 1 144.6 75.7 22.6
5 9 2 604.0 1209.6 76.2
5 9 3 428.0 490.5 55.5
5 10 -18 72.3 8.6 23.1
5 10 -17 75.6 239.4 22.7
5 10 -16 166.4 184.7 36.0
5 10 -15 161.4 445.6 32.3
5 10 -14 102.5 184.7 25.4
5 10 -13 166.4 422.5 33.3
5 10 -12 214.9 188.7 39.9
5 10 -11 46.2 19.4 16.3
5 10 -10 119.8 84.0 23.3
5 10 -9 163.2 295.3 27.6
5 10 -8 67.1 61.8 17.4
5 10 -7 29.8 34.5 13.9
5 10 -6 57.2 135.0 16.1
5 10 -5 72.6 234.2 17.2
5 10 -4 74.4 40.8 16.5
5 10 -2 93.2 338.3 19.9
5 10 -1 115.3 129.8 21.7
5 10 0 131.5 152.4 23.2
5 10 1 138.0 127.2 23.3
5 11 -15 158.8 163.7 35.6
5 11 -13 38.3 1.4 18.3
5 11 -12 41.8 53.0 17.8
5 11 -11 68.3 81.2 21.0
5 11 -10 79.3 276.2 20.5
5 11 -8 26.8 21.0 15.0
6 0 -20 30.9 211.5 16.1
6 0 -15 28.3 98.5 13.9
6 0 -8 38.3 105.3 15.1
6 0 -7 74.7 201.0 17.5
6 0 -5 198.3 6.1 28.0
6 0 -4 327.3 2023.2 28.4
6 0 -3 82.8 214.8 13.0
6 0 -2 140.9 283.8 15.3
6 0 0 250.5 298.7 18.2
6 0 1 14.8 223.4 8.9
6 0 2 140.9 283.8 16.1
6 0 3 89.2 214.8 10.2
6 0 4 345.9 2023.2 19.4
6 0 5 192.5 6.1 15.0
6 0 6 13.4 0.0 5.5
6 0 7 56.7 201.0 7.1
6 0 8 17.1 105.3 5.8
6 0 9 56.4 76.4 9.4
6 0 10 40.7 73.3 7.3
6 0 11 292.9 500.9 22.7
6 0 12 65.4 108.5 9.3
6 0 13 14.3 23.7 7.3
6 0 14 86.3 138.2 10.7
6 0 16 61.0 377.2 12.8
6 0 17 82.8 132.2 14.6
6 0 20 19.1 211.5 11.3
6 0 21 24.0 191.3 12.1
6 1 -22 31.3 85.5 16.4
6 1 -21 30.7 100.8 15.8
6 1 -20 68.8 34.8 19.7
6 1 -10 167.3 300.6 24.3
6 1 -8 34.1 40.4 14.9
6 1 -5 42.5 300.7 15.7
6 1 -4 198.8 405.2 19.7
6 1 -3 196.4 487.2 19.5
6 1 -2 178.2 638.3 18.2
6 1 -1 547.9 489.9 43.2
6 1 0 858.4 2560.7 64.3
6 1 1 443.3 492.3 36.0
6 1 2 176.4 647.5 18.1
6 1 3 232.6 497.2 20.2
6 1 4 223.1 413.7 20.8
6 1 5 40.9 298.2 10.3
6 1 6 231.5 213.5 20.2
6 1 7 127.2 246.4 14.2
6 1 8 73.8 39.9 15.6
6 1 9 134.7 37.2 20.2
6 1 10 212.3 298.2 27.9
6 1 11 63.7 15.1 15.6
6 1 12 48.4 56.7 15.5
6 1 13 47.2 37.8 10.1
6 1 14 100.1 355.2 18.8
6 1 16 143.0 598.5 25.0
6 1 17 104.7 26.1 21.4
6 1 18 88.3 240.7 19.3
6 1 21 32.9 102.4 17.0
6 2 -21 72.6 116.0 24.1
6 2 -20 94.9 182.5 25.5
6 2 -7 94.9 263.2 19.4
6 2 -6 108.3 220.4 20.3
6 2 -5 143.8 71.9 22.6
6 2 -4 79.6 103.5 12.1
6 2 -3 159.2 362.6 16.3
6 2 -2 55.4 0.0 10.4
6 2 -1 453.6 419.7 35.6
6 2 0 466.4 1113.7 36.9
6 2 1 362.3 416.3 29.2
6 2 2 21.3 0.3 9.5
6 2 3 135.6 362.5 21.5
6 2 4 140.5 109.8 21.9
6 2 5 134.7 73.0 21.4
6 2 6 100.1 218.9 17.8
6 2 7 99.4 260.5 17.7
6 2 8 678.1 1033.1 50.8
6 2 9 571.8 191.6 62.5
6 2 11 18.8 324.6 11.8
6 3 -22 39.8 18.4 20.0
6 3 -21 84.1 229.7 24.6
6 3 -20 257.1 482.3 48.6
6 3 -19 693.6 701.7 119.3
6 3 -15 427.3 799.2 65.6
6 3 -14 45.0 83.1 17.5
6 3 -5 205.3 130.8 27.5
6 3 -4 72.3 214.4 12.2
6 3 -3 306.2 617.5 26.2
6 3 -2 72.0 122.3 12.1
6 3 -1 841.2 1497.0 63.7
6 3 0 917.6 1075.1 96.1
6 3 1 904.0 1513.4 94.3
6 3 2 82.5 119.1 17.1
6 3 3 355.0 607.8 28.9
6 3 4 121.3 219.9 13.4
6 3 5 191.0 131.2 18.3
6 3 6 100.8 128.4 18.5
6 3 7 722.3 390.7 76.8
6 3 8 301.4 228.7 40.5
6 3 9 115.3 58.7 19.8
6 4 -21 261.6 75.7 54.1
6 4 -20 85.7 6.5 24.8
6 4 -18 55.6 14.0 18.7
6 4 -17 515.0 534.6 90.2
6 4 -16 137.2 150.5 27.4
6 4 -15 61.2 61.3 20.5
6 4 -14 157.0 129.0 30.1
6 4 -13 34.1 73.6 16.5
6 4 -11 60.7 194.1 17.1
6 4 -10 246.6 280.6 36.1
6 4 -9 685.3 539.7 84.9
6 4 -8 26.8 18.0 16.1
6 4 -7 208.8 416.0 31.2
6 4 -6 173.2 52.3 27.5
6 4 -5 202.8 212.4 30.3
6 4 -4 29.4 147.1 10.4
6 4 -3 18.8 281.3 9.7
6 4 -2 713.0 1187.8 54.0
6 4 -1 32.5 96.6 9.7
6 4 0 72.3 313.2 11.6
6 4 1 25.9 93.5 8.5
6 4 2 689.9 1188.9 52.2
6 4 3 35.3 282.4 9.1
6 4 4 21.3 146.7 8.9
6 4 5 211.8 225.0 20.8
6 4 6 136.0 51.4 22.4
6 5 -20 65.4 92.4 21.7
6 5 -19 182.9 17.5 40.5
6 5 -18 79.9 247.6 23.1
6 5 -17 98.7 39.9 24.2
6 5 -16 193.0 293.0 38.7
6 5 -15 70.0 50.2 20.4
6 5 -14 48.8 37.1 18.3
6 5 -13 30.1 169.4 16.5
6 5 -12 313.0 514.0 50.6
6 5 -11 296.5 106.7 45.6
6 5 -10 141.7 183.8 27.0
6 5 -9 187.7 376.8 29.6
6 5 -8 134.7 431.2 23.1
6 5 -7 449.2 476.4 57.6
6 5 -6 57.7 57.4 15.1
6 5 -5 37.0 3.9 16.8
6 5 -4 447.7 796.5 57.5
6 5 -3 67.1 155.7 11.7
6 5 -2 46.0 205.0 14.2
6 5 1 25.5 14.4 9.2
6 5 2 46.7 203.8 10.0
6 5 3 49.6 160.9 10.6
6 5 4 368.9 782.3 33.5
6 6 -19 158.8 136.1 36.0
6 6 -18 274.7 472.3 56.0
6 6 -17 43.4 87.4 19.8
6 6 -15 42.3 2.6 18.1
6 6 -14 148.0 110.2 30.5
6 6 -12 119.4 168.4 25.1
6 6 -11 69.1 148.6 19.7
6 6 -10 188.2 513.0 33.9
6 6 -9 231.5 99.6 38.2
6 6 -8 188.2 307.6 32.0
6 6 -7 38.1 23.8 17.0
6 6 -5 36.8 78.8 15.2
6 6 -4 42.5 35.9 13.6
6 6 -3 22.8 82.5 13.7
6 6 -2 24.8 64.0 10.1
6 6 -1 101.1 22.8 13.7
6 6 0 33.5 161.5 10.1
6 6 1 99.4 22.4 13.2
6 7 -17 111.9 77.1 29.1
6 7 -15 47.4 204.5 19.2
6 7 -13 83.4 150.0 22.9
6 7 -11 27.0 59.4 14.8
6 7 -10 62.3 122.5 18.2
6 7 -9 55.6 140.6 17.4
6 7 -8 47.4 18.3 17.5
6 7 -7 111.6 120.2 23.2
6 7 -6 24.7 213.2 14.4
6 7 -5 82.5 8.5 19.3
6 7 -4 24.0 79.9 13.7
6 7 -3 153.6 171.0 26.8
6 7 -2 193.5 193.9 31.5
6 7 -1 133.5 337.7 26.6
6 7 0 129.5 26.6 25.0
6 8 -13 30.7 34.2 18.9
6 8 -12 134.3 108.3 30.3
6 8 -11 87.0 82.9 24.4
6 8 -10 45.3 69.5 17.1
6 8 -8 56.7 3.0 18.6
6 8 -7 163.2 403.6 32.1
6 8 -5 76.3 327.0 19.8
6 9 -11 120.6 71.7 28.3
6 9 -10 63.2 105.2 19.9
6 9 -9 47.2 67.9 16.8
7 0 -11 47.4 124.5 22.1
7 0 -9 130.7 295.6 30.7
7 0 -8 82.8 32.4 24.1
7 0 -7 436.0 415.3 78.6
7 0 -6 35.9 205.2 18.2
7 0 -5 165.5 16.6 37.2
7 0 -4 659.1 1536.7 115.4
7 0 -3 152.3 110.6 34.8
7 0 -2 49.8 102.9 21.2
7 0 -1 32.3 113.8 20.0
7 0 2 33.7 102.9 19.8
7 0 3 131.5 110.6 30.8
7 0 4 624.7 1536.7 108.9
7 0 5 198.8 16.6 40.3
7 0 6 37.4 205.2 20.5
7 0 7 418.7 415.3 74.2
7 0 8 104.7 32.4 25.3
7 0 9 116.0 295.6 27.8
7 1 -10 91.9 25.1 26.4
7 1 -9 379.0 342.6 67.9
7 1 -8 106.5 299.3 27.3
7 1 -7 72.3 83.9 24.6
7 1 -6 273.6 205.6 53.0
7 1 -5 170.0 180.9 36.4
7 1 -4 59.3 121.6 19.9
7 1 -3 217.4 117.2 42.1
7 1 -2 134.3 207.5 29.5
7 1 -1 157.5 388.0 32.4
7 1 0 52.8 335.2 20.3
7 1 1 161.0 392.5 35.4
7 1 2 95.3 215.2 25.5
7 1 3 112.7 115.7 28.5
7 1 4 44.6 118.0 17.2
7 1 5 187.2 187.1 37.7
7 1 6 234.7 208.4 44.9
7 1 7 46.2 87.1 19.2
7 2 -13 137.2 108.5 33.9
7 2 -12 131.1 36.6 33.1
7 2 -11 203.3 304.0 44.7
7 2 -10 234.7 290.4 49.1
7 2 -9 65.7 49.0 24.6
7 2 -8 124.0 291.0 28.7
7 2 -7 138.8 50.1 30.8
7 2 -6 80.9 38.0 24.1
7 2 -4 145.1 444.7 31.9
7 2 -3 264.4 485.1 49.9
7 2 -2 31.3 27.2 18.1
7 2 -1 171.8 100.9 36.1
7 2 0 679.0 770.5 116.3
7 2 1 152.3 100.3 33.6
7 2 2 65.1 25.8 21.1
7 2 3 214.4 486.6 40.8
7 2 4 100.1 434.7 24.8
7 3 -12 56.2 202.7 22.5
7 3 -11 178.2 206.5 40.0
7 3 -10 40.5 156.8 19.7
7 3 -9 180.6 177.4 39.3
7 3 -8 214.4 170.6 45.9
7 3 -6 105.7 83.8 27.6
7 3 -5 28.8 15.6 16.5
7 3 -4 63.2 182.8 22.7
7 3 -3 463.3 1015.8 81.8
7 3 -2 164.6 211.2 34.4
7 3 -1 306.2 390.2 55.5
7 3 0 93.2 17.5 24.2
7 3 1 299.5 383.3 55.5
7 3 2 172.7 213.8 34.8
7 4 -9 47.2 78.5 22.7
7 4 -8 30.1 101.5 17.6
7 4 -7 83.4 144.3 24.2
7 4 -3 74.4 109.6 23.8
7 4 -2 84.1 9.1 24.9
7 4 -1 61.8 97.4 20.0
7 5 -7 73.2 228.7 22.1
7 5 -6 27.7 50.0 16.5
7 5 -5 64.8 65.5 22.2
7 5 -4 174.1 156.9 37.7
loop_
_cod_related_entry_id
_cod_related_entry_code
_cod_related_entry_database
1 30651729 ChemSpider
