#------------------------------------------------------------------------------
#$Date: 2016-02-18 17:37:37 +0200 (Thu, 18 Feb 2016) $
#$Revision: 176729 $
#$URL: svn://www.crystallography.net/cod/cif/1/51/22/1512200.cif $
#------------------------------------------------------------------------------
#
# This file is available in the Crystallography Open Database (COD),
# http://www.crystallography.net/
#
# All data on this site have been placed in the public domain by the
# contributors.
#
data_1512200
loop_
_publ_author_name
'Zhang, Yong-Qiang'
'Yuan, Yong-An'
'Liu, Guan-Sai'
'Xu, Hao'
_publ_section_title
;
 Iron(II)-Catalyzed Asymmetric Intramolecular Aminohydroxylation of
 Indoles.
;
_journal_issue                   15
_journal_name_full               'Organic letters'
_journal_page_first              3910
_journal_page_last               3913
_journal_paper_doi               10.1021/ol401666e
_journal_volume                  15
_journal_year                    2013
_chemical_absolute_configuration ad
_chemical_formula_moiety         'C32 H25 Cl2 N3 O7 S, C H Cl3'
_chemical_formula_sum            'C33 H26 Cl5 N3 O7 S'
_chemical_formula_weight         785.88
_chemical_name_systematic
;
 ?
;
_space_group_crystal_system      orthorhombic
_space_group_IT_number           19
_space_group_name_Hall           'P 2ac 2ab'
_space_group_name_H-M_alt        'P 21 21 21'
_symmetry_space_group_name_Hall  'P 2ac 2ab'
_symmetry_space_group_name_H-M   'P 21 21 21'
_atom_sites_solution_hydrogens   geom
_atom_sites_solution_primary     iterative
_audit_creation_date             2013-04-04
_audit_creation_method           SHELXL-97
_cell_angle_alpha                90
_cell_angle_beta                 90
_cell_angle_gamma                90
_cell_formula_units_Z            4
_cell_length_a                   9.6220(13)
_cell_length_b                   18.082(2)
_cell_length_c                   19.975(3)
_cell_measurement_reflns_used    9090
_cell_measurement_temperature    172.3
_cell_measurement_theta_max      29.77
_cell_measurement_theta_min      2.25
_cell_volume                     3475.4(8)
_computing_cell_refinement       'SAINT v7.68A (Bruker, 2009)'
_computing_data_collection       'APEX2 v2011.2-4 (Bruker, 2011)'
_computing_data_reduction        'SAINT v7.68A (Bruker, 2009)'
_computing_molecular_graphics
;
O. V. Dolomanov, L. J. Bourhis, R. J. Gildea, J. A. K. Howard and H. Puschmann,
OLEX2: a complete structure solution, refinement and analysis program.
J. Appl. Cryst. (2009). 42, 339-341.
;
_computing_publication_material
;
O. V. Dolomanov, L. J. Bourhis, R. J. Gildea, J. A. K. Howard and H. Puschmann,
OLEX2: a complete structure solution, refinement and analysis program.
J. Appl. Cryst. (2009). 42, 339-341.
;
_computing_structure_refinement  'SHELXL-97 (Sheldrick, 2008)'
_computing_structure_solution    'SHELXS-97 (Sheldrick, 2008)'
_diffrn_ambient_temperature      172.3
_diffrn_detector_area_resol_mean 512
_diffrn_measured_fraction_theta_full 0.999
_diffrn_measured_fraction_theta_max 0.953
_diffrn_measurement_device_type
'Bruker D8 diffractometer with APEX2 detector'
_diffrn_measurement_method       '\f and \w scans with a narrow frame width'
_diffrn_radiation_monochromator  graphite
_diffrn_radiation_type           MoK\a
_diffrn_radiation_wavelength     0.71073
_diffrn_reflns_av_R_equivalents  0.0350
_diffrn_reflns_av_unetI/netI     0.0451
_diffrn_reflns_Laue_measured_fraction_full 0.999
_diffrn_reflns_Laue_measured_fraction_max 0.953
_diffrn_reflns_limit_h_max       13
_diffrn_reflns_limit_h_min       -14
_diffrn_reflns_limit_k_max       18
_diffrn_reflns_limit_k_min       -26
_diffrn_reflns_limit_l_max       25
_diffrn_reflns_limit_l_min       -28
_diffrn_reflns_number            30478
_diffrn_reflns_point_group_measured_fraction_full 1.000
_diffrn_reflns_point_group_measured_fraction_max 0.934
_diffrn_reflns_theta_full        25.242
_diffrn_reflns_theta_max         31.892
_diffrn_reflns_theta_min         2.039
_diffrn_source                   'fine-focus sealed tube'
_diffrn_standards_number         0
_exptl_absorpt_coefficient_mu    0.530
_exptl_absorpt_correction_T_max  0.7463
_exptl_absorpt_correction_T_min  0.5784
_exptl_absorpt_correction_type   multi-scan
_exptl_absorpt_process_details
;
SADABS-2012/1 (Bruker,2012) was used for absorption correction.
wR2(int) was 0.1090 before and 0.0502 after correction.
The Ratio of minimum to maximum transmission is 0.7750.
The \l/2 correction factor is 0.0015.
;
_exptl_crystal_colour            'clear colourless'
_exptl_crystal_colour_lustre     clear
_exptl_crystal_colour_primary    colourless
_exptl_crystal_density_diffrn    1.502
_exptl_crystal_description       'rect. Prism'
_exptl_crystal_F_000             1608
_exptl_crystal_size_max          0.928
_exptl_crystal_size_mid          0.331
_exptl_crystal_size_min          0.19
_refine_diff_density_max         0.653
_refine_diff_density_min         -0.528
_refine_diff_density_rms         0.077
_refine_ls_abs_structure_details
;
 Classical Flack method preferred over Parsons because s.u. lower.
;
_refine_ls_abs_structure_Flack   -0.01(7)
_refine_ls_extinction_method     none
_refine_ls_goodness_of_fit_ref   1.030
_refine_ls_hydrogen_treatment    constr
_refine_ls_matrix_type           full
_refine_ls_number_parameters     476
_refine_ls_number_reflns         11170
_refine_ls_number_restraints     158
_refine_ls_restrained_S_all      1.029
_refine_ls_R_factor_all          0.0706
_refine_ls_R_factor_gt           0.0561
_refine_ls_shift/su_max          0.001
_refine_ls_shift/su_mean         0.000
_refine_ls_structure_factor_coef Fsqd
_refine_ls_weighting_details
;
 w=1/[\s^2^(Fo^2^)+(0.0836P)^2^+0.7511P]
 where P=(Fo^2^+2Fc^2^)/3
;
_refine_ls_weighting_scheme      calc
_refine_ls_wR_factor_gt          0.1352
_refine_ls_wR_factor_ref         0.1451
_reflns_Friedel_coverage         0.777
_reflns_Friedel_fraction_full    1.000
_reflns_Friedel_fraction_max     0.910
_reflns_number_gt                9253
_reflns_number_total             11170
_reflns_threshold_expression     'I > 2\s(I)'
_cod_data_source_file            ol401666e_si_003.cif
_cod_data_source_block           trypt
_cod_database_code               1512200
#BEGIN Tags that were not found in dictionaries:
_olex2_refinement_description
;
1. Fixed Uiso
 At 1.2 times of:
  All C(H) groups, All C(H,H) groups, All N(H) groups
2. Restrained distances
 C27A-C26A \\sim C28A-C27A \\sim C29A-C28A \\sim C30A-C29A \\sim C31A-C30A \\sim C31A-C26A
 with sigma of 0.005
 N3B-C22 \\sim N3A-C22
 with sigma of 0.02
 N3A-C22 \\sim N3B-C22
 with sigma of 0.02
 N3A-C22 \\sim N3B-C22
 with sigma of 0.002
3. Uiso/Uaniso restraints and constraints
Uanis(C25A) = Uanis(C25B)
Uanis(O7A) = Uanis(O7B)
Uanis(C26A) = Uanis(C26B)
Uanis(C27A) = Uanis(C27B)
Uanis(C31A) = Uanis(C31B)
Uanis(C29A) = Uanis(C29B)
Uanis(C28A) = Uanis(C28B)
Uanis(C30A) = Uanis(C30B)
Uanis(O6A) = Uanis(O6B)
Uanis(C24A) = Uanis(C24B)
Uanis(N3A) = Uanis(N3B)
4. Same fragment restrains
{N3B, C24B, O6B, O7B, C25B, C26B, C27B, C28B, C29B, C30B, C31B}
as
{N3A, C24A, O6A, O7A, C25A, C26A, C27A, C28A, C29A, C30A, C31A}
5. Others
 1-Sof(H3B)=1-Sof(H3B)=1-Sof(H3B)=1-Sof(H3B)=1-Sof(H3B)=1-Sof(H3B)=1-Sof(H3B)=
 1-Sof(H3B)=1-Sof(H3B)=1-Sof(H3B)=1-Sof(H3B)=1-Sof(H3B)=1-Sof(H3B)=1-Sof(H3B)=1-
 Sof(H3B)=1-Sof(H3B)=1-Sof(H3B)=1-Sof(H3B)=1-Sof(H3B)=Sof(N3A)=Sof(H3A)=
 Sof(C24A)=Sof(O6A)=Sof(O7A)=Sof(C25A)=Sof(H25C)=Sof(H25D)=Sof(C26A)=Sof(C27A)=
 Sof(H27A)=Sof(C28A)=Sof(H28A)=Sof(C29A)=Sof(H29A)=Sof(C30A)=Sof(H30A)=
 Sof(C31A)=Sof(H31A)=1-Sof(H3B)=Sof(H22)
6.a Ternary CH refined with riding coordinates:
 C7(H7), C22(H22A), C22(H22), C1L(H1L)
6.b Secondary CH2 refined with riding coordinates:
 C25B(H25A,H25B), C25A(H25C,H25D), C21(H21A,H21B)
6.c Aromatic/amide H refined with riding coordinates:
 N3B(H3B), C27B(H27B), C28B(H28B), C29B(H29B), C30B(H30B), C31B(H31B),
 N3A(H3A), C27A(H27A), C28A(H28A), C29A(H29A), C30A(H30A), C31A(H31A), N2(H2),
 C12(H12), C10(H10), C11(H11), C9(H9), C1(H1), C2(H2A), C19(H19), C15(H15),
 C16(H16), C5(H5), C17(H17), C18(H18)
;
_shelx_res_file
;
TITL CF solution in P212121
CELL 0.71073 9.622 18.0821 19.9752 90 90 90
ZERR 4 0.0013 0.0024 0.0027 0 0 0
LATT -1
SYMM 0.5-X,-Y,0.5+Z
SYMM 0.5+X,0.5-Y,-Z
SYMM -X,0.5+Y,0.5-Z
 
SFAC C H Cl N O S
UNIT 132 104 20 12 28 4
SADI 0.005 C27A C26A C28A C27A C29A C28A C30A C29A C31A C30A C31A C26A
SADI N3B C22 N3A C22
SADI N3A C22 N3B C22
SADI 0.002 N3A C22 N3B C22
EADP C25A C25B
EADP O7A O7B
EADP C26A C26B
EADP C27A C27B
EADP C31A C31B
EADP C29A C29B
EADP C28A C28B
EADP C30A C30B
EADP O6A O6B
EADP C24A C24B
EADP N3A N3B
 
L.S. 20 0 0 511
PLAN  20
TEMP -100.85
BOND
RIGU 0.002 0.002 C31A N3A C24A O6A O7A C25A C26A C27A C28A C30A C29A C31B N3B
RIGU C24B O6B O7B C25B C26B C27B C28B C30B C29B
fmap 2
acta
REM <HKL>Z:/CHE-XRAY-15P/B/B423/work/trypt.hkl</HKL>
 
WGHT    0.083600    0.751100
FVAR       0.10453   0.32467
PART 2
N3B   4   -0.467028   -0.872220   -0.460660   -21.00000    0.02131    0.04107 =
         0.02935    0.02018    0.00478    0.00279
AFIX  43
H3B   2   -0.546443   -0.880738   -0.440215   -21.00000   -1.20000
AFIX   0
C24B  1   -0.358796   -0.918377   -0.455918   -21.00000    0.02781    0.02633 =
         0.02627    0.00839   -0.00368   -0.00091
O6B   5   -0.252278   -0.917093   -0.489149   -21.00000    0.02904    0.02370 =
         0.03006    0.01130   -0.00184    0.00280
O7B   5   -0.383367   -0.967643   -0.406379   -21.00000    0.02170    0.03659 =
         0.04884    0.02408    0.00134    0.00328
C25B  1   -0.270244   -1.018961   -0.395395   -21.00000    0.02782    0.04148 =
         0.04887    0.02367    0.00573    0.01029
AFIX  23
H25A  2   -0.181367   -0.991795   -0.391069   -21.00000   -1.20000
H25B  2   -0.262580   -1.053595   -0.433602   -21.00000   -1.20000
AFIX   0
C26B  1   -0.300927   -1.061143   -0.331578   -21.00000    0.01631    0.02460 =
         0.04377    0.01440    0.00030   -0.00171
C27B  1   -0.310308   -1.137921   -0.334903   -21.00000    0.03417    0.02755 =
         0.04760    0.01546   -0.00721   -0.00263
AFIX  43
H27B  2   -0.302007   -1.162467   -0.376762   -21.00000   -1.20000
AFIX   0
C28B  1   -0.331865   -1.178461   -0.276717   -21.00000    0.04195    0.03984 =
         0.05764    0.02586   -0.00605   -0.00279
AFIX  43
H28B  2   -0.337031   -1.230893   -0.278434   -21.00000   -1.20000
AFIX   0
C29B  1   -0.345625   -1.142153   -0.216775   -21.00000    0.03686    0.05911 =
         0.05152    0.02051   -0.00503   -0.00032
AFIX  43
H29B  2   -0.358637   -1.170222   -0.177064   -21.00000   -1.20000
AFIX   0
C30B  1   -0.341116   -1.066236   -0.212537   -21.00000    0.03874    0.06149 =
         0.05049    0.01023   -0.00093   -0.00273
AFIX  43
H30B  2   -0.352995   -1.041761   -0.170845   -21.00000   -1.20000
AFIX   0
C31B  1   -0.318505   -1.026142   -0.271489   -21.00000    0.03155    0.03928 =
         0.05285    0.00350   -0.00120   -0.00128
AFIX  43
H31B  2   -0.315314   -0.973668   -0.269718   -21.00000   -1.20000
AFIX   0
SAME 0.02 0.02 N3B > C31B
PART 0
PART 1
N3A   4   -0.458209   -0.880488   -0.472851    21.00000    0.02131    0.04107 =
         0.02935    0.02018    0.00478    0.00279
AFIX  43
H3A   2   -0.544607   -0.895440   -0.467794    21.00000   -1.20000
AFIX   0
C24A  1   -0.361284   -0.929983   -0.452161    21.00000    0.02781    0.02633 =
         0.02627    0.00839   -0.00368   -0.00091
O6A   5   -0.240599   -0.926818   -0.472841    21.00000    0.02904    0.02370 =
         0.03006    0.01130   -0.00184    0.00280
O7A   5   -0.411388   -0.984819   -0.414188    21.00000    0.02170    0.03659 =
         0.04884    0.02408    0.00134    0.00328
C25A  1   -0.312730   -1.043653   -0.397124    21.00000    0.02782    0.04148 =
         0.04887    0.02367    0.00573    0.01029
AFIX  23
H25C  2   -0.216633   -1.026934   -0.406319    21.00000   -1.20000
H25D  2   -0.331469   -1.087990   -0.424765    21.00000   -1.20000
AFIX   0
C26A  1   -0.327999   -1.062402   -0.324212    21.00000    0.01631    0.02460 =
         0.04377    0.01440    0.00030   -0.00171
C27A  1   -0.329893   -1.135241   -0.302615    21.00000    0.03417    0.02755 =
         0.04760    0.01546   -0.00721   -0.00263
AFIX  43
H27A  2   -0.330101   -1.173547   -0.335164    21.00000   -1.20000
AFIX   0
C28A  1   -0.331497   -1.154429   -0.235498    21.00000    0.04195    0.03984 =
         0.05764    0.02586   -0.00605   -0.00279
AFIX  43
H28A  2   -0.333108   -1.204559   -0.221285    21.00000   -1.20000
AFIX   0
C29A  1   -0.330616   -1.096383   -0.190295    21.00000    0.03686    0.05911 =
         0.05152    0.02051   -0.00503   -0.00032
AFIX  43
H29A  2   -0.333490   -1.107418   -0.143817    21.00000   -1.20000
AFIX   0
C30A  1   -0.325736   -1.023022   -0.209824    21.00000    0.03874    0.06149 =
         0.05049    0.01023   -0.00093   -0.00273
AFIX  43
H30A  2   -0.324391   -0.984762   -0.177237    21.00000   -1.20000
AFIX   0
C31A  1   -0.322835   -1.005978   -0.277392    21.00000    0.03155    0.03928 =
         0.05285    0.00350   -0.00120   -0.00128
AFIX  43
H31A  2   -0.317337   -0.955904   -0.291540    21.00000   -1.20000
AFIX   0
PART 0
S1    6   -0.294940   -0.622509   -0.729306    11.00000    0.02401    0.02699 =
         0.02383    0.00333    0.00705   -0.00100
CL1   3   -0.317743   -0.569893   -0.367302    11.00000    0.06032    0.05322 =
         0.02308   -0.00297   -0.00540    0.00287
CL2   3   -0.492712   -0.295346   -0.413956    11.00000    0.07229    0.03397 =
         0.05966   -0.01942    0.01807   -0.00879
 
CL3   3   -0.367721   -1.178261   -0.556605    11.00000    0.09345    0.15512 =
         0.04940    0.01762    0.02370    0.06600
CL4   3   -0.596715   -1.114384   -0.484150    11.00000    0.07145    0.12790 =
         0.05635    0.00820    0.01260    0.05036
CL5   3   -0.461455   -1.031038   -0.585939    11.00000    0.18780    0.08235 =
         0.05276   -0.01083   -0.00848   -0.03092
O2    5   -0.408649   -0.604383   -0.582981    11.00000    0.02558    0.02192 =
         0.02197   -0.00144   -0.00359   -0.00220
O4    5   -0.328458   -0.638398   -0.797912    11.00000    0.04550    0.03792 =
         0.02426    0.00025    0.01148   -0.00287
N1    4   -0.412159   -0.667106   -0.684430    11.00000    0.02088    0.02391 =
         0.01773    0.00359    0.00116   -0.00477
O3    5   -0.162829   -0.642928   -0.702180    11.00000    0.02394    0.03710 =
         0.04613    0.00728    0.00880    0.00291
O5    5   -0.584669   -0.742497   -0.418322    11.00000    0.03220    0.05005 =
         0.01771    0.00166    0.00151   -0.00916
O1    5   -0.276701   -0.641570   -0.496288    11.00000    0.02974    0.04485 =
         0.02954   -0.00633   -0.00732    0.00858
N2    4   -0.574831   -0.703896   -0.527561    11.00000    0.01963    0.02947 =
         0.01797    0.00060    0.00242    0.00244
AFIX  43
H2    2   -0.626789   -0.664149   -0.523108    11.00000   -1.20000
AFIX   0
C7    1   -0.391247   -0.676815   -0.613074    11.00000    0.01969    0.02149 =
         0.01561    0.00082   -0.00055    0.00052
AFIX  13
H7    2   -0.299346   -0.699692   -0.602228    11.00000   -1.20000
AFIX   0
C23   1   -0.543053   -0.748028   -0.475762    11.00000    0.01771    0.03460 =
         0.02332    0.00197   -0.00020   -0.00724
C13   1   -0.617756   -0.715886   -0.648680    11.00000    0.02331    0.02020 =
         0.01905   -0.00110   -0.00271    0.00197
C20   1   -0.517197   -0.726572   -0.591406    11.00000    0.01824    0.02191 =
         0.01682    0.00066    0.00234   -0.00098
C14   1   -0.316905   -0.526533   -0.716096    11.00000    0.02565    0.02438 =
         0.02373    0.00447    0.00416   -0.00444
C6    1   -0.348435   -0.595275   -0.521972    11.00000    0.01913    0.03234 =
         0.02189   -0.00352    0.00111   -0.00597
C12   1   -0.756881   -0.735394   -0.651889    11.00000    0.02280    0.02976 =
         0.02558   -0.00158    0.00055   -0.00017
AFIX  43
H12   2   -0.800369   -0.760148   -0.615544    11.00000   -1.20000
AFIX   0
C8    1   -0.553428   -0.680582   -0.701831    11.00000    0.02230    0.01890 =
         0.02005   -0.00075   -0.00199   -0.00084
C21   1   -0.475692   -0.808117   -0.577289    11.00000    0.02465    0.02214 =
         0.02408    0.00433    0.00026    0.00166
AFIX  23
H21A  2   -0.552920   -0.842406   -0.587732    11.00000   -1.20000
H21B  2   -0.392646   -0.822624   -0.603436    11.00000   -1.20000
AFIX   0
C22   1   -0.444476   -0.806813   -0.502021    11.00000    0.02223    0.03331 =
         0.02556    0.01058   -0.00182   -0.00215
PART 2
AFIX  13
H22A  2   -0.346839   -0.789363   -0.495332   -21.00000   -1.20000
AFIX  13
PART 0
PART 1
H22   2   -0.346843   -0.789355   -0.495336    21.00000   -1.20000
AFIX   0
PART 0
C10   1   -0.766226   -0.683296   -0.762620    11.00000    0.03516    0.02921 =
         0.02907   -0.00183   -0.01378    0.00046
AFIX  43
H10   2   -0.818287   -0.672198   -0.801761    11.00000   -1.20000
AFIX   0
C3    1   -0.384971   -0.521446   -0.494093    11.00000    0.02483    0.03044 =
         0.02469   -0.00569    0.00151   -0.00806
C11   1   -0.831725   -0.717966   -0.709514    11.00000    0.02411    0.03138 =
         0.03805   -0.00415   -0.00726   -0.00145
AFIX  43
H11   2   -0.927703   -0.729887   -0.712337    11.00000   -1.20000
AFIX   0
C9    1   -0.625773   -0.664195   -0.760236    11.00000    0.03725    0.02288 =
         0.02213    0.00148   -0.00567   -0.00191
AFIX  43
H9    2   -0.581315   -0.640896   -0.797094    11.00000   -1.20000
AFIX   0
C1    1   -0.466948   -0.396277   -0.513049    11.00000    0.04047    0.03370 =
         0.04021   -0.00562    0.00379   -0.00478
AFIX  43
H1    2   -0.499040   -0.358788   -0.542564    11.00000   -1.20000
AFIX   0
C4    1   -0.371996   -0.505348   -0.425823    11.00000    0.03182    0.03781 =
         0.02487   -0.00458   -0.00053   -0.00755
C2    1   -0.432938   -0.465707   -0.536648    11.00000    0.03394    0.03077 =
         0.02692   -0.00320   -0.00013   -0.00649
AFIX  43
H2A   2   -0.442409   -0.475859   -0.583087    11.00000   -1.20000
AFIX   0
C19   1   -0.206259   -0.485915   -0.690752    11.00000    0.02935    0.03432 =
         0.03205    0.00420   -0.00117   -0.00798
AFIX  43
H19   2   -0.122917   -0.509802   -0.677240    11.00000   -1.20000
AFIX   0
C15   1   -0.439529   -0.492778   -0.735647    11.00000    0.03109    0.02791 =
         0.03584    0.00157   -0.00107   -0.00186
AFIX  43
H15   2   -0.513853   -0.521218   -0.753460    11.00000   -1.20000
AFIX   0
C1D   1   -0.452879   -0.382728   -0.444702    11.00000    0.04033    0.03220 =
         0.04145   -0.01403    0.00940   -0.01057
C16   1   -0.452065   -0.416375   -0.728750    11.00000    0.03970    0.03015 =
         0.04827    0.00772    0.00659    0.00305
AFIX  43
H16   2   -0.536026   -0.392380   -0.741174    11.00000   -1.20000
AFIX   0
C5    1   -0.407759   -0.436236   -0.401446    11.00000    0.03836    0.04198 =
         0.02955   -0.01244    0.00408   -0.00978
AFIX  43
H5    2   -0.400993   -0.426029   -0.354907    11.00000   -1.20000
AFIX   0
C17   1   -0.341933   -0.375444   -0.703751    11.00000    0.05664    0.02332 =
         0.04775    0.00356    0.01170   -0.00827
AFIX  43
H17   2   -0.350653   -0.323361   -0.699122    11.00000   -1.20000
AFIX   0
C18   1   -0.219912   -0.409816   -0.685576    11.00000    0.04942    0.03801 =
         0.03730   -0.00141    0.00162   -0.01984
AFIX  43
H18   2   -0.144402   -0.381108   -0.669342    11.00000   -1.20000
AFIX   0
 
C1L   1   -0.511901   -1.118320   -0.561783    11.00000    0.06313    0.07447 =
         0.03346   -0.00044   -0.01015    0.01486
AFIX  13
H1L   2   -0.578167   -1.138265   -0.595861    11.00000   -1.20000
AFIX   0
HKLF 4
 
REM  CF solution in P212121
REM R1 =  0.0561 for    9253 Fo > 4sig(Fo)  and  0.0706 for all   11170 data
REM    476 parameters refined using    158 restraints
 
END  
     
WGHT      0.0836      0.7505 

REM Highest difference peak  0.653,  deepest hole -0.528,  1-sigma level  0.077
Q1    1  -0.3407 -1.1390 -0.5640  11.00000  0.05    0.65
Q2    1  -0.4436 -1.1997 -0.5716  11.00000  0.05    0.65
Q3    1  -0.3764 -1.0477 -0.5761  11.00000  0.05    0.60
Q4    1  -0.2769 -0.6296 -0.7697  11.00000  0.05    0.57
Q5    1  -0.2383 -0.6237 -0.6948  11.00000  0.05    0.51
Q6    1  -0.3324 -0.6239 -0.7671  11.00000  0.05    0.50
Q7    1  -0.3484 -0.6362 -0.6982  11.00000  0.05    0.45
Q8    1  -0.6330 -1.1598 -0.5008  11.00000  0.05    0.44
Q9    1  -0.2105 -0.6380 -0.7289  11.00000  0.05    0.41
Q10   1  -0.3440 -0.5622 -0.3333  11.00000  0.05    0.41
Q11   1  -0.5958 -0.6773 -0.7299  11.00000  0.05    0.41
Q12   1  -0.4970 -1.0423 -0.5875  11.00000  0.05    0.39
Q13   1  -0.5443 -0.7145 -0.5597  11.00000  0.05    0.39
Q14   1  -0.3373 -0.5547 -0.4048  11.00000  0.05    0.39
Q15   1  -0.5721 -0.7189 -0.6172  11.00000  0.05    0.38
Q16   1  -0.3951 -0.6681 -0.6502  11.00000  0.05    0.38
Q17   1  -0.4784 -1.0053 -0.5733  11.00000  0.05    0.38
Q18   1  -0.3545 -1.1876 -0.5263  11.00000  0.05    0.38
Q19   1  -0.5041 -0.2834 -0.4479  11.00000  0.05    0.38
Q20   1  -0.5557 -1.1089 -0.5208  11.00000  0.05    0.38

REM The information below was added by Olex2.
REM
REM R1 = 0.0561 for 9253 Fo > 4sig(Fo) and 0.0706 for all 30527 data
REM n/a parameters refined using n/a restraints
REM Highest difference peak 0.65, deepest hole -0.53
REM Mean Shift 0, Max Shift 0.

REM +++ Tabular Listing of Refinement Information +++
REM R1_all = 0.0706
REM R1_gt = 0.0561
REM wR_ref = 0.1451
REM GOOF = 1.030
REM Shift_max = 0
REM Shift_mean = 0
REM Reflections_all = 30527
REM Reflections_gt = 9253
REM Parameters = n/a
REM Hole = 0.65
REM Peak = -0.53
REM Flack = n/a

;
_shelx_space_group_comment
;
The symmetry employed for this shelxl refinement is uniquely defined
by the following loop, which should always be used as a source of
symmetry information in preference to the above space-group names.
They are only intended as comments.
;
_shelxl_version_number           2012-9
#END Tags that were not found in dictionaries
loop_
_space_group_symop_operation_xyz
'x, y, z'
'-x+1/2, -y, z+1/2'
'x+1/2, -y+1/2, -z'
'-x, y+1/2, -z+1/2'
loop_
_atom_site_label
_atom_site_type_symbol
_atom_site_fract_x
_atom_site_fract_y
_atom_site_fract_z
_atom_site_U_iso_or_equiv
_atom_site_adp_type
_atom_site_occupancy
_atom_site_site_symmetry_order
_atom_site_calc_flag
_atom_site_refinement_flags_posn
_atom_site_refinement_flags_adp
_atom_site_refinement_flags_occupancy
_atom_site_disorder_assembly
_atom_site_disorder_group
N3B N -0.4670(9) -0.8722(3) -0.4607(5) 0.031(2) Uani 0.675(5) 1 d D . P A 2
H3B H -0.5464 -0.8807 -0.4402 0.037 Uiso 0.675(5) 1 calc R U P A 2
C24B C -0.3588(10) -0.9184(6) -0.4559(8) 0.0268(10) Uani 0.675(5) 1 d D U P A 2
O6B O -0.2523(6) -0.9171(4) -0.4891(3) 0.0276(9) Uani 0.675(5) 1 d D U P A 2
O7B O -0.3834(5) -0.9676(3) -0.4064(4) 0.0357(14) Uani 0.675(5) 1 d D U P A 2
C25B C -0.2702(6) -1.0190(4) -0.3954(3) 0.0394(14) Uani 0.675(5) 1 d D U P A 2
H25A H -0.1814 -0.9918 -0.3911 0.047 Uiso 0.675(5) 1 calc R U P A 2
H25B H -0.2626 -1.0536 -0.4336 0.047 Uiso 0.675(5) 1 calc R U P A 2
C26B C -0.3009(9) -1.0611(3) -0.3316(3) 0.0282(15) Uani 0.675(5) 1 d D U P A 2
C27B C -0.3103(6) -1.1379(3) -0.3349(3) 0.0364(11) Uani 0.675(5) 1 d D U P A 2
H27B H -0.3020 -1.1625 -0.3768 0.044 Uiso 0.675(5) 1 calc R U P A 2
C28B C -0.3319(7) -1.1785(3) -0.2767(3) 0.0465(14) Uani 0.675(5) 1 d D U P A 2
H28B H -0.3370 -1.2309 -0.2784 0.056 Uiso 0.675(5) 1 calc R U P A 2
C29B C -0.3456(9) -1.1422(4) -0.2168(4) 0.0492(14) Uani 0.675(5) 1 d D U P A 2
H29B H -0.3586 -1.1702 -0.1771 0.059 Uiso 0.675(5) 1 calc R U P A 2
C30B C -0.3411(7) -1.0662(5) -0.2125(3) 0.0502(13) Uani 0.675(5) 1 d D U P A 2
H30B H -0.3530 -1.0418 -0.1708 0.060 Uiso 0.675(5) 1 calc R U P A 2
C31B C -0.3185(13) -1.0261(4) -0.2715(3) 0.0412(13) Uani 0.675(5) 1 d D . P A 2
H31B H -0.3153 -0.9737 -0.2697 0.049 Uiso 0.675(5) 1 calc R U P A 2
N3A N -0.458(2) -0.8805(8) -0.4729(14) 0.031(2) Uani 0.325(5) 1 d D U P A 1
H3A H -0.5446 -0.8954 -0.4678 0.037 Uiso 0.325(5) 1 calc R U P A 1
C24A C -0.361(2) -0.9300(15) -0.4522(17) 0.0268(10) Uani 0.325(5) 1 d D U P A 1
O6A O -0.2406(14) -0.9268(10) -0.4728(7) 0.0276(9) Uani 0.325(5) 1 d D U P A 1
O7A O -0.4114(13) -0.9848(7) -0.4142(9) 0.0357(14) Uani 0.325(5) 1 d D U P A 1
C25A C -0.3127(14) -1.0437(7) -0.3971(6) 0.0394(14) Uani 0.325(5) 1 d D U P A 1
H25C H -0.2166 -1.0269 -0.4063 0.047 Uiso 0.325(5) 1 calc R U P A 1
H25D H -0.3315 -1.0880 -0.4248 0.047 Uiso 0.325(5) 1 calc R U P A 1
C26A C -0.328(3) -1.0624(6) -0.3242(6) 0.0282(15) Uani 0.325(5) 1 d D U P A 1
C27A C -0.3299(14) -1.1352(6) -0.3026(6) 0.0364(11) Uani 0.325(5) 1 d D U P A 1
H27A H -0.3301 -1.1735 -0.3352 0.044 Uiso 0.325(5) 1 calc R U P A 1
C28A C -0.331(2) -1.1544(7) -0.2355(6) 0.0465(14) Uani 0.325(5) 1 d D U P A 1
H28A H -0.3331 -1.2046 -0.2213 0.056 Uiso 0.325(5) 1 calc R U P A 1
C29A C -0.3306(14) -1.0964(6) -0.1903(6) 0.0492(14) Uani 0.325(5) 1 d D U P A 1
H29A H -0.3335 -1.1074 -0.1438 0.059 Uiso 0.325(5) 1 calc R U P A 1
C30A C -0.3257(15) -1.0230(7) -0.2098(6) 0.0502(13) Uani 0.325(5) 1 d D U P A 1
H30A H -0.3244 -0.9848 -0.1772 0.060 Uiso 0.325(5) 1 calc R U P A 1
C31A C -0.323(3) -1.0060(7) -0.2774(6) 0.0412(13) Uani 0.325(5) 1 d D U P A 1
H31A H -0.3173 -0.9559 -0.2915 0.049 Uiso 0.325(5) 1 calc R U P A 1
S1 S -0.29494(8) -0.62251(4) -0.72931(4) 0.02494(16) Uani 1 1 d . . . . .
Cl1 Cl -0.31774(12) -0.56989(6) -0.36730(4) 0.0455(2) Uani 1 1 d . . . . .
Cl2 Cl -0.49271(14) -0.29535(6) -0.41396(6) 0.0553(3) Uani 1 1 d . . . . .
Cl3 Cl -0.3677(2) -1.17826(13) -0.55661(7) 0.0993(7) Uani 1 1 d . . . . .
Cl4 Cl -0.59671(16) -1.11438(11) -0.48415(7) 0.0852(5) Uani 1 1 d . . . . .
Cl5 Cl -0.4615(3) -1.03104(10) -0.58594(8) 0.1076(7) Uani 1 1 d . . . . .
O2 O -0.4086(2) -0.60438(11) -0.58298(10) 0.0232(4) Uani 1 1 d . . . . .
O4 O -0.3285(3) -0.63840(14) -0.79791(12) 0.0359(5) Uani 1 1 d . . . . .
N1 N -0.4122(3) -0.66711(14) -0.68443(12) 0.0208(5) Uani 1 1 d . . . . .
O3 O -0.1628(2) -0.64293(14) -0.70218(14) 0.0357(6) Uani 1 1 d . . . . .
O5 O -0.5847(3) -0.74250(15) -0.41832(11) 0.0333(5) Uani 1 1 d . . . . .
O1 O -0.2767(2) -0.64157(15) -0.49629(12) 0.0347(5) Uani 1 1 d . . . . .
N2 N -0.5748(3) -0.70390(15) -0.52756(12) 0.0224(5) Uani 1 1 d . . . . .
H2 H -0.6268 -0.6641 -0.5231 0.027 Uiso 1 1 calc R U . . .
C7 C -0.3912(3) -0.67681(16) -0.61307(13) 0.0189(5) Uani 1 1 d . . . . .
H7 H -0.2993 -0.6997 -0.6022 0.023 Uiso 1 1 calc R U . . .
C23 C -0.5431(3) -0.74803(18) -0.47576(15) 0.0252(6) Uani 1 1 d . . . . .
C13 C -0.6178(3) -0.71589(16) -0.64868(14) 0.0209(5) Uani 1 1 d . . . . .
C20 C -0.5172(3) -0.72657(15) -0.59141(13) 0.0190(5) Uani 1 1 d . . . . .
C14 C -0.3169(3) -0.52653(17) -0.71610(15) 0.0246(6) Uani 1 1 d . . . . .
C6 C -0.3484(3) -0.59528(18) -0.52197(15) 0.0245(6) Uani 1 1 d . . . . .
C12 C -0.7569(3) -0.73539(18) -0.65189(16) 0.0260(6) Uani 1 1 d . . . . .
H12 H -0.8004 -0.7601 -0.6155 0.031 Uiso 1 1 calc R U . . .
C8 C -0.5534(3) -0.68058(15) -0.70183(14) 0.0204(5) Uani 1 1 d . . . . .
C21 C -0.4757(3) -0.80812(16) -0.57729(15) 0.0236(6) Uani 1 1 d . . . . .
H21A H -0.5529 -0.8424 -0.5877 0.028 Uiso 1 1 calc R U . . .
H21B H -0.3926 -0.8226 -0.6034 0.028 Uiso 1 1 calc R U . . .
C22 C -0.4445(3) -0.80681(18) -0.50202(16) 0.0270(6) Uani 1 1 d D . . . .
H22A H -0.3468 -0.7894 -0.4953 0.032 Uiso 0.675(5) 1 calc R U P A 2
H22 H -0.3468 -0.7894 -0.4953 0.032 Uiso 0.325(5) 1 calc R U P A 1
C10 C -0.7662(4) -0.68330(19) -0.76262(17) 0.0311(7) Uani 1 1 d . . . . .
H10 H -0.8183 -0.6722 -0.8018 0.037 Uiso 1 1 calc R U . . .
C3 C -0.3850(3) -0.52145(18) -0.49409(16) 0.0267(6) Uani 1 1 d . . . . .
C11 C -0.8317(3) -0.71797(19) -0.70951(17) 0.0312(7) Uani 1 1 d . . . . .
H11 H -0.9277 -0.7299 -0.7123 0.037 Uiso 1 1 calc R U . . .
C9 C -0.6258(4) -0.66419(17) -0.76024(15) 0.0274(6) Uani 1 1 d . . . . .
H9 H -0.5813 -0.6409 -0.7971 0.033 Uiso 1 1 calc R U . . .
C1 C -0.4669(4) -0.3963(2) -0.5130(2) 0.0381(8) Uani 1 1 d . . . . .
H1 H -0.4990 -0.3588 -0.5426 0.046 Uiso 1 1 calc R U . . .
C4 C -0.3720(4) -0.5053(2) -0.42582(16) 0.0315(7) Uani 1 1 d . . . . .
C2 C -0.4329(4) -0.46571(19) -0.53665(17) 0.0305(7) Uani 1 1 d . . . . .
H2A H -0.4424 -0.4759 -0.5831 0.037 Uiso 1 1 calc R U . . .
C19 C -0.2063(4) -0.48591(19) -0.69075(17) 0.0319(7) Uani 1 1 d . . . . .
H19 H -0.1229 -0.5098 -0.6772 0.038 Uiso 1 1 calc R U . . .
C15 C -0.4395(4) -0.49278(18) -0.73565(18) 0.0316(7) Uani 1 1 d . . . . .
H15 H -0.5139 -0.5212 -0.7535 0.038 Uiso 1 1 calc R U . . .
C1D C -0.4529(4) -0.3827(2) -0.44470(19) 0.0380(8) Uani 1 1 d . . . . .
C16 C -0.4521(4) -0.4164(2) -0.7287(2) 0.0394(8) Uani 1 1 d . . . . .
H16 H -0.5360 -0.3924 -0.7412 0.047 Uiso 1 1 calc R U . . .
C5 C -0.4078(4) -0.4362(2) -0.40145(18) 0.0366(8) Uani 1 1 d . . . . .
H5 H -0.4010 -0.4260 -0.3549 0.044 Uiso 1 1 calc R U . . .
C17 C -0.3419(5) -0.3754(2) -0.7038(2) 0.0426(9) Uani 1 1 d . . . . .
H17 H -0.3507 -0.3234 -0.6991 0.051 Uiso 1 1 calc R U . . .
C18 C -0.2199(5) -0.4098(2) -0.68558(19) 0.0416(9) Uani 1 1 d . . . . .
H18 H -0.1444 -0.3811 -0.6693 0.050 Uiso 1 1 calc R U . . .
C1L C -0.5119(6) -1.1183(3) -0.5618(2) 0.0570(12) Uani 1 1 d . . . . .
H1L H -0.5782 -1.1383 -0.5959 0.068 Uiso 1 1 calc R U . . .
loop_
_atom_site_aniso_label
_atom_site_aniso_U_11
_atom_site_aniso_U_22
_atom_site_aniso_U_33
_atom_site_aniso_U_23
_atom_site_aniso_U_13
_atom_site_aniso_U_12
N3B 0.0213(16) 0.041(2) 0.029(5) 0.020(3) 0.0048(17) 0.0028(14)
C24B 0.0278(14) 0.026(4) 0.026(2) 0.008(2) -0.0037(11) -0.0009(18)
O6B 0.0290(14) 0.024(2) 0.030(3) 0.0113(18) -0.0018(18) 0.0028(13)
O7B 0.022(2) 0.037(3) 0.049(2) 0.024(2) 0.0013(18) 0.0033(17)
C25B 0.028(3) 0.041(3) 0.049(2) 0.024(2) 0.006(2) 0.010(2)
C26B 0.016(4) 0.0246(14) 0.0438(19) 0.0144(13) 0.0003(18) -0.0017(14)
C27B 0.034(2) 0.0276(17) 0.048(3) 0.015(2) -0.007(2) -0.0026(16)
C28B 0.042(3) 0.040(3) 0.058(3) 0.026(2) -0.006(2) -0.003(2)
C29B 0.037(3) 0.059(3) 0.052(3) 0.021(2) -0.005(2) 0.000(2)
C30B 0.039(3) 0.061(3) 0.050(2) 0.010(2) -0.001(2) -0.003(3)
C31B 0.032(2) 0.039(3) 0.053(2) 0.004(2) -0.0012(19) -0.001(3)
N3A 0.0213(16) 0.041(2) 0.029(5) 0.020(3) 0.0048(17) 0.0028(14)
C24A 0.0278(14) 0.026(4) 0.026(2) 0.008(2) -0.0037(11) -0.0009(18)
O6A 0.0290(14) 0.024(2) 0.030(3) 0.0113(18) -0.0018(18) 0.0028(13)
O7A 0.022(2) 0.037(3) 0.049(2) 0.024(2) 0.0013(18) 0.0033(17)
C25A 0.028(3) 0.041(3) 0.049(2) 0.024(2) 0.006(2) 0.010(2)
C26A 0.016(4) 0.0246(14) 0.0438(19) 0.0144(13) 0.0003(18) -0.0017(14)
C27A 0.034(2) 0.0276(17) 0.048(3) 0.015(2) -0.007(2) -0.0026(16)
C28A 0.042(3) 0.040(3) 0.058(3) 0.026(2) -0.006(2) -0.003(2)
C29A 0.037(3) 0.059(3) 0.052(3) 0.021(2) -0.005(2) 0.000(2)
C30A 0.039(3) 0.061(3) 0.050(2) 0.010(2) -0.001(2) -0.003(3)
C31A 0.032(2) 0.039(3) 0.053(2) 0.004(2) -0.0012(19) -0.001(3)
S1 0.0240(3) 0.0270(3) 0.0238(3) 0.0033(3) 0.0071(3) -0.0010(3)
Cl1 0.0603(6) 0.0532(6) 0.0231(3) -0.0030(4) -0.0054(4) 0.0029(5)
Cl2 0.0723(7) 0.0340(5) 0.0597(6) -0.0194(4) 0.0181(6) -0.0088(5)
Cl3 0.0934(11) 0.1551(17) 0.0494(7) 0.0176(9) 0.0237(7) 0.0660(12)
Cl4 0.0714(9) 0.1279(14) 0.0564(7) 0.0082(8) 0.0126(7) 0.0504(10)
Cl5 0.188(2) 0.0823(11) 0.0528(8) -0.0108(7) -0.0085(11) -0.0309(13)
O2 0.0256(10) 0.0219(10) 0.0220(9) -0.0014(8) -0.0036(8) -0.0022(8)
O4 0.0455(14) 0.0379(13) 0.0243(11) 0.0003(9) 0.0115(10) -0.0029(11)
N1 0.0209(11) 0.0239(12) 0.0177(10) 0.0036(9) 0.0012(8) -0.0048(9)
O3 0.0239(11) 0.0371(13) 0.0461(14) 0.0073(11) 0.0088(10) 0.0029(9)
O5 0.0322(12) 0.0500(15) 0.0177(9) 0.0017(9) 0.0015(9) -0.0092(11)
O1 0.0297(12) 0.0449(14) 0.0295(11) -0.0063(10) -0.0073(10) 0.0086(10)
N2 0.0196(11) 0.0295(13) 0.0180(10) 0.0006(9) 0.0024(8) 0.0024(9)
C7 0.0197(12) 0.0215(13) 0.0156(11) 0.0008(9) -0.0005(9) 0.0005(10)
C23 0.0177(12) 0.0346(16) 0.0233(13) 0.0020(11) -0.0002(10) -0.0072(11)
C13 0.0233(13) 0.0202(13) 0.0191(12) -0.0011(10) -0.0027(10) 0.0020(10)
C20 0.0182(12) 0.0219(12) 0.0168(11) 0.0007(9) 0.0023(9) -0.0010(10)
C14 0.0256(14) 0.0244(14) 0.0237(13) 0.0045(10) 0.0042(11) -0.0044(11)
C6 0.0191(12) 0.0323(15) 0.0219(13) -0.0035(11) 0.0011(10) -0.0060(11)
C12 0.0228(13) 0.0298(15) 0.0256(13) -0.0016(11) 0.0006(11) -0.0002(11)
C8 0.0223(13) 0.0189(12) 0.0201(12) -0.0007(10) -0.0020(10) -0.0008(10)
C21 0.0246(13) 0.0221(13) 0.0241(13) 0.0043(10) 0.0003(11) 0.0017(11)
C22 0.0222(13) 0.0333(16) 0.0256(14) 0.0106(12) -0.0018(11) -0.0021(12)
C10 0.0352(17) 0.0292(15) 0.0291(15) -0.0018(12) -0.0138(13) 0.0005(13)
C3 0.0248(14) 0.0304(16) 0.0247(13) -0.0057(11) 0.0015(11) -0.0081(12)
C11 0.0241(15) 0.0314(16) 0.0381(17) -0.0042(13) -0.0073(13) -0.0014(12)
C9 0.0372(16) 0.0229(14) 0.0221(13) 0.0015(11) -0.0057(12) -0.0019(12)
C1 0.0405(19) 0.0337(18) 0.0402(19) -0.0056(14) 0.0038(15) -0.0048(15)
C4 0.0318(16) 0.0378(18) 0.0249(14) -0.0046(13) -0.0005(12) -0.0075(14)
C2 0.0339(17) 0.0308(16) 0.0269(15) -0.0032(12) -0.0001(12) -0.0065(13)
C19 0.0293(15) 0.0343(17) 0.0321(15) 0.0042(13) -0.0012(13) -0.0080(13)
C15 0.0311(15) 0.0279(15) 0.0358(16) 0.0016(13) -0.0011(13) -0.0019(12)
C1D 0.0403(18) 0.0322(17) 0.0414(19) -0.0140(15) 0.0094(15) -0.0106(15)
C16 0.0397(19) 0.0301(17) 0.048(2) 0.0077(15) 0.0066(16) 0.0030(14)
C5 0.0384(18) 0.0420(19) 0.0296(16) -0.0124(14) 0.0041(14) -0.0098(15)
C17 0.057(2) 0.0233(16) 0.048(2) 0.0036(15) 0.0117(18) -0.0083(16)
C18 0.049(2) 0.038(2) 0.0373(18) -0.0014(14) 0.0016(17) -0.0198(17)
C1L 0.063(3) 0.074(3) 0.0335(19) 0.000(2) -0.0102(19) 0.015(3)
loop_
_atom_type_symbol
_atom_type_description
_atom_type_scat_dispersion_real
_atom_type_scat_dispersion_imag
_atom_type_scat_source
C C 0.0033 0.0016 'International Tables Vol C Tables 4.2.6.8 and 6.1.1.4'
H H 0.0000 0.0000 'International Tables Vol C Tables 4.2.6.8 and 6.1.1.4'
Cl Cl 0.1484 0.1585 'International Tables Vol C Tables 4.2.6.8 and 6.1.1.4'
N N 0.0061 0.0033 'International Tables Vol C Tables 4.2.6.8 and 6.1.1.4'
O O 0.0106 0.0060 'International Tables Vol C Tables 4.2.6.8 and 6.1.1.4'
S S 0.1246 0.1234 'International Tables Vol C Tables 4.2.6.8 and 6.1.1.4'
loop_
_geom_angle_atom_site_label_1
_geom_angle_atom_site_label_2
_geom_angle_atom_site_label_3
_geom_angle
C24B N3B C22 115.5(5)
N3B C24B O7B 109.1(7)
O6B C24B N3B 127.1(6)
O6B C24B O7B 123.8(6)
C24B O7B C25B 113.7(5)
O7B C25B C26B 107.7(5)
C27B C26B C25B 118.3(6)
C31B C26B C25B 122.0(5)
C31B C26B C27B 119.7(6)
C28B C27B C26B 119.7(6)
C29B C28B C27B 119.5(6)
C28B C29B C30B 121.9(7)
C29B C30B C31B 118.0(7)
C26B C31B C30B 121.2(6)
C24A N3A C22 131.4(15)
O6A C24A N3A 120.9(13)
O6A C24A O7A 124.3(13)
O7A C24A N3A 114.4(13)
C24A O7A C25A 115.9(11)
O7A C25A C26A 109.0(12)
C27A C26A C25A 121.2(10)
C31A C26A C25A 119.0(9)
C31A C26A C27A 119.4(10)
C28A C27A C26A 122.7(10)
C29A C28A C27A 116.2(11)
C30A C29A C28A 122.9(11)
C29A C30A C31A 119.3(11)
C30A C31A C26A 119.6(10)
O4 S1 N1 105.48(14)
O4 S1 C14 108.17(15)
N1 S1 C14 108.46(13)
O3 S1 O4 120.61(16)
O3 S1 N1 105.98(14)
O3 S1 C14 107.64(16)
C6 O2 C7 115.6(2)
C7 N1 S1 119.87(19)
C8 N1 S1 127.1(2)
C8 N1 C7 110.6(2)
C23 N2 C20 115.0(3)
O2 C7 C20 108.3(2)
N1 C7 O2 106.4(2)
N1 C7 C20 103.5(2)
O5 C23 N2 127.0(3)
O5 C23 C22 126.0(3)
N2 C23 C22 107.0(2)
C12 C13 C20 128.4(3)
C8 C13 C20 110.7(2)
C8 C13 C12 120.9(3)
N2 C20 C7 112.1(2)
N2 C20 C13 112.6(2)
N2 C20 C21 102.0(2)
C13 C20 C7 102.3(2)
C13 C20 C21 115.1(2)
C21 C20 C7 113.3(2)
C19 C14 S1 118.8(3)
C15 C14 S1 119.5(2)
C15 C14 C19 121.5(3)
O2 C6 C3 110.1(3)
O1 C6 O2 122.9(3)
O1 C6 C3 127.0(3)
C13 C12 C11 118.7(3)
C13 C8 N1 108.6(2)
C13 C8 C9 121.2(3)
C9 C8 N1 130.3(3)
C22 C21 C20 102.3(2)
N3B C22 C23 106.2(4)
N3B C22 C21 120.9(6)
N3A C22 C23 116.4(8)
N3A C22 C21 111.1(13)
C23 C22 C21 103.1(2)
C11 C10 C9 121.8(3)
C4 C3 C6 122.0(3)
C2 C3 C6 119.8(3)
C2 C3 C4 118.2(3)
C10 C11 C12 120.0(3)
C8 C9 C10 117.4(3)
C2 C1 C1D 118.1(4)
C3 C4 Cl1 123.0(3)
C5 C4 Cl1 116.5(3)
C5 C4 C3 120.5(3)
C1 C2 C3 121.8(3)
C18 C19 C14 118.7(3)
C14 C15 C16 118.9(3)
C1 C1D Cl2 119.0(3)
C5 C1D Cl2 119.3(3)
C5 C1D C1 121.7(3)
C17 C16 C15 119.9(4)
C1D C5 C4 119.7(3)
C18 C17 C16 120.4(4)
C17 C18 C19 120.6(4)
Cl4 C1L Cl3 109.8(3)
Cl5 C1L Cl3 111.0(3)
Cl5 C1L Cl4 110.0(3)
loop_
_geom_bond_atom_site_label_1
_geom_bond_atom_site_label_2
_geom_bond_distance
N3B C24B 1.338(8)
N3B C22 1.459(4)
C24B O6B 1.221(8)
C24B O7B 1.352(8)
O7B C25B 1.447(7)
C25B C26B 1.515(7)
C26B C27B 1.393(7)
C26B C31B 1.367(8)
C27B C28B 1.390(8)
C28B C29B 1.372(10)
C29B C30B 1.376(11)
C30B C31B 1.400(9)
N3A C24A 1.357(15)
N3A C22 1.460(5)
C24A O6A 1.234(16)
C24A O7A 1.338(14)
O7A C25A 1.466(13)
C25A C26A 1.503(13)
C26A C27A 1.386(6)
C26A C31A 1.385(6)
C27A C28A 1.385(6)
C28A C29A 1.385(6)
C29A C30A 1.383(6)
C30A C31A 1.385(6)
S1 O4 1.437(3)
S1 N1 1.651(2)
S1 O3 1.430(3)
S1 C14 1.768(3)
Cl1 C4 1.732(4)
Cl2 C1D 1.738(4)
Cl3 C1L 1.764(5)
Cl4 C1L 1.754(5)
Cl5 C1L 1.720(6)
O2 C7 1.451(3)
O2 C6 1.359(4)
N1 C7 1.450(3)
N1 C8 1.424(4)
O5 C23 1.219(4)
O1 C6 1.200(4)
N2 C23 1.342(4)
N2 C20 1.450(4)
C7 C20 1.570(4)
C23 C22 1.518(5)
C13 C20 1.511(4)
C13 C12 1.386(4)
C13 C8 1.385(4)
C20 C21 1.553(4)
C14 C19 1.389(4)
C14 C15 1.385(5)
C6 C3 1.489(5)
C12 C11 1.394(4)
C8 C9 1.390(4)
C21 C22 1.533(4)
C10 C11 1.384(5)
C10 C9 1.396(5)
C3 C4 1.400(4)
C3 C2 1.397(5)
C1 C2 1.380(5)
C1 C1D 1.394(5)
C4 C5 1.385(5)
C19 C18 1.386(5)
C15 C16 1.394(5)
C1D C5 1.368(6)
C16 C17 1.386(6)
C17 C18 1.377(6)
loop_
_refln_index_h
_refln_index_k
_refln_index_l
_refln_F_squared_meas
_refln_F_squared_sigma
1 0 0 0.01 0.02
-1 0 0 -0.01 0.02
2 0 0 7.64 0.31
-2 0 0 7.04 0.31
3 0 0 0.01 0.05
-3 0 0 -0.09 0.06
-4 0 0 43.36 1.69
4 0 0 45.21 1.69
5 0 0 -0.07 0.07
-5 0 0 0.14 0.1
-6 0 0 5.88 0.35
6 0 0 6.09 0.33
7 0 0 0.11 0.09
-7 0 0 -0.06 0.11
8 0 0 7.68 0.42
-8 0 0 7.63 0.46
-9 0 0 0.06 0.15
9 0 0 0.2 0.13
10 0 0 1.34 0.22
-10 0 0 1.47 0.26
-11 0 0 -0.22 0.17
-12 0 0 -0.16 0.18
-13 0 0 -0.14 0.19
-14 0 0 0.43 0.26
1 -1 0 120.62 4.45
-1 1 0 122.55 4.39
-1 -1 0 123.65 4.4
1 1 0 116.5 4.45
2 -1 0 26.57 1
2 1 0 26.55 1.01
-2 -1 0 26.18 1
-2 1 0 26.31 0.99
-3 -1 0 45.55 1.68
3 1 0 42.81 1.68
-3 1 0 43.79 1.66
3 -1 0 45.42 1.68
-4 1 0 50.29 1.94
4 1 0 50.81 1.96
4 -1 0 52.52 1.96
-4 -1 0 52.48 1.96
5 1 0 0.75 0.11
5 -1 0 1.06 0.13
-5 1 0 0.87 0.14
-5 -1 0 0.89 0.15
6 -1 0 8.23 0.41
-6 -1 0 8.09 0.44
-6 1 0 8.36 0.43
6 1 0 8.77 0.41
7 -1 0 0.61 0.13
7 1 0 0.76 0.14
-7 -1 0 0.61 0.14
-7 1 0 0.59 0.15
-8 1 0 25.55 1.12
-8 -1 0 26.87 1.15
8 1 0 27.3 1.11
8 -1 0 25.87 1.1
9 -1 0 17.25 0.79
-9 -1 0 16.39 0.84
9 1 0 17.33 0.8
-9 1 0 19.33 0.84
-10 1 0 0.87 0.21
10 1 0 0.9 0.18
-10 -1 0 0.76 0.19
-11 1 0 2.13 0.3
-11 -1 0 1.79 0.3
-12 1 0 0 0.19
-12 -1 0 0.41 0.23
-13 -1 0 0.48 0.24
-13 1 0 0.41 0.22
-14 -1 0 -0.03 0.23
0 -2 0 20.63 0.79
0 -2 0 20.7 0.76
-1 -2 0 217.27 7.97
1 -2 0 205.05 7.96
-1 -2 0 219.94 7.86
1 2 0 225.65 7.97
-1 2 0 215.1 7.87
2 -2 0 146.8 5.56
-2 2 0 152.81 5.48
2 2 0 154.02 5.57
-2 -2 0 149.93 5.5
3 -2 0 753.89 28.49
-3 -2 0 837.24 28.05
-3 2 0 735.3 28.01
3 2 0 763.02 28.47
-4 -2 0 8.54 0.42
4 -2 0 8.55 0.39
-4 2 0 8.45 0.39
4 2 0 8.91 0.4
5 2 0 0.21 0.09
-5 -2 0 0.3 0.12
-5 2 0 0.27 0.1
5 -2 0 0.43 0.1
-6 2 0 0.19 0.11
6 -2 0 0.31 0.1
-6 -2 0 0.51 0.15
6 2 0 0.39 0.11
-7 2 0 21.52 0.89
7 -2 0 20.26 0.87
-7 -2 0 19.95 0.91
7 2 0 20.25 0.87
-8 -2 0 7.48 0.48
-8 2 0 8.11 0.46
8 -2 0 7.93 0.43
8 2 0 7.96 0.43
-9 2 0 8.39 0.49
9 -2 0 8.22 0.46
-9 -2 0 8.33 0.52
9 2 0 9.14 0.48
10 2 0 0.91 0.2
-10 2 0 0.88 0.21
-10 -2 0 0.93 0.23
-11 -2 0 5.46 0.46
-11 2 0 5.4 0.42
-12 2 0 0.32 0.21
-12 -2 0 0.51 0.24
-13 -2 0 0.26 0.25
-14 -2 0 -0.1 0.24
0 -3 0 -0.03 0.02
0 -3 0 -0.05 0.02
-1 -3 0 0.36 0.05
-1 -3 0 0.28 0.05
1 -3 0 0.42 0.05
1 3 0 0.43 0.05
2 -3 0 177.16 6.32
2 3 0 170.65 6.33
-2 -3 0 168.46 6.33
-2 -3 0 168.92 6.25
-2 3 0 172.1 6.22
-3 3 0 39.47 1.52
-3 -3 0 40.82 1.56
3 -3 0 40.97 1.55
3 3 0 41.6 1.56
4 3 0 0.11 0.08
4 -3 0 0.16 0.07
-4 -3 0 0.06 0.09
-4 3 0 0.07 0.07
-5 -3 0 0.33 0.1
5 -3 0 0.31 0.09
-5 3 0 0.36 0.1
5 3 0 0.47 0.11
6 3 0 0.26 0.11
-6 3 0 0.1 0.1
6 -3 0 0.17 0.09
-6 -3 0 0.18 0.11
7 -3 0 0.74 0.14
7 3 0 0.75 0.15
-7 3 0 0.98 0.16
-7 -3 0 1.07 0.19
8 3 0 14.5 0.69
8 -3 0 14.64 0.69
-8 3 0 16.12 0.71
-8 -3 0 14.7 0.73
-9 -3 0 5.62 0.43
-9 3 0 5.42 0.38
9 -3 0 6.08 0.38
9 3 0 5.22 0.36
10 3 0 1.15 0.2
-10 -3 0 1.46 0.28
-10 3 0 1.35 0.25
-11 -3 0 2.31 0.34
-11 3 0 1.96 0.28
-12 -3 0 1.52 0.31
-12 3 0 1.17 0.26
-13 -3 0 0.78 0.29
0 -4 0 162.51 5.95
0 -4 0 166.31 6.06
-1 -4 0 0.52 0.07
1 -4 0 0.49 0.07
-1 -4 0 0.33 0.06
1 4 0 0.37 0.06
-2 -4 0 110.11 4.17
-2 4 0 117.67 4.08
2 -4 0 109.87 4.16
-2 -4 0 111.36 4.12
2 4 0 112.3 4.17
3 4 0 0.25 0.08
3 -4 0 0.26 0.07
-3 -4 0 0.23 0.09
-3 -4 0 0.23 0.08
-3 4 0 0.38 0.07
-4 4 0 8.82 0.39
4 -4 0 9.11 0.41
4 4 0 8.81 0.42
-4 -4 0 8.92 0.43
-5 -4 0 220.41 8.16
-5 4 0 227.23 8.11
5 -4 0 219.17 8.23
5 4 0 222.4 8.24
-6 4 0 6.85 0.37
6 4 0 7.83 0.39
-6 -4 0 7.09 0.43
6 -4 0 7.6 0.38
-7 4 0 -0.03 0.1
7 -4 0 0.13 0.1
-7 -4 0 -0.06 0.15
7 4 0 0.23 0.11
-8 4 0 3.58 0.27
-8 -4 0 2.85 0.33
8 4 0 2.87 0.26
8 -4 0 3.58 0.27
-9 4 0 0.64 0.18
9 -4 0 0.81 0.18
9 4 0 0.58 0.16
-9 -4 0 0.81 0.22
10 4 0 0.01 0.13
-10 4 0 0 0.13
-10 -4 0 0.13 0.2
-11 -4 0 2.5 0.34
-11 4 0 2.24 0.29
-12 -4 0 0.13 0.23
-13 -4 0 0.14 0.25
0 -5 0 -0.05 0.05
0 -5 0 0.18 0.04
-1 -5 0 463.12 16.91
1 -5 0 473.96 16.64
-1 -5 0 442.38 16.67
1 -5 0 460.63 16.9
-2 -5 0 3.58 0.21
2 5 0 3.6 0.2
-2 5 0 3.45 0.15
-2 -5 0 3.59 0.2
2 -5 0 3.41 0.19
-3 5 0 86.77 3.08
3 5 0 84.85 3.17
-3 -5 0 82.87 3.17
-3 -5 0 84.84 3.14
3 -5 0 82.38 3.16
4 5 0 129.85 4.84
-4 5 0 132.07 4.74
-4 -5 0 127.23 4.79
4 -5 0 130.51 4.83
-4 -5 0 128.09 4.84
-5 -5 0 7.32 0.42
-5 5 0 7.59 0.36
5 -5 0 7.49 0.37
-5 -5 0 7.52 0.39
5 5 0 8.21 0.4
6 -5 0 37.66 1.47
-6 -5 0 36.49 1.5
-6 5 0 36.37 1.43
6 5 0 36.89 1.47
-7 5 0 4.32 0.27
7 -5 0 4.05 0.27
-7 -5 0 3.78 0.34
7 5 0 4.16 0.29
-8 -5 0 21.86 1
-8 5 0 20.98 0.91
8 -5 0 22.52 0.94
8 5 0 20.68 0.94
9 5 0 1.63 0.22
-9 -5 0 2.6 0.28
-9 5 0 2.15 0.25
-9 -5 0 2.3 0.31
9 -5 0 2.29 0.26
-10 -5 0 1.15 0.27
-10 5 0 0.76 0.18
-10 -5 0 1.56 0.24
10 5 0 1.26 0.22
-11 -5 0 -0.07 0.2
-12 -5 0 1.06 0.3
-13 -5 0 -0.06 0.23
0 -6 0 36.52 1.43
0 -6 0 38.06 1.38
1 -6 0 0.72 0.04
-1 -6 0 0.54 0.09
-1 -6 0 0.55 0.08
1 -6 0 0.55 0.08
2 6 0 1.02 0.13
-2 6 0 0.97 0.05
2 -6 0 1.25 0.12
-2 -6 0 0.97 0.11
-2 -6 0 0.85 0.11
-3 -6 0 -0.09 0.07
-3 6 0 0.05 0.04
3 6 0 0.15 0.09
-3 -6 0 0.09 0.08
3 -6 0 0.06 0.07
-4 -6 0 28.92 1.18
4 6 0 29.97 1.18
-4 6 0 30.06 1.11
-4 -6 0 28.75 1.17
4 -6 0 28.23 1.16
-5 -6 0 2.14 0.2
5 -6 0 1.93 0.18
-5 -6 0 1.99 0.23
5 6 0 2.02 0.17
-5 6 0 1.83 0.15
-6 -6 0 2.64 0.26
-6 -6 0 2.12 0.23
6 6 0 2.28 0.22
-6 6 0 2.6 0.18
6 -6 0 2.42 0.2
7 -6 0 3.18 0.25
-7 -6 0 2.99 0.28
-7 -6 0 3.61 0.34
-7 6 0 3.03 0.24
7 6 0 3.41 0.27
-8 -6 0 1.56 0.22
8 6 0 1.3 0.2
8 -6 0 1.83 0.21
-8 6 0 1.47 0.19
-8 -6 0 1.62 0.25
-9 -6 0 7.35 0.52
-9 -6 0 7.87 0.47
-9 6 0 7.78 0.44
9 -6 0 7.9 0.46
9 6 0 7.71 0.46
-10 -6 0 0.08 0.21
-10 -6 0 -0.06 0.15
10 6 0 0.15 0.15
-11 -6 0 0.16 0.18
-12 -6 0 1.27 0.33
-13 -6 0 0.96 0.32
0 -7 0 0.23 0.08
1 -7 0 164.9 6.09
-1 -7 0 157.77 6.09
1 -7 0 167.22 5.96
-1 -7 0 167.16 5.99
-2 -7 0 54.18 2.14
2 -7 0 57.11 2.13
-2 -7 0 56.33 2.1
-3 -7 0 1.2 0.15
3 -7 0 1.22 0.14
-3 -7 0 1.28 0.15
3 7 0 1.08 0.15
-3 7 0 1.47 0.08
-4 -7 0 5.43 0.32
4 -7 0 6.15 0.31
-4 -7 0 5.24 0.33
-4 7 0 5.86 0.25
4 7 0 5.38 0.31
-5 -7 0 0.4 0.13
-5 -7 0 0.58 0.16
5 -7 0 1 0.14
-5 7 0 0.94 0.1
5 7 0 0.95 0.14
6 -7 0 1.09 0.17
-6 -7 0 1 0.17
-6 7 0 1.15 0.14
6 7 0 0.96 0.16
-6 -7 0 1.05 0.17
-7 7 0 5.71 0.32
-7 -7 0 5.96 0.42
-7 -7 0 5.71 0.35
7 -7 0 5.66 0.35
7 7 0 5.42 0.36
-8 -7 0 1.61 0.25
8 -7 0 1.78 0.22
-8 7 0 1.7 0.2
8 7 0 1.56 0.22
-8 -7 0 1.28 0.22
9 7 0 0.19 0.14
9 -7 0 0.36 0.15
-9 -7 0 0.16 0.2
-9 -7 0 0.05 0.15
-10 -7 0 0.28 0.18
10 7 0 0.62 0.19
-10 -7 0 -0.09 0.21
-11 -7 0 0.52 0.27
11 7 0 0.72 0.21
-12 -7 0 1.13 0.33
-13 -7 0 0.29 0.28
0 -8 0 21.45 0.78
0 -8 0 19.6 0.84
1 -8 0 37.98 1.47
-1 -8 0 37.37 1.48
-1 -8 0 38.7 1.42
1 -8 0 37.04 1.38
-2 -8 0 4.46 0.25
2 -8 0 4.76 0.27
-2 -8 0 4.75 0.27
3 8 0 0.15 0.08
-3 8 0 0.22 0.03
3 -8 0 0.13 0.09
-3 -8 0 0.15 0.09
-3 -8 0 0.11 0.07
4 -8 0 1.67 0.17
-4 -8 0 1.38 0.17
4 8 0 1.37 0.17
-4 -8 0 1.26 0.18
-4 8 0 1.48 0.1
-5 -8 0 36.46 1.52
5 -8 0 38.22 1.5
-5 8 0 38.34 1.42
-5 -8 0 37.66 1.52
5 8 0 37.56 1.51
-6 -8 0 0.16 0.15
-6 8 0 0.23 0.08
6 -8 0 0.1 0.12
6 8 0 0.07 0.12
-6 -8 0 0.3 0.14
7 -8 0 6.08 0.38
-7 -8 0 6.64 0.41
7 8 0 6.65 0.4
-7 -8 0 5.85 0.43
-8 -8 0 2.53 0.28
-8 -8 0 2.05 0.28
8 8 0 2.04 0.25
8 -8 0 2.59 0.27
-9 -8 0 0.04 0.2
9 8 0 0.29 0.15
-9 -8 0 0.17 0.16
-10 -8 0 1.03 0.23
10 8 0 0.99 0.22
-10 -8 0 1.28 0.3
-11 -8 0 1.15 0.32
11 8 0 0.76 0.22
-12 -8 0 1.16 0.34
-13 -8 0 0.02 0.29
0 -9 0 -0.06 0.06
0 -9 0 -0.04 0.05
1 -9 0 48.24 1.73
-1 -9 0 46.34 1.84
1 -9 0 47.25 1.83
-1 -9 0 47.56 1.78
-2 -9 0 3.35 0.21
2 -9 0 3.34 0.21
-2 -9 0 3.06 0.24
-3 -9 0 1.9 0.19
3 -9 0 1.52 0.17
-3 -9 0 1.46 0.17
4 9 0 0.25 0.1
4 -9 0 -0.1 0.08
-4 9 0 -0.01 0.03
-4 -9 0 0.1 0.11
-4 -9 0 0.17 0.11
-5 9 0 0.51 0.07
-5 -9 0 0.41 0.15
5 9 0 0.44 0.12
-5 -9 0 0.58 0.15
5 -9 0 0.48 0.13
6 -9 0 0.83 0.16
-6 -9 0 0.57 0.17
-6 -9 0 0.77 0.2
6 9 0 0.71 0.15
-7 -9 0 0.09 0.15
7 9 0 0.12 0.14
7 -9 0 -0.07 0.12
-7 -9 0 0.42 0.18
-8 -9 0 9.1 0.55
-8 -9 0 7.8 0.5
8 9 0 8.66 0.51
8 -9 0 9.97 0.52
9 9 0 0.19 0.16
-9 -9 0 0.1 0.18
-9 -9 0 0.34 0.21
-10 -9 0 5.07 0.4
-10 -9 0 4.44 0.46
10 9 0 4.23 0.37
-11 -9 0 0.26 0.21
11 9 0 0.47 0.23
-12 -9 0 1.02 0.34
0 -10 0 38.17 1.37
0 -10 0 34.74 1.45
1 -10 0 0.61 0.05
1 -10 0 0.37 0.1
-1 -10 0 0.49 0.09
-1 -10 0 0.43 0.12
-2 -10 0 65.08 2.53
2 -10 0 65.64 2.51
-2 -10 0 66.19 2.46
-3 -10 0 0.43 0.12
3 -10 0 0.33 0.11
-3 -10 0 0.49 0.12
4 -10 0 7.41 0.4
-4 -10 0 7.57 0.41
-4 -10 0 7.7 0.43
5 -10 0 5.92 0.35
5 10 0 5.55 0.36
-5 -10 0 5.14 0.34
-5 -10 0 5.24 0.36
-6 -10 0 4.13 0.33
6 10 0 3.06 0.27
-6 -10 0 4.1 0.34
6 -10 0 3.53 0.29
-7 -10 0 6.63 0.45
7 -10 0 7.8 0.45
7 10 0 7.27 0.45
-7 -10 0 7.12 0.45
8 -10 0 2.23 0.25
-8 -10 0 1.02 0.22
8 10 0 1.32 0.23
-8 -10 0 2.12 0.29
9 10 0 9.75 0.56
-9 -10 0 9.28 0.57
-9 -10 0 10.81 0.66
-10 -10 0 0.01 0.17
10 10 0 -0.14 0.16
-10 -10 0 0.22 0.18
-11 -10 0 0.08 0.25
11 10 0 -0.17 0.18
-11 -10 0 -0.37 0.21
-12 -10 0 0 0.26
-1 -11 0 2.25 0.16
1 -11 0 2.03 0.21
1 -11 0 2.31 0.11
-1 -11 0 2.06 0.21
2 -11 0 16.92 0.73
-2 -11 0 16.52 0.69
-2 -11 0 16.31 0.75
-3 -11 0 25.79 1.06
-3 -11 0 26.58 1.11
3 -11 0 25.89 1.08
-4 -11 0 1.72 0.23
-4 -11 0 1.36 0.19
4 -11 0 1.69 0.2
-5 -11 0 0.68 0.18
5 -11 0 0.49 0.15
-5 -11 0 0.3 0.16
-6 -11 0 0.59 0.19
6 11 0 0.68 0.18
6 -11 0 0.46 0.17
-6 -11 0 0.42 0.18
-7 -11 0 0.31 0.19
-7 -11 0 0.24 0.17
7 11 0 0.19 0.16
7 -11 0 0.26 0.15
8 -11 0 2.34 0.29
8 11 0 1.32 0.23
-8 -11 0 1.5 0.29
-8 -11 0 1.47 0.26
9 11 0 0.21 0.17
-9 -11 0 0.41 0.25
-9 -11 0 0.06 0.17
-10 -11 0 0.31 0.2
10 11 0 0.88 0.22
-10 -11 0 0.42 0.22
-11 -11 0 0.33 0.21
11 11 0 0.47 0.22
-11 -11 0 0.51 0.29
-12 -11 0 0.54 0.32
0 -12 0 16.35 0.77
0 -12 0 18.14 0.68
-1 -12 0 0.14 0.1
1 -12 0 0.01 0.11
-1 -12 0 0.16 0.08
1 -12 0 0.16 0.04
-2 -12 0 12.33 0.61
-2 -12 0 13.18 0.56
2 -12 0 12.12 0.59
-3 -12 0 3.19 0.26
3 -12 0 3.06 0.24
-3 -12 0 3.42 0.25
-4 -12 0 11.4 0.56
4 -12 0 11.92 0.57
-4 -12 0 10.7 0.59
-5 -12 0 12.94 0.66
-5 -12 0 13.25 0.65
5 -12 0 12.67 0.64
-6 -12 0 9.27 0.55
-6 -12 0 9.6 0.55
6 -12 0 9.89 0.54
-7 -12 0 0.07 0.16
-7 -12 0 -0.02 0.17
7 -12 0 0.09 0.15
-8 -12 0 0.31 0.22
8 -12 0 0.6 0.19
-8 -12 0 0.26 0.16
8 12 0 0.5 0.2
-9 -12 0 0.75 0.28
9 12 0 0.43 0.2
-9 -12 0 0.83 0.23
-10 -12 0 6.93 0.51
-10 -12 0 7.31 0.59
10 12 0 7.29 0.51
-11 -12 0 -0.07 0.21
-11 -12 0 0.42 0.3
-12 -12 0 0.37 0.31
0 -13 0 0.18 0.13
0 -13 0 0.09 0.06
1 -13 0 2.53 0.26
-1 -13 0 3.49 0.29
-1 -13 0 3.52 0.22
-2 -13 0 2.59 0.28
-2 -13 0 2.72 0.22
2 -13 0 2.73 0.26
-3 -13 0 3.66 0.33
-3 -13 0 3.14 0.25
3 -13 0 3.28 0.28
-4 -13 0 0.69 0.19
-4 -13 0 0.97 0.18
4 -13 0 0.96 0.18
5 -13 0 0.05 0.12
-5 -13 0 0.04 0.16
-5 -13 0 -0.35 0.12
-6 -13 0 14.55 0.74
6 -13 0 14.14 0.71
-6 -13 0 14.27 0.72
7 -13 0 1.72 0.26
-7 -13 0 1.52 0.26
-7 -13 0 1.6 0.28
-8 -13 0 4.29 0.41
8 -13 0 4.35 0.37
-8 -13 0 3.99 0.42
-9 -13 0 -0.01 0.16
-9 -13 0 -0.07 0.19
-10 -13 0 0.07 0.24
-10 -13 0 0.24 0.22
-11 -13 0 0.4 0.29
-11 -13 0 0.07 0.22
0 -14 0 0.1 0.11
-1 -14 0 15.74 0.82
1 -14 0 17.32 0.82
-1 -14 0 20.58 0.75
2 -14 0 16.79 0.8
-2 -14 0 19.07 0.76
-2 -14 0 17.52 0.84
-3 -14 0 8.14 0.43
3 -14 0 7.97 0.46
-3 -14 0 7.93 0.49
-4 -14 0 0.25 0.14
4 -14 0 0.73 0.18
-4 -14 0 0.93 0.19
-5 -14 0 -0.02 0.14
5 -14 0 0.09 0.12
-5 -14 0 -0.01 0.16
6 -14 0 20.83 0.95
-6 -14 0 20.47 0.97
-6 -14 0 19.83 0.93
7 -14 0 7.85 0.5
-7 -14 0 7.62 0.51
-7 -14 0 7.71 0.52
-8 -14 0 -0.02 0.19
-8 -14 0 0.04 0.2
-9 -14 0 -0.24 0.2
-9 -14 0 0 0.22
-10 -14 0 -0.2 0.23
-10 -14 0 -0.26 0.2
-11 -14 0 -0.2 0.25
-11 -14 0 -0.2 0.23
0 -15 0 0.06 0.11
1 -15 0 8.63 0.51
-1 -15 0 11.61 0.47
-1 -15 0 9.56 0.54
-2 -15 0 0.29 0.17
2 -15 0 0.03 0.14
-2 -15 0 0.21 0.12
3 -15 0 4.56 0.34
-3 -15 0 3.99 0.36
-3 -15 0 4.84 0.31
4 -15 0 1.13 0.2
-4 -15 0 1.26 0.22
-4 -15 0 1.1 0.19
-5 -15 0 2.63 0.28
-5 -15 0 2.74 0.33
5 -15 0 2.66 0.3
-6 -15 0 1.04 0.22
-6 -15 0 0.81 0.24
6 -15 0 0.92 0.21
7 -15 0 1.2 0.26
-7 -15 0 0.84 0.22
-7 -15 0 0.85 0.23
-8 -15 0 1.39 0.29
-8 -15 0 1.94 0.32
-9 -15 0 0.96 0.29
-9 -15 0 1.04 0.28
-10 -15 0 0.52 0.27
-10 -15 0 0.97 0.32
-11 -15 0 0.74 0.33
-11 -15 0 1.39 0.32
0 -16 0 7.17 0.46
1 -16 0 14.91 0.72
-1 -16 0 14.13 0.73
-2 -16 0 3.06 0.26
2 -16 0 2.99 0.31
-2 -16 0 2.96 0.32
-3 -16 0 10.55 0.61
3 -16 0 10.05 0.57
-3 -16 0 11.52 0.55
4 -16 0 1.47 0.23
-4 -16 0 1.47 0.24
-4 -16 0 1.46 0.21
-5 -16 0 3.43 0.33
5 -16 0 3.74 0.36
-5 -16 0 4.36 0.41
-6 -16 0 0.08 0.16
6 -16 0 0.01 0.14
-6 -16 0 -0.17 0.18
-7 -16 0 1.68 0.29
7 -16 0 1.57 0.28
-7 -16 0 1.34 0.29
-8 -16 0 3.39 0.4
-8 -16 0 2.72 0.39
-9 -16 0 -0.11 0.21
-9 -16 0 0.18 0.24
-10 -16 0 -0.01 0.24
-10 -16 0 0.3 0.28
-11 -16 0 0.12 0.24
0 -17 0 0.54 0.19
1 -17 0 1.15 0.23
-1 -17 0 1.21 0.25
2 -17 0 0.24 0.16
-2 -17 0 0.9 0.23
-3 -17 0 1.74 0.22
3 -17 0 1.49 0.25
-3 -17 0 1.49 0.24
-4 -17 0 5.75 0.37
4 -17 0 4.98 0.39
-4 -17 0 4.75 0.39
-5 -17 0 0 0.2
-5 -17 0 0.11 0.15
5 -17 0 0.11 0.15
-6 -17 0 0.81 0.26
6 -17 0 0.74 0.21
-6 -17 0 0.6 0.2
-7 -17 0 0.8 0.28
-7 -17 0 1.05 0.26
7 -17 0 1.91 0.31
-8 -17 0 0.03 0.21
-8 -17 0 0.14 0.24
-9 -17 0 3.65 0.44
-9 -17 0 2.41 0.39
-10 -17 0 3.44 0.46
-10 -17 0 3.96 0.47
-11 -17 0 0.98 0.33
0 -18 0 6.23 0.45
1 -18 0 4.17 0.37
-1 -18 0 4.31 0.41
2 -18 0 -0.08 0.11
-2 -18 0 -0.03 0.19
-3 -18 0 1.64 0.27
3 -18 0 1.72 0.26
4 -18 0 3.33 0.36
-4 -18 0 3.9 0.39
5 -18 0 10.9 0.64
-5 -18 0 11.19 0.63
-5 -18 0 12.48 0.71
-6 -18 0 0.2 0.19
6 -18 0 0.79 0.23
-6 -18 0 0.67 0.27
-7 -18 0 0.13 0.24
7 -18 0 0.16 0.19
-7 -18 0 -0.31 0.17
-8 -18 0 0.24 0.25
-8 -18 0 0.08 0.22
-9 -18 0 1.18 0.28
-9 -18 0 0.75 0.28
-10 -18 0 2.12 0.39
-10 -18 0 2.4 0.4
0 -19 0 0.06 0.15
-1 -19 0 0.23 0.21
1 -19 0 0.27 0.2
-2 -19 0 3.33 0.37
2 -19 0 3.25 0.36
-3 -19 0 1.6 0.31
3 -19 0 1.17 0.26
4 -19 0 0.28 0.18
-4 -19 0 0.42 0.2
-5 -19 0 9.84 0.63
5 -19 0 6.82 0.51
6 -19 0 0.63 0.23
-6 -19 0 0.47 0.26
-6 -19 0 1.2 0.27
-7 -19 0 0.24 0.22
-7 -19 0 0.53 0.27
-8 -19 0 1.35 0.33
-8 -19 0 1.09 0.31
-9 -19 0 0.74 0.29
-9 -19 0 1.7 0.36
0 -20 0 9.06 0.6
1 -20 0 0.43 0.22
-1 -20 0 0.38 0.24
2 -20 0 8.4 0.58
-2 -20 0 10.25 0.64
3 -20 0 2.2 0.33
-3 -20 0 2.84 0.4
-4 -20 0 0.12 0.25
4 -20 0 0.09 0.19
-5 -20 0 0.34 0.28
5 -20 0 0.31 0.21
6 -20 0 0.48 0.22
-6 -20 0 0.05 0.26
-7 -20 0 0.07 0.25
-8 -20 0 -0.29 0.23
-8 -20 0 -0.28 0.25
-9 -20 0 0.41 0.24
-9 -20 0 1.14 0.33
0 -21 0 -0.14 0.22
-1 -21 0 1.32 0.3
1 -21 0 1.08 0.28
2 -21 0 0.28 0.23
-2 -21 0 0.55 0.25
3 -21 0 0.3 0.22
-3 -21 0 -0.12 0.23
4 -21 0 0.55 0.24
-4 -21 0 0.42 0.29
5 -21 0 1.17 0.28
-5 -21 0 1 0.34
-6 -21 0 0.25 0.28
6 -21 0 0.14 0.2
-7 -21 0 0.64 0.31
-8 -21 0 0.12 0.28
0 -22 0 2.5 0.38
-1 -22 0 0.16 0.2
1 -22 0 0.4 0.26
-2 -22 0 1.08 0.31
2 -22 0 1.23 0.3
-3 -22 0 0.16 0.26
3 -22 0 -0.13 0.2
4 -22 0 0.02 0.19
-4 -22 0 -0.3 0.23
-5 -22 0 0.6 0.32
5 -22 0 0.5 0.24
-6 -22 0 -0.3 0.27
6 -22 0 -0.1 0.21
-7 -22 0 -0.03 0.27
0 -23 0 -0.2 0.16
1 -23 0 -0.02 0.17
-1 -23 0 -0.29 0.24
2 -23 0 0.16 0.23
-2 -23 0 0.64 0.3
-3 -23 0 0.24 0.28
3 -23 0 0.06 0.22
4 -23 0 2.22 0.36
-4 -23 0 2.76 0.4
-5 -23 0 0.19 0.22
5 -23 0 0.11 0.22
-6 -23 0 0.7 0.33
0 -24 0 0.47 0.29
1 -24 0 1.52 0.33
-1 -24 0 1.19 0.35
2 -24 0 0.52 0.28
-2 -24 0 0.18 0.28
3 -24 0 -0.09 0.23
-3 -24 0 0.47 0.24
4 -24 0 0.38 0.25
-4 -24 0 0.24 0.31
5 -24 0 0.45 0.26
0 -25 0 -0.49 0.25
-1 -25 0 -0.05 0.28
1 -25 0 -0.31 0.23
2 -25 0 0.04 0.25
-2 -25 0 0.02 0.28
-3 -25 0 0.45 0.31
3 -25 0 0.5 0.27
4 -25 0 0.07 0.23
5 -25 0 0.18 0.25
1 0 -1 36.22 1.44
1 0 1 38.79 1.43
1 0 -1 34.28 1.42
-1 0 1 39.33 1.42
-1 0 -1 37.88 1.42
-2 0 -1 559.6 20.41
-2 0 1 545.74 20.32
2 0 -1 557.25 20.71
2 0 1 584.55 20.72
-3 0 -1 198.58 7.12
3 0 1 196.95 7.2
3 0 -1 193.51 7.22
-3 0 1 192.02 7.12
4 0 -1 4.92 0.27
-4 0 -1 5.14 0.27
4 0 1 5.07 0.25
-4 0 1 4.79 0.27
-5 0 1 49.77 1.9
5 0 -1 49.87 1.91
5 0 1 48.12 1.89
-5 0 -1 50.54 1.9
6 0 -1 4.65 0.28
-6 0 1 4.28 0.3
6 0 1 3.98 0.25
-6 0 -1 4.28 0.3
-7 0 1 6.61 0.39
-7 0 -1 6.01 0.36
7 0 1 6.43 0.34
7 0 -1 6.46 0.36
8 0 -1 3.33 0.28
-8 0 1 3.41 0.32
-8 0 -1 2.91 0.29
8 0 1 3.23 0.26
-9 0 1 2.91 0.32
-9 0 -1 2.72 0.29
9 0 -1 2.72 0.27
9 0 1 2.47 0.25
-10 0 1 3.8 0.33
-10 0 -1 3.87 0.37
10 0 -1 3.45 0.31
-11 0 1 0.69 0.23
-11 0 -1 0.76 0.23
-12 0 1 -0.05 0.19
-12 0 -1 0.06 0.2
-13 0 1 1.92 0.34
-13 0 -1 2.13 0.35
-14 0 -1 -0.25 0.21
-14 0 1 0.12 0.24
-1 -1 -1 5.53 0.24
1 1 -1 5.58 0.25
1 -1 1 5.78 0.24
-1 -1 -1 5.52 0.25
1 1 1 6.5 0.24
-1 -1 1 6.28 0.25
1 -1 -1 6.67 0.25
1 -1 -1 6.23 0.24
-1 1 -1 6.4 0.24
-2 1 1 119.12 4.12
2 -1 1 117.02 4.17
2 1 -1 112.99 4.18
-2 -1 -1 110.46 4.13
-2 1 -1 108.41 4.11
2 1 1 108.65 4.17
-2 -1 1 108.86 4.13
2 -1 -1 117.31 4.18
-3 1 1 7.81 0.36
-3 -1 -1 8.8 0.38
3 -1 1 8.28 0.35
3 1 -1 7.86 0.37
-3 -1 1 8.97 0.39
3 -1 -1 8.25 0.37
-3 1 -1 8.2 0.36
3 1 1 8.32 0.36
4 -1 1 30.03 1.16
4 1 -1 30.94 1.18
-4 1 1 29.4 1.17
-4 -1 -1 30.12 1.18
-4 1 -1 29.42 1.16
4 1 1 30.32 1.16
4 -1 -1 29.4 1.17
-4 -1 1 29.36 1.18
-5 -1 -1 6.92 0.38
5 -1 1 7.25 0.35
-5 1 1 7.12 0.38
5 1 -1 6.87 0.37
5 1 1 7.49 0.35
-5 1 -1 7.49 0.37
-5 -1 1 7.98 0.4
5 -1 -1 8.08 0.37
-6 -1 -1 27.75 1.16
-6 1 1 27.95 1.15
6 -1 1 26.69 1.12
6 1 -1 28.88 1.16
6 1 1 28.2 1.14
-6 -1 1 28.51 1.17
-6 1 -1 28.68 1.15
6 -1 -1 30.35 1.16
7 1 -1 8.76 0.44
-7 -1 -1 8.22 0.47
7 -1 1 8.16 0.41
-7 1 1 8.8 0.46
-7 -1 1 8.34 0.47
7 -1 -1 8.44 0.44
7 1 1 8.2 0.42
-7 1 -1 9.02 0.46
-8 1 1 3.75 0.31
-8 -1 -1 3.61 0.3
8 -1 1 3.85 0.26
8 1 -1 3.49 0.28
8 1 1 3.62 0.28
8 -1 -1 4.07 0.28
-8 1 -1 3.77 0.31
-8 -1 1 3.05 0.32
9 1 -1 9.5 0.53
-9 -1 -1 9.92 0.57
9 -1 1 11.24 0.53
-9 1 1 10.53 0.57
-9 1 -1 10.15 0.55
-9 -1 1 8.94 0.56
9 -1 -1 9.49 0.52
9 1 1 9.7 0.51
-10 -1 -1 2.89 0.32
10 1 -1 3.15 0.32
-10 1 1 2.96 0.33
-10 1 -1 3.16 0.33
10 -1 -1 2.87 0.31
-10 -1 1 3.04 0.35
-11 1 1 0.64 0.24
-11 -1 -1 0.7 0.23
-11 -1 1 1.13 0.27
-11 1 -1 0.87 0.23
-12 -1 -1 -0.04 0.2
-12 1 1 -0.2 0.18
-12 1 -1 0.06 0.18
-12 -1 1 0.24 0.23
-13 1 1 0.24 0.23
-13 -1 -1 0.07 0.22
-13 1 -1 0.21 0.21
-13 -1 1 0.23 0.24
-14 -1 -1 0.48 0.27
-14 -1 1 0 0.23
0 2 -1 181.34 6.96
0 -2 -1 198.18 6.96
0 -2 -1 192.39 7.06
0 -2 1 192.28 7.05
0 2 -1 196.02 7.05
-1 -2 -1 7.14 0.32
1 -2 1 7.88 0.32
1 2 -1 7.53 0.33
-1 -2 -1 7.88 0.33
-1 2 -1 8.54 0.31
1 -2 -1 9.12 0.31
-1 -2 1 8.34 0.33
1 -2 -1 8.59 0.33
1 2 1 8.31 0.33
2 -2 1 226.94 8.65
-2 -2 -1 239.89 8.66
-2 -2 -1 228.73 8.55
-2 2 1 237.86 8.53
2 2 -1 236.25 8.67
2 2 1 240.07 8.66
-2 -2 1 234.67 8.55
2 -2 -1 235.15 8.67
-2 2 -1 239.15 8.53
-3 -2 -1 205.12 7.52
3 2 -1 204.09 7.62
3 -2 1 212.8 7.6
-3 2 1 206.98 7.5
-3 2 -1 203.2 7.49
-3 -2 1 210.88 7.52
3 2 1 207.53 7.6
3 -2 -1 198.9 7.61
-4 2 1 30.61 1.2
4 -2 1 30.84 1.2
-4 -2 -1 32.34 1.22
4 2 -1 31.44 1.22
-4 -2 1 31.32 1.22
-4 2 -1 29.59 1.19
4 -2 -1 31.13 1.22
4 2 1 30.43 1.2
5 2 -1 75.2 2.77
-5 -2 -1 73.79 2.76
5 -2 1 72.63 2.74
-5 2 1 73.83 2.73
-5 -2 1 71.51 2.76
5 2 1 70.09 2.75
5 -2 -1 72.19 2.76
-5 2 -1 73.44 2.73
-6 2 1 7.68 0.39
6 -2 1 7.47 0.36
6 2 -1 7.47 0.39
-6 -2 -1 7.82 0.41
-6 -2 1 7.34 0.42
6 2 1 7 0.37
6 -2 -1 6.88 0.37
-6 2 -1 7 0.38
-7 -2 -1 0.27 0.15
7 -2 1 0.12 0.1
7 2 -1 0.2 0.12
-7 2 1 -0.02 0.1
-7 -2 1 -0.1 0.12
7 2 1 0.19 0.11
7 -2 -1 0.25 0.11
-7 2 -1 0.17 0.12
8 -2 1 1.84 0.19
-8 -2 -1 1.51 0.24
-8 2 1 1.61 0.22
8 2 -1 1.31 0.2
8 2 1 1.47 0.19
-8 2 -1 1.7 0.22
-8 -2 1 1.6 0.22
8 -2 -1 1.71 0.21
9 2 -1 5.86 0.4
-9 2 1 5.98 0.41
-9 -2 -1 5.78 0.41
9 -2 1 6.75 0.38
-9 -2 1 5.96 0.44
9 -2 -1 5.71 0.38
-9 2 -1 6.37 0.41
9 2 1 6.61 0.38
-10 -2 -1 3.05 0.35
-10 2 1 3.25 0.34
10 2 -1 3 0.31
10 -2 -1 3.37 0.32
-10 2 -1 3.09 0.32
-10 -2 1 2.94 0.36
-11 2 1 0.05 0.17
-11 -2 -1 0.03 0.19
-11 -2 1 -0.05 0.14
-11 2 -1 0.02 0.16
-12 -2 -1 0.69 0.26
-12 2 1 0.82 0.24
-12 2 -1 0.51 0.22
-12 -2 1 1.15 0.29
-13 -2 -1 0.55 0.26
-13 -2 1 1.36 0.32
-14 -2 -1 0.02 0.23
-14 -2 1 -0.15 0.22
0 -3 1 94.53 3.43
0 -3 -1 94.78 3.5
0 -3 1 91.49 3.5
0 -3 -1 97.12 3.43
-1 -3 -1 83.41 3.13
-1 -3 -1 85.19 3.18
1 -3 1 84.84 3.17
1 3 -1 85.17 3.18
1 -3 -1 87.98 3.18
1 -3 -1 90.05 3.11
-1 -3 1 86.59 3.13
-1 -3 1 85.55 3.18
-1 3 -1 82.57 3.1
2 -3 1 209.95 7.67
2 3 -1 204.76 7.69
-2 -3 -1 206.01 7.68
-2 -3 -1 208 7.58
-2 3 1 209.74 7.55
-2 3 -1 213.82 7.55
2 -3 -1 210.13 7.68
2 3 1 200.35 7.68
-2 -3 1 212.89 7.59
-3 3 1 66.52 2.37
-3 -3 -1 63.56 2.41
3 -3 1 67.08 2.4
3 3 -1 63.63 2.43
-3 -3 -1 63.73 2.4
-3 -3 1 63.88 2.4
3 3 1 61.47 2.41
3 -3 -1 63.82 2.42
-3 3 -1 63.83 2.36
4 -3 1 40.75 1.53
-4 3 1 38.12 1.51
4 3 -1 38.85 1.55
-4 -3 -1 39.09 1.54
4 -3 -1 40.61 1.54
4 3 1 40.63 1.54
-4 -3 1 39.72 1.55
-4 3 -1 41.16 1.51
-5 -3 -1 17.9 0.76
-5 3 1 18.22 0.72
5 3 -1 17.18 0.74
5 -3 1 16.68 0.71
5 -3 -1 16.95 0.73
5 3 1 16.91 0.72
-5 3 -1 17.1 0.72
-5 -3 1 17.22 0.75
6 3 -1 22.02 0.94
-6 3 1 22.05 0.93
-6 -3 -1 22.79 0.97
6 -3 1 22.54 0.92
6 -3 -1 23.17 0.94
-6 3 -1 22.18 0.92
6 3 1 22.62 0.93
-6 -3 1 22.6 0.97
-7 -3 -1 6.28 0.4
7 3 -1 6.14 0.36
-7 3 1 6.39 0.36
7 -3 1 5.76 0.33
7 3 1 5.88 0.34
7 -3 -1 5.44 0.35
-7 -3 1 6.01 0.38
-7 3 -1 6.2 0.35
-8 3 1 12.77 0.64
8 3 -1 12.66 0.63
8 -3 1 13.99 0.62
-8 -3 -1 14.17 0.7
-8 3 -1 12.76 0.64
8 3 1 12.97 0.62
8 -3 -1 13.23 0.63
-8 -3 1 13.43 0.69
-9 -3 -1 4.93 0.41
9 -3 1 5.45 0.34
-9 3 1 5.81 0.39
9 3 -1 5.41 0.37
-9 3 -1 5.69 0.37
9 -3 -1 5.5 0.36
9 3 1 5.52 0.37
-9 -3 1 5.39 0.4
-10 3 1 0.27 0.16
-10 -3 -1 0.27 0.19
10 3 -1 0 0.14
-10 3 -1 -0.01 0.15
10 3 1 0.17 0.15
10 -3 -1 0.53 0.18
-10 -3 1 0.15 0.2
-11 -3 -1 0.9 0.26
-11 3 1 0.54 0.2
-11 3 -1 0.35 0.18
-11 -3 1 0.75 0.26
-12 -3 -1 0.66 0.26
-12 3 1 0.64 0.23
-12 -3 1 0.03 0.23
-13 -3 -1 0.24 0.25
-13 -3 1 0.8 0.29
0 -4 1 526.87 19.9
0 -4 -1 535.22 19.9
0 -4 -1 531.78 19.53
0 -4 1 561.45 19.56
1 4 -1 23.35 0.9
1 -4 1 23.24 0.89
-1 -4 -1 22.21 0.88
-1 -4 -1 24.48 0.9
-1 -4 1 23.22 0.88
1 -4 -1 23.65 0.85
-1 -4 1 22.3 0.9
1 -4 -1 22.89 0.9
2 -4 1 18.48 0.7
2 4 -1 18.3 0.72
-2 -4 -1 15.72 0.7
-2 -4 -1 18.35 0.71
2 4 1 17.59 0.71
-2 -4 1 18.66 0.71
-2 -4 1 17.78 0.72
2 -4 -1 17.5 0.71
-2 4 -1 17.96 0.66
-3 4 1 41.02 1.54
3 -4 1 41.42 1.56
-3 -4 -1 41.87 1.58
3 4 -1 42.04 1.59
-3 -4 -1 40.66 1.57
-3 -4 1 42.64 1.58
-3 4 -1 40.96 1.53
3 4 1 40.18 1.58
3 -4 -1 40.26 1.58
-4 -4 -1 0.1 0.08
-4 -4 -1 0.23 0.09
-4 4 1 0.36 0.07
4 -4 1 0.19 0.07
4 4 -1 0.2 0.1
-4 -4 1 0.12 0.08
-4 4 -1 0.18 0.06
4 -4 -1 0.08 0.07
4 4 1 0.13 0.08
5 4 -1 3.47 0.24
-5 -4 -1 3.59 0.23
-5 4 1 3.52 0.22
5 -4 1 3.48 0.21
-5 -4 -1 2.94 0.26
5 4 1 3.29 0.22
-5 4 -1 3.52 0.22
5 -4 -1 3.56 0.23
-5 -4 1 3.32 0.27
-6 -4 -1 20.73 0.91
-6 4 1 21.14 0.88
6 -4 1 21.4 0.87
6 4 -1 21.92 0.9
-6 -4 1 21.18 0.93
6 -4 -1 20.72 0.89
-6 4 -1 21.24 0.86
6 4 1 20.14 0.88
7 -4 1 28.26 1.2
-7 4 1 30.53 1.21
-7 -4 -1 29.71 1.27
7 4 -1 30.01 1.24
-7 -4 1 28.95 1.26
7 -4 -1 30.8 1.23
-7 4 -1 31.41 1.21
7 4 1 29.74 1.22
-8 4 1 3.73 0.3
8 4 -1 3.63 0.29
8 -4 1 3.47 0.26
-8 -4 -1 3.26 0.33
-8 -4 1 3.48 0.35
8 -4 -1 3.82 0.29
8 4 1 3.45 0.27
-8 4 -1 3.59 0.29
-9 4 1 4.98 0.37
-9 -4 -1 5.64 0.37
-9 -4 -1 5.98 0.44
9 4 -1 5.38 0.37
9 -4 1 5.76 0.37
-9 4 -1 6.25 0.39
9 -4 -1 5.85 0.37
-9 -4 1 6.29 0.46
9 4 1 5.62 0.36
10 4 -1 0 0.16
-10 4 1 0.13 0.15
-10 -4 -1 0.07 0.19
10 4 1 0 0.14
-10 -4 1 -0.3 0.11
10 -4 -1 0.13 0.14
-10 4 -1 -0.06 0.13
-11 -4 -1 0.42 0.24
11 4 -1 0.28 0.17
-11 4 1 0.2 0.16
-11 -4 1 0.1 0.22
-11 4 -1 -0.05 0.15
-12 -4 -1 0.17 0.23
-12 -4 1 -0.02 0.17
-13 -4 -1 -0.07 0.22
-13 -4 1 0.24 0.26
0 -5 1 53.87 2.07
0 -5 -1 54.09 2.08
0 -5 -1 58.24 2.02
0 -5 1 54.15 2.02
-1 -5 -1 130.07 4.67
1 5 -1 128.64 4.75
-1 -5 -1 125.24 4.75
1 -5 1 127.9 4.74
1 -5 -1 126.33 4.75
-1 -5 1 125.08 4.75
-1 -5 1 129.56 4.67
1 -5 -1 131.54 4.64
-2 -5 -1 17.55 0.72
2 5 -1 18.23 0.73
-2 -5 -1 17.32 0.72
2 -5 1 18.32 0.71
2 5 1 18.48 0.72
-2 -5 1 18.19 0.72
-2 -5 1 18.13 0.74
2 -5 -1 16.83 0.72
-2 5 -1 18.27 0.66
2 -5 -1 18.14 0.67
3 -5 1 17.65 0.74
-3 -5 -1 18.02 0.75
3 5 -1 19.05 0.77
-3 -5 -1 18.61 0.76
-3 5 1 18.5 0.71
-3 -5 1 18.76 0.77
-3 -5 1 18.36 0.77
3 -5 -1 17.98 0.75
-3 5 -1 18.56 0.7
3 5 1 19.05 0.76
-4 -5 -1 38.95 1.48
4 5 -1 38.49 1.49
4 -5 1 36.88 1.46
-4 -5 -1 37.71 1.49
-4 5 1 36.25 1.43
4 -5 -1 38.63 1.48
-4 5 -1 38.62 1.42
-4 -5 1 39.13 1.49
4 5 1 36.72 1.47
5 -5 1 3.96 0.23
-5 -5 -1 3.77 0.25
-5 5 1 3.78 0.23
5 5 -1 3.89 0.26
-5 -5 -1 3.8 0.28
-5 -5 1 3.4 0.28
5 -5 -1 3.92 0.24
-5 5 -1 3.48 0.21
5 5 1 3.79 0.24
-6 5 1 4.66 0.28
-6 -5 -1 4.24 0.31
-6 -5 -1 5.15 0.31
6 -5 1 4.87 0.29
6 5 -1 4.61 0.31
-6 5 -1 4.97 0.28
6 -5 -1 4.92 0.3
6 5 1 5.27 0.3
-6 -5 1 5.4 0.36
-7 -5 -1 5.81 0.35
-7 -5 -1 5.7 0.38
7 -5 1 6.03 0.34
7 5 -1 6.04 0.37
-7 5 1 6.24 0.34
-7 -5 1 5.24 0.4
7 -5 -1 5.55 0.35
7 5 1 6.07 0.35
-7 5 -1 6.04 0.34
8 -5 1 3.19 0.25
8 5 -1 2.66 0.28
-8 -5 -1 3.55 0.35
-8 5 1 2.87 0.27
-8 -5 -1 3.65 0.3
-8 -5 1 3.25 0.33
8 -5 -1 3.56 0.28
8 5 1 3.59 0.27
-8 5 -1 3.52 0.28
-9 -5 -1 4.62 0.37
-9 -5 -1 4.85 0.35
9 5 -1 4.28 0.34
-9 5 1 5.05 0.36
9 -5 -1 5.16 0.35
-9 5 -1 4.47 0.33
9 5 1 4.33 0.34
-9 -5 1 4.33 0.42
-10 -5 -1 5.1 0.39
-10 5 1 4.76 0.38
10 5 -1 4.64 0.36
-10 -5 -1 5.16 0.41
-10 -5 1 5.5 0.46
10 5 1 4.92 0.36
-10 5 -1 4.23 0.34
11 5 -1 1.57 0.27
-11 -5 -1 1.68 0.29
-11 -5 1 1.26 0.27
-11 -5 1 1.56 0.29
-12 -5 -1 0.24 0.19
-12 -5 1 0.61 0.27
-13 -5 -1 0.16 0.26
-13 -5 1 0.09 0.2
0 -6 -1 0.87 0.11
0 -6 1 1.05 0.11
0 -6 -1 0.91 0.07
0 -6 1 0.93 0.07
-1 -6 -1 54.1 1.94
-1 -6 -1 51.91 1.99
1 -6 1 52.43 1.98
1 -6 -1 53.96 1.91
-1 -6 1 51 1.94
-1 -6 1 49.73 1.99
1 -6 -1 52.22 1.98
2 -6 1 94.6 3.5
-2 -6 -1 92.28 3.46
-2 -6 -1 95.59 3.52
2 6 -1 94.77 3.52
-2 -6 1 95.52 3.47
2 -6 -1 95.17 3.41
-2 -6 1 92.72 3.52
2 -6 -1 90.31 3.51
-3 -6 -1 3.76 0.24
3 -6 1 3.91 0.22
-3 -6 -1 3.55 0.22
-3 6 1 3.68 0.18
3 6 -1 3.83 0.23
3 6 1 4.18 0.24
3 -6 -1 4.02 0.23
-3 -6 1 4.06 0.25
-3 6 -1 4.06 0.17
-3 -6 1 4.19 0.25
-4 6 1 36.81 1.4
-4 -6 -1 37.66 1.46
4 6 -1 38.1 1.47
4 -6 1 37.24 1.44
-4 -6 -1 37.38 1.46
4 -6 -1 37.37 1.46
-4 6 -1 37.16 1.39
-4 -6 1 36.39 1.46
-4 -6 1 36.69 1.47
4 6 1 36.53 1.46
5 -6 1 9.29 0.43
-5 6 1 9.38 0.41
-5 -6 -1 8.86 0.45
-5 -6 -1 8.7 0.47
5 6 -1 9.27 0.46
-5 6 -1 9.06 0.4
-5 -6 1 9.78 0.49
5 6 1 8.96 0.44
5 -6 -1 9.67 0.45
-5 -6 1 8.95 0.46
6 6 -1 2.08 0.22
-6 -6 -1 1.85 0.21
-6 -6 -1 2.19 0.24
-6 6 1 2.09 0.18
6 -6 1 1.72 0.19
-6 -6 1 2.01 0.23
-6 -6 1 2.22 0.22
6 6 1 2.24 0.21
-6 6 -1 2.26 0.17
6 -6 -1 2.36 0.21
-7 -6 -1 1.77 0.21
7 -6 1 2.06 0.2
-7 -6 -1 2.03 0.25
7 6 -1 1.73 0.22
-7 6 1 1.92 0.19
-7 -6 1 1.48 0.21
7 -6 -1 1.67 0.21
-7 6 -1 1.86 0.18
7 6 1 1.73 0.21
-7 -6 1 1.64 0.23
-8 6 1 16.96 0.75
8 -6 1 16.8 0.76
-8 -6 -1 16.75 0.78
-8 -6 -1 15.51 0.82
8 6 -1 16.26 0.78
8 6 1 16.95 0.77
-8 -6 1 17.08 0.8
8 -6 -1 16.33 0.77
-8 6 -1 17.08 0.74
-8 -6 1 17.43 0.83
-9 -6 -1 0.74 0.18
-9 6 1 0.69 0.18
-9 -6 -1 1.13 0.25
9 6 -1 0.67 0.17
9 -6 -1 0.89 0.19
-9 -6 1 0.85 0.2
-9 6 -1 0.58 0.15
-9 -6 1 0.67 0.19
9 6 1 0.34 0.15
-10 -6 -1 4.49 0.37
-10 -6 -1 3.67 0.42
10 6 -1 3.92 0.34
-10 -6 1 3.67 0.42
10 6 1 4 0.33
-10 -6 1 3.98 0.38
-11 -6 -1 0.92 0.3
11 6 -1 1.27 0.25
-11 -6 1 1.41 0.27
-11 -6 1 1.69 0.33
-12 -6 -1 1.57 0.34
-12 -6 1 1.98 0.38
-13 -6 -1 0.12 0.27
-13 -6 1 0.39 0.29
0 -7 1 32.97 1.29
0 -7 -1 31.75 1.29
0 -7 1 33.71 1.24
0 -7 -1 34.67 1.24
1 -7 1 86.33 3.07
-1 -7 -1 84.28 3.19
1 -7 1 85.33 3.19
-1 -7 -1 85.35 3.12
1 -7 -1 87.17 3.09
-1 -7 1 83.84 3.12
-1 -7 1 81.78 3.19
1 -7 -1 85.74 3.19
2 -7 1 32.28 1.26
-2 -7 -1 32 1.28
-2 -7 -1 32.45 1.25
2 7 -1 33.9 1.29
2 -7 -1 32.41 1.27
-2 -7 1 30.79 1.28
2 -7 -1 32.19 1.19
-2 -7 1 33.88 1.26
-3 -7 -1 10.08 0.47
-3 7 1 9.93 0.4
3 7 -1 10.29 0.48
-3 -7 -1 9.86 0.47
3 -7 1 10.36 0.46
3 -7 -1 10.54 0.47
-3 -7 1 9.74 0.48
-3 -7 1 9.74 0.46
-3 7 -1 10.27 0.38
3 7 1 10.34 0.46
-4 7 1 11.6 0.48
4 7 -1 11.56 0.55
-4 -7 -1 11.48 0.54
-4 -7 -1 11.88 0.54
4 -7 1 12.42 0.52
4 7 1 11.1 0.53
4 -7 -1 11.9 0.54
-4 -7 1 11.35 0.55
-4 -7 1 11.57 0.54
-4 7 -1 12.05 0.46
5 7 -1 7.63 0.41
-5 -7 -1 7.68 0.4
-5 -7 -1 6.97 0.42
5 -7 1 8.4 0.39
-5 7 1 8 0.35
-5 -7 1 6.88 0.42
5 -7 -1 7.24 0.39
-5 -7 1 7.74 0.42
-5 7 -1 7.86 0.34
5 7 1 7.11 0.39
-6 7 1 11.99 0.52
6 -7 1 11.62 0.55
-6 -7 -1 11.82 0.57
-6 -7 -1 11.86 0.59
6 7 -1 11.74 0.58
-6 -7 1 11.51 0.58
6 -7 -1 11.54 0.56
-6 -7 1 12.01 0.61
-6 7 -1 12.23 0.51
6 7 1 11.37 0.56
-7 -7 -1 2.17 0.28
-7 -7 -1 2.45 0.25
-7 7 1 2.21 0.2
7 -7 1 2.06 0.23
7 7 -1 2.08 0.24
-7 7 -1 2.23 0.19
-7 -7 1 2.65 0.28
7 -7 -1 2.72 0.26
7 7 1 2.17 0.23
-7 -7 1 2.32 0.26
-8 -7 -1 1.95 0.24
8 -7 1 2.22 0.25
-8 7 1 2.48 0.23
-8 -7 -1 2.33 0.29
8 7 -1 2.1 0.25
8 7 1 1.76 0.23
-8 -7 1 2.26 0.27
8 -7 -1 2.28 0.26
-8 -7 1 1.64 0.25
9 7 -1 0.37 0.16
-9 -7 -1 1 0.24
-9 -7 -1 1.01 0.22
9 -7 -1 0.8 0.18
-9 -7 1 0.43 0.22
-9 -7 1 0.57 0.19
9 7 1 0.84 0.18
-10 -7 -1 1.29 0.26
-10 -7 -1 1.28 0.23
10 7 -1 1.14 0.23
10 7 1 1.68 0.25
-10 -7 1 1.24 0.26
-10 -7 1 1.36 0.25
-11 -7 -1 3.67 0.45
11 7 -1 3.5 0.37
-11 -7 1 4.34 0.48
-11 -7 1 3.59 0.39
-12 -7 -1 1 0.32
-12 -7 1 1.86 0.38
-13 -7 -1 3.54 0.45
-13 -7 1 3.42 0.49
0 -8 -1 4.14 0.26
0 -8 1 4.23 0.25
0 -8 -1 4.67 0.21
0 -8 1 4.58 0.2
1 -8 1 69.25 2.38
-1 -8 -1 66.63 2.43
-1 -8 -1 62.45 2.49
1 -8 1 61.47 2.48
1 -8 -1 68.14 2.39
-1 -8 1 65.02 2.43
-1 -8 1 64.42 2.49
1 -8 -1 66.57 2.49
-2 -8 -1 52.26 2.12
2 -8 1 55.36 2.11
-2 -8 -1 54.49 2.07
2 -8 -1 56.67 2.01
2 -8 -1 54.44 2.12
-2 -8 1 57.41 2.13
-2 -8 1 55.99 2.08
3 -8 1 21.44 0.87
3 8 -1 21.03 0.89
-3 -8 -1 19.96 0.86
-3 -8 -1 19.62 0.87
-3 8 1 20.73 0.79
-3 -8 1 22.63 0.9
3 -8 -1 22.14 0.88
-3 -8 1 21.92 0.88
4 8 -1 6.34 0.36
-4 -8 -1 5.58 0.34
4 -8 1 7.13 0.34
-4 8 1 6.44 0.28
-4 -8 -1 5.96 0.35
4 8 1 6.22 0.35
-4 -8 1 6.71 0.37
-4 8 -1 6.6 0.26
-4 -8 1 6.59 0.36
4 -8 -1 5.76 0.34
-5 8 1 64.74 2.37
-5 -8 -1 59.41 2.46
5 8 -1 64.21 2.48
5 -8 1 64.05 2.46
-5 -8 -1 63.23 2.46
-5 -8 1 63.03 2.49
5 8 1 62.63 2.47
-5 8 -1 65.63 2.36
-5 -8 1 66.55 2.47
5 -8 -1 65.44 2.47
6 -8 1 2.41 0.23
-6 -8 -1 2.69 0.28
-6 -8 -1 2.46 0.25
-6 8 1 2.13 0.17
6 8 -1 2.52 0.25
-6 -8 1 2.1 0.25
6 8 1 2.58 0.24
-6 8 -1 2.08 0.16
6 -8 -1 2.56 0.25
-6 -8 1 2.37 0.28
7 -8 1 1.81 0.21
-7 8 1 2.03 0.19
7 8 -1 1.5 0.22
-7 -8 -1 1.52 0.23
-7 -8 -1 1.41 0.21
-7 -8 1 1.97 0.27
7 -8 -1 1.77 0.22
-7 -8 1 1.75 0.24
7 8 1 1.6 0.21
8 8 -1 0.83 0.19
-8 -8 -1 0.59 0.17
8 -8 1 0.74 0.17
-8 -8 -1 1.06 0.22
-8 -8 1 0.62 0.19
-8 -8 1 0.76 0.2
8 -8 -1 0.91 0.19
8 8 1 0.76 0.17
-9 -8 -1 2.17 0.32
9 8 -1 1.92 0.26
-9 -8 -1 2.06 0.26
-9 -8 1 1.93 0.27
9 8 1 2.38 0.27
-9 -8 1 2.22 0.33
9 -8 -1 1.82 0.26
-10 -8 -1 0.64 0.25
-10 -8 -1 0.32 0.18
10 8 -1 0.38 0.17
-10 -8 1 0.07 0.18
-10 -8 1 0.24 0.23
10 8 1 0.35 0.17
11 8 -1 0.85 0.23
-11 -8 -1 0.78 0.3
-11 -8 1 0.89 0.24
-11 -8 1 1.19 0.32
-12 -8 -1 0.92 0.32
-12 -8 1 1.19 0.29
-13 -8 -1 -0.28 0.25
-13 -8 1 0.21 0.29
0 -9 1 5.95 0.33
0 -9 -1 6.9 0.28
0 -9 -1 5.92 0.32
0 -9 1 6.27 0.27
1 -9 1 93.27 3.62
1 -9 1 96.74 3.49
-1 -9 -1 103.22 3.55
-1 -9 -1 96.41 3.64
1 -9 -1 92.4 3.63
1 -9 -1 97.18 3.5
-1 -9 1 97.55 3.64
-1 -9 1 94.74 3.54
-2 -9 -1 13.85 0.64
-2 -9 -1 14.98 0.61
2 -9 1 13.92 0.62
-2 -9 1 14.77 0.64
2 -9 -1 15.03 0.53
-2 -9 1 13.91 0.6
2 -9 -1 13.75 0.63
-3 -9 -1 15.54 0.69
3 9 -1 15.53 0.7
3 -9 1 15.63 0.67
-3 -9 -1 15.61 0.67
-3 9 1 15.31 0.58
-3 -9 1 15.99 0.68
-3 -9 1 15.75 0.7
3 -9 -1 15.45 0.68
-4 9 1 6.61 0.28
4 -9 1 6.38 0.35
-4 -9 -1 6.18 0.37
-4 -9 -1 6.57 0.37
4 9 -1 6.66 0.37
-4 -9 1 6.7 0.38
-4 9 -1 6.87 0.26
-4 -9 1 6.66 0.38
4 -9 -1 6.11 0.36
5 -9 1 4.69 0.29
5 9 -1 4.25 0.3
-5 -9 -1 4.04 0.28
-5 9 1 4.88 0.23
-5 -9 -1 4.52 0.33
-5 -9 1 4.13 0.32
5 -9 -1 4.77 0.31
-5 -9 1 4.77 0.33
5 9 1 4.24 0.3
6 9 -1 4.32 0.33
6 -9 1 4.54 0.31
-6 -9 -1 4.15 0.34
-6 -9 -1 4.43 0.32
-6 -9 1 4.08 0.34
6 -9 -1 4.64 0.32
6 9 1 4.29 0.29
-6 -9 1 4.41 0.31
-7 -9 -1 15.16 0.73
7 9 -1 15.75 0.75
7 -9 1 16.33 0.73
-7 -9 -1 14.31 0.75
-7 -9 1 15.92 0.79
7 -9 -1 16.56 0.75
-7 -9 1 14.91 0.75
7 9 1 15.03 0.73
8 -9 1 2.6 0.28
8 9 -1 2.59 0.29
-8 -9 -1 2.43 0.28
-8 -9 -1 2.78 0.32
-8 -9 1 2.66 0.3
8 9 1 2.66 0.28
-8 -9 1 2.43 0.31
8 -9 -1 2.69 0.29
-9 -9 -1 3.84 0.39
9 9 -1 3.22 0.33
-9 -9 -1 2.73 0.31
-9 -9 1 3.15 0.34
9 -9 -1 3.31 0.35
-9 -9 1 4.41 0.43
9 9 1 3.41 0.33
-10 -9 -1 2.1 0.35
-10 -9 -1 2.18 0.3
10 9 -1 1.8 0.28
-10 -9 1 1.81 0.34
-10 -9 1 1.73 0.28
10 9 1 1.65 0.25
-11 -9 -1 0.43 0.27
11 9 -1 0.9 0.24
-11 -9 1 0.67 0.24
-11 -9 1 0.63 0.28
-12 -9 -1 0.45 0.25
-12 -9 1 1.1 0.33
0 -10 -1 48.69 2.02
0 -10 1 52.92 1.94
0 -10 1 51.6 2.03
0 -10 -1 55.77 1.94
-1 -10 -1 9.06 0.39
1 -10 1 9.18 0.34
-1 -10 -1 8.58 0.43
1 -10 1 7.93 0.42
-1 -10 1 9.22 0.39
1 -10 -1 9.19 0.35
-1 -10 1 8.3 0.43
1 -10 -1 9.07 0.44
-2 -10 -1 10.04 0.51
-2 -10 -1 10.5 0.48
2 -10 1 10.31 0.49
-2 -10 1 10.28 0.52
-2 -10 1 10.43 0.47
2 -10 -1 11.27 0.51
2 -10 -1 10.65 0.39
3 -10 1 29.93 1.23
-3 -10 -1 31.3 1.22
-3 -10 -1 31.38 1.26
-3 -10 1 30.38 1.22
3 -10 -1 31.22 1.25
-3 -10 1 30.12 1.26
4 -10 1 19.39 0.8
4 10 -1 18.46 0.81
-4 -10 -1 18.07 0.81
-4 -10 -1 18.13 0.8
-4 -10 1 17.75 0.8
-4 -10 1 17.32 0.81
4 -10 -1 18.64 0.81
5 -10 1 4.49 0.29
-5 -10 -1 3.65 0.28
-5 -10 -1 4.1 0.31
5 10 -1 4.16 0.32
-5 -10 1 4 0.32
5 -10 -1 3.69 0.29
-5 -10 1 4.47 0.3
-6 -10 -1 17.17 0.82
6 10 -1 17.61 0.82
-6 -10 -1 17.34 0.81
6 -10 1 17.36 0.79
6 -10 -1 18.67 0.81
-6 -10 1 17.73 0.83
6 10 1 17.62 0.79
-6 -10 1 16.2 0.8
-7 -10 -1 1.51 0.26
7 -10 1 1.73 0.22
-7 -10 -1 1.39 0.22
7 10 -1 1.32 0.23
-7 -10 1 1.16 0.2
-7 -10 1 1.35 0.23
7 -10 -1 1.86 0.24
7 10 1 1.23 0.21
8 10 -1 10.19 0.6
-8 -10 -1 10.91 0.6
-8 -10 -1 11.32 0.64
8 -10 1 10.94 0.59
8 10 1 11.02 0.59
8 -10 -1 11.83 0.61
-8 -10 1 12.34 0.68
-8 -10 1 11.47 0.62
-9 -10 -1 1.6 0.26
9 10 -1 1.63 0.26
-9 -10 -1 1.5 0.27
-9 -10 1 1.41 0.27
9 -10 -1 1.45 0.25
9 10 1 1.25 0.23
-9 -10 1 1.58 0.27
-10 -10 -1 2.98 0.34
-10 -10 -1 2.69 0.38
10 10 -1 2.77 0.34
10 10 1 2.59 0.32
-10 -10 1 2.69 0.4
-10 -10 1 2.91 0.35
11 10 -1 0.46 0.22
-11 -10 -1 0.33 0.22
-11 -10 1 0.92 0.25
-11 -10 1 0.37 0.28
-12 -10 -1 0.68 0.31
-12 -10 1 0 0.26
0 -11 1 57.05 2
0 -11 -1 57.45 2
0 -11 1 50.63 2.09
0 -11 -1 49.67 2.09
-1 -11 -1 4.6 0.3
-1 -11 -1 4.46 0.24
1 -11 1 4.41 0.28
1 -11 1 4.56 0.18
1 -11 -1 4.51 0.19
1 -11 -1 3.7 0.28
-1 -11 1 4.29 0.29
-1 -11 1 4.88 0.24
-2 -11 -1 9.99 0.51
2 -11 1 9.82 0.49
-2 -11 -1 10.15 0.46
-2 -11 1 9.88 0.51
2 -11 -1 10.5 0.37
2 -11 -1 10.14 0.5
-2 -11 1 9.41 0.45
3 -11 1 22.73 0.93
-3 -11 -1 22.33 0.95
-3 -11 -1 21.84 0.91
3 -11 -1 21.13 0.93
-3 -11 1 20.96 0.91
-3 -11 1 23.02 0.97
-4 -11 -1 40.54 1.67
4 -11 1 42.48 1.66
-4 -11 -1 41.33 1.64
-4 -11 1 42.61 1.69
4 -11 -1 41.78 1.67
-4 -11 1 40.48 1.64
5 11 -1 0.8 0.19
5 -11 1 0.39 0.14
-5 -11 -1 0.73 0.18
-5 -11 -1 0.72 0.18
-5 -11 1 0.76 0.16
5 -11 -1 0.78 0.17
-5 -11 1 0.71 0.16
6 11 -1 4.83 0.37
6 -11 1 4.68 0.33
-6 -11 -1 4.74 0.36
-6 -11 -1 4.57 0.37
-6 -11 1 4.61 0.34
6 -11 -1 5.03 0.36
-6 -11 1 4.96 0.38
7 -11 1 4.99 0.35
-7 -11 -1 4.02 0.35
7 11 -1 4.78 0.37
-7 -11 -1 3.75 0.38
-7 -11 1 4.52 0.39
-7 -11 1 4.2 0.36
7 -11 -1 3.97 0.34
8 11 -1 -0.03 0.16
-8 -11 -1 0.08 0.16
-8 -11 -1 0.16 0.19
8 11 1 0.36 0.17
-8 -11 1 0.12 0.17
8 -11 -1 0.28 0.18
-8 -11 1 0.29 0.22
-9 -11 -1 0.65 0.25
-9 -11 -1 0.02 0.17
9 11 -1 0.05 0.18
-9 -11 1 0.39 0.2
-9 -11 1 0.45 0.21
9 11 1 0.59 0.21
-10 -11 -1 -0.21 0.21
10 11 -1 -0.13 0.16
-10 -11 -1 0.05 0.18
-10 -11 1 0.24 0.25
10 11 1 0.05 0.18
-10 -11 1 0.06 0.2
11 11 -1 1.64 0.3
-11 -11 -1 2.46 0.4
-11 -11 1 2.07 0.39
-11 -11 1 1.49 0.31
-12 -11 -1 0.16 0.28
-12 -11 1 0.21 0.29
0 -12 1 2.67 0.26
0 -12 -1 3.15 0.17
0 -12 1 3.16 0.17
0 -12 -1 2.52 0.25
1 -12 1 0.98 0.15
-1 -12 -1 1.35 0.14
-1 -12 -1 1.29 0.17
1 -12 1 1.23 0.07
1 -12 -1 1.23 0.18
-1 -12 1 0.9 0.17
1 -12 -1 1.09 0.08
-1 -12 1 1.2 0.13
2 -12 1 2.73 0.23
-2 -12 -1 2.23 0.24
-2 -12 -1 1.81 0.18
-2 -12 1 2.49 0.19
2 -12 -1 2.28 0.23
-2 -12 1 2.41 0.25
3 -12 1 23.56 0.99
-3 -12 -1 23.89 0.97
-3 -12 -1 23.5 1.02
3 -12 -1 23.45 1
-3 -12 1 22.89 1.01
-3 -12 1 22.67 0.96
4 -12 1 5.03 0.33
-4 -12 -1 4.44 0.33
-4 -12 -1 5.3 0.34
4 -12 -1 4.99 0.34
-4 -12 1 5.18 0.34
-4 -12 1 5.07 0.37
-5 -12 -1 16.41 0.77
-5 -12 -1 15.57 0.77
5 -12 1 16.66 0.76
-5 -12 1 16.64 0.77
-5 -12 1 17.52 0.81
5 -12 -1 16.48 0.78
-6 -12 -1 18.14 0.85
6 -12 1 18.84 0.84
6 12 -1 18.46 0.87
-6 -12 -1 16.93 0.85
-6 -12 1 18.15 0.86
-6 -12 1 17.76 0.86
6 -12 -1 18.09 0.85
-7 -12 -1 12.99 0.72
-7 -12 -1 14.46 0.75
7 -12 1 15.38 0.72
7 12 -1 14.81 0.74
-7 -12 1 13.82 0.74
7 -12 -1 14.95 0.74
-7 -12 1 14.37 0.74
-8 -12 -1 1.16 0.27
8 12 -1 0.97 0.23
-8 -12 -1 1.59 0.26
-8 -12 1 1.09 0.24
8 -12 -1 0.77 0.2
-8 -12 1 1.01 0.23
9 12 -1 1.76 0.29
-9 -12 -1 2.41 0.36
-9 -12 -1 2.1 0.3
-9 -12 1 2.38 0.33
-9 -12 1 2.1 0.35
-10 -12 -1 1.08 0.25
-10 -12 -1 1.1 0.31
10 12 -1 0.94 0.24
-10 -12 1 1.13 0.27
-10 -12 1 1.05 0.31
-11 -12 -1 -0.55 0.22
11 12 -1 -0.02 0.19
-11 -12 1 0.2 0.28
-11 -12 1 0.13 0.22
-12 -12 -1 -0.28 0.27
-12 -12 1 0.23 0.3
0 -13 1 5.23 0.24
0 -13 1 4.87 0.32
0 -13 -1 4.32 0.33
0 -13 -1 5.07 0.24
-1 -13 -1 12.94 0.64
1 -13 1 12 0.61
-1 -13 -1 13.78 0.56
-1 -13 1 14.18 0.57
-1 -13 1 13.03 0.63
1 -13 -1 12.78 0.62
-2 -13 -1 10.02 0.45
-2 -13 -1 9.01 0.51
2 -13 1 8.89 0.48
2 -13 -1 8.19 0.47
-2 -13 1 9.79 0.44
-2 -13 1 8.96 0.49
3 -13 1 2.96 0.27
-3 -13 -1 4 0.27
-3 -13 -1 3.44 0.28
3 -13 -1 3.22 0.29
-3 -13 1 4.43 0.34
-3 -13 1 3.33 0.26
-4 -13 -1 29.27 1.31
4 -13 1 30.99 1.28
-4 -13 -1 30 1.26
-4 -13 1 31.24 1.27
-4 -13 1 31.96 1.32
4 -13 -1 31.43 1.3
5 -13 1 3.09 0.29
-5 -13 -1 2.71 0.3
-5 -13 -1 3.2 0.3
5 -13 -1 2.33 0.27
-5 -13 1 2.56 0.3
-5 -13 1 2.46 0.27
6 -13 1 0.62 0.17
-6 -13 -1 0.43 0.18
-6 -13 -1 0.49 0.19
-6 -13 1 0.41 0.15
-6 -13 1 0.31 0.18
6 -13 -1 0.45 0.16
-7 -13 -1 1.61 0.26
-7 -13 -1 1.16 0.25
7 -13 1 1.33 0.22
-7 -13 1 1.1 0.25
-7 -13 1 1.23 0.25
7 -13 -1 0.97 0.21
8 13 -1 3.41 0.37
-8 -13 -1 2.98 0.35
-8 -13 -1 3.72 0.4
-8 -13 1 3.94 0.42
-8 -13 1 3.17 0.37
8 -13 -1 3.2 0.36
9 13 -1 1.04 0.26
-9 -13 -1 0.74 0.24
-9 -13 -1 0.86 0.28
-9 -13 1 1.13 0.29
-9 -13 1 0.6 0.24
10 13 -1 1.06 0.27
-10 -13 -1 1.23 0.33
-10 -13 -1 1.18 0.28
-10 -13 1 1.49 0.3
-10 -13 1 0.58 0.27
-11 -13 -1 0.23 0.28
-11 -13 1 0.07 0.26
-11 -13 1 0.22 0.23
0 -14 1 4.95 0.36
0 -14 -1 5.37 0.37
0 -14 -1 5.76 0.27
-1 -14 -1 13.71 0.55
-1 -14 -1 10.78 0.6
1 -14 1 11.97 0.61
-1 -14 1 10.27 0.6
-1 -14 1 14.03 0.55
1 -14 -1 12.52 0.62
2 -14 1 3.76 0.3
-2 -14 -1 4.07 0.27
-2 -14 -1 3.93 0.31
-2 -14 1 4.03 0.26
-2 -14 1 3.65 0.3
2 -14 -1 3.84 0.31
3 -14 1 18.04 0.83
-3 -14 -1 19.69 0.8
-3 -14 -1 17.53 0.84
3 -14 -1 15.62 0.82
-3 -14 1 19.27 0.86
-3 -14 1 19.4 0.8
4 -14 1 11.74 0.59
-4 -14 -1 11.08 0.57
-4 -14 -1 11.95 0.62
-4 -14 1 11.92 0.64
-4 -14 1 11.02 0.58
4 -14 -1 11.74 0.6
-5 -14 -1 2.93 0.29
-5 -14 -1 2.98 0.33
5 -14 1 3.24 0.31
-5 -14 1 2.92 0.32
5 -14 -1 2.87 0.3
-5 -14 1 3.19 0.31
-6 -14 -1 1.21 0.23
6 -14 1 1.97 0.26
-6 -14 -1 1.33 0.25
6 -14 -1 1.47 0.24
-6 -14 1 1.87 0.26
-6 -14 1 1.62 0.25
-7 -14 -1 1.29 0.25
-7 -14 -1 1.07 0.22
7 -14 1 1.01 0.21
7 -14 -1 1.54 0.27
-7 -14 1 1.26 0.26
-7 -14 1 1.22 0.27
-8 -14 -1 2.25 0.29
-8 -14 -1 1.81 0.31
-8 -14 1 2.54 0.34
-8 -14 1 1.61 0.27
8 -14 -1 2.16 0.32
-9 -14 -1 1.25 0.31
-9 -14 -1 0.65 0.25
-9 -14 1 1.18 0.29
-9 -14 1 1.17 0.3
-10 -14 -1 1.37 0.3
-10 -14 -1 1.23 0.31
-10 -14 1 1.27 0.31
-10 -14 1 0.6 0.31
-11 -14 -1 1.14 0.31
-11 -14 1 1.16 0.36
-11 -14 1 1.79 0.34
0 -15 -1 4.04 0.33
0 -15 1 3.2 0.28
-1 -15 -1 3.66 0.35
1 -15 1 3.59 0.32
-1 -15 -1 4.58 0.27
-1 -15 1 5.1 0.37
1 -15 -1 4.11 0.33
2 -15 1 5.66 0.38
-2 -15 -1 5.69 0.41
-2 -15 -1 6.17 0.35
-2 -15 1 6.29 0.34
2 -15 -1 5.65 0.39
-2 -15 1 5.93 0.39
3 -15 1 0.22 0.15
-3 -15 -1 0.39 0.19
-3 -15 -1 0.39 0.13
-3 -15 1 0.28 0.14
-3 -15 1 0.22 0.13
3 -15 -1 0.42 0.14
-4 -15 -1 7.24 0.48
4 -15 1 7.2 0.45
-4 -15 -1 8.08 0.44
-4 -15 1 8.29 0.51
4 -15 -1 7.61 0.47
-4 -15 1 7.32 0.43
-5 -15 -1 3.94 0.37
-5 -15 -1 3.4 0.31
5 -15 1 2.87 0.3
5 -15 -1 3.61 0.35
-5 -15 1 3.47 0.37
-5 -15 1 3.36 0.32
-6 -15 -1 0.63 0.22
6 -15 1 1.18 0.22
-6 -15 -1 0.97 0.22
6 -15 -1 0.97 0.22
-6 -15 1 0.93 0.25
-6 -15 1 0.59 0.2
-7 -15 -1 -0.03 0.19
7 -15 1 0.2 0.16
-7 -15 -1 -0.07 0.18
7 -15 -1 0.17 0.17
-7 -15 1 -0.09 0.17
-7 -15 1 0.21 0.17
-8 -15 -1 1.9 0.32
-8 -15 -1 2.16 0.33
8 -15 -1 1.82 0.3
-8 -15 1 1.95 0.33
-8 -15 1 2.17 0.34
-9 -15 -1 2.13 0.36
-9 -15 -1 2.19 0.34
-9 -15 1 2.43 0.36
-9 -15 1 2.18 0.37
-10 -15 -1 0.7 0.26
-10 -15 -1 0.45 0.25
-10 -15 1 0.38 0.25
-10 -15 1 0.7 0.3
-11 -15 -1 2.38 0.43
-11 -15 1 2.78 0.47
-11 -15 1 3.05 0.42
0 -16 -1 5.68 0.41
0 -16 1 6.45 0.42
-1 -16 -1 0.65 0.19
1 -16 1 0.75 0.19
-1 -16 1 0.55 0.19
1 -16 -1 0.62 0.16
-2 -16 -1 1.43 0.19
2 -16 1 1.58 0.21
-2 -16 -1 1.37 0.25
2 -16 -1 1.3 0.22
-2 -16 1 1.33 0.22
-3 -16 -1 1.5 0.21
3 -16 1 1.24 0.22
-3 -16 -1 1.21 0.24
-3 -16 1 1.78 0.21
3 -16 -1 1.2 0.2
-3 -16 1 1.44 0.23
4 -16 1 0.37 0.17
-4 -16 -1 0.86 0.23
-4 -16 -1 1.06 0.19
-4 -16 1 0.68 0.19
-4 -16 1 0.47 0.18
4 -16 -1 0.65 0.19
-5 -16 -1 2.49 0.28
-5 -16 -1 2.27 0.31
5 -16 1 2.52 0.29
5 -16 -1 2.83 0.32
-5 -16 1 2.61 0.28
-5 -16 1 2.77 0.35
-6 -16 -1 2.51 0.31
6 -16 1 3.03 0.34
-6 -16 -1 2.94 0.36
6 -16 -1 2.98 0.34
-6 -16 1 2.85 0.32
-6 -16 1 3.26 0.38
-7 -16 -1 0.99 0.25
7 -16 1 0.96 0.23
-7 -16 -1 1.13 0.28
-7 -16 1 0.93 0.27
7 -16 -1 1.16 0.26
-7 -16 1 0.99 0.25
-8 -16 -1 -0.06 0.21
-8 -16 -1 0.26 0.22
-8 -16 1 0.29 0.23
8 -16 -1 0.45 0.22
-8 -16 1 -0.06 0.22
-9 -16 -1 0.45 0.25
-9 -16 -1 -0.04 0.21
-9 -16 1 -0.13 0.17
-9 -16 1 0.03 0.22
-10 -16 -1 0.1 0.24
-10 -16 -1 0.8 0.31
-10 -16 1 0.23 0.26
-10 -16 1 0.26 0.25
-11 -16 1 0.08 0.27
0 -17 1 6.21 0.44
0 -17 -1 6.28 0.44
-1 -17 -1 1.16 0.22
1 -17 1 1.27 0.23
1 -17 -1 1 0.22
-1 -17 1 2.13 0.29
-2 -17 -1 0.82 0.22
2 -17 1 1.32 0.23
-2 -17 1 0.67 0.22
2 -17 -1 1.24 0.23
3 -17 1 1.29 0.23
-3 -17 -1 1.36 0.26
-3 -17 -1 1.48 0.2
-3 -17 1 1.58 0.25
3 -17 -1 1.75 0.26
-4 -17 -1 2.56 0.33
4 -17 1 2.17 0.28
-4 -17 -1 2.55 0.28
4 -17 -1 2.27 0.3
-4 -17 1 2.5 0.31
-4 -17 1 2.36 0.26
-5 -17 -1 1.18 0.26
5 -17 1 1.56 0.25
-5 -17 -1 1.37 0.22
5 -17 -1 1 0.23
-5 -17 1 1.22 0.28
-5 -17 1 1.22 0.23
-6 -17 -1 0.71 0.25
6 -17 1 0.83 0.21
-6 -17 -1 1.13 0.23
-6 -17 1 1.24 0.29
6 -17 -1 1.49 0.27
-6 -17 1 1.5 0.26
-7 -17 -1 0.97 0.28
-7 -17 -1 0.68 0.24
-7 -17 1 0.96 0.25
-7 -17 1 1.05 0.29
7 -17 -1 0.9 0.24
-8 -17 -1 2.95 0.38
-8 -17 -1 3.74 0.42
-8 -17 1 3.64 0.41
-8 -17 1 3.51 0.44
-9 -17 -1 0.25 0.25
-9 -17 -1 0.25 0.25
-9 -17 1 0.09 0.24
-9 -17 1 0.48 0.26
-10 -17 -1 1.19 0.31
-10 -17 -1 1.34 0.34
-10 -17 1 1.44 0.34
-10 -17 1 1.23 0.34
0 -18 -1 0.61 0.21
0 -18 1 0.3 0.15
1 -18 1 1.5 0.23
-1 -18 -1 1.23 0.26
1 -18 -1 1.37 0.25
-1 -18 1 1.23 0.26
-2 -18 -1 1.33 0.27
2 -18 1 1.48 0.25
2 -18 -1 1.17 0.24
-2 -18 1 1.72 0.29
-3 -18 -1 0.28 0.17
3 -18 1 0.41 0.19
-3 -18 1 0.38 0.18
3 -18 -1 0.61 0.21
4 -18 1 2.67 0.32
-4 -18 -1 3.5 0.32
-4 -18 -1 3.49 0.38
-4 -18 1 2.79 0.37
4 -18 -1 3.41 0.36
5 -18 1 0.62 0.2
-5 -18 -1 1.26 0.29
-5 -18 -1 1.07 0.24
5 -18 -1 1.15 0.25
-5 -18 1 1.19 0.29
-5 -18 1 0.92 0.23
-6 -18 -1 3.88 0.43
6 -18 1 4.33 0.42
-6 -18 -1 3.47 0.36
6 -18 -1 3.96 0.42
-6 -18 1 3.36 0.4
-6 -18 1 3.25 0.36
-7 -18 -1 -0.42 0.16
-7 -18 -1 0.1 0.23
-7 -18 1 -0.11 0.19
7 -18 -1 -0.12 0.22
-7 -18 1 0.1 0.24
-8 -18 -1 0.35 0.25
-8 -18 -1 -0.35 0.2
-8 -18 1 0.16 0.26
-8 -18 1 0.02 0.21
-9 -18 -1 1.22 0.31
-9 -18 -1 1.6 0.33
-9 -18 1 1.8 0.35
-9 -18 1 1.7 0.34
-10 -18 -1 0.59 0.29
-10 -18 -1 0.93 0.32
-10 -18 1 0.21 0.28
-10 -18 1 0.94 0.32
0 -19 -1 0.24 0.21
0 -19 1 0.23 0.2
-1 -19 -1 5.39 0.45
1 -19 1 5.8 0.42
-1 -19 1 5.41 0.42
1 -19 -1 6.01 0.45
-2 -19 -1 1.97 0.32
2 -19 1 2.47 0.32
-2 -19 1 2.19 0.34
2 -19 -1 2.8 0.34
-3 -19 -1 1.7 0.31
3 -19 1 1.62 0.27
-3 -19 1 1.84 0.3
3 -19 -1 1.4 0.27
-4 -19 -1 2.83 0.39
4 -19 1 2.61 0.33
4 -19 -1 2.63 0.35
-4 -19 1 2.74 0.38
5 -19 1 1.13 0.24
-5 -19 -1 1.87 0.34
5 -19 -1 1.61 0.28
-5 -19 1 1.45 0.32
-6 -19 -1 0.18 0.2
6 -19 1 0.48 0.21
-6 -19 -1 0.4 0.26
6 -19 -1 0.24 0.21
-6 -19 1 0.38 0.21
-6 -19 1 0.32 0.2
-7 -19 -1 1.9 0.31
-7 -19 -1 2.6 0.39
7 -19 -1 2.29 0.35
-7 -19 1 1.95 0.32
-7 -19 1 2.41 0.39
-8 -19 -1 -0.16 0.22
-8 -19 -1 0.27 0.27
-8 -19 1 0.24 0.28
-8 -19 1 0.26 0.23
-9 -19 -1 1.64 0.33
-9 -19 -1 1.53 0.35
-9 -19 1 1.41 0.33
-9 -19 1 1.42 0.37
0 -20 -1 0.03 0.16
0 -20 1 0.63 0.24
1 -20 1 2.77 0.36
-1 -20 -1 2.96 0.36
-1 -20 1 3.27 0.4
1 -20 -1 3.2 0.38
2 -20 1 2.93 0.35
-2 -20 -1 2.96 0.39
2 -20 -1 2.32 0.34
-2 -20 1 2.55 0.37
3 -20 1 -0.03 0.18
-3 -20 -1 0.34 0.24
3 -20 -1 0.32 0.21
-3 -20 1 0.17 0.25
-4 -20 -1 0.24 0.27
4 -20 1 0.17 0.2
-4 -20 1 0.75 0.24
4 -20 -1 0.53 0.23
-5 -20 -1 2.46 0.39
5 -20 1 1.89 0.31
5 -20 -1 1.36 0.29
-5 -20 1 1.34 0.32
-6 -20 -1 0.16 0.26
6 -20 1 -0.05 0.18
-6 -20 1 -0.11 0.24
6 -20 -1 -0.04 0.18
-7 -20 -1 0.04 0.26
-7 -20 -1 -0.26 0.2
-7 -20 1 0.31 0.27
7 -20 -1 0.31 0.25
-8 -20 -1 -0.29 0.21
-8 -20 -1 0.76 0.3
-8 -20 1 0.13 0.27
-8 -20 1 0.46 0.26
-9 -20 -1 0.7 0.32
-9 -20 -1 0.27 0.27
-9 -20 1 0.2 0.29
0 -21 -1 1.5 0.29
0 -21 1 1.39 0.27
1 -21 1 0.92 0.27
-1 -21 -1 1.42 0.32
-1 -21 1 0.81 0.23
1 -21 -1 0.49 0.25
-2 -21 -1 0.28 0.25
2 -21 1 0.08 0.16
-2 -21 1 0.52 0.27
2 -21 -1 0.08 0.21
-3 -21 -1 0.61 0.28
3 -21 1 0.95 0.25
3 -21 -1 0.74 0.26
-3 -21 1 0.82 0.3
-4 -21 -1 3.39 0.44
4 -21 1 2.71 0.36
-4 -21 1 4.15 0.46
4 -21 -1 3.1 0.39
-5 -21 -1 1.08 0.32
5 -21 1 1.02 0.27
-5 -21 1 1.12 0.33
5 -21 -1 1.21 0.29
-6 -21 -1 1.66 0.36
6 -21 1 1.51 0.32
6 -21 -1 2.04 0.37
-6 -21 1 2.2 0.36
-7 -21 -1 0.05 0.27
-7 -21 1 0.2 0.29
-8 -21 -1 1.66 0.37
-8 -21 1 1.73 0.38
0 -22 -1 7.51 0.59
0 -22 1 7.34 0.57
-1 -22 -1 2.25 0.37
1 -22 1 2.22 0.35
-1 -22 1 1.94 0.36
1 -22 -1 2.17 0.36
-2 -22 -1 0.22 0.26
2 -22 1 0.35 0.19
2 -22 -1 0.47 0.26
-2 -22 1 0.64 0.28
-3 -22 -1 2.08 0.37
3 -22 1 1.86 0.32
-3 -22 1 1.77 0.37
3 -22 -1 2.36 0.36
-4 -22 -1 -0.19 0.19
4 -22 1 -0.04 0.19
-4 -22 1 -0.25 0.25
4 -22 -1 0.08 0.21
5 -22 1 0.78 0.25
-5 -22 -1 0.9 0.32
5 -22 -1 1.21 0.29
-5 -22 1 0.18 0.29
-6 -22 -1 0.17 0.27
-6 -22 1 0.51 0.26
6 -22 -1 0.76 0.27
-7 -22 -1 0.67 0.32
-7 -22 1 0.27 0.32
0 -23 -1 0.64 0.28
0 -23 1 0.82 0.31
1 -23 1 0.21 0.25
-1 -23 -1 0.19 0.21
-1 -23 1 -0.01 0.18
1 -23 -1 0.01 0.25
-2 -23 -1 4.06 0.49
2 -23 1 3.86 0.43
-2 -23 1 3.39 0.45
2 -23 -1 3.32 0.44
-3 -23 -1 1.06 0.28
3 -23 1 1.15 0.28
3 -23 -1 0.86 0.28
-3 -23 1 0.99 0.27
4 -23 1 0.48 0.25
-4 -23 -1 0.69 0.32
-4 -23 1 0.8 0.33
4 -23 -1 0.73 0.27
-5 -23 -1 4.3 0.53
5 -23 1 3.67 0.44
-5 -23 1 3.63 0.51
5 -23 -1 3.28 0.45
-6 -23 -1 0.46 0.26
-6 -23 1 0.19 0.3
6 -23 -1 0.23 0.23
0 -24 1 0.22 0.22
0 -24 -1 -0.08 0.24
1 -24 1 0.98 0.3
-1 -24 -1 0.4 0.31
-1 -24 1 0.81 0.31
1 -24 -1 0.36 0.28
2 -24 1 0.51 0.27
-2 -24 -1 0.64 0.31
-2 -24 1 0.43 0.31
2 -24 -1 1.07 0.32
3 -24 1 4.94 0.51
-3 -24 -1 4.29 0.52
-3 -24 1 4.51 0.54
3 -24 -1 4.79 0.52
4 -24 1 0.51 0.28
-4 -24 -1 -0.03 0.28
4 -24 -1 0.73 0.28
-4 -24 1 1.03 0.34
5 -24 1 0.73 0.27
5 -24 -1 0.43 0.26
6 -24 -1 -0.13 0.22
0 -25 1 0.02 0.27
0 -25 -1 0.09 0.21
-1 -25 -1 -0.01 0.28
1 -25 1 0.08 0.25
1 -25 -1 0.04 0.26
-1 -25 1 0.11 0.23
2 -25 1 0.21 0.26
-2 -25 -1 -0.23 0.26
2 -25 -1 -0.1 0.25
-2 -25 1 0.11 0.22
3 -25 1 0.38 0.27
-3 -25 1 0.39 0.32
3 -25 -1 0.71 0.29
4 -25 1 0.52 0.27
4 -25 -1 0.83 0.29
0 0 -2 97.25 4.07
0 0 -2 126.17 4.14
1 0 -2 20.38 0.75
-1 0 -2 18.59 0.73
1 0 -2 19.37 0.73
2 0 2 1000 34.27
-2 0 2 889.58 33.82
-2 0 -2 928.34 33.86
2 0 -2 909.94 34.37
-3 0 2 80.76 2.97
-3 0 -2 79.06 2.96
3 0 -2 80.98 3.01
3 0 2 79.81 2.97
-4 0 2 2.79 0.19
4 0 -2 2.42 0.19
4 0 2 2.79 0.16
-4 0 -2 2.81 0.19
-5 0 2 1.17 0.16
5 0 2 0.99 0.12
-5 0 -2 1.37 0.16
5 0 -2 0.98 0.14
6 0 -2 78.01 2.99
6 0 2 79.2 2.96
-6 0 -2 79.28 2.96
-6 0 2 77.11 2.97
7 0 2 5.63 0.32
-7 0 -2 5.93 0.37
-7 0 2 6.52 0.39
7 0 -2 5.87 0.35
8 0 -2 42.64 1.77
8 0 2 46.44 1.74
-8 0 2 42.22 1.78
-8 0 -2 45.16 1.77
-9 0 2 1.4 0.24
9 0 2 1.6 0.19
9 0 -2 1.07 0.19
-9 0 -2 1.3 0.23
-10 0 -2 2.09 0.29
10 0 -2 1.83 0.25
-10 0 2 2.02 0.29
11 0 -2 -0.03 0.17
-11 0 -2 -0.05 0.17
-11 0 2 -0.02 0.19
-12 0 -2 -0.01 0.19
-12 0 2 -0.17 0.17
-13 0 -2 -0.07 0.2
-13 0 2 0.03 0.21
-14 0 2 -0.31 0.22
-14 0 -2 0.1 0.23
0 -1 -2 11.73 0.45
0 1 -2 12.03 0.46
0 1 -2 12.4 0.45
0 -1 -2 11.91 0.46
-1 -1 -2 55.34 2.1
1 1 -2 58.73 2.09
1 1 -2 58.08 2.13
-1 -1 -2 55.95 2.09
1 -1 -2 54.58 2.12
1 -1 -2 56.74 2.08
-1 1 -2 57.42 2.08
-2 -1 -2 79.88 2.94
2 -1 2 82.68 2.95
2 1 -2 83.83 2.99
-2 -1 -2 81.33 2.96
-2 -1 2 80.34 2.95
2 -1 -2 77.97 2.94
2 -1 -2 77.97 2.99
-2 1 -2 76.95 2.93
2 1 2 80.29 2.96
-3 1 2 137.46 4.95
3 1 -2 134.67 5.03
3 -1 2 133.02 4.99
-3 -1 -2 140.2 4.96
-3 1 -2 136.16 4.94
-3 -1 2 134.43 4.96
3 1 2 135.39 5
3 -1 -2 131.71 5.03
-4 1 2 1.88 0.16
-4 -1 -2 1.68 0.17
4 -1 2 1.6 0.13
4 1 -2 1.42 0.16
-4 -1 2 1.77 0.15
-4 1 -2 2.02 0.16
4 1 2 2 0.13
4 -1 -2 2.21 0.17
5 1 -2 7.55 0.37
5 -1 2 6.78 0.33
-5 1 2 7.04 0.37
-5 -1 -2 6.98 0.37
5 1 2 7.17 0.34
-5 -1 2 7.36 0.39
-5 1 -2 6.58 0.36
5 -1 -2 7.38 0.37
-6 1 2 34.18 1.35
-6 -1 -2 33.42 1.35
6 1 -2 31.98 1.35
6 -1 2 34.43 1.31
6 1 2 32.38 1.31
-6 1 -2 33.49 1.33
-6 -1 2 34.02 1.36
6 -1 -2 34.09 1.35
7 -1 2 6.41 0.34
-7 1 2 6.01 0.39
-7 -1 -2 6.48 0.4
7 1 -2 6.17 0.38
-7 -1 2 6.66 0.41
7 1 2 7.26 0.35
7 -1 -2 6.37 0.37
-7 1 -2 7.2 0.39
-8 1 2 5.83 0.38
8 -1 2 5.28 0.31
8 1 -2 4.73 0.34
-8 -1 -2 5.28 0.38
-8 1 -2 5.74 0.37
8 1 2 5.06 0.31
-8 -1 2 4.97 0.36
8 -1 -2 5.02 0.34
-9 1 2 9.21 0.53
9 1 -2 9.38 0.51
-9 -1 -2 8.41 0.52
9 1 2 9.19 0.47
-9 -1 2 8.46 0.53
-9 1 -2 8.19 0.5
9 -1 -2 8.73 0.49
10 1 -2 0.67 0.19
-10 1 2 0.56 0.19
-10 -1 -2 0.34 0.19
-10 -1 2 0.53 0.21
-10 1 -2 0.53 0.19
10 -1 -2 0.74 0.2
-11 -1 -2 1.16 0.25
11 1 -2 1.07 0.24
-11 1 2 1.22 0.26
-11 -1 2 0.61 0.24
-11 1 -2 1.01 0.23
-12 -1 -2 0.17 0.2
-12 1 2 0.16 0.2
-12 -1 2 0.18 0.22
-12 1 -2 0.11 0.19
-13 1 2 1.05 0.29
-13 -1 -2 0.95 0.28
-13 -1 2 1.14 0.3
-13 1 -2 1.04 0.27
-14 -1 -2 -0.22 0.2
-14 -1 2 -0.29 0.22
0 -2 -2 8.7 0.37
0 -2 -2 7.68 0.35
0 -2 2 8.67 0.36
0 2 -2 8.92 0.35
0 2 -2 8.65 0.36
1 2 -2 49.05 1.81
1 2 -2 48.77 1.84
-1 -2 -2 52.16 1.81
-1 -2 -2 50.43 1.83
1 -2 2 49.53 1.82
1 -2 -2 47.52 1.8
-1 2 -2 48.19 1.79
1 -2 -2 48.09 1.84
-2 -2 -2 51.27 1.98
2 2 -2 55.16 2.01
-2 -2 -2 53.04 1.99
2 -2 2 52.87 1.97
-2 2 -2 54.28 1.96
2 -2 -2 52.64 2.01
2 -2 -2 53.93 1.96
-2 -2 2 52.58 1.98
2 2 2 53.45 1.99
-3 2 2 7.47 0.33
-3 -2 -2 7.42 0.32
-3 -2 -2 7.46 0.34
3 -2 2 6.89 0.3
3 2 -2 7.62 0.35
-3 -2 2 7.46 0.35
3 2 2 7.36 0.32
-3 2 -2 7.23 0.32
3 -2 -2 6.96 0.34
4 2 -2 90.19 3.37
-4 2 2 91.23 3.31
4 -2 2 89.02 3.33
-4 -2 -2 90.19 3.33
-4 -2 2 88.32 3.33
4 -2 -2 89.82 3.37
4 2 2 89.79 3.34
-4 2 -2 86.88 3.3
5 2 -2 88.37 3.34
5 -2 2 88.12 3.29
-5 2 2 85.88 3.28
-5 -2 -2 88.66 3.3
5 -2 -2 87.71 3.33
5 2 2 89.24 3.3
-5 -2 2 88.68 3.31
-5 2 -2 87.66 3.27
-6 2 2 18.34 0.8
6 -2 2 19.1 0.77
-6 -2 -2 18.4 0.82
6 2 -2 19.47 0.81
6 -2 -2 18.04 0.8
-6 -2 2 19.34 0.83
6 2 2 18.13 0.77
-6 2 -2 17.84 0.78
-7 -2 -2 8.15 0.46
7 2 -2 8.22 0.43
7 -2 2 7.94 0.39
-7 2 2 7.49 0.43
7 -2 -2 7.21 0.41
-7 2 -2 6.94 0.41
7 2 2 8.22 0.4
-7 -2 2 7.38 0.46
8 -2 2 16.72 0.73
8 2 -2 17.43 0.78
-8 -2 -2 15.76 0.79
-8 2 2 17.9 0.79
-8 -2 2 15.78 0.81
-8 2 -2 16.4 0.76
8 -2 -2 16.16 0.76
8 2 2 17.52 0.74
9 2 -2 2.13 0.26
-9 2 2 2.22 0.27
-9 -2 -2 2.24 0.29
-9 -2 2 2.37 0.3
9 2 2 2.54 0.24
9 -2 -2 2.59 0.27
-9 2 -2 2.01 0.25
-10 -2 -2 2.14 0.3
10 2 -2 2.21 0.28
-10 2 2 1.93 0.27
10 -2 -2 2.17 0.27
-10 2 -2 2.12 0.27
-10 -2 2 2.59 0.33
11 2 -2 0.15 0.16
-11 -2 -2 0.22 0.16
-11 2 2 -0.15 0.17
-11 2 -2 -0.11 0.14
-11 -2 2 -0.11 0.19
-12 2 2 0.28 0.2
-12 -2 -2 0.68 0.24
-12 2 -2 0.26 0.2
-12 -2 2 0.28 0.23
-13 -2 -2 3.81 0.47
-13 2 2 4.14 0.45
-13 -2 2 4.94 0.52
-14 -2 -2 0.05 0.24
0 3 -2 4.2 0.19
0 -3 -2 4.29 0.19
0 3 -2 4.08 0.18
0 -3 2 4.06 0.19
0 -3 -2 4.16 0.18
1 3 -2 85.95 3.18
1 -3 2 86.49 3.16
-1 -3 -2 84.78 3.12
-1 -3 -2 85.93 3.17
-1 -3 2 88.22 3.13
-1 3 -2 83.33 3.1
1 -3 -2 82.56 3.17
1 -3 -2 86.31 3.11
2 -3 2 164.86 6.1
2 3 -2 167.93 6.14
-2 -3 -2 165.34 6.04
-2 -3 -2 163.63 6.12
2 -3 -2 168.54 6.02
-2 -3 2 165.68 6.05
-2 3 -2 166.84 6.01
2 -3 -2 166.4 6.13
2 3 2 163.32 6.12
-3 -3 -2 20.34 0.83
3 3 -2 20.92 0.86
3 -3 2 21.67 0.82
-3 3 2 20.66 0.82
-3 -3 -2 21.12 0.84
3 -3 -2 21.31 0.85
3 3 2 21.17 0.83
-3 -3 2 21.22 0.85
-3 3 -2 21.49 0.81
-4 -3 -2 31.74 1.24
-4 3 2 32.97 1.24
-4 -3 -2 32.19 1.26
4 3 -2 33.48 1.28
4 -3 2 32.66 1.23
-4 3 -2 31.25 1.22
4 3 2 31.9 1.24
4 -3 -2 30.74 1.26
-4 -3 2 31.3 1.27
5 -3 2 39.45 1.52
-5 3 2 39.81 1.53
5 3 -2 40.34 1.56
-5 -3 -2 40.54 1.56
5 3 2 38.83 1.53
-5 -3 2 40.97 1.57
5 -3 -2 38.04 1.55
-5 3 -2 38.49 1.51
6 -3 2 20.97 0.85
-6 3 2 20.14 0.87
6 3 -2 21.22 0.9
-6 -3 -2 20.81 0.9
-6 3 -2 19.6 0.86
-6 -3 2 21.32 0.92
6 -3 -2 20.97 0.89
6 3 2 22.24 0.87
7 -3 2 33.83 1.3
-7 -3 -2 33.25 1.36
-7 3 2 31.85 1.32
7 3 -2 33.97 1.35
7 -3 -2 31.82 1.34
-7 3 -2 31.73 1.31
7 3 2 32.27 1.31
-7 -3 2 33.62 1.38
-8 3 2 3.08 0.29
-8 -3 -2 2.95 0.31
8 3 -2 2.84 0.29
8 -3 2 3.73 0.25
-8 3 -2 3.23 0.27
-8 -3 2 2.93 0.33
8 -3 -2 3.18 0.28
8 3 2 3.28 0.26
9 3 -2 1.44 0.22
-9 3 2 1.1 0.21
-9 -3 -2 0.99 0.23
9 3 2 1.38 0.19
-9 -3 2 1.21 0.22
9 -3 -2 1.7 0.22
-9 3 -2 1.11 0.21
-10 -3 -2 0.5 0.2
-10 3 2 0.22 0.16
10 3 -2 0.4 0.17
-10 -3 2 0.78 0.23
10 -3 -2 0.35 0.16
-10 3 -2 0.07 0.14
11 3 -2 0.08 0.16
-11 -3 -2 0.18 0.16
-11 3 2 -0.11 0.15
-11 -3 2 0.09 0.22
-11 3 -2 -0.11 0.17
-12 3 2 0.53 0.23
-12 -3 -2 0.48 0.23
-12 -3 2 0.02 0.22
-13 -3 -2 0.13 0.25
-13 -3 2 0.07 0.23
0 -4 2 11.87 0.47
0 -4 -2 11.98 0.46
0 4 -2 11.7 0.49
0 -4 -2 12.18 0.49
-1 -4 -2 83.89 3.02
1 -4 2 83.9 3.06
1 4 -2 81.96 3.08
-1 -4 -2 80.24 3.07
-1 -4 2 80.07 3.08
-1 4 -2 83.52 2.99
1 -4 -2 84.77 3.08
1 -4 -2 83.61 3
-1 -4 2 81.14 3.03
-2 -4 -2 3.1 0.18
2 4 -2 2.87 0.18
-2 -4 -2 3.07 0.18
2 -4 2 3.03 0.16
-2 -4 2 3.06 0.19
2 -4 -2 3.4 0.19
-2 4 -2 3.4 0.14
2 -4 -2 3.49 0.15
-3 4 2 104.16 3.73
3 -4 2 102.76 3.78
-3 -4 -2 101.6 3.76
3 4 -2 102.26 3.82
-3 -4 -2 96.05 3.79
-3 -4 2 105.49 3.78
-3 4 -2 98.34 3.71
3 -4 -2 104.02 3.81
3 4 2 102.83 3.8
-4 4 2 30.23 1.19
4 -4 2 32.32 1.19
4 4 -2 32.85 1.24
-4 -4 -2 31.34 1.22
-4 -4 -2 32.77 1.21
4 -4 -2 28.3 1.22
-4 4 -2 29.16 1.17
4 4 2 30.32 1.2
-4 -4 2 30.68 1.23
-5 4 2 12.76 0.58
-5 -4 -2 13.69 0.58
5 4 -2 12.76 0.61
-5 -4 -2 12.48 0.61
5 -4 2 13.09 0.56
5 -4 -2 13.78 0.6
5 4 2 13.83 0.58
-5 -4 2 14.31 0.64
-5 4 -2 13.02 0.56
-6 -4 -2 7.82 0.42
6 -4 2 6.98 0.34
6 4 -2 6.81 0.39
-6 4 2 6.16 0.35
-6 -4 -2 6.62 0.36
-6 4 -2 6.89 0.35
-6 -4 2 6.92 0.42
6 -4 -2 6.25 0.37
6 4 2 7 0.35
-7 -4 -2 13.16 0.66
-7 -4 -2 14.22 0.61
7 4 -2 12.6 0.63
7 -4 2 12.91 0.58
-7 4 2 12.33 0.61
-7 -4 2 12.86 0.67
-7 4 -2 13.14 0.59
7 -4 -2 13.26 0.62
7 4 2 13.52 0.6
-8 -4 -2 1.95 0.27
8 -4 2 1.89 0.2
-8 4 2 1.95 0.24
-8 -4 -2 1.96 0.22
8 4 -2 1.54 0.22
8 4 2 1.78 0.21
-8 -4 2 1.94 0.26
-8 4 -2 1.75 0.21
8 -4 -2 2 0.23
-9 -4 -2 1.09 0.24
9 4 -2 0.75 0.18
-9 4 2 0.68 0.18
-9 -4 -2 0.65 0.16
9 4 2 0.88 0.18
9 -4 -2 0.66 0.18
-9 4 -2 0.69 0.18
-9 -4 2 1.16 0.25
-10 4 2 2.58 0.31
-10 -4 -2 2.43 0.34
10 4 -2 2.25 0.28
-10 -4 2 2.95 0.36
10 -4 -2 2.46 0.3
-10 4 -2 2.21 0.26
-11 4 2 0.14 0.17
11 4 -2 -0.16 0.17
-11 -4 -2 -0.14 0.18
-11 -4 2 0.37 0.2
-12 -4 -2 1.5 0.31
-12 -4 2 1.07 0.31
-13 -4 -2 0.63 0.28
-13 -4 2 0.58 0.3
0 -5 2 10.28 0.46
0 -5 -2 11.37 0.47
0 -5 -2 11.64 0.43
0 -5 2 11.05 0.43
-1 -5 -2 59 2.18
-1 -5 -2 59.02 2.22
1 -5 2 58.69 2.21
1 5 -2 57.84 2.22
1 -5 -2 57.05 2.15
-1 5 -2 60.91 2.14
1 -5 -2 59.2 2.22
-1 -5 2 60.29 2.18
-1 -5 2 58.85 2.23
2 -5 2 74.19 2.72
-2 -5 -2 69.08 2.73
-2 -5 -2 69.76 2.7
2 5 -2 71.84 2.75
2 -5 -2 75.81 2.66
-2 -5 2 73.43 2.75
-2 5 -2 76.08 2.65
2 -5 -2 73.89 2.74
-2 -5 2 71.88 2.71
3 -5 2 166.87 6.34
-3 -5 -2 172.66 6.29
3 5 -2 172.17 6.38
-3 5 2 171.31 6.24
-3 -5 -2 169.56 6.36
-3 -5 2 175.06 6.3
3 5 2 169.12 6.36
3 -5 -2 174.28 6.37
-3 5 -2 173.77 6.22
-4 -5 -2 20.9 0.86
4 -5 2 21.24 0.84
-4 -5 -2 21.91 0.88
4 5 -2 21.69 0.89
-4 5 2 20.95 0.83
4 5 2 20.21 0.85
-4 5 -2 20.61 0.81
4 -5 -2 21.3 0.87
-4 -5 2 20.58 0.88
-5 -5 -2 13.21 0.59
5 -5 2 13.67 0.57
-5 5 2 13.58 0.58
-5 -5 -2 12.74 0.61
5 5 -2 14.46 0.63
-5 -5 2 13.26 0.63
5 5 2 13.36 0.59
5 -5 -2 13.2 0.6
-5 5 -2 13.23 0.56
6 -5 2 4.16 0.25
6 5 -2 3.86 0.27
-6 -5 -2 3.83 0.26
-6 5 2 3.8 0.25
-6 -5 -2 4.6 0.33
6 -5 -2 4.21 0.28
-6 -5 2 4 0.33
6 5 2 3.95 0.27
-6 5 -2 4.68 0.26
-7 -5 -2 7.66 0.48
7 -5 2 8.27 0.41
-7 5 2 8.43 0.43
-7 -5 -2 8.05 0.44
7 5 -2 8.34 0.47
-7 -5 2 9.32 0.52
7 5 2 8.8 0.43
-7 5 -2 8.5 0.42
7 -5 -2 8.39 0.45
-8 -5 -2 5.88 0.43
-8 -5 -2 6.7 0.38
8 5 -2 5.23 0.38
8 -5 2 6.26 0.36
-8 5 2 6.44 0.38
-8 -5 2 6.81 0.46
-8 5 -2 6.2 0.36
8 -5 -2 6.27 0.39
8 5 2 5.85 0.36
-9 5 2 0.69 0.18
9 5 -2 0.34 0.16
-9 -5 -2 0.97 0.2
-9 -5 -2 1.19 0.24
-9 5 -2 0.71 0.17
9 -5 -2 0.99 0.2
-9 -5 2 1.1 0.25
9 5 2 0.87 0.17
-10 -5 -2 0.13 0.2
-10 5 2 -0.11 0.13
10 5 -2 -0.07 0.16
-10 -5 2 -0.1 0.13
10 -5 -2 0.07 0.14
-10 5 -2 -0.03 0.15
-11 -5 -2 0.77 0.26
11 5 -2 1.3 0.27
-11 -5 2 0.7 0.27
-12 -5 -2 0.06 0.23
-12 -5 2 -0.1 0.23
-13 -5 -2 0.14 0.27
-13 -5 2 0.17 0.27
0 -6 -2 129.78 4.62
0 -6 -2 120.04 4.72
0 -6 2 128.79 4.72
0 -6 2 129.47 4.62
1 -6 2 50.94 1.93
-1 -6 -2 50.04 1.9
-1 -6 -2 52.16 1.95
1 6 -2 50.78 1.95
1 -6 2 51.56 1.86
1 -6 -2 51.54 1.87
-1 -6 2 49.66 1.9
1 -6 -2 50.93 1.94
-1 -6 2 52.53 1.95
2 6 -2 1.09 0.13
-2 -6 -2 1.03 0.12
-2 -6 -2 1.04 0.12
2 -6 2 1.18 0.11
-2 6 -2 0.98 0.05
2 -6 -2 1.09 0.08
-2 -6 2 1.25 0.13
2 -6 -2 0.83 0.12
-2 -6 2 1.66 0.13
-3 6 2 1.26 0.1
3 6 -2 1.12 0.14
-3 -6 -2 1.18 0.14
3 -6 2 1.29 0.12
-3 -6 -2 0.95 0.13
-3 -6 2 1.1 0.14
-3 -6 2 1.43 0.16
3 -6 -2 1.43 0.14
-3 6 -2 1.32 0.08
-4 -6 -2 0.13 0.09
4 6 -2 0.26 0.11
4 -6 2 0.22 0.08
-4 6 2 0.53 0.08
-4 -6 -2 0.47 0.11
-4 -6 2 0.25 0.11
-4 -6 2 0.34 0.12
4 -6 -2 0.32 0.09
4 6 2 0.24 0.09
-4 6 -2 0.35 0.06
5 -6 2 11.54 0.51
-5 -6 -2 11.02 0.52
5 6 -2 11.98 0.56
-5 6 2 11.11 0.49
-5 -6 -2 11.1 0.55
-5 6 -2 11.39 0.48
5 6 2 11.24 0.52
5 -6 -2 11.94 0.54
-5 -6 2 11.48 0.57
-6 6 2 5.9 0.33
-6 -6 -2 5.79 0.34
6 -6 2 6.45 0.33
6 6 -2 6.34 0.38
-6 -6 -2 6.56 0.38
6 6 2 5.94 0.34
-6 -6 2 6.33 0.39
6 -6 -2 6.34 0.37
-6 6 -2 6.07 0.31
-7 -6 -2 5.98 0.4
-7 6 2 5.36 0.33
-7 -6 -2 5.77 0.34
7 6 -2 5 0.36
7 -6 2 5.83 0.33
7 6 2 5.31 0.33
-7 -6 2 5.02 0.39
7 -6 -2 5.36 0.35
-7 6 -2 5.54 0.3
-8 6 2 2.34 0.24
8 6 -2 2.43 0.27
-8 -6 -2 2.38 0.31
-8 -6 -2 2.69 0.26
8 -6 2 2.9 0.24
-8 -6 2 2.69 0.32
8 6 2 2.63 0.26
8 -6 -2 2.97 0.29
-8 6 -2 2.48 0.22
9 6 -2 0.46 0.17
-9 -6 -2 0.22 0.19
-9 -6 -2 0.35 0.17
-9 6 2 0.06 0.15
9 6 2 0.44 0.15
9 -6 -2 0.3 0.17
-9 -6 2 0.21 0.2
10 6 -2 1.16 0.23
-10 -6 -2 1.17 0.27
-10 -6 2 0.93 0.22
10 6 2 0.92 0.21
10 -6 -2 0.99 0.21
-10 -6 2 1.18 0.29
11 6 -2 1.1 0.24
-11 -6 -2 1.58 0.32
-11 -6 2 0.7 0.27
-11 -6 2 1.26 0.26
-12 -6 -2 1.32 0.33
-12 -6 2 2.31 0.39
-13 -6 -2 0.62 0.3
-13 -6 2 0.8 0.33
0 -7 -2 41.17 1.62
0 -7 -2 45.32 1.56
0 -7 2 41.43 1.62
0 -7 2 40.84 1.56
-1 -7 -2 0.32 0.1
-1 -7 -2 0.16 0.06
1 -7 2 0.08 0.07
1 -7 -2 0.22 0.07
-1 -7 2 0.26 0.09
1 -7 -2 0.12 0.04
-1 -7 2 0.09 0.07
-2 -7 -2 3.33 0.22
2 7 -2 3.99 0.23
-2 -7 -2 3.87 0.22
2 -7 2 3.67 0.22
-2 -7 2 3.68 0.23
2 -7 -2 3.39 0.23
-2 -7 2 3.76 0.22
2 -7 -2 3.83 0.16
3 7 -2 6.95 0.36
-3 -7 -2 6.58 0.34
3 -7 2 7.11 0.33
-3 -7 -2 6.33 0.34
3 -7 -2 6.49 0.34
-3 -7 2 5.99 0.33
-3 -7 2 6.3 0.36
-3 7 -2 6.78 0.26
-4 -7 -2 4.99 0.29
4 7 -2 5.07 0.3
-4 7 2 4.87 0.25
-4 -7 -2 5.04 0.3
4 -7 2 5.49 0.28
4 7 2 5.02 0.29
4 -7 -2 5.31 0.3
-4 -7 2 4.99 0.32
-4 -7 2 4.96 0.32
-4 7 -2 5.4 0.22
-5 -7 -2 16.5 0.71
-5 7 2 15.22 0.64
5 7 -2 16.14 0.72
-5 -7 -2 15.52 0.69
5 -7 2 16.12 0.67
5 -7 -2 15.35 0.7
-5 -7 2 14.82 0.72
-5 -7 2 15.47 0.72
-5 7 -2 15.7 0.62
5 7 2 15.03 0.68
-6 -7 -2 16.67 0.73
6 7 -2 16.04 0.76
-6 7 2 15.88 0.69
-6 -7 -2 16.38 0.76
6 -7 2 16.78 0.71
-6 -7 2 16.92 0.79
6 -7 -2 15.97 0.74
6 7 2 17.03 0.73
-6 7 -2 16.92 0.67
-6 -7 2 15.49 0.76
7 7 -2 14.18 0.71
-7 -7 -2 15.59 0.76
7 -7 2 15.09 0.68
-7 7 2 16.4 0.68
-7 -7 -2 15.43 0.7
-7 -7 2 14.93 0.74
7 -7 -2 15.28 0.72
-7 7 -2 15.88 0.65
7 7 2 14.23 0.69
-7 -7 2 15.29 0.76
-8 7 2 3.63 0.28
8 7 -2 3.44 0.33
8 -7 2 3.5 0.28
-8 -7 -2 3.39 0.29
-8 -7 -2 3.69 0.36
-8 -7 2 3.68 0.36
8 7 2 3.52 0.28
-8 -7 2 3.55 0.34
8 -7 -2 3.24 0.29
9 7 -2 3.48 0.35
-9 -7 -2 4.09 0.41
-9 -7 -2 3.57 0.33
9 7 2 3.7 0.3
-9 -7 2 3.79 0.41
9 -7 -2 4.16 0.33
-9 -7 2 3.26 0.35
-10 -7 -2 4.2 0.45
10 7 -2 3.7 0.38
10 7 2 4.76 0.37
10 -7 -2 4.31 0.37
-10 -7 2 4.74 0.4
-10 -7 2 4.39 0.47
-11 -7 -2 0.3 0.25
11 7 -2 0.24 0.19
-11 -7 2 0.3 0.2
-11 -7 2 0 0.23
-12 -7 -2 0.53 0.28
-12 -7 2 0.38 0.28
-13 -7 -2 -0.27 0.23
-13 -7 2 0.12 0.27
0 -8 -2 4.26 0.27
0 -8 2 4.71 0.22
0 -8 -2 5.2 0.22
0 -8 2 5.05 0.27
-1 -8 -2 25.85 1.08
-1 -8 -2 27.11 1.04
1 -8 2 27.3 0.99
1 -8 2 26.43 1.07
1 -8 -2 28.15 1
-1 -8 2 26.06 1.08
-1 -8 2 26.61 1.04
1 -8 -2 27.67 1.08
-2 -8 -2 45.43 1.67
-2 -8 -2 40.89 1.71
2 -8 2 43.82 1.69
2 8 -2 44.05 1.72
2 -8 -2 46.09 1.72
-2 -8 2 42.07 1.72
-2 -8 2 44.11 1.68
2 -8 -2 45.81 1.62
-3 -8 -2 7.05 0.38
3 -8 2 7.64 0.36
-3 -8 -2 7.38 0.37
3 8 -2 7.55 0.39
3 -8 -2 7.58 0.38
-3 -8 2 7.65 0.4
-3 -8 2 7.56 0.38
4 8 -2 4.27 0.28
-4 -8 -2 4.17 0.28
-4 -8 -2 3.82 0.28
4 -8 2 4.39 0.26
-4 8 2 4.66 0.22
4 -8 -2 4.58 0.29
-4 -8 2 4.41 0.29
-4 8 -2 4.79 0.19
-4 -8 2 4.41 0.3
5 -8 2 9.92 0.46
-5 8 2 9.74 0.42
-5 -8 -2 9.48 0.5
5 8 -2 9.21 0.5
-5 -8 -2 9.89 0.48
-5 8 -2 9.22 0.39
5 -8 -2 9.43 0.48
5 8 2 9.46 0.47
-5 -8 2 9.26 0.5
-5 -8 2 9.83 0.51
-6 -8 -2 9.3 0.51
6 -8 2 10.52 0.48
-6 -8 -2 9.85 0.49
6 8 -2 9.15 0.51
-6 8 -2 9.6 0.42
6 8 2 9.54 0.49
-6 -8 2 9.45 0.51
-6 -8 2 9.36 0.52
6 -8 -2 9.59 0.5
7 8 -2 9.18 0.51
-7 -8 -2 9.26 0.54
7 -8 2 9.74 0.47
-7 8 2 8.89 0.44
-7 -8 -2 9.12 0.48
7 8 2 8.33 0.47
7 -8 -2 9 0.5
-7 -8 2 8.99 0.52
-7 -8 2 8.59 0.52
-8 -8 -2 2.14 0.25
8 8 -2 1.79 0.26
-8 -8 -2 1.81 0.26
-8 -8 2 1.91 0.27
8 -8 -2 2.65 0.29
8 8 2 2.12 0.24
-8 -8 2 1.99 0.28
-9 -8 -2 9.6 0.54
-9 -8 -2 9.76 0.59
9 8 -2 9.05 0.55
-9 -8 2 10.02 0.58
-9 -8 2 10.74 0.64
9 8 2 9.67 0.54
9 -8 -2 9.8 0.56
-10 -8 -2 0.87 0.24
10 8 -2 1.11 0.23
-10 -8 -2 1.31 0.3
-10 -8 2 1.23 0.25
10 8 2 1.13 0.22
-10 -8 2 1.06 0.29
-11 -8 -2 4.18 0.46
11 8 -2 4.36 0.42
-11 -8 2 3.94 0.48
-11 -8 2 3.75 0.4
-12 -8 -2 1.57 0.35
-12 -8 2 1.25 0.3
0 -9 2 37.34 1.41
0 -9 -2 38.1 1.49
0 -9 2 36.01 1.48
0 -9 -2 40.21 1.42
1 -9 2 115.1 4.47
-1 -9 -2 118.98 4.48
1 -9 2 129.01 4.33
-1 -9 -2 123.04 4.38
-1 -9 2 115.34 4.38
-1 -9 2 118.37 4.48
1 -9 -2 116.93 4.34
1 -9 -2 118.67 4.48
2 -9 2 16.76 0.72
-2 -9 -2 17.65 0.74
-2 -9 -2 16.68 0.7
-2 -9 2 16.99 0.75
-2 -9 2 17.21 0.71
2 -9 -2 17.08 0.74
2 -9 -2 17.44 0.64
3 -9 2 51.9 1.92
3 9 -2 49.55 1.95
-3 -9 -2 50.37 1.94
-3 -9 -2 47.8 1.9
3 -9 -2 50.57 1.95
-3 -9 2 49.11 1.91
-3 -9 2 49.23 1.95
4 9 -2 3.95 0.28
-4 -9 -2 4.09 0.27
-4 9 2 4.23 0.21
4 -9 2 4.45 0.27
-4 -9 -2 3.97 0.29
4 -9 -2 4.27 0.29
-4 -9 2 4.39 0.3
-4 9 -2 5.05 0.18
-4 -9 2 4.64 0.32
5 9 -2 6.99 0.42
-5 9 2 7.36 0.33
5 -9 2 7.21 0.38
-5 -9 -2 7.17 0.42
-5 -9 -2 7.2 0.4
-5 -9 2 6.62 0.42
5 -9 -2 6.53 0.39
-5 -9 2 7.1 0.41
-6 -9 -2 15.31 0.72
6 9 -2 16.16 0.74
6 -9 2 16.53 0.7
-6 -9 -2 14.29 0.69
-6 -9 2 15.36 0.74
-6 -9 2 14.59 0.73
6 9 2 13.72 0.69
6 -9 -2 15.09 0.72
7 9 -2 4.89 0.37
-7 -9 -2 4.35 0.33
-7 -9 -2 4.38 0.37
7 -9 2 5.27 0.33
7 9 2 4.07 0.32
-7 -9 2 4.44 0.39
7 -9 -2 4.86 0.35
-7 -9 2 4.37 0.37
8 9 -2 1.2 0.23
-8 -9 -2 1 0.19
-8 -9 -2 0.63 0.19
-8 -9 2 0.77 0.22
8 -9 -2 1.17 0.21
-8 -9 2 0.98 0.25
8 9 2 1.03 0.19
9 9 -2 1.43 0.25
-9 -9 -2 1.63 0.24
-9 -9 -2 1.83 0.3
-9 -9 2 2.13 0.33
9 -9 -2 1.69 0.25
9 9 2 2.22 0.26
-9 -9 2 1.56 0.27
-10 -9 -2 0.81 0.21
-10 -9 -2 0.95 0.24
10 9 -2 0.8 0.22
-10 -9 2 1.26 0.26
10 9 2 1.32 0.24
-10 -9 2 0.91 0.28
-11 -9 -2 1.29 0.32
11 9 -2 1.01 0.25
-11 -9 2 0.71 0.25
-11 -9 2 1.11 0.3
-12 -9 -2 0.14 0.27
-12 -9 2 0.32 0.27
0 -10 2 41.95 1.54
0 -10 2 40.29 1.62
0 -10 -2 40.27 1.63
0 -10 -2 42.91 1.54
-1 -10 -2 13.18 0.52
1 -10 2 13.6 0.46
-1 -10 -2 11.5 0.56
1 -10 2 11.85 0.55
1 -10 -2 11.73 0.48
1 -10 -2 12.15 0.57
-1 -10 2 11.45 0.51
-1 -10 2 12.77 0.58
2 -10 2 10.18 0.47
-2 -10 -2 9.13 0.45
-2 -10 -2 10.33 0.49
-2 -10 2 9.6 0.5
2 -10 -2 10.75 0.39
-2 -10 2 9.46 0.46
2 -10 -2 10.24 0.48
-3 -10 -2 9.01 0.44
3 -10 2 9.51 0.45
3 10 -2 8.68 0.46
-3 -10 -2 8.71 0.45
3 -10 -2 9.44 0.47
-3 -10 2 8.79 0.48
-3 -10 2 8.88 0.44
4 -10 2 10.32 0.48
4 10 -2 9.73 0.52
-4 10 2 9.84 0.4
-4 -10 -2 9.29 0.5
-4 -10 -2 9.97 0.5
4 -10 -2 10.6 0.51
-4 -10 2 9.88 0.5
-4 -10 2 9.28 0.5
-5 -10 -2 22.57 0.98
-5 -10 -2 22.51 0.99
5 10 -2 23.45 1.02
5 -10 2 23.54 0.97
-5 -10 2 22.15 1.01
5 -10 -2 22.47 1
-5 -10 2 24.08 1.01
-6 -10 -2 14.26 0.7
6 -10 2 15.12 0.69
6 10 -2 15.22 0.72
-6 -10 -2 14.99 0.73
6 -10 -2 14.7 0.72
-6 -10 2 15.25 0.74
-6 -10 2 14.39 0.73
7 10 -2 3.18 0.33
7 -10 2 3.8 0.29
-7 -10 -2 3.13 0.34
-7 -10 -2 2.99 0.3
-7 -10 2 3.24 0.33
7 -10 -2 3.17 0.32
-7 -10 2 3.05 0.33
8 10 -2 0.71 0.21
-8 -10 -2 0.29 0.16
-8 -10 -2 0.64 0.18
8 -10 -2 0.84 0.2
-8 -10 2 0.79 0.21
8 10 2 0.4 0.16
-8 -10 2 0.6 0.23
9 10 -2 0.9 0.23
-9 -10 -2 0.88 0.21
-9 -10 -2 0.9 0.26
-9 -10 2 0.87 0.23
9 -10 -2 0.61 0.21
9 10 2 1.14 0.22
-9 -10 2 0.94 0.28
-10 -10 -2 0.67 0.22
10 10 -2 1.43 0.27
-10 -10 -2 0.8 0.23
-10 -10 2 1.08 0.25
-10 -10 2 1.15 0.31
10 10 2 0.95 0.23
-11 -10 -2 1.08 0.31
11 10 -2 0.64 0.24
-11 -10 2 0.49 0.29
-11 -10 2 0.68 0.25
12 10 -2 1.9 0.34
-12 -10 -2 2.6 0.42
-12 -10 2 1.65 0.39
0 -11 2 0.67 0.08
0 -11 -2 0.67 0.12
0 -11 -2 0.76 0.09
0 -11 2 0.61 0.14
-1 -11 -2 9.83 0.48
-1 -11 -2 9.89 0.43
1 -11 2 9.9 0.48
1 -11 2 10.38 0.37
-1 -11 2 10.35 0.49
1 -11 -2 9.23 0.49
1 -11 -2 9.44 0.39
-1 -11 2 9.36 0.43
2 -11 2 2.82 0.22
-2 -11 -2 2.72 0.22
-2 -11 -2 2.45 0.19
2 -11 -2 2.7 0.13
-2 -11 2 2.09 0.24
2 -11 -2 3.26 0.24
-2 -11 2 2.55 0.19
-3 -11 -2 3.42 0.25
3 -11 2 3.36 0.24
-3 -11 -2 3.02 0.24
-3 -11 2 3.66 0.26
-3 -11 2 3.35 0.29
3 -11 -2 3.5 0.27
4 -11 2 17.48 0.76
-4 -11 -2 16.38 0.78
-4 -11 -2 16.94 0.76
4 11 -2 17.41 0.8
-4 -11 2 18.04 0.8
-4 -11 2 16.69 0.77
4 -11 -2 17.76 0.79
5 -11 2 15.5 0.71
-5 -11 -2 13.93 0.71
5 11 -2 15.52 0.75
-5 -11 -2 15.59 0.72
5 -11 -2 16.58 0.74
-5 -11 2 15.17 0.75
-5 -11 2 14.84 0.73
-6 -11 -2 15.69 0.76
6 -11 2 16.66 0.75
-6 -11 -2 16.37 0.78
6 11 -2 15.83 0.77
-6 -11 2 16.05 0.79
-6 -11 2 15.58 0.79
6 -11 -2 16.06 0.77
7 -11 2 4.67 0.33
7 11 -2 3.74 0.36
-7 -11 -2 3.66 0.33
-7 -11 -2 3.71 0.37
7 -11 -2 3.58 0.35
-7 -11 2 3.11 0.34
-7 -11 2 3.92 0.39
-8 -11 -2 0.78 0.2
8 11 -2 1 0.23
-8 -11 -2 0.92 0.22
-8 -11 2 0.57 0.2
8 -11 -2 0.93 0.23
-8 -11 2 1.42 0.23
-9 -11 -2 0.3 0.23
9 11 -2 0.34 0.2
-9 -11 -2 0.53 0.19
9 -11 -2 0.24 0.18
-9 -11 2 0.27 0.19
-9 -11 2 0.28 0.24
-10 -11 -2 -0.05 0.17
10 11 -2 -0.04 0.18
-10 -11 -2 0.14 0.22
-10 -11 2 0.56 0.23
-10 -11 2 -0.29 0.22
-11 -11 -2 0 0.25
11 11 -2 -0.15 0.19
-11 -11 2 0.73 0.3
-11 -11 2 0.23 0.22
12 11 -2 0.15 0.26
-12 -11 -2 0.87 0.33
-12 -11 2 0.67 0.32
0 -12 -2 4.99 0.33
0 -12 -2 5.67 0.26
0 -12 2 4.88 0.31
0 -12 2 5.55 0.26
-1 -12 -2 0.21 0.08
-1 -12 -2 0.04 0.09
1 -12 2 0 0.03
1 -12 2 0.01 0.1
-1 -12 2 0.08 0.07
-1 -12 2 -0.09 0.11
1 -12 -2 0.09 0.12
1 -12 -2 0.03 0.04
-2 -12 -2 86.28 3.33
2 -12 2 86.57 3.31
-2 -12 -2 90.7 3.24
-2 -12 2 86.33 3.34
2 -12 -2 84.56 3.32
-2 -12 2 86.93 3.24
3 -12 2 9.2 0.47
-3 -12 -2 9.72 0.46
-3 -12 -2 9.15 0.48
-3 -12 2 8.63 0.46
-3 -12 2 9.5 0.52
3 -12 -2 9.82 0.5
-4 -12 -2 6.59 0.39
4 -12 2 6.31 0.38
-4 -12 -2 5.8 0.38
-4 -12 2 6.2 0.38
4 -12 -2 6.66 0.39
-4 -12 2 6.37 0.4
5 -12 2 12.93 0.6
5 12 -2 11.81 0.64
-5 -12 -2 11.49 0.6
-5 -12 -2 11.14 0.6
-5 -12 2 11.39 0.63
5 -12 -2 12.28 0.63
-5 -12 2 13.43 0.63
6 12 -2 5.56 0.41
6 -12 2 6 0.37
-6 -12 -2 4.71 0.36
-6 -12 -2 5.27 0.39
-6 -12 2 5.83 0.42
-6 -12 2 4.81 0.37
6 -12 -2 5.68 0.39
-7 -12 -2 1.47 0.24
-7 -12 -2 1.52 0.27
7 12 -2 1.21 0.25
7 -12 2 1.51 0.22
-7 -12 2 1.79 0.29
7 -12 -2 1.44 0.25
-7 -12 2 1.36 0.25
8 12 -2 0.08 0.15
-8 -12 -2 -0.18 0.17
-8 -12 -2 -0.29 0.14
8 -12 -2 0.2 0.16
-8 -12 2 0.27 0.19
-8 -12 2 0.28 0.22
9 12 -2 0.78 0.21
-9 -12 -2 1.26 0.29
-9 -12 -2 0.78 0.23
9 -12 -2 0.92 0.24
-9 -12 2 1.07 0.25
-9 -12 2 0.69 0.25
-10 -12 -2 0.07 0.23
10 12 -2 -0.12 0.19
-10 -12 -2 -0.14 0.18
-10 -12 2 -0.08 0.23
-10 -12 2 0.31 0.17
11 12 -2 0.28 0.24
-11 -12 -2 0.55 0.25
-11 -12 2 0.54 0.31
-11 -12 2 1.21 0.29
-12 -12 -2 1.89 0.41
12 12 -2 1.93 0.34
-12 -12 2 2.78 0.46
0 -13 -2 0.33 0.08
0 -13 2 0.53 0.08
0 -13 2 0.52 0.16
0 -13 -2 0.34 0.12
1 -13 2 4.44 0.31
-1 -13 -2 4.6 0.34
-1 -13 -2 4.9 0.26
-1 -13 2 4.68 0.26
1 -13 -2 3.7 0.31
1 -13 -2 4.74 0.21
-1 -13 2 4.35 0.33
-2 -13 -2 13.06 0.55
-2 -13 -2 11.87 0.6
2 -13 2 12.4 0.59
-2 -13 2 11.94 0.55
2 -13 -2 11.44 0.6
-2 -13 2 12.01 0.62
-3 -13 -2 14.88 0.72
3 -13 2 14.67 0.68
-3 -13 -2 15.36 0.67
3 -13 -2 14.79 0.71
-3 -13 2 14.36 0.66
-3 -13 2 14.45 0.71
-4 -13 -2 13.48 0.64
4 -13 2 12.82 0.64
-4 -13 -2 12.78 0.66
-4 -13 2 14.09 0.7
4 -13 -2 14.47 0.68
-4 -13 2 13.87 0.65
-5 -13 -2 3.47 0.3
-5 -13 -2 3.19 0.31
5 -13 2 3.55 0.29
-5 -13 2 3.34 0.34
-5 -13 2 3.57 0.31
5 -13 -2 3.28 0.32
6 13 -2 0.45 0.2
-6 -13 -2 0.9 0.21
6 -13 2 0.68 0.17
-6 -13 -2 0.29 0.17
-6 -13 2 0.38 0.15
-6 -13 2 0.21 0.18
6 -13 -2 0.58 0.18
-7 -13 -2 1.79 0.28
-7 -13 -2 1.66 0.26
7 -13 2 2.14 0.27
7 13 -2 1.77 0.29
-7 -13 2 1.82 0.29
7 -13 -2 2.22 0.29
-7 -13 2 2.21 0.29
8 13 -2 3.8 0.4
-8 -13 -2 3.66 0.4
-8 -13 -2 4.24 0.39
8 -13 -2 4.5 0.44
-8 -13 2 3.98 0.41
-8 -13 2 3.25 0.38
-9 -13 -2 1.92 0.3
-9 -13 -2 2.31 0.33
9 13 -2 2.08 0.33
9 -13 -2 2.38 0.33
-9 -13 2 1.84 0.34
-9 -13 2 2.2 0.33
-10 -13 -2 2 0.32
-10 -13 -2 1.38 0.34
10 13 -2 1.74 0.31
-10 -13 2 1.73 0.33
-10 -13 2 1.96 0.37
11 13 -2 1.92 0.34
-11 -13 -2 1.81 0.35
-11 -13 2 2.03 0.41
-11 -13 2 1.89 0.34
12 13 -2 0 0.24
0 -14 2 6.79 0.42
0 -14 -2 7.55 0.31
0 -14 -2 5.35 0.38
-1 -14 -2 38.64 1.32
-1 -14 -2 33.42 1.41
1 -14 2 34.62 1.4
-1 -14 2 37.11 1.32
-1 -14 2 30.47 1.4
1 -14 -2 27.68 1.38
2 -14 2 9.64 0.52
-2 -14 -2 10.92 0.49
-2 -14 -2 9.22 0.55
-2 -14 2 10.06 0.56
2 -14 -2 9.65 0.54
-2 -14 2 10.84 0.49
-3 -14 -2 11.8 0.6
3 -14 2 10.49 0.55
-3 -14 -2 11.04 0.53
-3 -14 2 11.28 0.53
3 -14 -2 10.03 0.55
-3 -14 2 11.01 0.6
4 -14 2 9.42 0.5
-4 -14 -2 9.6 0.5
-4 -14 -2 9.97 0.53
-4 -14 2 9.45 0.56
4 -14 -2 8.97 0.51
-4 -14 2 9.16 0.5
5 -14 2 9.25 0.49
-5 -14 -2 7.87 0.48
-5 -14 -2 8.95 0.52
-5 -14 2 9.09 0.5
5 -14 -2 7.86 0.5
-5 -14 2 8.66 0.54
-6 -14 -2 0.71 0.18
6 -14 2 0.83 0.2
-6 -14 -2 0.65 0.2
-6 -14 2 1.07 0.21
6 -14 -2 0.89 0.2
-6 -14 2 0.78 0.21
7 -14 2 0.78 0.2
-7 -14 -2 0.7 0.22
-7 -14 -2 0.89 0.23
7 -14 -2 0.65 0.21
-7 -14 2 0.51 0.23
-7 -14 2 0.74 0.23
-8 -14 -2 2.99 0.36
-8 -14 -2 3.1 0.37
-8 -14 2 3.21 0.38
-8 -14 2 2.26 0.35
8 -14 -2 3.01 0.36
9 14 -2 1.09 0.28
-9 -14 -2 1.1 0.27
-9 -14 -2 1.29 0.31
-9 -14 2 1.3 0.3
-9 -14 2 1.22 0.31
-10 -14 -2 1.35 0.29
-10 -14 -2 1.64 0.32
-10 -14 2 1.68 0.38
-10 -14 2 1.9 0.34
-11 -14 -2 1.63 0.37
-11 -14 2 1.77 0.34
-11 -14 2 1.02 0.36
0 -15 -2 26.15 1.15
0 -15 2 26.95 1.15
1 -15 2 7.06 0.45
-1 -15 -2 8.74 0.38
-1 -15 -2 7.58 0.47
-1 -15 2 7.4 0.47
1 -15 -2 7.32 0.46
-2 -15 -2 5.83 0.34
2 -15 2 5.7 0.38
-2 -15 -2 5.29 0.37
2 -15 -2 5.44 0.39
-2 -15 2 5.2 0.4
-2 -15 2 6.13 0.34
3 -15 2 3.65 0.31
-3 -15 -2 4.52 0.3
-3 -15 -2 3.95 0.35
-3 -15 2 4.39 0.34
-3 -15 2 4.48 0.3
3 -15 -2 4.52 0.35
4 -15 2 1.07 0.19
-4 -15 -2 1.07 0.19
-4 -15 -2 1.36 0.24
-4 -15 2 1.36 0.2
4 -15 -2 1.05 0.21
-4 -15 2 1.57 0.26
5 -15 2 0.49 0.17
-5 -15 -2 0.53 0.17
-5 -15 -2 0.52 0.2
-5 -15 2 0.42 0.18
-5 -15 2 0.99 0.24
5 -15 -2 0.81 0.18
6 -15 2 0.58 0.19
-6 -15 -2 0.3 0.18
-6 -15 -2 0.14 0.15
-6 -15 2 0.08 0.18
6 -15 -2 0.4 0.18
-6 -15 2 0.31 0.18
-7 -15 -2 1.56 0.27
-7 -15 -2 1.7 0.29
-7 -15 2 1.22 0.25
7 -15 -2 1.48 0.27
-7 -15 2 1.43 0.28
-8 -15 -2 0.99 0.27
-8 -15 -2 1.22 0.28
-8 -15 2 1.31 0.3
8 -15 -2 1.16 0.26
-8 -15 2 1.51 0.3
-9 -15 -2 0.85 0.29
-9 -15 -2 0.79 0.25
-9 -15 2 1 0.25
-9 -15 2 1.33 0.32
-10 -15 -2 2.13 0.38
-10 -15 -2 1.94 0.33
-10 -15 2 2.49 0.41
-10 -15 2 2.09 0.36
-11 -15 -2 0.47 0.31
-11 -15 2 1.01 0.3
-11 -15 2 0.67 0.32
0 -16 -2 3.54 0.35
0 -16 2 3.61 0.34
1 -16 2 0.81 0.19
-1 -16 -2 1.08 0.2
1 -16 -2 0.52 0.16
-1 -16 2 0.7 0.18
-2 -16 -2 14.47 0.63
2 -16 2 12.69 0.67
-2 -16 -2 12.85 0.71
2 -16 -2 14.13 0.7
-2 -16 2 14.55 0.73
-3 -16 -2 -0.03 0.17
3 -16 2 0.11 0.13
-3 -16 -2 0.21 0.15
-3 -16 2 0.29 0.13
-3 -16 2 0.1 0.14
3 -16 -2 0.02 0.15
4 -16 2 1.93 0.25
-4 -16 -2 1.5 0.22
-4 -16 -2 1.6 0.28
-4 -16 2 2.06 0.28
4 -16 -2 1.83 0.25
-4 -16 2 1.6 0.22
5 -16 2 1.4 0.23
-5 -16 -2 1.24 0.23
-5 -16 -2 1.3 0.23
-5 -16 2 1.22 0.28
5 -16 -2 1.57 0.26
-5 -16 2 1.69 0.24
-6 -16 -2 1.18 0.23
6 -16 2 1.01 0.22
-6 -16 -2 0.98 0.22
-6 -16 2 0.93 0.27
-6 -16 2 1.01 0.22
6 -16 -2 1.08 0.24
-7 -16 -2 2.52 0.33
-7 -16 -2 3.22 0.37
-7 -16 2 2.41 0.36
7 -16 -2 2.87 0.36
-7 -16 2 2.41 0.33
-8 -16 -2 1.95 0.32
-8 -16 -2 1.97 0.32
8 -16 -2 2.31 0.34
-8 -16 2 1.59 0.34
-8 -16 2 1.76 0.31
-9 -16 -2 0.5 0.25
-9 -16 -2 0.52 0.27
-9 -16 2 0.4 0.25
-9 -16 2 0.53 0.27
-10 -16 -2 0.31 0.28
-10 -16 -2 0.27 0.24
-10 -16 2 0.93 0.31
-10 -16 2 0.45 0.28
-11 -16 2 1.83 0.36
0 -17 -2 2.23 0.29
0 -17 2 1.86 0.27
-1 -17 -2 2.22 0.28
1 -17 2 2.83 0.29
1 -17 -2 2.7 0.31
-1 -17 2 2.81 0.31
-2 -17 -2 3.27 0.34
2 -17 2 3.48 0.29
-2 -17 2 3.56 0.37
2 -17 -2 3.63 0.31
-3 -17 -2 2.03 0.3
3 -17 2 1.7 0.25
-3 -17 -2 2.13 0.24
-3 -17 2 2.39 0.31
3 -17 -2 2.13 0.29
4 -17 2 6.35 0.44
-4 -17 -2 7.79 0.45
-4 -17 -2 7.05 0.51
-4 -17 2 8.26 0.54
-4 -17 2 7.52 0.46
4 -17 -2 7.13 0.49
-5 -17 -2 2.39 0.31
5 -17 2 2.07 0.27
-5 -17 -2 2.02 0.27
-5 -17 2 2.12 0.26
-5 -17 2 2.3 0.32
5 -17 -2 1.93 0.29
6 -17 2 0.88 0.21
-6 -17 -2 0.62 0.21
-6 -17 -2 0.51 0.2
6 -17 -2 0.57 0.22
-6 -17 2 0.55 0.21
-6 -17 2 0.79 0.23
-7 -17 -2 0.36 0.23
-7 -17 -2 0.46 0.22
-7 -17 2 0.44 0.22
7 -17 -2 0.47 0.22
-7 -17 2 0.81 0.28
-8 -17 -2 3.45 0.4
-8 -17 -2 3.99 0.43
-8 -17 2 3.26 0.43
8 -17 -2 2.75 0.39
-8 -17 2 3.95 0.43
-9 -17 -2 -0.01 0.23
-9 -17 -2 0.34 0.26
-9 -17 2 0.05 0.26
-9 -17 2 0.14 0.24
-10 -17 -2 0.26 0.25
-10 -17 -2 0.28 0.27
-10 -17 2 -0.06 0.25
-10 -17 2 0.67 0.31
0 -18 -2 4.73 0.41
0 -18 2 4.87 0.39
1 -18 2 0.13 0.16
-1 -18 -2 0.33 0.2
1 -18 -2 0.14 0.18
-1 -18 2 0.29 0.2
2 -18 2 0.45 0.17
-2 -18 -2 0.22 0.2
-2 -18 2 0.55 0.23
2 -18 -2 0.28 0.19
3 -18 2 3.48 0.35
-3 -18 -2 4.57 0.37
-3 -18 2 3.62 0.4
3 -18 -2 4.11 0.35
-4 -18 -2 0.85 0.2
-4 -18 -2 0.89 0.22
4 -18 2 0.8 0.2
-4 -18 2 1.22 0.26
4 -18 -2 0.56 0.22
-5 -18 -2 2.97 0.38
-5 -18 -2 2.83 0.32
5 -18 2 2.82 0.35
-5 -18 2 3.03 0.37
-5 -18 2 2.74 0.3
5 -18 -2 2.69 0.36
-6 -18 -2 2.4 0.31
-6 -18 -2 2.78 0.37
6 -18 2 2.51 0.34
6 -18 -2 2.79 0.37
-6 -18 2 2.96 0.4
-6 -18 2 2.39 0.32
-7 -18 -2 4.27 0.41
-7 -18 -2 3.44 0.42
7 -18 -2 4.2 0.44
-7 -18 2 3.78 0.44
-7 -18 2 3.65 0.4
-8 -18 -2 1.32 0.32
-8 -18 -2 1.55 0.31
-8 -18 2 1.43 0.3
8 -18 -2 2.02 0.35
-8 -18 2 1.18 0.33
-9 -18 -2 1.03 0.3
-9 -18 -2 0.86 0.28
-9 -18 2 1.59 0.36
-9 -18 2 1.62 0.34
-10 -18 -2 -0.34 0.24
-10 -18 -2 0.31 0.26
-10 -18 2 0.06 0.28
-10 -18 2 0.36 0.28
0 -19 -2 0.76 0.25
0 -19 2 0.55 0.22
1 -19 2 4.47 0.42
-1 -19 -2 4.98 0.44
1 -19 -2 4.73 0.42
-1 -19 2 4.63 0.44
-2 -19 -2 0.17 0.2
2 -19 2 0.06 0.17
2 -19 -2 0.02 0.15
-2 -19 2 -0.02 0.21
3 -19 2 0.13 0.17
-3 -19 -2 0.31 0.23
3 -19 -2 0.37 0.21
-3 -19 2 0.29 0.24
4 -19 2 5.61 0.44
-4 -19 -2 6.42 0.51
4 -19 -2 5.57 0.47
-4 -19 2 6.02 0.51
-5 -19 -2 3.11 0.4
5 -19 2 2.11 0.33
5 -19 -2 3.04 0.38
-5 -19 2 3.14 0.4
-6 -19 -2 2.5 0.37
6 -19 2 1.28 0.27
-6 -19 -2 1.53 0.28
6 -19 -2 1.6 0.31
-6 -19 2 2.23 0.37
-6 -19 2 1.5 0.28
-7 -19 -2 1.83 0.35
-7 -19 -2 1.04 0.27
7 -19 -2 1.74 0.34
-7 -19 2 1.48 0.34
-7 -19 2 2.04 0.32
-8 -19 -2 0.58 0.26
-8 -19 -2 0.58 0.27
-8 -19 2 0.43 0.25
-8 -19 2 0.56 0.29
-9 -19 -2 0.16 0.25
-9 -19 -2 0.07 0.25
-9 -19 2 -0.57 0.21
-9 -19 2 0.49 0.29
0 -20 2 11.8 0.65
0 -20 -2 10.71 0.68
-1 -20 -2 0.82 0.27
1 -20 2 0.77 0.24
-1 -20 2 0.49 0.24
1 -20 -2 0.5 0.2
2 -20 2 0.64 0.22
-2 -20 -2 0.27 0.23
2 -20 -2 0.48 0.23
-2 -20 2 0.23 0.24
3 -20 2 0.54 0.21
-3 -20 -2 0.23 0.19
3 -20 -2 0.53 0.24
-3 -20 2 0.14 0.18
-4 -20 -2 0.85 0.29
4 -20 2 1 0.24
4 -20 -2 1.03 0.27
-4 -20 2 0.98 0.31
-5 -20 -2 0.28 0.27
5 -20 2 0.7 0.22
-5 -20 2 0.8 0.29
5 -20 -2 0.33 0.22
-6 -20 -2 0.62 0.29
-6 -20 2 0.67 0.29
6 -20 -2 0.39 0.24
-7 -20 -2 0.15 0.2
-7 -20 -2 0.06 0.25
-7 -20 2 0.65 0.3
7 -20 -2 0.38 0.24
-8 -20 -2 3.32 0.45
-8 -20 -2 3.77 0.43
-8 -20 2 3.12 0.41
-8 -20 2 3.4 0.48
-9 -20 -2 0.61 0.28
-9 -20 -2 0.52 0.29
-9 -20 2 0.72 0.33
0 -21 -2 -0.02 0.21
0 -21 2 -0.02 0.21
-1 -21 -2 3.13 0.38
1 -21 2 3.29 0.4
1 -21 -2 3.69 0.42
-1 -21 2 3.62 0.42
-2 -21 -2 0.2 0.25
2 -21 2 0.09 0.2
2 -21 -2 0.08 0.23
-2 -21 2 0.14 0.19
-3 -21 -2 4.9 0.49
3 -21 2 4.24 0.43
3 -21 -2 4.03 0.45
-3 -21 2 4.25 0.46
-4 -21 -2 2.59 0.37
4 -21 2 2.22 0.33
4 -21 -2 2.51 0.36
-4 -21 2 2.42 0.4
-5 -21 -2 0.09 0.19
5 -21 2 0.34 0.21
5 -21 -2 0.27 0.22
-5 -21 2 0.47 0.28
-6 -21 -2 0.74 0.3
6 -21 -2 0.79 0.27
-6 -21 2 0.27 0.29
-7 -21 -2 -0.3 0.24
-7 -21 2 -0.17 0.25
7 -21 -2 -0.21 0.23
-8 -21 -2 1.03 0.34
-8 -21 2 1.39 0.38
0 -22 -2 3.32 0.42
0 -22 2 3.22 0.41
1 -22 2 1.28 0.3
-1 -22 -2 1.6 0.34
1 -22 -2 2.09 0.35
-1 -22 2 1.39 0.28
2 -22 2 2.19 0.33
-2 -22 -2 2.17 0.35
2 -22 -2 3.54 0.42
-2 -22 2 2.28 0.38
-3 -22 -2 1.35 0.33
3 -22 2 1.7 0.31
3 -22 -2 1.54 0.33
-3 -22 2 1.75 0.36
-4 -22 -2 0.29 0.26
4 -22 2 0.47 0.22
4 -22 -2 0.89 0.28
-4 -22 2 0.37 0.3
5 -22 2 -0.07 0.19
-5 -22 -2 -0.13 0.26
5 -22 -2 0 0.22
-5 -22 2 -0.3 0.26
-6 -22 -2 1.36 0.35
6 -22 -2 0.7 0.31
-6 -22 2 0.3 0.31
-7 -22 -2 1.19 0.35
7 -22 -2 1.43 0.35
-7 -22 2 1.16 0.37
0 -23 -2 3.39 0.41
0 -23 2 3.34 0.43
1 -23 2 0.56 0.26
-1 -23 -2 0.39 0.29
-1 -23 2 0.5 0.28
1 -23 -2 0.55 0.27
2 -23 2 2.4 0.36
-2 -23 -2 3.48 0.46
-2 -23 2 2.35 0.4
2 -23 -2 2.52 0.37
-3 -23 -2 0.14 0.27
3 -23 2 0.46 0.23
-3 -23 2 0.48 0.3
3 -23 -2 0.39 0.26
4 -23 2 0.17 0.21
-4 -23 -2 -0.03 0.26
-4 -23 2 0.09 0.28
4 -23 -2 0.16 0.23
-5 -23 -2 0.29 0.29
5 -23 2 0.23 0.22
-5 -23 2 0.12 0.28
5 -23 -2 -0.31 0.23
-6 -23 -2 2.06 0.42
-6 -23 2 2.26 0.46
6 -23 -2 3.42 0.45
0 -24 2 0.34 0.27
0 -24 -2 0.36 0.29
-1 -24 -2 1.23 0.34
1 -24 2 1.05 0.31
1 -24 -2 1.47 0.35
-1 -24 2 0.97 0.32
-2 -24 -2 0.17 0.29
2 -24 2 0.26 0.24
-2 -24 2 0.51 0.25
2 -24 -2 0.21 0.27
-3 -24 -2 0.52 0.3
3 -24 2 0.59 0.26
-3 -24 2 0.43 0.31
3 -24 -2 0.64 0.29
-4 -24 -2 0.38 0.3
4 -24 2 0.45 0.26
4 -24 -2 1.04 0.31
-4 -24 2 0.78 0.28
5 -24 -2 0.28 0.25
6 -24 -2 -0.02 0.24
0 -25 2 2.53 0.41
0 -25 -2 2.41 0.43
-1 -25 -2 3.97 0.49
1 -25 2 3.71 0.47
1 -25 -2 4.31 0.52
-1 -25 2 4.1 0.52
2 -25 2 1.08 0.3
-2 -25 -2 1.19 0.35
2 -25 -2 0.34 0.28
-2 -25 2 0.51 0.32
3 -25 2 0.42 0.25
-3 -25 2 0.39 0.26
3 -25 -2 0.37 0.28
4 -25 2 -0.09 0.24
4 -25 -2 0.48 0.28
1 -26 2 0.21 0.26
2 -26 2 0.39 0.27
0 0 -3 -0.21 0.02
0 0 -3 -0.14 0.03
1 0 -3 18.85 0.71
-1 0 -3 18.24 0.7
1 0 -3 18.34 0.73
-1 0 -3 17.84 0.69
-2 0 -3 1.92 0.09
2 0 -3 1.93 0.12
2 0 -3 2.3 0.15
2 0 3 1.92 0.09
-2 0 -3 2.19 0.13
-3 0 3 0.22 0.07
3 0 3 0.18 0.04
3 0 -3 0.25 0.07
-3 0 -3 0.04 0.07
-4 0 -3 0.05 0.07
4 0 -3 0.08 0.08
4 0 3 0.12 0.05
-4 0 3 0.01 0.06
-5 0 3 1.84 0.18
5 0 3 1.81 0.14
5 0 -3 1.94 0.19
-5 0 -3 1.9 0.18
-6 0 -3 2.89 0.24
-6 0 3 2.49 0.22
6 0 -3 2.19 0.22
6 0 3 2.49 0.18
7 0 3 18.87 0.76
-7 0 3 18.33 0.83
-7 0 -3 17.84 0.8
7 0 -3 18.08 0.82
8 0 3 17.65 0.72
-8 0 -3 17.07 0.77
8 0 -3 15.42 0.76
-8 0 3 15.35 0.78
9 0 -3 1.31 0.22
-9 0 -3 1.42 0.21
-9 0 3 1.4 0.24
-10 0 -3 7.52 0.49
10 0 -3 7.69 0.47
-10 0 3 6.97 0.5
-11 0 3 0.36 0.22
11 0 -3 0.5 0.19
-11 0 -3 0.08 0.17
-12 0 3 5.61 0.49
-12 0 -3 5.13 0.45
-13 0 3 2.7 0.39
-13 0 -3 2.58 0.36
-14 0 3 -0.15 0.22
0 -1 -3 18.5 0.71
0 -1 -3 17.84 0.69
0 1 -3 18.42 0.69
0 1 -3 19.52 0.71
1 1 -3 72.82 2.64
1 1 -3 71.96 2.69
-1 -1 -3 74.5 2.66
-1 -1 -3 71.29 2.64
-1 1 -3 70.43 2.65
-1 1 -3 71.17 2.63
1 -1 -3 71.7 2.69
1 -1 -3 73.21 2.64
2 1 -3 170.76 6.12
-2 -1 -3 172.59 6.12
2 -1 3 177.65 6.18
2 1 -3 175.51 6.22
-2 -1 -3 159.9 6.18
2 -1 -3 164.55 6.11
-2 1 -3 161.76 6.1
2 -1 -3 161.65 6.21
3 -1 3 28.3 1.05
-3 -1 -3 26.57 1.08
3 1 -3 28.65 1.11
-3 1 3 29.37 1.09
-3 -1 -3 28.47 1.06
-3 1 -3 26.65 1.06
3 -1 -3 28.16 1.11
-3 -1 3 28.54 1.09
3 1 3 26.76 1.06
-4 1 3 69.93 2.69
-4 -1 -3 68.49 2.69
4 -1 3 74.34 2.68
4 1 -3 72.69 2.74
-4 -1 3 74.3 2.71
-4 1 -3 71.23 2.68
4 -1 -3 72.78 2.74
4 1 3 72.87 2.69
-5 -1 -3 41.67 1.7
5 -1 3 43.94 1.67
5 1 -3 45.54 1.74
-5 1 3 44.5 1.71
5 1 3 45.49 1.68
5 -1 -3 44.37 1.73
-5 1 -3 45.57 1.7
-5 -1 3 42.04 1.72
-6 -1 -3 21.67 0.92
6 1 -3 21.38 0.93
6 -1 3 21.15 0.87
-6 1 3 22.6 0.93
-6 -1 3 20.36 0.92
-6 1 -3 21.76 0.91
6 -1 -3 22.44 0.93
6 1 3 22.45 0.88
-7 1 3 4.14 0.3
7 -1 3 3.54 0.23
-7 -1 -3 3.31 0.29
7 1 -3 3.62 0.29
7 1 3 4.25 0.24
-7 1 -3 3.49 0.27
-7 -1 3 3.57 0.28
7 -1 -3 3.62 0.28
-8 -1 -3 3.39 0.32
-8 1 3 3.32 0.32
8 -1 3 3.72 0.25
8 1 -3 3.75 0.3
-8 -1 3 3.19 0.33
-8 1 -3 3.65 0.3
8 -1 -3 3.57 0.33
8 1 3 3.34 0.25
-9 -1 -3 0.55 0.19
9 1 -3 0.94 0.19
-9 1 3 0.65 0.2
-9 -1 3 1.01 0.22
-9 1 -3 0.91 0.2
9 -1 -3 1.05 0.19
10 1 -3 2.67 0.31
-10 1 3 2.88 0.34
-10 -1 -3 3.25 0.34
10 -1 -3 2.92 0.32
-10 1 -3 3.53 0.34
-10 -1 3 3.81 0.39
-11 -1 -3 0.23 0.19
-11 1 3 0.47 0.22
11 1 -3 0.72 0.21
-11 1 -3 0.84 0.22
-11 -1 3 0.87 0.26
11 -1 -3 0.45 0.19
-12 -1 -3 0.65 0.24
-12 1 3 0.76 0.25
-12 1 -3 0.68 0.22
-12 -1 3 0.73 0.27
-13 -1 -3 0.16 0.23
-13 1 3 0.82 0.25
-13 1 -3 0.1 0.2
-13 -1 3 0.18 0.23
-14 -1 -3 0.38 0.26
-14 -1 3 0.51 0.26
0 -2 -3 142.4 5.43
0 2 -3 148.59 5.43
0 -2 -3 149.94 5.35
0 2 -3 147.92 5.35
1 2 -3 55.26 2
-1 -2 -3 56.89 1.98
-1 -2 -3 52.9 1.96
1 -2 3 54.64 1.97
1 2 -3 53.69 1.96
1 -2 -3 51.86 1.95
-1 2 -3 49.56 1.94
1 -2 -3 50.61 1.99
2 -2 3 240.03 8.67
-2 -2 -3 239.5 8.66
2 2 -3 238.06 8.69
-2 -2 -3 232.47 8.55
2 -2 -3 232.14 8.55
-2 2 -3 235.61 8.53
2 -2 -3 233.13 8.69
-2 -2 3 232.92 8.56
-3 -2 -3 148.75 5.49
3 -2 3 156.57 5.52
-3 -2 -3 148.94 5.54
3 2 -3 153.01 5.58
-3 -2 3 148.81 5.5
3 -2 -3 151.9 5.58
3 2 3 147.72 5.53
-3 2 -3 147.08 5.46
3 -2 -3 147.42 5.48
-4 -2 -3 17.2 0.68
4 2 -3 17.42 0.73
4 -2 3 17.91 0.67
-4 2 3 17.08 0.71
-4 -2 -3 16.82 0.71
-4 2 -3 16.92 0.69
4 -2 -3 15.87 0.72
-4 -2 3 17.16 0.73
4 2 3 17 0.68
5 2 -3 28.59 1.13
5 -2 3 27.14 1.06
-5 -2 -3 26.68 1.1
-5 2 3 27.1 1.1
-5 -2 3 28.7 1.13
5 2 3 27.63 1.07
5 -2 -3 26.64 1.11
-5 2 -3 25.99 1.07
6 2 -3 0.89 0.16
6 -2 3 0.83 0.11
-6 2 3 0.77 0.15
-6 -2 -3 0.96 0.17
-6 -2 3 1.06 0.17
-6 2 -3 1.08 0.16
6 2 3 0.9 0.13
6 -2 -3 1.27 0.17
7 -2 3 1.4 0.15
7 2 -3 1.2 0.19
-7 -2 -3 1.67 0.22
-7 2 3 1.49 0.2
-7 2 -3 1.19 0.17
-7 -2 3 1.2 0.22
7 2 3 1.46 0.15
7 -2 -3 1.41 0.19
8 -2 3 13.74 0.6
8 2 -3 12.68 0.65
-8 2 3 13.17 0.66
-8 -2 -3 13.92 0.68
8 2 3 13.85 0.61
8 -2 -3 12.43 0.64
-8 2 -3 13.19 0.64
-8 -2 3 13.66 0.7
-9 2 3 5.57 0.4
-9 -2 -3 5.11 0.4
9 2 -3 5.02 0.37
-9 2 -3 5.19 0.37
-9 -2 3 6.28 0.44
9 -2 -3 4.69 0.36
10 2 -3 3.03 0.32
-10 2 3 2.85 0.33
-10 -2 -3 3.45 0.36
10 -2 -3 3.32 0.33
-10 2 -3 3.04 0.32
-10 -2 3 3.78 0.39
11 2 -3 1.04 0.23
-11 2 3 1.17 0.26
-11 -2 -3 1.18 0.27
11 -2 -3 0.78 0.21
-11 2 -3 0.56 0.21
-11 -2 3 1.32 0.29
-12 2 3 1.28 0.28
-12 -2 -3 1.74 0.32
-12 2 -3 0.75 0.23
-12 -2 3 1.84 0.31
-13 -2 -3 0.5 0.26
-13 2 3 0.89 0.27
-13 -2 3 0.42 0.25
-14 -2 -3 0.4 0.27
0 3 -3 3.9 0.19
0 3 -3 3.92 0.17
0 -3 -3 4.13 0.19
0 -3 3 3.93 0.19
0 -3 -3 3.85 0.18
1 3 -3 233.73 8.51
1 -3 3 230.52 8.62
-1 -3 -3 253.01 8.51
-1 -3 -3 249.18 8.63
1 3 -3 243.21 8.64
-1 3 -3 218.59 8.48
1 -3 -3 219.19 8.51
1 -3 -3 228.39 8.64
2 -3 3 121.35 4.47
2 3 -3 118.37 4.52
-2 -3 -3 113.28 4.44
-2 -3 -3 122.79 4.49
2 -3 -3 125.81 4.43
-2 -3 3 124.41 4.46
2 -3 -3 121.68 4.52
-2 3 -3 123.57 4.41
-3 -3 -3 5.31 0.27
-3 -3 -3 4.84 0.24
3 3 -3 5.44 0.28
3 -3 3 5.03 0.23
-3 -3 3 5.04 0.28
3 -3 -3 5.65 0.26
3 -3 -3 5.2 0.28
-3 3 -3 5.08 0.23
3 3 3 5.49 0.25
4 -3 3 26.24 1
4 3 -3 26.51 1.06
-4 -3 -3 25.17 1.04
-4 3 3 25.83 1.02
-4 -3 -3 27.13 1.02
4 3 3 26.46 1.01
-4 -3 3 25.73 1.05
-4 3 -3 24.82 1
4 -3 -3 25.63 1.05
-5 -3 -3 37.61 1.48
5 -3 3 38.4 1.44
-5 3 3 38.06 1.46
-5 -3 -3 36.44 1.45
5 3 -3 36.21 1.49
-5 -3 3 37.04 1.5
-5 3 -3 37.82 1.44
5 3 3 36.6 1.45
5 -3 -3 39.44 1.5
6 -3 3 2.75 0.18
-6 -3 -3 2.91 0.2
-6 3 3 2.76 0.23
6 3 -3 3 0.25
-6 -3 -3 2.52 0.26
-6 -3 3 2.86 0.28
6 3 3 2.78 0.2
6 -3 -3 2.6 0.23
-6 3 -3 2.62 0.21
-7 -3 -3 12.2 0.54
-7 -3 -3 10.98 0.59
-7 3 3 10.64 0.56
7 3 -3 12.11 0.59
7 -3 3 11.91 0.52
7 3 3 11.51 0.53
-7 -3 3 11.28 0.61
7 -3 -3 12.01 0.58
-7 3 -3 11.71 0.55
8 3 -3 14.16 0.7
-8 -3 -3 13.73 0.72
8 -3 3 15.02 0.65
-8 3 3 14.26 0.7
-8 -3 -3 15.61 0.67
8 3 3 14.36 0.65
-8 3 -3 14.66 0.67
-8 -3 3 13.82 0.72
8 -3 -3 14.54 0.7
9 3 -3 5.24 0.39
-9 -3 -3 5.81 0.43
-9 3 3 6.09 0.41
-9 -3 3 5.98 0.45
9 3 3 6.32 0.36
9 -3 -3 5.89 0.4
-9 3 -3 5.79 0.38
-10 3 3 2.79 0.32
10 3 -3 2.63 0.31
-10 -3 -3 2.93 0.34
10 -3 -3 3.19 0.33
-10 -3 3 3.1 0.37
-10 3 -3 2.41 0.28
-11 -3 -3 0.86 0.25
11 3 -3 0.58 0.21
-11 3 3 0.79 0.24
11 -3 -3 0.48 0.21
-11 -3 3 0.7 0.25
-11 3 -3 0.63 0.19
-12 -3 -3 -0.03 0.2
-12 3 3 0.02 0.19
-12 -3 3 -0.37 0.2
-13 -3 -3 1 0.32
-13 -3 3 1.46 0.33
0 -4 -3 10.32 0.41
0 -4 3 9.95 0.43
0 4 -3 10.08 0.43
0 -4 -3 11.35 0.44
0 4 -3 10.56 0.41
1 -4 3 42.6 1.63
-1 -4 -3 43.59 1.61
-1 -4 -3 44.35 1.64
1 4 -3 44.9 1.65
1 -4 -3 43.27 1.65
-1 4 -3 41.55 1.58
-1 -4 3 42.68 1.65
-1 -4 3 44.65 1.62
1 -4 -3 43.22 1.6
-2 -4 -3 1.83 0.14
2 4 -3 2.19 0.15
2 -4 3 2.27 0.12
-2 -4 -3 1.94 0.14
-2 4 -3 2.49 0.11
2 -4 -3 2.44 0.13
2 -4 -3 2.25 0.15
-2 -4 3 2.09 0.15
3 -4 3 24.63 0.95
-3 -4 -3 25.78 0.99
3 4 -3 26.06 1.01
-3 -4 -3 24.74 0.97
-3 4 -3 24.32 0.94
-3 -4 3 25.1 1
3 -4 -3 24.01 1
3 -4 -3 25.05 0.96
4 4 -3 7.33 0.38
-4 -4 -3 7.07 0.33
4 -4 3 7.32 0.32
-4 4 3 6.89 0.34
-4 -4 -3 6.76 0.36
-4 4 -3 7.5 0.32
4 4 3 7.18 0.33
4 -4 -3 6.91 0.36
-4 -4 3 6.85 0.37
-5 -4 -3 35.57 1.39
-5 4 3 34.44 1.38
5 4 -3 35.72 1.44
5 -4 3 36.86 1.37
-5 -4 -3 37.03 1.43
5 4 3 35.75 1.39
5 -4 -3 35.48 1.43
-5 -4 3 35.51 1.43
-5 4 -3 34.87 1.36
-6 -4 -3 30.87 1.18
-6 4 3 29.92 1.19
6 -4 3 29.93 1.16
6 4 -3 29.83 1.22
-6 -4 -3 28.65 1.21
6 4 3 29.63 1.17
-6 4 -3 28.15 1.16
-6 -4 3 29.32 1.24
6 -4 -3 28.58 1.21
-7 -4 -3 9.45 0.47
7 4 -3 9.95 0.51
-7 -4 -3 9.56 0.51
7 -4 3 9.13 0.44
-7 4 3 8.83 0.48
-7 4 -3 9.84 0.46
7 -4 -3 9.18 0.49
-7 -4 3 9.7 0.54
7 4 3 8.83 0.45
-8 -4 -3 19.39 0.82
8 4 -3 18.53 0.86
-8 4 3 17.93 0.84
-8 -4 -3 19.49 0.89
8 -4 -3 18.31 0.85
-8 4 -3 19.85 0.83
8 4 3 18.17 0.81
-8 -4 3 18.12 0.89
-9 4 3 0.27 0.17
-9 -4 -3 0.43 0.16
-9 -4 -3 0.43 0.16
9 4 -3 0.38 0.16
-9 -4 3 0.17 0.18
-9 4 -3 0.23 0.15
9 -4 -3 0.38 0.17
9 4 3 0.28 0.13
10 4 -3 1.7 0.27
-10 -4 -3 1.8 0.29
-10 4 3 1.78 0.26
-10 -4 3 2.08 0.32
-10 4 -3 1.48 0.22
10 -4 -3 1.91 0.26
-11 4 3 0.12 0.17
-11 -4 -3 -0.01 0.2
11 4 -3 0.16 0.17
-11 -4 3 0.25 0.24
-12 -4 -3 2.98 0.4
-12 -4 3 3.52 0.45
-13 -4 -3 1.47 0.33
-13 -4 3 1.7 0.37
0 -5 -3 1.69 0.13
0 5 -3 1.57 0.1
0 5 -3 1.63 0.12
0 -5 3 1.57 0.12
0 -5 -3 1.62 0.1
-1 -5 -3 3.29 0.19
1 -5 3 3.53 0.18
1 5 -3 3.49 0.2
-1 -5 -3 3.66 0.18
1 -5 -3 3.5 0.16
1 -5 -3 3.46 0.19
-1 -5 3 3.32 0.2
-1 5 -3 3.47 0.15
-1 -5 3 3.61 0.19
2 5 -3 50.82 1.93
2 -5 3 53.28 1.89
-2 -5 -3 49.29 1.91
-2 -5 -3 49.32 1.89
-2 5 -3 50.75 1.84
-2 -5 3 51.01 1.94
2 -5 -3 50.63 1.86
2 -5 -3 48.42 1.92
-2 -5 3 50.18 1.9
-3 -5 -3 11.44 0.52
-3 -5 -3 11.67 0.51
3 -5 3 12.59 0.49
3 5 -3 11.59 0.54
3 -5 -3 11.37 0.53
-3 -5 3 11.9 0.54
3 -5 -3 12.65 0.49
-3 5 -3 12.5 0.47
-4 5 3 21.95 0.86
4 -5 3 21.93 0.85
-4 -5 -3 21.71 0.89
-4 -5 -3 21.07 0.87
4 5 -3 20.9 0.9
4 -5 -3 22.32 0.9
-4 5 -3 20.68 0.83
-4 -5 3 22.25 0.91
4 5 3 21.48 0.87
5 -5 3 1.3 0.12
-5 -5 -3 1.13 0.14
5 5 -3 0.73 0.14
-5 -5 -3 1.09 0.16
-5 5 3 0.91 0.13
-5 -5 3 0.83 0.17
-5 5 -3 1.11 0.12
5 5 3 1.14 0.13
5 -5 -3 0.97 0.15
6 -5 3 7.6 0.35
6 5 -3 6.56 0.4
-6 -5 -3 6.93 0.37
-6 5 3 7 0.37
-6 -5 -3 7.34 0.43
-6 -5 3 6.49 0.41
6 -5 -3 7.55 0.4
6 5 3 6.71 0.35
-6 5 -3 6.95 0.35
7 -5 3 3.03 0.22
-7 5 3 3.2 0.25
7 5 -3 3.44 0.27
-7 -5 -3 2.61 0.3
-7 -5 -3 3.3 0.25
-7 5 -3 3.53 0.24
-7 -5 3 3.44 0.29
7 5 3 3.23 0.25
7 -5 -3 3.39 0.28
8 5 -3 10.97 0.58
-8 -5 -3 11.62 0.56
-8 -5 -3 11.29 0.62
-8 5 3 11.43 0.57
8 -5 -3 11 0.58
-8 5 -3 11.89 0.54
8 5 3 10.57 0.53
-8 -5 3 10.7 0.63
9 5 -3 2.52 0.3
-9 5 3 2.94 0.29
-9 -5 -3 2.57 0.32
-9 -5 -3 3.28 0.27
9 -5 -3 2.53 0.29
-9 5 -3 3.29 0.27
9 5 3 3.17 0.27
-9 -5 3 3.28 0.37
10 5 -3 0.41 0.18
-10 -5 -3 0.37 0.21
-10 5 3 0.58 0.18
10 -5 -3 0.68 0.19
-10 -5 3 0.53 0.24
11 5 -3 1.71 0.28
-11 -5 -3 1.8 0.3
-11 -5 3 2.28 0.36
12 5 -3 0.23 0.21
-12 -5 -3 0.48 0.26
-12 -5 3 0.75 0.26
-13 -5 -3 0.41 0.27
-13 -5 3 0.55 0.28
0 -6 -3 107.46 3.98
0 -6 3 108.11 3.89
0 -6 -3 106.11 3.89
0 -6 3 104.67 3.97
-1 -6 -3 22.03 0.89
1 6 -3 22.39 0.9
-1 -6 -3 23.4 0.86
1 -6 3 21.3 0.87
1 -6 -3 21.66 0.84
-1 -6 3 22.62 0.9
-1 -6 3 22.24 0.87
-1 6 -3 22.77 0.83
1 -6 -3 22.22 0.9
-2 -6 -3 29.14 1.12
-2 -6 -3 29.46 1.14
2 6 -3 29.89 1.15
2 -6 3 29.73 1.12
2 -6 -3 28.67 1.08
-2 -6 3 29.85 1.13
2 -6 -3 26.65 1.14
-2 6 -3 28.2 1.06
-2 -6 3 28.55 1.15
3 -6 3 40.13 1.47
3 6 -3 38.45 1.52
-3 -6 -3 37.15 1.49
-3 -6 -3 36.67 1.48
-3 -6 3 38.52 1.52
3 -6 -3 38.18 1.51
-3 -6 3 37.28 1.49
3 -6 -3 38.29 1.44
-3 6 -3 40.33 1.41
4 -6 3 3.75 0.22
-4 6 3 4.1 0.22
-4 -6 -3 3.62 0.26
-4 -6 -3 4.01 0.24
4 6 -3 4.21 0.28
4 -6 -3 4.43 0.27
-4 6 -3 4.03 0.19
-4 -6 3 4.62 0.29
5 -6 3 3.31 0.2
-5 6 3 3.34 0.21
-5 -6 -3 3.28 0.26
5 6 -3 3.01 0.26
-5 -6 -3 3.09 0.22
-5 6 -3 2.95 0.18
5 -6 -3 3.29 0.25
5 6 3 3.01 0.21
-5 -6 3 2.92 0.28
-6 -6 -3 10.32 0.5
6 6 -3 10.99 0.54
-6 6 3 10.37 0.49
6 -6 3 11.49 0.48
-6 -6 -3 10.28 0.53
-6 6 -3 10.15 0.46
6 -6 -3 10.26 0.53
-6 -6 3 10.6 0.57
6 6 3 10.05 0.5
-7 -6 -3 3.56 0.3
7 6 -3 3.55 0.28
7 -6 3 3.69 0.24
-7 6 3 3.82 0.28
-7 -6 -3 3.63 0.28
-7 -6 3 3.01 0.32
7 -6 -3 3.36 0.29
-7 6 -3 3.81 0.24
7 6 3 3.24 0.25
8 6 -3 2.23 0.27
-8 6 3 2.17 0.24
-8 -6 -3 2.02 0.29
-8 -6 -3 1.95 0.22
-8 6 -3 2.19 0.21
8 -6 -3 1.79 0.24
-8 -6 3 2.06 0.27
8 6 3 2.09 0.22
9 6 -3 1.87 0.26
-9 -6 -3 2.6 0.26
-9 -6 -3 2.83 0.33
-9 6 3 2.21 0.26
-9 -6 3 2.59 0.35
9 -6 -3 2.27 0.28
9 6 3 1.97 0.23
10 6 -3 7.92 0.53
-10 -6 -3 9.3 0.57
-10 -6 3 9.07 0.61
10 -6 -3 8.95 0.54
-11 -6 -3 5.17 0.5
11 6 -3 5.33 0.43
-11 -6 3 5.47 0.52
-11 -6 3 4.44 0.44
-12 -6 -3 0.59 0.23
12 6 -3 0.97 0.28
-12 -6 3 0.59 0.3
-13 -6 -3 -0.1 0.23
-13 -6 3 0.3 0.28
0 -7 -3 0.18 0.05
0 -7 -3 0.19 0.09
0 -7 3 0.17 0.05
0 -7 3 0.23 0.06
1 -7 3 14.3 0.54
1 7 -3 14.05 0.61
1 -7 3 14.69 0.6
-1 -7 -3 14.48 0.58
-1 -7 -3 14.2 0.61
-1 -7 3 13.73 0.61
-1 -7 3 14.55 0.58
1 -7 -3 14.3 0.55
1 -7 -3 13.99 0.61
-2 -7 -3 0.45 0.1
2 -7 3 0.41 0.08
-2 -7 -3 0.29 0.09
2 7 -3 0.34 0.09
2 -7 -3 0.47 0.11
-2 7 -3 0.35 0.03
2 -7 -3 0.36 0.05
-2 -7 3 0.3 0.09
-2 -7 3 0.36 0.09
3 -7 3 112.32 4.15
3 7 -3 113.57 4.2
-3 -7 -3 106.46 4.11
-3 -7 -3 108.05 4.17
-3 -7 3 107.34 4.13
-3 -7 3 113.92 4.2
3 -7 -3 110.24 4.18
-3 7 -3 118.69 4.04
3 -7 -3 110.66 4.06
4 -7 3 19.55 0.79
-4 -7 -3 19.57 0.83
4 7 -3 19.68 0.84
-4 7 3 20.44 0.78
-4 -7 -3 17.84 0.81
-4 7 -3 20.02 0.74
-4 -7 3 18.75 0.85
4 -7 -3 19.28 0.84
-4 -7 3 20.38 0.85
5 -7 3 10.7 0.47
-5 -7 -3 9.72 0.52
5 7 -3 10.44 0.52
-5 -7 -3 10.32 0.49
-5 7 3 10.48 0.46
-5 -7 3 9.88 0.53
-5 -7 3 10.56 0.54
-5 7 -3 10.32 0.43
5 -7 -3 10.29 0.52
-6 7 3 1.87 0.18
6 -7 3 2.1 0.18
6 7 -3 1.77 0.21
-6 -7 -3 1.71 0.19
-6 -7 -3 1.8 0.23
6 -7 -3 1.57 0.21
-6 -7 3 1.25 0.2
-6 7 -3 2.19 0.15
6 7 3 1.66 0.19
7 7 -3 0.52 0.18
7 -7 3 0.29 0.11
-7 -7 -3 0.43 0.14
-7 7 3 0.5 0.13
-7 -7 -3 0.82 0.2
-7 -7 3 0.82 0.21
-7 7 -3 0.67 0.12
7 7 3 0.56 0.14
7 -7 -3 0.4 0.16
-8 7 3 0.72 0.16
8 7 -3 0.48 0.15
-8 -7 -3 0.66 0.21
-8 -7 -3 0.48 0.15
8 -7 -3 0.62 0.17
-8 -7 3 0.51 0.17
8 7 3 0.55 0.15
-9 -7 -3 0.52 0.22
-9 -7 -3 0.35 0.16
9 7 -3 0.36 0.18
9 7 3 0.6 0.16
-9 -7 3 0.65 0.21
-9 -7 3 0.56 0.23
9 -7 -3 0.67 0.2
10 7 -3 2.4 0.31
-10 -7 -3 2.65 0.36
10 -7 -3 2.44 0.31
-10 -7 3 2.39 0.34
-10 -7 3 2.25 0.32
-11 -7 -3 4.07 0.46
11 7 -3 4.13 0.41
-11 -7 3 3.71 0.41
-11 -7 3 4.73 0.51
12 7 -3 1.07 0.26
-12 -7 -3 0.8 0.31
-12 -7 3 0.73 0.31
-13 -7 -3 0.23 0.27
-13 -7 3 0.17 0.28
0 -8 -3 39.94 1.41
0 -8 3 38.19 1.41
0 -8 -3 37.32 1.48
0 -8 3 35.76 1.47
1 -8 3 11.38 0.53
1 -8 3 12.09 0.47
-1 -8 -3 11.83 0.55
-1 -8 -3 13.59 0.52
1 -8 -3 12.57 0.48
-1 -8 3 12.13 0.51
-1 -8 3 12.77 0.55
1 -8 -3 12.71 0.56
-2 -8 -3 8.43 0.39
-2 -8 -3 7.7 0.4
2 -8 3 7.66 0.38
2 8 -3 8 0.42
2 -8 -3 8.63 0.41
-2 -8 3 8.57 0.42
-2 -8 3 8.67 0.4
2 -8 -3 8.94 0.34
-3 -8 -3 17.19 0.74
-3 -8 -3 17.99 0.75
3 8 -3 18.17 0.78
3 -8 3 17.9 0.73
3 -8 -3 17.08 0.76
-3 8 -3 17.51 0.64
-3 -8 3 17.43 0.75
3 -8 -3 17.59 0.68
-3 -8 3 17.63 0.78
-4 -8 -3 15.04 0.71
-4 8 3 16.44 0.66
-4 -8 -3 16.18 0.72
4 -8 3 16.41 0.69
4 8 -3 16.29 0.74
4 -8 -3 15.46 0.73
-4 -8 3 15.95 0.74
-4 8 -3 18.35 0.62
-4 -8 3 16.72 0.74
-5 8 3 7.21 0.34
5 -8 3 6.95 0.35
5 8 -3 6.6 0.39
-5 -8 -3 6.29 0.37
-5 -8 -3 6.02 0.39
-5 -8 3 7.2 0.42
-5 -8 3 7.44 0.43
5 -8 -3 7.29 0.4
-5 8 -3 7.01 0.3
6 8 -3 0.95 0.19
-6 -8 -3 1.11 0.17
-6 -8 -3 0.57 0.17
-6 8 3 0.81 0.13
6 -8 3 1.02 0.15
6 -8 -3 0.65 0.16
-6 8 -3 0.74 0.1
-6 -8 3 0.7 0.19
-6 -8 3 0.76 0.19
-7 -8 -3 11.1 0.59
7 8 -3 10.42 0.57
-7 8 3 11.03 0.5
-7 -8 -3 10.87 0.54
7 -8 3 10.92 0.51
-7 -8 3 9.6 0.55
7 8 3 9.6 0.52
-7 -8 3 10.34 0.58
7 -8 -3 9.82 0.55
8 8 -3 1.55 0.25
-8 -8 -3 1.79 0.24
-8 -8 -3 1.76 0.25
-8 -8 3 1.8 0.25
8 8 3 1.12 0.19
-8 -8 3 2.07 0.3
8 -8 -3 1.75 0.25
-9 -8 -3 0.9 0.19
9 8 -3 0.92 0.22
-9 -8 -3 0.87 0.21
9 -8 -3 0.88 0.21
-9 -8 3 0.99 0.23
-9 -8 3 1.21 0.27
9 8 3 1 0.19
-10 -8 -3 0.64 0.22
10 8 -3 0.93 0.23
10 -8 -3 0.82 0.24
-10 -8 3 0.8 0.23
-10 -8 3 1.21 0.26
-11 -8 -3 1.35 0.33
11 8 -3 1.95 0.31
-11 -8 3 2.1 0.38
-11 -8 3 2.14 0.34
-12 -8 -3 1.32 0.35
12 8 -3 1.11 0.28
-12 -8 3 0.9 0.28
-12 -8 3 1.3 0.3
0 -9 3 0.04 0.05
0 -9 3 0.24 0.09
0 -9 -3 0.1 0.06
0 -9 -3 0.06 0.07
1 -9 3 36.94 1.34
-1 -9 -3 35.8 1.44
-1 -9 -3 38.51 1.39
1 -9 3 36.4 1.43
1 -9 -3 36.74 1.45
1 -9 -3 36.21 1.36
-1 -9 3 34.86 1.39
-1 -9 3 36.36 1.45
2 -9 3 1.38 0.15
2 9 -3 1.51 0.18
-2 -9 -3 1.37 0.15
-2 -9 -3 0.91 0.15
2 -9 -3 1.41 0.17
-2 -9 3 1.32 0.15
-2 -9 3 1.12 0.15
2 -9 -3 1.48 0.09
3 9 -3 3.67 0.27
-3 -9 -3 3.1 0.24
-3 -9 -3 3.38 0.24
3 -9 3 3.03 0.21
3 -9 -3 2.77 0.22
-3 -9 3 3.82 0.28
-3 -9 3 3.36 0.24
3 -9 -3 3.22 0.17
-4 9 3 1.23 0.11
-4 -9 -3 0.85 0.16
4 -9 3 1.47 0.15
4 9 -3 1.19 0.18
-4 -9 -3 1.3 0.17
4 -9 -3 1.12 0.18
-4 -9 3 1.2 0.18
-4 9 -3 1.23 0.07
-4 -9 3 1.15 0.18
-5 -9 -3 1.03 0.19
-5 -9 -3 1.61 0.19
5 -9 3 1.5 0.17
-5 9 3 1.76 0.15
5 9 -3 1.78 0.23
-5 -9 3 1.4 0.21
-5 -9 3 1.19 0.21
5 -9 -3 1.51 0.21
6 -9 3 5.35 0.31
-6 9 3 4.89 0.29
-6 -9 -3 4.41 0.36
6 9 -3 4.68 0.37
-6 -9 -3 5.12 0.34
-6 -9 3 6.58 0.41
6 -9 -3 5.4 0.37
-6 -9 3 5.47 0.36
-7 -9 -3 6.63 0.41
7 9 -3 6.2 0.44
7 -9 3 7.36 0.4
-7 -9 -3 6.48 0.45
-7 -9 3 6.6 0.47
7 -9 -3 6.85 0.43
-7 -9 3 6.97 0.46
-8 -9 -3 0.51 0.18
-8 -9 -3 0.91 0.19
8 9 -3 0.76 0.21
-8 -9 3 0.49 0.22
8 -9 -3 0.92 0.21
-8 -9 3 1.03 0.23
9 9 -3 2 0.29
-9 -9 -3 1.51 0.29
-9 -9 -3 1.79 0.25
9 9 3 1.57 0.23
9 -9 -3 1.5 0.26
-9 -9 3 2.02 0.33
-9 -9 3 1.82 0.29
-10 -9 -3 2.02 0.34
10 9 -3 1.98 0.3
10 -9 -3 2.02 0.3
-10 -9 3 2.17 0.32
-10 -9 3 1.34 0.29
-11 -9 -3 1.54 0.31
11 9 -3 1.47 0.28
-11 -9 3 1.39 0.29
-11 -9 3 1.65 0.35
12 9 -3 0.87 0.28
-12 -9 -3 1.03 0.34
-12 -9 3 1.19 0.28
-12 -9 3 1.43 0.36
0 -10 3 2.55 0.15
0 -10 3 2.77 0.2
0 -10 -3 2.37 0.2
0 -10 -3 2.86 0.16
1 -10 3 21.36 0.74
1 -10 3 20.05 0.83
-1 -10 -3 21.01 0.79
-1 -10 -3 20.19 0.85
1 -10 -3 18.64 0.84
1 -10 -3 18.66 0.75
-1 -10 3 18.6 0.78
-1 -10 3 18.76 0.84
-2 -10 -3 61.89 2.39
2 -10 3 59.12 2.36
-2 -10 -3 63.95 2.33
2 -10 -3 65.14 2.27
2 -10 -3 61.42 2.39
-2 -10 3 60.09 2.4
-2 -10 3 61.01 2.33
-3 -10 -3 22.31 0.92
3 10 -3 20.75 0.93
-3 -10 -3 22.26 0.89
3 -10 3 21.52 0.89
3 -10 -3 20.72 0.92
-3 -10 3 20.35 0.93
-3 -10 3 21.6 0.9
3 -10 -3 22.54 0.82
4 -10 3 13.62 0.6
-4 -10 -3 13.01 0.61
4 10 -3 14.22 0.66
-4 -10 -3 12.22 0.61
-4 10 3 14.17 0.54
-4 -10 3 12.88 0.62
4 -10 -3 12.82 0.63
-4 -10 3 12.68 0.65
-5 -10 -3 9.27 0.48
5 10 -3 9.31 0.51
5 -10 3 8.34 0.44
-5 -10 -3 9.05 0.49
-5 -10 3 8.7 0.49
-5 -10 3 8.33 0.49
5 -10 -3 9.37 0.5
-6 -10 -3 0.81 0.2
6 -10 3 0.89 0.16
-6 -10 -3 0.74 0.17
6 10 -3 0.74 0.2
6 -10 -3 0.8 0.18
-6 -10 3 0.83 0.2
-6 -10 3 0.58 0.2
-7 -10 -3 5.27 0.37
-7 -10 -3 5.27 0.41
7 10 -3 5.16 0.4
7 -10 3 6.21 0.36
7 -10 -3 5.84 0.41
-7 -10 3 5.66 0.42
-7 -10 3 4.72 0.38
-8 -10 -3 1.33 0.22
8 10 -3 1.55 0.26
-8 -10 -3 1.15 0.26
-8 -10 3 0.88 0.22
-8 -10 3 1.68 0.27
8 -10 -3 1.45 0.24
9 10 -3 1.05 0.25
-9 -10 -3 1.07 0.28
-9 -10 -3 0.95 0.22
-9 -10 3 1.18 0.26
-9 -10 3 0.99 0.24
9 -10 -3 1.35 0.27
10 10 -3 1.52 0.29
-10 -10 -3 2.22 0.35
-10 -10 3 1.66 0.31
-10 -10 3 2.06 0.32
-11 -10 -3 0.77 0.29
11 10 -3 1.12 0.27
-11 -10 3 0.16 0.26
-11 -10 3 0.49 0.23
12 10 -3 0.19 0.23
-12 -10 -3 0.38 0.23
-12 -10 3 0.84 0.26
-12 -10 3 -0.13 0.26
0 -11 3 0.03 0.05
0 -11 3 -0.11 0.08
0 -11 -3 0.06 0.06
0 -11 -3 0.07 0.08
-1 -11 -3 9.28 0.5
-1 -11 -3 10.46 0.45
1 -11 3 10.05 0.49
1 -11 3 11.15 0.39
-1 -11 3 10.54 0.51
1 -11 -3 9.32 0.49
-1 -11 3 9.51 0.44
1 -11 -3 9.47 0.4
2 -11 3 1.26 0.16
-2 -11 -3 1.46 0.19
-2 -11 -3 1.67 0.17
-2 -11 3 1.57 0.16
-2 -11 3 1.25 0.2
2 -11 -3 1.14 0.16
2 -11 -3 1.48 0.1
3 11 -3 9.59 0.52
-3 -11 -3 9.45 0.47
3 -11 3 9.81 0.47
-3 -11 -3 9.79 0.5
3 -11 -3 10.21 0.39
-3 -11 3 10.48 0.52
-3 -11 3 9.35 0.47
3 -11 -3 9.28 0.51
4 11 -3 7.79 0.42
-4 -11 -3 6.78 0.4
-4 -11 -3 6.74 0.39
4 -11 3 7.04 0.38
-4 -11 3 6.65 0.43
4 -11 -3 6.96 0.42
-4 -11 3 6.51 0.4
-5 -11 -3 1.83 0.24
-5 -11 -3 1.84 0.23
5 -11 3 1.95 0.21
5 11 -3 1.82 0.26
-5 -11 3 1.82 0.25
-5 -11 3 1.26 0.22
5 -11 -3 2.04 0.25
6 11 -3 1.53 0.25
-6 -11 -3 1.26 0.2
-6 -11 -3 1.85 0.24
6 -11 3 1.42 0.2
-6 -11 3 0.94 0.2
-6 -11 3 1.06 0.23
6 -11 -3 1.32 0.22
7 11 -3 3.78 0.37
-7 -11 -3 3.89 0.33
-7 -11 -3 3.81 0.37
-7 -11 3 3.71 0.37
-7 -11 3 4.3 0.41
7 -11 -3 4.27 0.35
-8 -11 -3 0.75 0.23
-8 -11 -3 0.76 0.2
8 11 -3 1.13 0.24
-8 -11 3 0.94 0.24
8 -11 -3 1.05 0.22
-8 -11 3 0.86 0.25
-9 -11 -3 5.89 0.43
9 11 -3 6.24 0.48
-9 -11 -3 6.14 0.51
-9 -11 3 6.6 0.49
-9 -11 3 5.96 0.52
9 -11 -3 6.43 0.48
10 11 -3 0.5 0.22
-10 -11 -3 0.38 0.26
-10 -11 3 0.74 0.29
-10 -11 3 0.38 0.22
-11 -11 -3 2.29 0.39
11 11 -3 2.6 0.36
-11 -11 3 3.51 0.47
-11 -11 3 2.5 0.37
-12 -11 -3 1.25 0.35
12 11 -3 1.2 0.31
-12 -11 3 2.01 0.36
-12 -11 3 1.07 0.36
0 -12 3 17.81 0.8
0 -12 3 19.64 0.72
0 -12 -3 18.64 0.72
0 -12 -3 16.69 0.81
1 -12 3 1.21 0.18
1 -12 3 1.68 0.09
-1 -12 -3 1.32 0.14
-1 -12 -3 1.55 0.21
1 -12 -3 1.54 0.19
-1 -12 3 1.56 0.2
-1 -12 3 1.38 0.14
1 -12 -3 1.61 0.11
-2 -12 -3 1.19 0.15
2 -12 3 0.97 0.15
-2 -12 -3 0.73 0.17
-2 -12 3 0.82 0.18
2 -12 -3 0.69 0.16
2 -12 -3 1.15 0.09
-2 -12 3 1.01 0.15
3 -12 3 3.67 0.25
-3 -12 -3 3 0.25
-3 -12 -3 3.55 0.25
-3 -12 3 3.31 0.26
-3 -12 3 2.96 0.27
3 -12 -3 3.51 0.29
4 -12 3 15.91 0.73
-4 -12 -3 15.82 0.75
4 12 -3 16.34 0.77
-4 -12 -3 16.76 0.74
-4 -12 3 16.33 0.79
-4 -12 3 16.64 0.75
4 -12 -3 16.47 0.77
5 12 -3 32.17 1.37
5 -12 3 33.68 1.32
-5 -12 -3 31.88 1.32
-5 -12 -3 30.65 1.33
-5 -12 3 30.86 1.33
-5 -12 3 31.99 1.37
5 -12 -3 31.93 1.36
6 -12 3 0.86 0.17
-6 -12 -3 0.65 0.19
-6 -12 -3 0.4 0.17
6 12 -3 0.65 0.2
-6 -12 3 0.51 0.19
-6 -12 3 0.78 0.2
6 -12 -3 0.8 0.2
-7 -12 -3 1.04 0.22
7 12 -3 1.05 0.24
-7 -12 -3 0.88 0.23
-7 -12 3 1.02 0.25
7 -12 -3 1.14 0.22
-7 -12 3 1.46 0.26
-8 -12 -3 0.91 0.21
8 12 -3 0.83 0.23
-8 -12 -3 1.14 0.23
-8 -12 3 1.18 0.27
8 -12 -3 1.4 0.25
-8 -12 3 1.12 0.26
-9 -12 -3 4.44 0.45
9 12 -3 3.69 0.41
-9 -12 -3 3.69 0.37
-9 -12 3 4.21 0.43
-9 -12 3 4.08 0.46
9 -12 -3 3.47 0.4
10 12 -3 0.6 0.24
-10 -12 -3 0.89 0.29
-10 -12 3 -0.05 0.24
-10 -12 3 0.52 0.24
11 12 -3 0.11 0.23
-11 -12 -3 0.08 0.26
-11 -12 3 -0.17 0.26
-11 -12 3 0.32 0.23
12 12 -3 0.25 0.24
-12 -12 3 0.02 0.23
0 -13 3 -0.04 0.06
0 -13 -3 0.04 0.06
0 -13 3 -0.04 0.09
0 -13 -3 -0.09 0.09
1 -13 3 11.33 0.57
-1 -13 -3 10.99 0.58
-1 -13 -3 12.38 0.51
1 -13 -3 11.88 0.47
1 -13 -3 10.96 0.58
-1 -13 3 11.14 0.57
-1 -13 3 11.94 0.51
2 -13 3 4.2 0.29
-2 -13 -3 4.52 0.27
-2 -13 -3 3.79 0.3
2 -13 -3 3.88 0.32
-2 -13 3 4.59 0.27
-2 -13 3 3.93 0.3
3 -13 3 0.64 0.14
-3 -13 -3 0.84 0.15
-3 -13 -3 0.87 0.19
3 -13 -3 0.23 0.16
-3 -13 3 0.66 0.15
-3 -13 3 0.71 0.19
-4 -13 -3 1.68 0.21
-4 -13 -3 1.54 0.21
4 -13 3 1.14 0.18
-4 -13 3 1.34 0.24
4 -13 -3 1.77 0.24
-4 -13 3 1.32 0.2
-5 -13 -3 3.06 0.3
-5 -13 -3 3.64 0.3
5 13 -3 3.81 0.37
5 -13 3 3.57 0.28
-5 -13 3 3.02 0.32
-5 -13 3 3.63 0.31
5 -13 -3 3.74 0.35
-6 -13 -3 3.62 0.34
6 13 -3 3.73 0.37
-6 -13 -3 3.2 0.33
6 -13 3 4.12 0.32
-6 -13 3 3.55 0.35
6 -13 -3 3.97 0.37
-6 -13 3 3.36 0.36
7 13 -3 1.54 0.28
-7 -13 -3 0.83 0.23
-7 -13 -3 1.1 0.23
-7 -13 3 0.97 0.22
-7 -13 3 1.44 0.27
7 -13 -3 0.88 0.22
-8 -13 -3 2.49 0.34
-8 -13 -3 2.88 0.33
8 13 -3 2.88 0.36
-8 -13 3 2.88 0.38
8 -13 -3 3.09 0.36
-8 -13 3 2.34 0.34
-9 -13 -3 1.45 0.27
9 13 -3 1.64 0.31
-9 -13 -3 2 0.34
-9 -13 3 2 0.32
9 -13 -3 0.9 0.26
-9 -13 3 1.74 0.31
10 13 -3 0.84 0.23
-10 -13 -3 0.35 0.26
-10 -13 3 0.55 0.26
-10 -13 3 0.57 0.29
-11 -13 -3 0.31 0.29
11 13 -3 0.36 0.25
-11 -13 3 0.53 0.31
-11 -13 3 0.7 0.29
12 13 -3 0.74 0.29
-12 -13 3 0.91 0.3
0 -14 3 1.36 0.21
0 -14 -3 1.64 0.23
0 -14 -3 1.67 0.14
-1 -14 -3 20.03 0.76
-1 -14 -3 17.04 0.83
1 -14 3 18.78 0.83
1 -14 -3 18.55 0.85
-1 -14 3 14.93 0.82
-1 -14 3 20.2 0.76
-2 -14 -3 11.38 0.6
2 -14 3 10.28 0.55
-2 -14 -3 11.71 0.53
-2 -14 3 11.33 0.52
-2 -14 3 11.31 0.6
2 -14 -3 11.04 0.59
-3 -14 -3 1.64 0.24
3 -14 3 1.55 0.21
-3 -14 -3 2.14 0.22
3 -14 -3 1.6 0.21
-3 -14 3 1.47 0.2
-3 -14 3 1.65 0.25
4 -14 3 1.69 0.23
-4 -14 -3 2.2 0.25
-4 -14 -3 2.25 0.28
-4 -14 3 2.48 0.26
-4 -14 3 2.23 0.28
4 -14 -3 2.61 0.29
-5 -14 -3 0.58 0.19
5 -14 3 0.91 0.18
-5 -14 -3 0.68 0.18
-5 -14 3 1.12 0.24
-5 -14 3 0.47 0.17
5 -14 -3 1.05 0.21
-6 -14 -3 1.8 0.26
6 -14 3 2.33 0.26
-6 -14 -3 1.97 0.27
6 -14 -3 2.49 0.31
-6 -14 3 1.42 0.25
-6 -14 3 2.5 0.3
-7 -14 -3 1.23 0.25
7 14 -3 1.68 0.27
-7 -14 -3 1.28 0.26
-7 -14 3 1.68 0.3
-7 -14 3 1.17 0.26
7 -14 -3 1.31 0.26
-8 -14 -3 2.71 0.36
8 14 -3 2.81 0.37
-8 -14 -3 2.63 0.33
-8 -14 3 3.01 0.38
-8 -14 3 2.48 0.35
8 -14 -3 2.65 0.35
-9 -14 -3 1.06 0.29
-9 -14 -3 1.12 0.27
9 14 -3 1.51 0.3
9 -14 -3 1.11 0.29
-9 -14 3 1.37 0.3
-9 -14 3 0.87 0.29
-10 -14 -3 0.5 0.28
10 14 -3 0.51 0.26
-10 -14 -3 0.8 0.26
-10 -14 3 1.13 0.33
-10 -14 3 1.07 0.31
11 14 -3 0.55 0.27
-11 -14 -3 0.14 0.28
-11 -14 3 0.72 0.29
-11 -14 3 1.25 0.31
-12 -14 3 0.87 0.3
0 -15 -3 7.06 0.45
0 -15 3 6.9 0.44
1 -15 3 2.19 0.25
-1 -15 -3 2.24 0.19
-1 -15 -3 1.93 0.26
-1 -15 3 2.03 0.27
1 -15 -3 1.93 0.25
-2 -15 -3 18.33 0.89
2 -15 3 18.93 0.87
-2 -15 -3 21.77 0.83
-2 -15 3 19.82 0.82
2 -15 -3 17.25 0.88
-2 -15 3 19.26 0.91
-3 -15 -3 5.48 0.34
3 -15 3 5.11 0.35
-3 -15 -3 5.01 0.4
-3 -15 3 5.8 0.42
3 -15 -3 5.66 0.39
-3 -15 3 5.7 0.36
-4 -15 -3 1.32 0.2
-4 -15 -3 1.12 0.23
4 -15 3 0.68 0.16
-4 -15 3 0.75 0.22
4 -15 -3 0.59 0.17
-4 -15 3 1.03 0.19
-5 -15 -3 0.05 0.17
-5 -15 -3 0.28 0.16
5 -15 3 0.41 0.17
5 -15 -3 0.39 0.18
-5 -15 3 -0.18 0.18
-5 -15 3 0.06 0.15
-6 -15 -3 5.51 0.42
-6 -15 -3 5.44 0.4
6 -15 3 5.08 0.37
6 -15 -3 4.99 0.42
-6 -15 3 4.77 0.4
-6 -15 3 5.16 0.48
-7 -15 -3 0.13 0.15
-7 -15 -3 0.12 0.19
7 -15 -3 0.38 0.2
-7 -15 3 0.51 0.22
-7 -15 3 0.74 0.26
-8 -15 -3 2.71 0.35
-8 -15 -3 2.94 0.37
8 -15 -3 2.87 0.38
-8 -15 3 3.25 0.4
-8 -15 3 2.69 0.37
-9 -15 -3 1.22 0.27
-9 -15 -3 1.19 0.3
9 -15 -3 1.4 0.3
-9 -15 3 0.99 0.3
-9 -15 3 0.79 0.28
-10 -15 -3 0.29 0.22
-10 -15 -3 1.21 0.32
-10 -15 3 0.81 0.3
-10 -15 3 0.41 0.28
-11 -15 -3 1.92 0.4
-11 -15 3 1.74 0.41
-11 -15 3 2.43 0.4
0 -16 3 3.85 0.33
0 -16 -3 3.53 0.3
1 -16 3 8.16 0.46
-1 -16 -3 7.51 0.49
1 -16 -3 8.3 0.48
-1 -16 3 7.81 0.49
-2 -16 -3 9.32 0.54
2 -16 3 9.83 0.54
-2 -16 -3 10.65 0.49
2 -16 -3 9.69 0.56
-2 -16 3 9.65 0.57
-3 -16 -3 3.61 0.28
-3 -16 -3 4 0.37
3 -16 3 3.29 0.31
-3 -16 3 3.97 0.33
-3 -16 3 3.2 0.27
3 -16 -3 3.61 0.36
4 -16 3 8.33 0.48
-4 -16 -3 8.97 0.48
-4 -16 -3 7.93 0.5
4 -16 -3 8.56 0.53
-4 -16 3 8.17 0.48
-4 -16 3 7.8 0.51
-5 -16 -3 1.87 0.29
5 -16 3 1.62 0.23
-5 -16 -3 1.37 0.24
-5 -16 3 1.82 0.31
5 -16 -3 1.46 0.26
-5 -16 3 1.84 0.25
6 -16 3 0.47 0.16
-6 -16 -3 0.18 0.19
-6 -16 -3 0.29 0.18
6 -16 -3 0.18 0.19
-6 -16 3 0.37 0.19
-6 -16 3 0.35 0.18
-7 -16 -3 3.42 0.38
-7 -16 -3 3.12 0.36
-7 -16 3 3.2 0.41
7 -16 -3 4.21 0.44
-7 -16 3 2.83 0.36
-8 -16 -3 0.88 0.26
-8 -16 -3 0.79 0.25
-8 -16 3 0.21 0.23
8 -16 -3 0.58 0.23
-8 -16 3 0.58 0.21
-9 -16 -3 1.53 0.3
-9 -16 -3 1.53 0.33
-9 -16 3 1.53 0.33
-9 -16 3 1.43 0.33
-10 -16 -3 0.67 0.29
-10 -16 -3 0.3 0.26
-10 -16 3 0.43 0.29
-10 -16 3 0.99 0.32
-11 -16 3 2.04 0.38
0 -17 -3 13.93 0.72
0 -17 3 13.07 0.7
-1 -17 -3 8.93 0.55
1 -17 3 8.8 0.52
1 -17 -3 8.73 0.54
-1 -17 3 9.55 0.54
-2 -17 -3 3.12 0.34
2 -17 3 2.83 0.31
2 -17 -3 2.88 0.31
-2 -17 3 3.12 0.33
-3 -17 -3 3.31 0.36
3 -17 3 3.59 0.33
-3 -17 -3 3.43 0.28
-3 -17 3 3.39 0.37
3 -17 -3 3.68 0.37
-4 -17 -3 5.92 0.39
4 -17 3 5.42 0.39
-4 -17 -3 6.29 0.47
-4 -17 3 6.44 0.49
-4 -17 3 5.93 0.39
4 -17 -3 5.56 0.44
5 -17 3 6.82 0.47
-5 -17 -3 7.22 0.46
-5 -17 -3 8.66 0.55
5 -17 -3 7.8 0.53
-5 -17 3 7.63 0.52
-5 -17 3 8.3 0.49
6 -17 3 0.92 0.22
-6 -17 -3 0.94 0.26
-6 -17 -3 1.44 0.26
-6 -17 3 1.21 0.25
-6 -17 3 1.92 0.34
6 -17 -3 1.28 0.28
-7 -17 -3 0.96 0.25
-7 -17 -3 1.4 0.3
-7 -17 3 1.45 0.29
7 -17 -3 1.06 0.27
-7 -17 3 0.84 0.25
-8 -17 -3 1.28 0.28
-8 -17 -3 1.15 0.28
-8 -17 3 0.91 0.28
8 -17 -3 0.75 0.26
-8 -17 3 0.23 0.27
-9 -17 -3 1.56 0.33
-9 -17 -3 1.15 0.31
-9 -17 3 1.53 0.35
-9 -17 3 0.96 0.31
-10 -17 -3 0.62 0.27
-10 -17 -3 0.11 0.22
-10 -17 3 0.22 0.28
-10 -17 3 0.13 0.27
0 -18 -3 9.63 0.6
0 -18 3 10.57 0.6
1 -18 3 3.23 0.34
-1 -18 -3 2.61 0.34
1 -18 -3 3.59 0.36
-1 -18 3 3.38 0.37
-2 -18 -3 2.4 0.33
2 -18 3 2.41 0.29
2 -18 -3 2.6 0.33
-2 -18 3 3.24 0.36
3 -18 3 1.28 0.23
-3 -18 -3 1.38 0.28
3 -18 -3 1.68 0.28
-3 -18 3 1.07 0.27
-4 -18 -3 2.71 0.36
4 -18 3 2.76 0.31
-4 -18 -3 3.2 0.3
4 -18 -3 2.98 0.36
-4 -18 3 2.9 0.37
5 -18 3 1.41 0.25
-5 -18 -3 2 0.33
-5 -18 -3 2.02 0.27
-5 -18 3 1.1 0.22
5 -18 -3 1.42 0.28
-5 -18 3 1.48 0.32
-6 -18 -3 0.15 0.17
-6 -18 -3 -0.03 0.2
6 -18 -3 0.04 0.2
-6 -18 3 0.39 0.27
-6 -18 3 0.05 0.18
-7 -18 -3 0.72 0.24
-7 -18 -3 0.97 0.28
-7 -18 3 0.66 0.24
-7 -18 3 1.16 0.33
7 -18 -3 1.1 0.29
-8 -18 -3 0.62 0.26
-8 -18 -3 0.95 0.27
8 -18 -3 0.89 0.29
-8 -18 3 1.06 0.28
-8 -18 3 1.28 0.33
-9 -18 -3 -0.07 0.22
-9 -18 -3 -0.06 0.21
-9 -18 3 -0.12 0.24
-9 -18 3 -0.07 0.22
-10 -18 -3 0.99 0.33
-10 -18 -3 1.05 0.31
-10 -18 3 0.9 0.32
-10 -18 3 0.7 0.32
0 -19 -3 9.2 0.59
0 -19 3 9.29 0.55
-1 -19 -3 1.29 0.28
1 -19 3 1.37 0.26
-1 -19 3 1.47 0.29
1 -19 -3 1.52 0.26
-2 -19 -3 0.18 0.21
2 -19 3 0.23 0.18
2 -19 -3 0.32 0.21
-2 -19 3 0.05 0.21
-3 -19 -3 1.21 0.29
3 -19 3 1.43 0.25
-3 -19 3 1.7 0.32
3 -19 -3 1.05 0.27
4 -19 3 3.07 0.35
-4 -19 -3 3.83 0.42
4 -19 -3 3.48 0.4
-4 -19 3 3.09 0.4
-5 -19 -3 0.95 0.29
5 -19 3 1.43 0.27
-5 -19 -3 1.33 0.28
5 -19 -3 1.4 0.29
-5 -19 3 1.1 0.31
-6 -19 -3 1.74 0.34
-6 -19 -3 0.85 0.24
-6 -19 3 1.22 0.32
6 -19 -3 1.42 0.31
-7 -19 -3 1.46 0.32
-7 -19 -3 1.61 0.29
-7 -19 3 1.33 0.3
7 -19 -3 1.59 0.33
-7 -19 3 2.05 0.37
-8 -19 -3 0.6 0.26
-8 -19 -3 -0.16 0.23
-8 -19 3 0.2 0.28
8 -19 -3 0.04 0.22
-8 -19 3 0.21 0.23
-9 -19 -3 0.02 0.26
-9 -19 -3 0.4 0.27
-9 -19 3 0.65 0.3
-9 -19 3 0.82 0.29
-10 -19 -3 0.16 0.26
0 -20 -3 0.69 0.26
0 -20 3 0.79 0.25
-1 -20 -3 0.74 0.27
1 -20 3 0.54 0.22
1 -20 -3 0.83 0.26
-1 -20 3 0.87 0.26
-2 -20 -3 3.59 0.4
2 -20 3 4.17 0.41
2 -20 -3 3.92 0.43
-2 -20 3 4.02 0.44
3 -20 3 6.51 0.48
-3 -20 -3 7.07 0.51
-3 -20 3 7.95 0.58
3 -20 -3 6.39 0.52
4 -20 3 5.51 0.46
-4 -20 -3 5.54 0.52
-4 -20 3 6.13 0.53
4 -20 -3 5.46 0.52
-5 -20 -3 0.61 0.27
5 -20 3 0.32 0.2
5 -20 -3 0.38 0.23
-5 -20 3 0.41 0.27
-6 -20 -3 0.32 0.27
-6 -20 3 0.03 0.2
6 -20 -3 -0.09 0.19
-7 -20 -3 2.15 0.34
-7 -20 -3 1.85 0.32
-7 -20 3 2.43 0.42
7 -20 -3 2.25 0.38
-8 -20 -3 -0.21 0.22
-8 -20 -3 -0.09 0.24
-8 -20 3 0.3 0.27
-8 -20 3 0.2 0.28
-9 -20 -3 -0.15 0.25
-9 -20 -3 0.03 0.26
-9 -20 3 -0.47 0.25
0 -21 3 1.06 0.24
0 -21 -3 1.39 0.33
1 -21 3 2.46 0.35
-1 -21 -3 2.34 0.36
-1 -21 3 2.22 0.32
1 -21 -3 2.73 0.38
-2 -21 -3 1.81 0.35
2 -21 3 2.16 0.32
2 -21 -3 2.25 0.35
-2 -21 3 2.86 0.4
3 -21 3 5.54 0.46
-3 -21 -3 6.87 0.55
-3 -21 3 5.58 0.55
3 -21 -3 5.72 0.51
-4 -21 -3 2.81 0.38
4 -21 3 2.7 0.35
-4 -21 3 2.35 0.39
4 -21 -3 2.87 0.39
-5 -21 -3 1.29 0.33
5 -21 3 1.17 0.27
-5 -21 3 1.05 0.32
5 -21 -3 1.75 0.32
-6 -21 -3 1.35 0.3
6 -21 -3 1.39 0.33
-6 -21 3 1.92 0.34
-7 -21 -3 -0.04 0.26
-7 -21 3 0.19 0.27
7 -21 -3 0.28 0.25
-8 -21 -3 0.33 0.31
0 -22 -3 0.03 0.24
0 -22 3 0.1 0.23
1 -22 3 4.44 0.46
-1 -22 -3 4.12 0.45
-1 -22 3 4.93 0.5
1 -22 -3 4.88 0.51
2 -22 3 3.42 0.41
-2 -22 -3 3.63 0.45
2 -22 -3 4 0.46
-2 -22 3 4.12 0.47
3 -22 3 0.64 0.24
-3 -22 -3 0.3 0.28
-3 -22 3 0.88 0.32
3 -22 -3 0.91 0.25
-4 -22 -3 -0.18 0.24
4 -22 3 0.38 0.21
4 -22 -3 0.35 0.24
-4 -22 3 0.01 0.27
-5 -22 -3 2.37 0.4
-5 -22 3 1.94 0.39
5 -22 -3 2 0.36
-6 -22 -3 1.03 0.34
-6 -22 3 0.97 0.33
6 -22 -3 2.31 0.38
-7 -22 -3 0.44 0.3
7 -22 -3 1.17 0.33
0 -23 3 1.69 0.31
0 -23 -3 1.8 0.36
-1 -23 -3 3.17 0.4
1 -23 3 2.47 0.37
-1 -23 3 2.98 0.42
1 -23 -3 2.36 0.39
-2 -23 -3 1.46 0.31
2 -23 3 1.82 0.32
-2 -23 3 1.55 0.31
2 -23 -3 2.11 0.37
-3 -23 -3 0.41 0.29
3 -23 3 0.34 0.22
-3 -23 3 0.55 0.3
3 -23 -3 0.14 0.26
-4 -23 -3 0.58 0.25
4 -23 3 -0.02 0.2
-4 -23 3 0.14 0.29
4 -23 -3 -0.33 0.2
-5 -23 -3 1.27 0.3
-5 -23 3 0.96 0.35
5 -23 -3 0.96 0.3
-6 -23 -3 0.42 0.3
6 -23 -3 -0.14 0.24
7 -23 -3 0.27 0.26
0 -24 -3 0.25 0.29
0 -24 3 0.55 0.29
-1 -24 -3 7.4 0.62
1 -24 3 7.09 0.57
-1 -24 3 5.99 0.6
1 -24 -3 7.7 0.62
2 -24 3 0.91 0.29
-2 -24 -3 0.91 0.34
2 -24 -3 0.97 0.32
-2 -24 3 0.61 0.3
3 -24 3 0.62 0.27
-3 -24 -3 0.55 0.3
3 -24 -3 0.74 0.3
-3 -24 3 0.2 0.24
-4 -24 -3 0.44 0.31
4 -24 3 0.7 0.28
4 -24 -3 0.34 0.27
-4 -24 3 0.49 0.31
5 -24 -3 1.45 0.34
0 -25 3 1.15 0.3
0 -25 -3 1.68 0.38
-1 -25 -3 0.52 0.31
1 -25 3 0.33 0.26
1 -25 -3 0.76 0.3
-1 -25 3 0.73 0.32
-2 -25 -3 0.68 0.32
2 -25 3 0.61 0.26
2 -25 -3 0.36 0.23
-2 -25 3 0.35 0.31
3 -25 3 1.76 0.35
3 -25 -3 0.96 0.32
1 -26 3 -0.27 0.21
2 -26 3 0.26 0.25
3 -26 3 1.69 0.36
0 0 -4 485.61 17.95
0 0 -4 500.86 18.19
1 0 -4 19.35 0.75
-1 0 -4 19.45 0.74
1 0 -4 20.07 0.77
-1 0 -4 19.19 0.74
2 0 -4 33.34 1.32
2 0 -4 33.91 1.29
-2 0 -4 33.57 1.28
-2 0 -4 35.26 1.26
3 0 -4 46.71 1.73
3 0 4 45.58 1.7
-3 0 -4 47.07 1.7
3 0 -4 46.59 1.77
-3 0 -4 42.7 1.71
-4 0 -4 0.53 0.09
4 0 -4 0.38 0.11
-4 0 4 0.63 0.12
4 0 4 0.49 0.06
-5 0 -4 0.95 0.14
5 0 -4 0.77 0.15
-5 0 4 0.81 0.15
5 0 4 0.94 0.09
6 0 -4 1.37 0.19
6 0 4 1.76 0.14
-6 0 -4 1.64 0.19
-6 0 4 1.57 0.2
7 0 -4 0.05 0.12
-7 0 -4 0 0.12
-7 0 4 -0.06 0.12
7 0 4 0.1 0.08
8 0 4 10.83 0.49
8 0 -4 9.58 0.54
-8 0 4 9.84 0.57
-8 0 -4 10.36 0.55
9 0 -4 0.33 0.16
-9 0 -4 0.38 0.17
-9 0 4 0.33 0.18
-10 0 4 10.11 0.6
-10 0 -4 10.01 0.57
10 0 -4 9.02 0.55
11 0 -4 1.89 0.28
-11 0 4 1.66 0.28
-11 0 -4 1.73 0.28
-12 0 -4 2.21 0.32
-12 0 4 2.03 0.35
-13 0 4 0.89 0.29
-13 0 -4 0.6 0.25
-14 0 4 0.57 0.28
0 1 -4 210.7 7.71
0 1 -4 205.77 7.6
0 -1 -4 214.89 7.71
0 -1 -4 207.18 7.6
-1 -1 -4 13.28 0.51
1 1 -4 13.42 0.52
-1 -1 -4 12.75 0.51
1 1 -4 13.85 0.54
1 -1 -4 13.11 0.54
-1 1 -4 12.91 0.5
-1 1 -4 12.66 0.51
1 -1 -4 13.46 0.52
2 1 -4 1.08 0.12
-2 -1 -4 1.19 0.1
2 1 -4 0.89 0.1
-2 -1 -4 1.03 0.07
-2 1 -4 1.01 0.09
2 -1 -4 0.88 0.1
2 -1 -4 0.97 0.1
-3 -1 -4 23.92 0.89
3 -1 4 23.94 0.87
-3 -1 -4 23.58 0.92
3 1 -4 23.2 0.95
3 -1 -4 23.31 0.95
-3 1 -4 22.41 0.9
3 -1 -4 23.45 0.92
-3 -1 4 23.27 0.93
3 1 4 23.32 0.89
-4 -1 -4 17.48 0.69
-4 -1 -4 17.35 0.73
-4 1 4 18 0.74
4 1 -4 18.09 0.76
4 -1 4 17.37 0.68
4 -1 -4 17.95 0.76
-4 -1 4 17.65 0.75
-4 1 -4 17.47 0.72
4 1 4 18.38 0.69
-5 1 4 19.36 0.85
-5 -1 -4 20.26 0.85
-5 -1 -4 22.08 0.81
5 -1 4 20.1 0.8
5 1 -4 20.05 0.88
-5 1 -4 20.3 0.83
5 1 4 21.14 0.81
5 -1 -4 20.74 0.87
-5 -1 4 19.8 0.87
-6 -1 -4 17.08 0.76
-6 1 4 17.93 0.78
6 1 -4 18.15 0.79
6 -1 4 17.11 0.7
-6 1 -4 17.51 0.75
6 -1 -4 16.9 0.77
6 1 4 17.38 0.71
-6 -1 4 17.35 0.79
-7 -1 -4 10.61 0.53
7 1 -4 11.19 0.54
7 -1 4 11.2 0.47
-7 1 4 10.56 0.54
7 -1 -4 9.37 0.52
-7 -1 4 9.66 0.56
7 1 4 10.73 0.47
-7 1 -4 11.12 0.52
-8 1 4 7.24 0.46
-8 -1 -4 8.02 0.46
8 1 -4 7.08 0.45
8 -1 -4 7.57 0.45
-8 -1 4 7.67 0.49
-8 1 -4 7.43 0.44
8 1 4 7.51 0.38
-9 1 4 1.83 0.26
9 1 -4 2.15 0.26
-9 -1 -4 1.74 0.25
-9 1 -4 1.47 0.23
9 -1 -4 1.91 0.25
-9 -1 4 1.97 0.28
-10 1 4 3.15 0.35
10 1 -4 2.86 0.32
-10 -1 -4 2.48 0.32
10 -1 -4 3.49 0.35
-10 -1 4 3.11 0.36
-10 1 -4 2.95 0.32
11 1 -4 4.86 0.44
-11 -1 -4 3.97 0.41
-11 1 4 4.35 0.43
-11 -1 4 5.73 0.47
11 -1 -4 4.06 0.41
-11 1 -4 3.68 0.38
-12 -1 -4 1.03 0.27
-12 1 4 1.56 0.31
-12 -1 4 1.6 0.32
-12 1 -4 1.18 0.26
-13 -1 -4 2.64 0.37
-13 1 4 2.61 0.39
-13 -1 4 2.76 0.42
-13 1 -4 2.66 0.36
-14 -1 -4 -0.29 0.22
0 -2 -4 0.12 0.05
0 -2 -4 0.09 0.04
0 2 -4 -0.01 0.04
0 2 -4 0.04 0.04
1 -2 4 169.61 6.14
1 2 -4 168.79 6.18
-1 -2 -4 157.17 6.07
1 2 -4 175.12 6.08
-1 -2 -4 172.41 6.15
-1 2 -4 161.37 6.06
-1 2 -4 166.78 6.14
1 -2 -4 166.82 6.17
1 -2 -4 165.98 6.07
-2 -2 -4 224.69 8.37
-2 -2 -4 240.19 8.47
2 -2 4 221.59 8.46
2 2 -4 234.12 8.51
2 2 -4 233.22 8.38
2 -2 -4 229.14 8.37
2 -2 -4 231.26 8.51
-2 2 -4 228.99 8.35
-3 -2 -4 38.07 1.45
-3 -2 -4 38.29 1.46
3 2 -4 37.99 1.5
3 -2 4 39.1 1.43
-3 2 -4 37.01 1.44
3 -2 -4 38.88 1.46
-3 -2 4 40.13 1.49
3 -2 -4 38.44 1.5
-4 -2 -4 4.68 0.23
4 2 -4 4.39 0.27
-4 2 4 4.64 0.27
4 -2 4 4.72 0.21
-4 -2 -4 4.67 0.27
-4 2 -4 5.21 0.25
-4 -2 4 5.46 0.3
4 -2 -4 5.2 0.29
4 2 4 4.9 0.23
-5 -2 -4 6.44 0.35
-5 2 4 6.05 0.34
5 2 -4 6.77 0.36
5 -2 4 5.84 0.27
-5 -2 -4 6.07 0.29
5 -2 -4 6.35 0.35
-5 2 -4 5.74 0.31
-5 -2 4 6.31 0.36
5 2 4 5.89 0.29
6 -2 4 7.62 0.34
6 2 -4 7.97 0.43
-6 2 4 7.28 0.41
-6 -2 -4 8.22 0.41
-6 -2 -4 7.59 0.36
6 2 4 7.53 0.35
-6 -2 4 7.26 0.42
-6 2 -4 7.45 0.39
6 -2 -4 7.13 0.4
7 -2 4 3.56 0.21
-7 2 4 3.45 0.28
-7 -2 -4 3.29 0.29
-7 -2 -4 3.71 0.23
7 2 -4 3.33 0.29
-7 -2 4 3.27 0.32
-7 2 -4 3.71 0.26
7 2 4 3.09 0.22
7 -2 -4 3 0.29
-8 -2 -4 14.55 0.61
8 2 -4 11.64 0.65
-8 2 4 13.91 0.67
-8 -2 -4 13.02 0.67
8 -2 -4 12.63 0.66
-8 -2 4 14.25 0.71
-8 2 -4 13.35 0.64
8 2 4 13.16 0.59
-9 2 4 7.01 0.47
-9 -2 -4 6.98 0.45
9 2 -4 7.62 0.47
-9 -2 4 7.3 0.5
-9 2 -4 7.66 0.44
9 -2 -4 7.1 0.46
10 2 -4 0.95 0.24
-10 -2 -4 1.21 0.25
-10 2 4 1.27 0.25
-10 2 -4 1.47 0.24
10 -2 -4 1.29 0.24
-10 -2 4 1.31 0.27
-11 2 4 0.2 0.21
-11 -2 -4 -0.09 0.19
11 2 -4 0.05 0.17
-11 -2 4 0.24 0.21
-11 2 -4 0.27 0.18
11 -2 -4 0.42 0.2
-12 2 4 0.22 0.2
12 2 -4 -0.18 0.18
-12 -2 -4 -0.03 0.2
-12 -2 4 -0.09 0.2
-12 2 -4 0.05 0.18
-13 -2 -4 0.35 0.25
-13 2 4 0.4 0.24
-13 -2 4 0.49 0.27
0 -3 -4 103.32 4.01
0 3 -4 108.5 3.94
0 3 -4 112.59 4.01
0 -3 -4 108.25 3.94
1 3 -4 4.29 0.24
-1 -3 -4 4.31 0.22
1 -3 4 4.81 0.2
1 3 -4 4.46 0.22
-1 -3 -4 4.67 0.22
1 -3 -4 4.98 0.24
1 -3 -4 4.82 0.21
-1 3 -4 4.52 0.2
-1 3 -4 4.93 0.21
2 -3 4 5.38 0.2
-2 -3 -4 4.63 0.24
2 3 -4 4.52 0.25
2 3 -4 4.85 0.25
-2 -3 -4 5.13 0.23
2 -3 -4 4.55 0.25
2 -3 -4 4.85 0.23
-2 3 -4 4.79 0.21
3 3 -4 129.26 4.9
-3 -3 -4 127.62 4.81
3 -3 4 133.06 4.83
-3 -3 -4 132.54 4.85
3 -3 -4 133.81 4.8
-3 3 -4 131.34 4.78
3 -3 -4 129.02 4.9
-3 -3 4 132.69 4.83
4 3 -4 0.62 0.13
-4 -3 -4 0.65 0.08
4 -3 4 0.68 0.07
-4 -3 -4 0.84 0.13
-4 3 4 0.72 0.11
4 3 4 0.85 0.09
-4 -3 4 0.81 0.14
4 -3 -4 0.74 0.13
-4 3 -4 0.75 0.09
-5 -3 -4 81.15 3.08
-5 -3 -4 82.37 3.07
-5 3 4 80.64 3.06
5 -3 4 82.27 3.05
5 3 -4 81.66 3.13
5 -3 -4 82.31 3.13
-5 -3 4 80.79 3.1
5 3 4 83.24 3.07
-5 3 -4 82.14 3.04
6 -3 4 2.22 0.15
-6 3 4 2.42 0.23
6 3 -4 2.13 0.24
-6 -3 -4 2.25 0.18
-6 -3 -4 2.4 0.23
6 -3 -4 2.43 0.24
-6 3 -4 2.38 0.21
6 3 4 2.38 0.18
-6 -3 4 2.65 0.27
7 3 -4 1.05 0.19
7 -3 4 1.23 0.13
-7 -3 -4 1.56 0.22
-7 3 4 1.35 0.19
-7 -3 -4 1.37 0.16
-7 3 -4 1.12 0.17
7 -3 -4 1.37 0.2
-7 -3 4 0.99 0.21
7 3 4 1.03 0.14
8 3 -4 8.43 0.5
-8 3 4 8.94 0.51
-8 -3 -4 9.31 0.52
-8 -3 -4 9.16 0.45
8 3 4 9.3 0.44
-8 -3 4 8.51 0.52
8 -3 -4 8.3 0.49
-8 3 -4 8.58 0.46
9 3 -4 5.65 0.4
-9 -3 -4 5.84 0.4
-9 3 4 5.31 0.4
9 -3 -4 5.56 0.39
-9 3 -4 5.1 0.36
-9 -3 4 5.81 0.45
10 3 -4 1.06 0.23
-10 3 4 1.05 0.22
-10 -3 -4 1.28 0.25
-10 3 -4 1.45 0.23
10 -3 -4 1.4 0.24
-10 -3 4 1.57 0.29
11 3 -4 1.53 0.27
-11 3 4 1.64 0.27
-11 -3 -4 1.85 0.31
11 -3 -4 1.72 0.3
-11 3 -4 1.89 0.26
-11 -3 4 2.01 0.33
-12 3 4 0.23 0.23
-12 -3 -4 0.7 0.26
12 3 -4 -0.01 0.19
-12 -3 4 0.26 0.23
-13 -3 -4 -0.17 0.21
-13 -3 4 0.36 0.26
0 4 -4 443.38 16.6
0 -4 -4 450.31 16.8
0 -4 4 454.75 16.82
0 -4 -4 471.58 16.66
0 4 -4 466.59 16.79
1 4 -4 42.13 1.57
1 4 -4 41.37 1.53
-1 -4 -4 41.92 1.55
-1 -4 -4 40.38 1.53
1 -4 4 41.7 1.54
1 -4 -4 42.1 1.57
1 -4 -4 40 1.52
-1 4 -4 38.43 1.5
-2 -4 -4 12.3 0.51
-2 -4 -4 12.22 0.51
2 -4 4 12.69 0.48
2 4 -4 13.13 0.54
2 -4 -4 12.49 0.49
2 -4 -4 11.56 0.52
-2 4 -4 11.78 0.47
-2 -4 4 12.32 0.52
-3 -4 -4 2.93 0.19
3 4 -4 2.66 0.19
3 -4 4 2.74 0.14
-3 -4 -4 2.45 0.16
3 -4 -4 2.59 0.2
-3 4 -4 2.53 0.14
3 -4 -4 2.65 0.16
-3 -4 4 2.65 0.2
4 -4 4 35.39 1.33
-4 4 4 36.8 1.36
-4 -4 -4 34.87 1.36
4 4 -4 35.24 1.41
-4 -4 -4 35.33 1.38
-4 4 -4 34.72 1.33
4 -4 -4 34.26 1.4
-4 -4 4 35.18 1.4
-5 -4 -4 48.19 1.78
-5 4 4 46.74 1.79
-5 -4 -4 46.08 1.81
5 -4 4 47.52 1.76
5 4 -4 48.86 1.85
5 -4 -4 43.94 1.83
-5 4 -4 45.83 1.75
5 4 4 45.1 1.78
-5 -4 4 46.1 1.83
6 -4 4 0.21 0.07
-6 -4 -4 0.25 0.09
-6 4 4 0.12 0.11
6 4 -4 0.1 0.1
-6 -4 -4 0.14 0.13
-6 -4 4 0.27 0.15
6 4 4 0.17 0.09
-6 4 -4 0.1 0.09
6 -4 -4 0.16 0.12
7 -4 4 3.71 0.22
-7 4 4 3.94 0.3
-7 -4 -4 3.66 0.29
7 4 -4 3.75 0.29
-7 -4 -4 4.09 0.25
7 4 4 3.58 0.24
-7 -4 4 3.63 0.35
-7 4 -4 3.41 0.25
7 -4 -4 3.1 0.3
-8 -4 -4 4.8 0.39
-8 4 4 5.59 0.39
-8 -4 -4 5.29 0.33
8 4 -4 5.82 0.4
-8 4 -4 5.65 0.34
8 4 4 5.31 0.31
-8 -4 4 5.05 0.39
8 -4 -4 5.76 0.38
-9 4 4 2.58 0.29
9 4 -4 2.6 0.3
-9 -4 -4 1.91 0.27
-9 4 -4 2.65 0.26
-9 -4 4 2.14 0.31
9 -4 -4 2.58 0.3
10 4 -4 1.44 0.25
-10 4 4 0.58 0.18
-10 -4 -4 0.97 0.25
-10 4 -4 0.82 0.19
10 -4 -4 0.78 0.2
-10 -4 4 1.05 0.26
-11 -4 -4 0.45 0.24
11 4 -4 0.12 0.19
-11 4 4 0.48 0.2
11 -4 -4 0.33 0.18
-11 -4 4 0.24 0.23
-12 -4 -4 1.49 0.31
12 4 -4 1.2 0.27
-12 -4 4 0.44 0.28
-13 -4 -4 0.19 0.25
-13 -4 4 0.42 0.27
0 -5 -4 325.71 11.73
0 -5 -4 311.26 11.53
0 -5 4 319.36 11.72
0 5 -4 320.42 11.53
0 5 -4 315.87 11.72
1 5 -4 33.14 1.31
1 -5 4 32.62 1.28
-1 -5 -4 34.9 1.27
1 5 -4 32.43 1.27
-1 -5 -4 33.21 1.3
-1 5 -4 33.27 1.24
1 -5 -4 34.77 1.31
1 -5 -4 35.11 1.26
-1 -5 4 34.31 1.31
-2 -5 -4 41.38 1.56
2 5 -4 41.51 1.6
2 -5 4 43.17 1.55
-2 -5 -4 44.31 1.58
2 -5 -4 39.83 1.53
-2 5 -4 39.41 1.51
2 -5 -4 38.55 1.59
-2 -5 4 41.66 1.57
-3 -5 -4 15.38 0.62
3 5 -4 15.53 0.66
3 -5 4 15.83 0.59
-3 -5 -4 15.37 0.63
3 -5 -4 12.87 0.63
-3 5 -4 15.06 0.57
-3 -5 4 13.68 0.64
3 -5 -4 14.73 0.6
-4 -5 -4 27.26 1.07
-4 -5 -4 25.58 1.08
4 5 -4 27.56 1.12
4 -5 4 27.91 1.04
-4 5 -4 26.18 1.02
4 -5 -4 27.63 1.11
-4 -5 4 26.86 1.11
-5 -5 -4 5.43 0.33
-5 5 4 5.16 0.29
5 -5 4 5.58 0.26
5 5 -4 5.17 0.34
-5 -5 -4 5.17 0.28
-5 5 -4 4.98 0.25
5 5 4 4.94 0.28
5 -5 -4 5.3 0.32
-5 -5 4 5.11 0.35
-6 -5 -4 35.35 1.42
6 5 -4 35.25 1.44
-6 -5 -4 36.26 1.38
6 -5 4 35.33 1.35
-6 5 4 34.05 1.38
6 -5 -4 33.07 1.42
-6 5 -4 36.02 1.35
-6 -5 4 34.11 1.44
6 5 4 34.29 1.37
-7 5 4 3.89 0.29
-7 -5 -4 3.9 0.26
7 -5 4 3.72 0.22
-7 -5 -4 3.77 0.32
7 5 -4 3.43 0.29
7 5 4 3.6 0.24
-7 5 -4 3.64 0.24
-7 -5 4 2.97 0.33
7 -5 -4 3.42 0.29
-8 -5 -4 5.76 0.35
8 5 -4 6.1 0.41
-8 5 4 5.36 0.36
-8 -5 -4 6.59 0.44
-8 -5 4 5.41 0.4
8 -5 -4 5.14 0.38
8 5 4 5.46 0.34
-8 5 -4 5.59 0.35
-9 -5 -4 1.43 0.26
-9 5 4 1.55 0.24
9 5 -4 1.75 0.26
-9 -5 4 1.73 0.27
9 -5 -4 1.91 0.26
-9 5 -4 1.29 0.19
-10 5 4 0.65 0.19
-10 -5 -4 0.38 0.22
10 5 -4 0.14 0.18
10 -5 -4 0.35 0.18
-10 -5 4 0.13 0.16
11 5 -4 0.13 0.18
-11 -5 -4 0.15 0.21
11 -5 -4 0.13 0.18
-11 -5 4 -0.04 0.16
-12 -5 -4 0.63 0.27
12 5 -4 0.84 0.25
-12 -5 4 0.59 0.24
-13 -5 -4 1.69 0.32
-13 -5 4 1.1 0.33
0 -6 -4 44.73 1.75
0 -6 4 44.23 1.74
0 -6 -4 48.62 1.7
0 6 -4 45.23 1.69
0 6 -4 45.77 1.74
-1 -6 -4 10.54 0.44
1 6 -4 9.82 0.46
-1 -6 -4 9.99 0.46
1 -6 4 10.4 0.45
-1 -6 4 10.95 0.45
1 -6 -4 11.4 0.48
-1 6 -4 10.72 0.41
1 -6 -4 10.58 0.42
-1 -6 4 11.06 0.47
-2 -6 -4 44.75 1.74
2 -6 4 46.99 1.74
2 6 -4 45.36 1.79
-2 -6 -4 46.67 1.77
-2 6 -4 46.09 1.69
-2 -6 4 45.81 1.79
-2 -6 4 45.38 1.75
2 -6 -4 47.06 1.71
2 -6 -4 46.66 1.78
-3 -6 -4 65.54 2.5
3 -6 4 69.33 2.49
-3 -6 -4 64.68 2.51
3 6 -4 66.3 2.55
3 -6 -4 65.28 2.46
3 -6 -4 64.28 2.54
-3 6 -4 70.13 2.43
-3 -6 4 66.24 2.51
4 6 -4 9.67 0.5
-4 -6 -4 9.64 0.48
-4 -6 -4 9.8 0.45
4 -6 4 10.59 0.43
-4 6 -4 9.87 0.4
-4 -6 4 10.66 0.5
4 -6 -4 9.36 0.43
4 -6 -4 10.05 0.48
-5 -6 -4 7.6 0.4
-5 6 4 7.48 0.36
5 -6 4 7.22 0.33
5 6 -4 7.52 0.42
-5 -6 -4 6.35 0.35
5 -6 -4 6.27 0.39
-5 6 -4 6.87 0.31
-5 -6 4 6.47 0.41
6 -6 4 3.2 0.2
6 6 -4 2.52 0.27
-6 -6 -4 2.6 0.22
-6 -6 -4 3.04 0.25
-6 6 4 3.14 0.24
-6 6 -4 3.4 0.2
6 -6 -4 2.93 0.28
6 6 4 3.17 0.22
-6 -6 4 3.25 0.32
7 6 -4 12.32 0.69
-7 -6 -4 14.9 0.73
7 -6 4 16.16 0.66
-7 -6 -4 14.55 0.66
-7 6 4 14.89 0.67
-7 -6 4 15.05 0.74
7 -6 -4 15.12 0.72
-7 6 -4 15.2 0.64
7 6 4 14.98 0.66
-8 -6 -4 9.01 0.51
8 6 -4 8.43 0.51
-8 6 4 8.01 0.46
-8 -6 -4 8.9 0.46
8 -6 -4 8.41 0.5
-8 -6 4 8.17 0.52
8 6 4 8.16 0.44
-8 6 -4 8.7 0.44
-9 -6 -4 5.49 0.45
9 6 -4 5.42 0.42
-9 6 4 5.52 0.38
9 6 4 6.23 0.36
9 -6 -4 5.66 0.41
-9 -6 4 6.33 0.45
10 6 -4 3.01 0.36
-10 -6 -4 3.99 0.42
10 -6 -4 3.54 0.37
-10 -6 4 4.03 0.44
-11 -6 -4 0.35 0.2
11 6 -4 -0.08 0.17
-11 -6 4 -0.08 0.22
12 6 -4 -0.02 0.2
-12 -6 -4 0.06 0.24
-12 -6 4 -0.04 0.26
-12 -6 4 0.43 0.25
-13 -6 -4 0.46 0.28
-13 -6 4 0.45 0.29
0 -7 -4 2.11 0.18
0 -7 4 2.33 0.14
0 -7 -4 1.96 0.13
0 -7 4 2.31 0.17
-1 -7 -4 198.04 7.29
1 -7 4 196.56 7.28
1 7 -4 193 7.3
-1 -7 -4 210.98 7.17
-1 7 -4 197.75 7.13
-1 -7 4 194.73 7.17
1 -7 -4 199.91 7.3
1 -7 -4 187.55 7.15
-1 -7 4 193.43 7.3
-2 -7 -4 64.01 2.47
2 -7 4 66.39 2.45
2 7 -4 65.67 2.49
-2 -7 -4 66.68 2.43
2 -7 -4 64.24 2.49
-2 -7 4 61.18 2.49
-2 -7 4 66.65 2.45
2 -7 -4 65.64 2.4
-2 7 -4 65.9 2.37
-3 -7 -4 30.05 1.24
3 -7 4 32.93 1.22
3 7 -4 31.98 1.28
-3 -7 -4 29.16 1.24
3 -7 -4 31.67 1.27
3 -7 -4 31.05 1.19
-3 -7 4 31.97 1.26
-3 7 -4 33.28 1.16
-3 -7 4 31.51 1.28
-4 -7 -4 7.78 0.38
4 -7 4 7.65 0.36
4 7 -4 8.19 0.43
-4 -7 -4 7.32 0.39
4 -7 -4 7.94 0.41
-4 7 -4 8.35 0.32
-4 -7 4 7.8 0.42
4 -7 -4 7.38 0.35
-4 -7 4 7.34 0.41
5 -7 4 21 0.81
-5 7 4 20.12 0.81
5 7 -4 20.37 0.89
-5 -7 -4 18.19 0.84
-5 -7 -4 19.09 0.83
-5 7 -4 19.81 0.77
5 -7 -4 20.11 0.87
-5 -7 4 19.22 0.88
-6 7 4 3.75 0.25
-6 -7 -4 3.95 0.31
-6 -7 -4 3.69 0.26
6 7 -4 3.43 0.31
6 -7 4 4.11 0.24
6 -7 -4 3.6 0.3
-6 -7 4 4.14 0.34
-6 7 -4 3.84 0.22
-7 7 4 0.83 0.16
-7 -7 -4 0.94 0.17
-7 -7 -4 0.53 0.19
7 7 -4 0.87 0.2
7 7 4 0.81 0.15
7 -7 -4 0.8 0.19
-7 7 -4 0.85 0.13
-7 -7 4 0.95 0.22
-8 7 4 4.42 0.31
8 7 -4 4.3 0.37
-8 -7 -4 3.96 0.38
-8 -7 -4 4.69 0.33
-8 -7 4 4.95 0.41
8 7 4 3.79 0.29
8 -7 -4 4.31 0.35
-9 -7 -4 7 0.49
9 7 -4 5.94 0.45
9 -7 -4 6.6 0.45
-9 -7 4 6.47 0.47
9 7 4 6.18 0.4
10 7 -4 0.93 0.24
-10 -7 -4 1.39 0.27
-10 -7 4 0.81 0.23
10 -7 -4 1.12 0.25
-10 -7 4 1.22 0.3
-11 -7 -4 0.29 0.25
11 7 -4 0.52 0.22
-11 -7 4 0.09 0.2
-11 -7 4 0.03 0.24
12 7 -4 0.63 0.24
-12 -7 -4 0.34 0.27
-12 -7 4 0.24 0.27
-12 -7 4 0.55 0.24
-13 -7 -4 -0.04 0.26
-13 -7 4 0.57 0.26
0 -8 -4 126.64 4.69
0 -8 4 125.86 4.79
0 -8 -4 127.93 4.81
0 -8 4 133.69 4.69
1 -8 4 17.81 0.76
1 8 -4 18.44 0.79
-1 -8 -4 17.82 0.78
1 -8 4 18.55 0.71
-1 -8 -4 19.26 0.75
1 -8 -4 19.66 0.8
-1 -8 4 19.43 0.79
1 -8 -4 18.56 0.72
-1 -8 4 19.33 0.75
-2 -8 -4 0.87 0.12
2 8 -4 0.65 0.14
-2 -8 -4 0.88 0.12
2 -8 4 0.85 0.11
-2 -8 4 0.68 0.12
2 -8 -4 0.77 0.08
-2 8 -4 0.78 0.05
2 -8 -4 0.36 0.12
-2 -8 4 0.73 0.12
-3 -8 -4 27.02 1.09
-3 -8 -4 25.72 1.09
3 8 -4 26.8 1.13
3 -8 4 27.97 1.07
-3 -8 4 24.76 1.12
-3 -8 4 27.78 1.1
3 -8 -4 28.29 1.13
-3 8 -4 28.29 1
3 -8 -4 27.84 1.04
4 8 -4 11.4 0.58
4 -8 4 11.88 0.51
-4 -8 -4 10.81 0.52
-4 -8 -4 11.04 0.54
-4 -8 4 11.95 0.57
-4 8 -4 13.01 0.46
-4 -8 4 11.13 0.58
4 -8 -4 11.25 0.49
4 -8 -4 11.48 0.56
5 -8 4 2.02 0.16
-5 8 4 1.81 0.16
-5 -8 -4 1.83 0.19
5 8 -4 1.58 0.22
-5 -8 -4 1.55 0.21
5 -8 -4 1.36 0.2
-5 -8 4 1.77 0.24
-5 -8 4 1.36 0.21
-5 8 -4 1.39 0.12
-6 8 4 13.08 0.57
-6 -8 -4 12.41 0.59
-6 -8 -4 11.69 0.62
6 8 -4 13.1 0.65
6 -8 4 13.77 0.57
-6 -8 4 12.12 0.65
-6 -8 4 11.06 0.64
6 -8 -4 13.04 0.64
-7 8 4 11.02 0.5
-7 -8 -4 10.01 0.55
-7 -8 -4 9.69 0.51
7 8 -4 10.92 0.58
7 -8 -4 9.49 0.55
-7 -8 4 9.35 0.56
-7 -8 4 9.35 0.55
-8 -8 -4 9.75 0.57
8 8 -4 9.57 0.56
-8 -8 -4 9.28 0.5
8 -8 -4 8.5 0.53
-8 -8 4 11.02 0.62
-8 -8 4 8.97 0.56
-9 -8 -4 0.9 0.2
-9 -8 -4 0.56 0.23
9 8 -4 0.6 0.21
-9 -8 4 0.91 0.23
9 -8 -4 1.03 0.22
-9 -8 4 0.82 0.23
10 8 -4 9.28 0.6
-10 -8 -4 10.42 0.66
-10 -8 4 9.98 0.62
10 -8 -4 9.33 0.6
-10 -8 4 10.95 0.69
-11 -8 -4 2.88 0.42
11 8 -4 2.86 0.36
-11 -8 4 2.43 0.35
-11 -8 4 3.16 0.44
12 8 -4 2.6 0.38
-12 -8 -4 2.37 0.4
-12 -8 4 2.71 0.41
-12 -8 4 2.5 0.37
0 -9 -4 3.5 0.25
0 -9 -4 3.86 0.2
0 -9 4 3.88 0.24
0 -9 4 3.69 0.19
1 -9 4 152.52 5.47
-1 -9 -4 148.79 5.62
-1 -9 -4 162.53 5.51
1 -9 4 148.14 5.61
-1 -9 4 149.82 5.63
1 -9 -4 148.25 5.48
1 -9 -4 142.8 5.63
-1 -9 4 152.33 5.51
2 9 -4 21.43 0.92
-2 -9 -4 21.39 0.9
2 -9 4 23.14 0.79
-2 -9 -4 21.83 0.87
2 -9 4 20.67 0.87
-2 -9 4 20.68 0.87
-2 -9 4 21.09 0.91
2 -9 -4 20.88 0.91
2 -9 -4 21.99 0.82
-3 -9 -4 32.29 1.32
3 -9 4 33.84 1.32
-3 -9 -4 32.67 1.34
3 9 -4 34.64 1.38
3 -9 -4 33.5 1.37
3 -9 -4 33.78 1.26
-3 -9 4 32.66 1.37
-3 -9 4 33.08 1.33
-3 9 -4 35.32 1.22
-4 -9 -4 16.14 0.72
-4 -9 -4 15.71 0.71
4 9 -4 16.22 0.76
4 -9 4 16.44 0.69
4 -9 -4 16.34 0.66
-4 -9 4 16.1 0.74
-4 -9 4 17.04 0.77
4 -9 -4 16.55 0.75
-4 9 -4 17.23 0.62
-5 9 4 4.16 0.24
5 9 -4 4.24 0.33
-5 -9 -4 3.88 0.3
-5 -9 -4 3.55 0.27
5 -9 4 4.35 0.25
5 -9 -4 4.01 0.32
-5 -9 4 4.1 0.33
-5 -9 4 3.88 0.32
6 9 -4 10.21 0.57
-6 -9 -4 10.42 0.52
-6 -9 -4 10.21 0.55
6 -9 4 10.91 0.5
-6 9 4 10.42 0.48
-6 -9 4 9.57 0.55
6 -9 -4 10.3 0.56
-6 -9 4 9.76 0.55
-7 -9 -4 3.85 0.3
7 9 -4 3.78 0.36
-7 -9 -4 3.8 0.32
-7 -9 4 3.52 0.36
-7 -9 4 3.9 0.38
7 -9 -4 3.61 0.32
-8 -9 -4 4.31 0.36
-8 -9 -4 4.15 0.35
8 9 -4 5.2 0.41
-8 -9 4 4.64 0.45
8 -9 -4 5.06 0.39
-8 -9 4 5.16 0.41
9 9 -4 0.26 0.2
-9 -9 -4 0.34 0.22
-9 -9 -4 0.21 0.16
-9 -9 4 0.24 0.19
9 -9 -4 0.26 0.18
-9 -9 4 0.29 0.22
-10 -9 -4 0.23 0.23
10 9 -4 0.13 0.15
10 -9 -4 0.17 0.2
-10 -9 4 0.59 0.24
-10 -9 4 0.67 0.28
11 9 -4 2.23 0.34
-11 -9 -4 2.38 0.39
-11 -9 4 2.62 0.42
-11 -9 4 2.9 0.38
-12 -9 -4 3.65 0.48
12 9 -4 3.16 0.4
-12 -9 4 2.29 0.42
-12 -9 4 2.63 0.39
0 -10 -4 10.15 0.53
0 -10 4 11.98 0.53
0 -10 -4 11.25 0.47
0 -10 4 12.38 0.48
-1 -10 -4 4.64 0.25
1 -10 4 4.98 0.21
1 -10 4 5.49 0.29
-1 -10 -4 5.15 0.31
-1 -10 4 5.16 0.31
1 -10 -4 4.13 0.28
1 -10 -4 4.79 0.23
-1 -10 4 4.77 0.26
2 10 -4 0.22 0.1
-2 -10 -4 0.48 0.11
2 -10 4 0.3 0.1
-2 -10 -4 0.45 0.11
-2 -10 4 0.44 0.14
-2 -10 4 0.3 0.1
2 -10 -4 0.14 0.11
2 -10 -4 0.29 0.06
3 10 -4 46.49 1.81
3 -10 4 43.08 1.74
-3 -10 -4 45.41 1.78
-3 -10 -4 46.14 1.74
-3 -10 4 43.65 1.8
3 -10 -4 45.42 1.8
-3 -10 4 44.02 1.75
3 -10 -4 46.23 1.68
4 10 -4 13.52 0.64
-4 -10 -4 11.97 0.58
-4 -10 -4 11.62 0.58
4 -10 4 13.22 0.57
4 -10 -4 13.04 0.62
-4 -10 4 12.75 0.62
-4 -10 4 11.62 0.59
-5 -10 -4 10.31 0.53
5 10 -4 9.46 0.53
5 -10 4 10.89 0.49
-5 -10 -4 9.26 0.5
-5 -10 4 9.72 0.54
5 -10 -4 10.4 0.55
-5 -10 4 9.37 0.55
-6 -10 -4 7.29 0.45
6 -10 4 8.29 0.4
6 10 -4 7.08 0.46
-6 -10 -4 6.79 0.41
6 -10 -4 5.47 0.4
-6 -10 4 6.69 0.44
-6 -10 4 7.63 0.48
7 10 -4 8.56 0.51
-7 -10 -4 7.74 0.49
-7 -10 -4 7.73 0.44
-7 -10 4 6.68 0.47
-7 -10 4 6.47 0.48
7 -10 -4 7.42 0.48
-8 -10 -4 5.38 0.37
-8 -10 -4 4.43 0.43
8 10 -4 5.19 0.42
8 -10 -4 4.73 0.39
-8 -10 4 4.77 0.46
-8 -10 4 5.11 0.43
9 10 -4 2.71 0.33
-9 -10 -4 2.69 0.3
-9 -10 -4 2.52 0.36
9 -10 -4 2.97 0.35
-9 -10 4 2.48 0.35
-9 -10 4 2.34 0.36
10 10 -4 0.97 0.26
-10 -10 -4 0.48 0.21
10 -10 -4 0.63 0.23
-10 -10 4 0.53 0.23
-10 -10 4 -0.04 0.21
11 10 -4 0.59 0.24
-11 -10 -4 0.55 0.23
-11 -10 4 0.3 0.23
-11 -10 4 0.08 0.27
-12 -10 -4 0.77 0.32
12 10 -4 0.82 0.28
-12 -10 4 0.37 0.31
-12 -10 4 1.04 0.3
0 -11 -4 0.26 0.07
0 -11 4 0.35 0.11
0 -11 -4 0.17 0.11
0 -11 4 0.46 0.08
1 -11 4 59.98 2.34
-1 -11 -4 55.24 2.35
-1 -11 -4 66.44 2.28
1 -11 4 64.61 2.23
-1 -11 4 61.29 2.36
-1 -11 4 59.32 2.28
1 -11 -4 58.92 2.36
1 -11 -4 60.29 2.25
-2 -11 -4 33.31 1.39
2 -11 4 32.75 1.37
-2 -11 -4 34.53 1.35
2 -11 -4 36.8 1.3
2 -11 -4 34.2 1.41
-2 -11 4 33.84 1.35
-2 -11 4 35.98 1.42
-3 -11 -4 10.19 0.48
3 11 -4 9.95 0.51
3 -11 4 9.8 0.47
-3 -11 -4 8.93 0.48
3 -11 -4 9.57 0.4
-3 -11 4 10.41 0.53
-3 -11 4 9.5 0.48
3 -11 -4 10.28 0.52
4 -11 4 10.68 0.5
-4 -11 -4 10.07 0.53
-4 -11 -4 10.54 0.53
4 11 -4 10.98 0.57
-4 -11 4 10.91 0.58
-4 -11 4 10.86 0.54
4 -11 -4 10.05 0.54
5 -11 4 1.65 0.19
5 11 -4 1.49 0.24
-5 -11 -4 1.28 0.21
-5 -11 -4 1.76 0.22
-5 -11 4 1.61 0.23
-5 -11 4 1.81 0.24
5 -11 -4 1.35 0.21
6 11 -4 3.22 0.34
-6 -11 -4 3.56 0.33
6 -11 4 3.77 0.28
-6 -11 -4 3.41 0.3
-6 -11 4 3.25 0.34
-6 -11 4 3.44 0.35
6 -11 -4 3.3 0.34
7 11 -4 3.25 0.33
-7 -11 -4 2.77 0.32
-7 -11 -4 2.87 0.3
-7 -11 4 2.35 0.32
-7 -11 4 2.82 0.34
7 -11 -4 2.44 0.31
8 11 -4 0.11 0.19
-8 -11 -4 0.05 0.15
-8 -11 -4 0.21 0.21
-8 -11 4 0.31 0.21
-8 -11 4 0.54 0.22
8 -11 -4 0.12 0.16
-9 -11 -4 0.32 0.18
9 11 -4 0.42 0.23
-9 -11 -4 0.86 0.23
9 -11 -4 0.58 0.23
-9 -11 4 0.43 0.23
-9 -11 4 0.61 0.22
-10 -11 -4 1.22 0.3
10 11 -4 1.46 0.3
-10 -11 4 0.62 0.3
10 -11 -4 1.25 0.28
-10 -11 4 1.22 0.28
11 11 -4 1.65 0.33
-11 -11 -4 1.73 0.35
-11 -11 4 2.2 0.4
-11 -11 4 2.04 0.35
-12 -11 -4 1.9 0.35
12 11 -4 1.98 0.35
-12 -11 4 0.88 0.34
-12 -11 4 2.33 0.38
0 -12 4 0.88 0.15
0 -12 4 1.03 0.1
0 -12 -4 0.81 0.17
0 -12 -4 1.06 0.11
-1 -12 -4 1.87 0.22
1 -12 4 2.52 0.21
1 -12 4 2.27 0.12
-1 -12 -4 1.85 0.16
1 -12 -4 1.74 0.2
1 -12 -4 1.68 0.12
-1 -12 4 1.87 0.17
-1 -12 4 2.08 0.23
2 -12 4 12.27 0.59
-2 -12 -4 11.81 0.61
-2 -12 -4 14.36 0.59
2 -12 -4 13.6 0.52
-2 -12 4 12.26 0.57
2 -12 -4 13.07 0.63
-2 -12 4 12.96 0.63
-3 -12 -4 8.45 0.48
3 12 -4 9.53 0.5
-3 -12 -4 9.32 0.45
3 -12 4 8.74 0.45
3 -12 -4 8.32 0.49
-3 -12 4 8.85 0.46
-3 -12 4 8.94 0.51
4 12 -4 17.41 0.82
-4 -12 -4 16.33 0.78
-4 -12 -4 17.04 0.76
4 -12 4 17.28 0.75
-4 -12 4 16.37 0.77
-4 -12 4 17.4 0.82
4 -12 -4 17.19 0.81
5 -12 4 3.02 0.26
5 12 -4 2.53 0.3
-5 -12 -4 2.52 0.26
-5 -12 -4 2.67 0.27
5 -12 -4 2.65 0.3
-5 -12 4 2.16 0.27
-5 -12 4 3.02 0.32
6 -12 4 1.75 0.21
-6 -12 -4 1.46 0.22
-6 -12 -4 1.28 0.23
6 12 -4 1.26 0.25
-6 -12 4 1.95 0.27
6 -12 -4 2 0.27
-6 -12 4 1.17 0.24
-7 -12 -4 5.22 0.4
-7 -12 -4 5.07 0.37
7 12 -4 5.01 0.42
-7 -12 4 4.25 0.42
-7 -12 4 4.25 0.42
7 -12 -4 4.51 0.42
8 12 -4 5.05 0.47
-8 -12 -4 5.24 0.44
-8 -12 -4 5.05 0.39
-8 -12 4 5.33 0.49
8 -12 -4 5.3 0.43
-8 -12 4 4.85 0.46
-9 -12 -4 0.61 0.21
9 12 -4 0.71 0.26
-9 -12 -4 0.56 0.21
9 -12 -4 0.29 0.21
-9 -12 4 0.75 0.28
-9 -12 4 0.63 0.24
-10 -12 -4 3.26 0.43
10 12 -4 4.54 0.46
-10 -12 4 3.86 0.48
10 -12 -4 3.98 0.45
-10 -12 4 3.65 0.43
-11 -12 -4 2.95 0.44
11 12 -4 3.3 0.42
-11 -12 4 3 0.47
-11 -12 4 3.05 0.41
12 12 -4 0.19 0.27
-12 -12 4 0.19 0.25
0 -13 -4 3.35 0.2
0 -13 4 4.05 0.21
0 -13 -4 2.89 0.3
0 -13 4 3.62 0.28
-1 -13 -4 35.74 1.59
-1 -13 -4 41.92 1.52
1 -13 4 38.96 1.58
-1 -13 4 39.89 1.61
1 -13 -4 39.46 1.48
1 -13 -4 37.63 1.6
-1 -13 4 41.92 1.52
-2 -13 -4 9.75 0.44
-2 -13 -4 8.94 0.48
2 -13 4 8.67 0.46
-2 -13 4 8.77 0.5
-2 -13 4 8.82 0.44
2 -13 -4 8.26 0.47
-3 -13 -4 0.99 0.17
3 -13 4 1.22 0.18
-3 -13 -4 1.16 0.22
-3 -13 4 1.41 0.18
3 -13 -4 1.15 0.21
-3 -13 4 1.66 0.24
-4 -13 -4 7.16 0.43
4 13 -4 7.31 0.47
4 -13 4 7.02 0.41
-4 -13 -4 7.28 0.43
-4 -13 4 7.25 0.48
-4 -13 4 6.84 0.43
4 -13 -4 6.92 0.45
-5 -13 -4 7.84 0.45
5 13 -4 7.77 0.5
5 -13 4 8.17 0.43
-5 -13 -4 6.51 0.44
-5 -13 4 7.16 0.46
-5 -13 4 7.12 0.45
5 -13 -4 7.09 0.47
6 13 -4 9.33 0.58
-6 -13 -4 9.37 0.53
6 -13 4 9.42 0.51
-6 -13 -4 8.97 0.53
6 -13 -4 9.16 0.56
-6 -13 4 9.84 0.58
-6 -13 4 8.63 0.52
-7 -13 -4 1.53 0.24
7 13 -4 1.91 0.31
-7 -13 -4 1.66 0.26
-7 -13 4 1.92 0.3
-7 -13 4 1.73 0.3
7 -13 -4 1.61 0.28
8 13 -4 0.81 0.25
-8 -13 -4 0.55 0.23
-8 -13 -4 0.49 0.2
8 -13 -4 1.16 0.25
-8 -13 4 0.63 0.24
-8 -13 4 0.92 0.23
9 13 -4 1.72 0.29
-9 -13 -4 2.32 0.32
-9 -13 -4 1.47 0.27
9 -13 -4 1.83 0.34
-9 -13 4 1.97 0.36
-9 -13 4 1.75 0.32
10 13 -4 1.36 0.31
-10 -13 -4 1.42 0.33
-10 -13 4 2.08 0.39
-10 -13 4 1.93 0.35
11 13 -4 1.07 0.3
-11 -13 -4 0.83 0.32
-11 -13 4 0.63 0.33
-11 -13 4 0.56 0.27
12 13 -4 0.72 0.29
-12 -13 4 0.99 0.32
0 -14 -4 5.15 0.25
0 -14 4 4.53 0.34
0 -14 -4 4.32 0.32
-1 -14 -4 4.66 0.33
1 -14 4 5.42 0.35
-1 -14 -4 5.14 0.29
-1 -14 4 5.45 0.29
1 -14 -4 4.58 0.36
-1 -14 4 4.47 0.33
2 -14 4 1.81 0.22
-2 -14 -4 2.06 0.21
-2 -14 -4 2.03 0.26
-2 -14 4 2.08 0.27
2 -14 -4 2.05 0.26
-2 -14 4 2.54 0.22
-3 -14 -4 20.23 0.94
-3 -14 -4 22.5 0.9
3 -14 4 20.26 0.91
-3 -14 4 20.76 0.9
3 -14 -4 19.69 0.94
-3 -14 4 22.41 0.98
-4 -14 -4 0.61 0.19
4 -14 4 0.86 0.16
-4 -14 -4 0.86 0.17
4 -14 -4 1.13 0.22
-4 -14 4 1.03 0.19
-4 -14 4 0.45 0.2
-5 -14 -4 5.68 0.38
5 -14 4 5.37 0.35
5 14 -4 6.07 0.42
-5 -14 -4 5.34 0.4
5 -14 -4 5.24 0.41
-5 -14 4 5.28 0.4
-5 -14 4 5.01 0.38
-6 -14 -4 3.03 0.32
6 14 -4 3.02 0.36
-6 -14 -4 2.95 0.32
6 -14 4 3.18 0.31
-6 -14 4 2.86 0.33
6 -14 -4 3.05 0.34
-6 -14 4 2.69 0.35
7 14 -4 1.95 0.32
-7 -14 -4 1.55 0.27
-7 -14 -4 1.94 0.28
-7 -14 4 1.92 0.29
-7 -14 4 1.87 0.3
7 -14 -4 1.8 0.3
8 14 -4 1.11 0.28
-8 -14 -4 0.95 0.22
-8 -14 -4 1.06 0.25
8 -14 -4 1.28 0.28
-8 -14 4 1.35 0.3
-8 -14 4 1.04 0.28
-9 -14 -4 2.37 0.33
-9 -14 -4 2.97 0.39
9 14 -4 2.94 0.38
-9 -14 4 2.63 0.39
-9 -14 4 3.38 0.43
9 -14 -4 3.25 0.41
10 14 -4 0.33 0.24
-10 -14 -4 0.35 0.28
-10 -14 4 0.03 0.25
-10 -14 4 -0.01 0.25
-11 -14 -4 0.65 0.32
11 14 -4 0.23 0.25
-11 -14 4 0.53 0.31
-11 -14 4 0.7 0.29
0 -15 4 4.72 0.36
0 -15 -4 4.19 0.35
-1 -15 -4 4.08 0.34
-1 -15 -4 3.72 0.24
1 -15 4 3.96 0.32
1 -15 -4 3.67 0.3
-1 -15 4 3.66 0.33
2 -15 4 1.14 0.2
-2 -15 -4 1.63 0.25
-2 -15 -4 2.15 0.21
-2 -15 4 1.63 0.26
-2 -15 4 2.07 0.21
2 -15 -4 1.49 0.24
-3 -15 -4 3.17 0.33
-3 -15 -4 3.67 0.27
3 -15 4 3.65 0.28
3 -15 -4 3.06 0.33
-3 -15 4 2.84 0.31
-3 -15 4 3.16 0.29
4 -15 4 0.81 0.17
-4 -15 -4 0.56 0.16
-4 -15 -4 0.66 0.17
-4 -15 4 0.49 0.17
4 -15 -4 0.77 0.21
-4 -15 4 0.69 0.16
5 -15 4 3.8 0.31
-5 -15 -4 3.38 0.35
-5 -15 -4 3.13 0.31
5 -15 -4 4.14 0.4
-5 -15 4 3.62 0.34
-5 -15 4 3.92 0.4
-6 -15 -4 4.33 0.39
-6 -15 -4 5.24 0.4
-6 -15 4 4.91 0.4
6 -15 -4 5.5 0.44
-6 -15 4 5.1 0.47
7 15 -4 0.78 0.23
-7 -15 -4 1.24 0.25
-7 -15 -4 0.95 0.24
7 -15 -4 0.97 0.25
-7 -15 4 0.87 0.28
-7 -15 4 0.99 0.25
-8 -15 -4 1.1 0.26
-8 -15 -4 1.15 0.28
8 15 -4 1.47 0.32
-8 -15 4 1.35 0.3
8 -15 -4 1.19 0.31
-8 -15 4 1.37 0.27
-9 -15 -4 1.68 0.32
-9 -15 -4 0.32 0.22
9 15 -4 0.95 0.25
-9 -15 4 1.05 0.26
9 -15 -4 1.99 0.36
-9 -15 4 1.6 0.33
10 15 -4 2.41 0.4
-10 -15 -4 2.3 0.39
-10 -15 4 2.04 0.36
-10 -15 4 1.44 0.36
11 15 -4 0.53 0.28
-11 -15 4 0.88 0.31
-11 -15 4 0.45 0.33
0 -16 -4 1.59 0.24
0 -16 4 1.08 0.22
1 -16 4 1.25 0.22
-1 -16 -4 1.54 0.25
-1 -16 4 1.01 0.22
1 -16 -4 1.27 0.23
-2 -16 -4 0.23 0.18
2 -16 4 0.01 0.13
-2 -16 -4 0.22 0.13
-2 -16 4 0.28 0.15
2 -16 -4 0.26 0.17
3 -16 4 3.36 0.29
-3 -16 -4 3.96 0.3
-3 -16 -4 2.95 0.34
-3 -16 4 3.64 0.28
3 -16 -4 3.88 0.37
-3 -16 4 3.16 0.36
-4 -16 -4 2.83 0.34
4 -16 4 3.2 0.29
-4 -16 -4 3.31 0.31
-4 -16 4 3.92 0.31
4 -16 -4 3.67 0.32
-4 -16 4 3.37 0.38
5 -16 4 -0.02 0.12
-5 -16 -4 -0.08 0.17
-5 -16 -4 -0.11 0.14
5 -16 -4 0 0.12
-5 -16 4 -0.12 0.14
-5 -16 4 0.11 0.15
-6 -16 -4 1.32 0.24
-6 -16 -4 1.27 0.27
-6 -16 4 1.11 0.24
6 -16 -4 1.09 0.26
-6 -16 4 1.18 0.29
-7 -16 -4 0.29 0.21
-7 -16 -4 0.17 0.19
7 -16 -4 0.22 0.21
-7 -16 4 -0.06 0.19
-7 -16 4 0.11 0.24
-8 -16 -4 1.12 0.28
-8 -16 -4 0.99 0.26
8 -16 -4 1.36 0.31
-8 -16 4 0.8 0.29
-8 -16 4 1.06 0.28
-9 -16 -4 1.64 0.31
-9 -16 -4 1.06 0.3
-9 -16 4 1.79 0.35
-9 -16 4 1.71 0.34
9 -16 -4 1.75 0.34
-10 -16 -4 0.13 0.26
-10 -16 4 0.16 0.28
-10 -16 4 0.28 0.27
0 -17 -4 1.79 0.25
0 -17 4 2.28 0.27
-1 -17 -4 0.69 0.21
1 -17 4 0.7 0.19
1 -17 -4 0.4 0.19
-1 -17 4 0.63 0.21
2 -17 4 2.71 0.29
-2 -17 -4 2.78 0.33
-2 -17 4 2.99 0.32
2 -17 -4 3.28 0.35
-3 -17 -4 3.25 0.34
3 -17 4 3 0.31
-3 -17 -4 3.51 0.3
3 -17 -4 3.2 0.36
-3 -17 4 3.17 0.37
-4 -17 -4 4.25 0.32
-4 -17 -4 3.65 0.37
4 -17 4 3.51 0.31
-4 -17 4 3.33 0.32
4 -17 -4 3.89 0.4
-4 -17 4 3.63 0.4
-5 -17 -4 1.44 0.24
5 -17 4 1.31 0.22
-5 -17 -4 1.69 0.3
-5 -17 4 1.94 0.33
5 -17 -4 1.68 0.3
-5 -17 4 1.23 0.23
-6 -17 -4 2.68 0.31
-6 -17 -4 2.79 0.36
6 -17 -4 2.64 0.36
-6 -17 4 2.54 0.38
-6 -17 4 1.67 0.28
-7 -17 -4 0.76 0.23
-7 -17 -4 0.6 0.24
7 -17 -4 1.22 0.31
-7 -17 4 0.49 0.28
-7 -17 4 0.64 0.23
-8 -17 -4 2.52 0.36
-8 -17 -4 2.98 0.38
-8 -17 4 2.88 0.42
-8 -17 4 2.42 0.36
8 -17 -4 3.69 0.44
-9 -17 -4 0.02 0.23
-9 -17 -4 0.28 0.24
9 -17 -4 0.44 0.26
-9 -17 4 -0.03 0.27
-9 -17 4 0.32 0.25
-10 -17 -4 1.17 0.34
-10 -17 4 1.47 0.36
-10 -17 4 1.32 0.36
0 -18 -4 1.73 0.28
0 -18 4 1.25 0.25
-1 -18 -4 0.86 0.24
1 -18 4 1.32 0.21
1 -18 -4 0.97 0.24
-1 -18 4 0.77 0.23
-2 -18 -4 1.14 0.26
2 -18 4 1.51 0.24
-2 -18 4 1.67 0.28
2 -18 -4 1.29 0.23
3 -18 4 1.13 0.22
-3 -18 -4 1.05 0.26
-3 -18 4 1.1 0.26
3 -18 -4 1.24 0.26
-4 -18 -4 0.98 0.2
4 -18 4 0.81 0.21
-4 -18 -4 1.02 0.27
4 -18 -4 1.03 0.26
-4 -18 4 0.92 0.24
-5 -18 -4 0.92 0.22
5 -18 4 1.55 0.25
-5 -18 -4 0.99 0.23
5 -18 -4 0.8 0.23
-5 -18 4 1.31 0.3
-5 -18 4 1.35 0.24
-6 -18 -4 0.71 0.26
-6 -18 -4 0.96 0.24
-6 -18 4 0.83 0.23
-6 -18 4 0.86 0.25
6 -18 -4 1.08 0.27
-7 -18 -4 1.26 0.28
-7 -18 -4 1.44 0.31
7 -18 -4 1.48 0.32
-7 -18 4 1.69 0.3
-7 -18 4 1.29 0.33
-8 -18 -4 0.43 0.25
-8 -18 -4 0.02 0.23
-8 -18 4 0.38 0.23
-8 -18 4 0.37 0.25
8 -18 -4 1.3 0.33
-9 -18 -4 0.19 0.24
-9 -18 -4 0.12 0.27
-9 -18 4 0.06 0.29
-9 -18 4 -0.32 0.22
-10 -18 4 0.86 0.34
0 -19 -4 0.01 0.2
0 -19 4 0.33 0.2
1 -19 4 1.3 0.25
-1 -19 -4 0.83 0.25
1 -19 -4 1.15 0.27
-1 -19 4 1.06 0.23
2 -19 4 0.19 0.17
-2 -19 -4 0.13 0.16
-2 -19 4 0.08 0.21
2 -19 -4 0.04 0.19
-3 -19 -4 0.59 0.24
3 -19 4 0.87 0.2
-3 -19 4 0.2 0.18
3 -19 -4 0.62 0.24
4 -19 4 0.03 0.15
-4 -19 -4 -0.01 0.17
-4 -19 4 0.04 0.23
4 -19 -4 -0.25 0.19
5 -19 4 1.14 0.23
-5 -19 -4 1.75 0.33
-5 -19 -4 1.21 0.24
5 -19 -4 1.66 0.32
-5 -19 4 1.8 0.31
-6 -19 -4 1.08 0.29
-6 -19 -4 0.76 0.23
6 -19 -4 0.74 0.27
-6 -19 4 0.37 0.28
-7 -19 -4 0.03 0.22
-7 -19 -4 0.03 0.24
-7 -19 4 0.14 0.26
7 -19 -4 0.2 0.23
-7 -19 4 -0.26 0.18
-8 -19 -4 1.45 0.32
-8 -19 -4 1.38 0.34
-8 -19 4 1.86 0.39
8 -19 -4 2.07 0.4
-8 -19 4 2.27 0.36
-9 -19 -4 0.51 0.27
-9 -19 -4 0.43 0.27
-9 -19 4 -0.22 0.23
-9 -19 4 -0.15 0.25
0 -20 -4 1.32 0.3
0 -20 4 0.58 0.2
1 -20 4 1.58 0.28
-1 -20 -4 1.34 0.3
1 -20 -4 1.41 0.3
-1 -20 4 1.82 0.32
2 -20 4 2.36 0.32
-2 -20 -4 3 0.37
2 -20 -4 2.67 0.35
-2 -20 4 3.19 0.4
3 -20 4 0.64 0.21
-3 -20 -4 0.38 0.2
3 -20 -4 0.85 0.28
-3 -20 4 0.4 0.21
-4 -20 -4 0.85 0.29
4 -20 4 1.22 0.24
4 -20 -4 0.8 0.27
-4 -20 4 1.79 0.34
-5 -20 -4 0.08 0.24
5 -20 -4 0.75 0.27
-5 -20 4 0.73 0.28
-6 -20 -4 0.27 0.25
-6 -20 4 -0.09 0.25
6 -20 -4 0.2 0.18
-7 -20 -4 0.05 0.21
-7 -20 -4 0.11 0.19
-7 -20 4 -0.06 0.27
7 -20 -4 0.49 0.27
-8 -20 -4 -0.1 0.23
-8 -20 -4 -0.18 0.23
-8 -20 4 0.19 0.31
8 -20 -4 0.3 0.26
-9 -20 -4 0.09 0.28
-9 -20 -4 -0.54 0.22
-9 -20 4 -0.14 0.23
0 -21 4 0.96 0.27
0 -21 -4 0.98 0.28
-1 -21 -4 3.06 0.41
1 -21 4 3.58 0.4
1 -21 -4 2.62 0.39
-1 -21 4 3.27 0.41
-2 -21 -4 0.38 0.25
2 -21 4 0.25 0.19
2 -21 -4 0.15 0.24
-2 -21 4 -0.27 0.15
-3 -21 -4 0.65 0.3
3 -21 4 0.56 0.22
-3 -21 4 0.7 0.24
3 -21 -4 0.35 0.2
-4 -21 -4 0.15 0.24
4 -21 4 0.22 0.2
-4 -21 4 0.3 0.26
4 -21 -4 0.41 0.26
-5 -21 -4 0.19 0.25
-5 -21 4 0.59 0.29
5 -21 -4 0.23 0.24
-6 -21 -4 0.82 0.25
-6 -21 4 1.43 0.35
6 -21 -4 1.41 0.33
-7 -21 -4 -0.09 0.25
7 -21 -4 0.64 0.29
-7 -21 4 -0.19 0.27
-8 -21 -4 0.49 0.29
8 -21 -4 0.73 0.31
0 -22 4 0.2 0.22
0 -22 -4 -0.08 0.22
1 -22 4 1.25 0.28
-1 -22 -4 1.25 0.31
1 -22 -4 1.03 0.27
-1 -22 4 0.45 0.26
-2 -22 -4 0.05 0.26
2 -22 4 0.48 0.23
2 -22 -4 0.3 0.2
-2 -22 4 -0.08 0.23
-3 -22 -4 0.44 0.28
3 -22 4 0.51 0.22
3 -22 -4 0.32 0.27
-3 -22 4 0.67 0.25
4 -22 4 0.78 0.24
-4 -22 -4 0.91 0.31
-4 -22 4 1.07 0.33
4 -22 -4 0.68 0.27
-5 -22 -4 0.32 0.28
5 -22 -4 0.19 0.25
-5 -22 4 0.24 0.29
-6 -22 -4 0.38 0.28
-6 -22 4 0.65 0.32
6 -22 -4 0.42 0.27
-7 -22 -4 0.48 0.29
7 -22 -4 0.94 0.34
0 -23 -4 -0.07 0.23
0 -23 4 0.13 0.24
1 -23 4 -0.02 0.21
-1 -23 -4 -0.13 0.24
1 -23 -4 0.05 0.24
-1 -23 4 0.1 0.19
-2 -23 -4 0.44 0.29
2 -23 4 0.14 0.21
2 -23 -4 0.18 0.25
-2 -23 4 0.16 0.27
-3 -23 -4 0.42 0.24
3 -23 4 0.26 0.22
3 -23 -4 0.4 0.22
-3 -23 4 0.12 0.28
-4 -23 -4 0.76 0.31
4 -23 4 0.84 0.29
4 -23 -4 1.16 0.33
-4 -23 4 0.51 0.33
-5 -23 -4 0.53 0.3
5 -23 -4 0.43 0.27
-5 -23 4 0.51 0.33
-6 -23 -4 0.63 0.31
6 -23 -4 0.22 0.24
0 -24 -4 2.1 0.4
0 -24 4 1.43 0.34
-1 -24 -4 2.48 0.42
1 -24 4 3.48 0.42
-1 -24 4 1.77 0.37
1 -24 -4 2.41 0.41
-2 -24 -4 0.18 0.22
2 -24 4 0.6 0.25
-2 -24 4 0.91 0.33
2 -24 -4 0.43 0.28
3 -24 4 0.86 0.27
-3 -24 -4 -0.12 0.28
-3 -24 4 -0.32 0.26
3 -24 -4 0.21 0.28
-4 -24 -4 0.72 0.32
-4 -24 4 0.22 0.32
4 -24 -4 0.29 0.25
5 -24 -4 0.5 0.27
0 -25 4 -0.09 0.25
0 -25 -4 0.07 0.28
-1 -25 -4 0.34 0.23
1 -25 4 -0.2 0.21
1 -25 -4 -0.01 0.28
-1 -25 4 -0.12 0.26
2 -25 4 0.28 0.24
-2 -25 -4 0.29 0.3
-2 -25 4 0.49 0.32
2 -25 -4 0.69 0.33
3 -25 4 0.13 0.24
3 -25 -4 0.66 0.32
1 -26 4 1.29 0.34
2 -26 4 0.66 0.29
3 -26 4 -0.29 0.22
0 0 -5 -0.1 0.04
0 0 -5 -0.2 0.05
1 0 -5 57.93 2.14
-1 0 -5 56.62 2.14
1 0 -5 59.55 2.19
-1 0 -5 58.28 2.15
-2 0 -5 117.9 4.34
-2 0 -5 114.29 4.32
2 0 -5 120.62 4.41
2 0 -5 120.22 4.33
-3 0 -5 43.55 1.53
-3 0 -5 38.78 1.55
3 0 -5 40.88 1.58
3 0 -5 41.78 1.61
-4 0 5 10.42 0.49
4 0 -5 9.83 0.5
-4 0 -5 10.79 0.47
4 0 5 10.42 0.41
-4 0 -5 10.88 0.42
-5 0 -5 45.25 1.77
-5 0 5 44.69 1.79
5 0 5 46.88 1.73
5 0 -5 45.36 1.82
-5 0 -5 47.91 1.73
6 0 -5 11.31 0.57
6 0 5 11.7 0.48
-6 0 -5 11.27 0.54
-6 0 5 11.61 0.56
-7 0 -5 7.72 0.41
-7 0 5 6.69 0.43
7 0 5 7.32 0.34
7 0 -5 6.54 0.42
8 0 -5 0.34 0.16
-8 0 5 0.26 0.17
-8 0 -5 0.34 0.16
9 0 -5 0.45 0.18
-9 0 -5 0.34 0.17
-9 0 5 0.53 0.19
-10 0 -5 0.05 0.16
-10 0 5 -0.28 0.15
10 0 -5 0.03 0.15
11 0 -5 -0.28 0.15
-11 0 5 -0.01 0.19
-11 0 -5 0.09 0.18
-12 0 5 -0.03 0.2
-12 0 -5 0.09 0.19
12 0 -5 0.02 0.19
-13 0 5 -0.02 0.22
-13 0 -5 -0.09 0.2
-14 0 5 0.31 0.27
0 1 -5 40.77 1.51
0 -1 -5 41.15 1.54
0 -1 -5 39.52 1.51
0 1 -5 41.77 1.54
1 1 -5 12.45 0.49
1 1 -5 12.09 0.51
-1 -1 -5 12.16 0.48
-1 -1 -5 11.68 0.47
1 -1 -5 11.87 0.5
-1 1 -5 11.79 0.47
1 -1 -5 11.68 0.48
-1 1 -5 12.24 0.46
-2 -1 -5 40.39 1.56
-2 -1 -5 41.39 1.55
2 1 -5 40.25 1.57
2 1 -5 41.88 1.61
2 -1 -5 41.28 1.56
-2 1 -5 41.87 1.55
2 -1 -5 44.77 1.61
3 1 -5 54.51 2.01
-3 -1 -5 57.05 1.98
-3 -1 -5 52.4 1.99
3 1 -5 51.09 2.05
3 -1 -5 52.83 2.05
-3 1 -5 50.81 1.98
3 -1 -5 53.73 2
4 1 -5 52.39 2.1
-4 1 5 52.66 2.06
4 -1 5 55.31 2.01
-4 -1 -5 53.24 2.04
-4 -1 -5 57.18 2.02
-4 -1 5 54.85 2.07
-4 1 -5 52.4 2.03
4 -1 -5 55.09 2.1
5 -1 5 1.63 0.1
-5 1 5 1.64 0.19
-5 -1 -5 1.5 0.17
5 1 -5 1.64 0.2
-5 -1 -5 1.81 0.12
-5 -1 5 1.74 0.2
5 1 5 1.64 0.12
5 -1 -5 1.5 0.19
-5 1 -5 1.68 0.17
-6 1 5 22.38 0.95
6 1 -5 20.4 0.94
6 -1 5 22.14 0.86
-6 -1 -5 23.08 0.87
-6 -1 -5 20.35 0.91
6 -1 -5 21.71 0.95
-6 1 -5 22.8 0.91
6 1 5 22.41 0.87
-6 -1 5 21.72 0.95
-7 -1 -5 6.36 0.38
7 -1 5 6.2 0.3
7 1 -5 5.14 0.38
-7 1 5 5.56 0.38
-7 -1 -5 6.22 0.31
-7 1 -5 5.99 0.36
-7 -1 5 5.51 0.38
7 -1 -5 6.08 0.39
7 1 5 6.41 0.3
-8 -1 -5 0.96 0.2
8 1 -5 0.82 0.19
-8 1 5 0.9 0.21
-8 -1 5 0.7 0.21
8 -1 -5 1.21 0.21
-8 1 -5 0.9 0.19
9 1 -5 1.37 0.23
-9 1 5 1.01 0.23
-9 -1 -5 0.91 0.21
-9 1 -5 1.25 0.22
9 -1 -5 0.85 0.2
-9 -1 5 0.61 0.21
-10 -1 -5 3.26 0.35
-10 1 5 3.45 0.38
10 1 -5 3.82 0.37
-10 -1 5 3.13 0.38
-10 1 -5 3.98 0.34
10 -1 -5 3.44 0.36
-11 -1 -5 2.55 0.34
11 1 -5 3.08 0.36
-11 1 5 3.2 0.38
11 -1 -5 2.77 0.34
-11 1 -5 2.83 0.33
-11 -1 5 3.34 0.4
-12 -1 -5 -0.28 0.17
12 1 -5 -0.11 0.18
-12 1 5 0.11 0.19
-12 -1 5 0.31 0.24
-12 1 -5 -0.38 0.17
12 -1 -5 0.04 0.19
-13 -1 -5 -0.23 0.2
-13 1 5 -0.05 0.22
-13 -1 5 0.12 0.24
-14 -1 -5 0.33 0.25
-14 1 5 0.36 0.3
0 2 -5 474.45 16.86
0 -2 -5 452.77 16.86
0 2 -5 461.7 17.13
0 -2 -5 475.85 17.12
-1 -2 -5 94.93 3.48
1 2 -5 93.89 3.49
1 2 -5 98.27 3.55
-1 -2 -5 95.63 3.52
1 -2 -5 93.93 3.48
-1 2 -5 98.47 3.51
-1 2 -5 92.66 3.47
1 -2 -5 93.39 3.55
2 -2 5 91.78 3.26
-2 -2 -5 88.35 3.27
-2 -2 -5 90.55 3.29
2 2 -5 86.26 3.34
2 2 -5 90.55 3.28
2 -2 -5 89.98 3.34
2 -2 -5 84.43 3.26
-2 2 -5 89.03 3.25
3 2 -5 66.84 2.56
3 2 -5 70.72 2.61
-3 -2 -5 69 2.54
-3 -2 -5 67.64 2.54
-3 2 -5 65.62 2.52
3 -2 -5 70.95 2.6
3 -2 -5 67.5 2.54
4 -2 5 3.41 0.15
-4 -2 -5 3.24 0.18
4 2 -5 3.16 0.24
-4 -2 -5 3.38 0.22
-4 2 -5 3.38 0.2
4 -2 -5 3.53 0.22
-4 -2 5 3.64 0.23
4 -2 -5 3.52 0.24
5 -2 5 14.98 0.59
-5 -2 -5 14.94 0.66
5 2 -5 15.64 0.69
-5 -2 -5 16.13 0.61
-5 2 5 15.39 0.67
-5 2 -5 14.17 0.63
5 2 5 15.3 0.61
-5 -2 5 14.73 0.68
5 -2 -5 14.03 0.68
-6 2 5 15.98 0.73
6 -2 5 16.8 0.65
-6 -2 -5 17.12 0.74
-6 -2 -5 17.64 0.68
6 2 -5 16.01 0.75
-6 -2 5 15.18 0.75
6 2 5 16.38 0.67
-6 2 -5 15.71 0.7
6 -2 -5 15.49 0.75
-7 2 5 5.1 0.36
-7 -2 -5 5.71 0.35
7 2 -5 4.52 0.34
-7 -2 -5 5.48 0.3
-7 2 -5 5.54 0.33
7 2 5 6.12 0.29
-7 -2 5 5.3 0.37
7 -2 -5 5.67 0.37
-8 -2 -5 4.95 0.38
-8 2 5 5.26 0.38
8 2 -5 5.18 0.38
-8 -2 5 5.06 0.4
-8 2 -5 5.29 0.35
8 -2 -5 5.79 0.38
-9 -2 -5 0.97 0.22
-9 2 5 1.18 0.22
9 2 -5 0.74 0.19
9 -2 -5 1.15 0.21
-9 -2 5 1.02 0.21
-9 2 -5 0.73 0.18
10 2 -5 0.41 0.19
-10 2 5 0.35 0.19
-10 -2 -5 0.38 0.2
10 -2 -5 0.4 0.2
-10 2 -5 0.47 0.18
-10 -2 5 0.88 0.25
11 2 -5 2.35 0.33
-11 -2 -5 2.86 0.35
-11 2 5 2.87 0.36
11 -2 -5 2.59 0.35
-11 2 -5 2.66 0.31
-11 -2 5 2.59 0.37
12 2 -5 1.11 0.27
-12 2 5 0.8 0.26
-12 -2 -5 1.95 0.32
12 -2 -5 0.77 0.27
-12 2 -5 0.78 0.26
-12 -2 5 1.37 0.32
-13 2 5 0.2 0.25
-13 -2 -5 0.17 0.25
-13 -2 5 0.04 0.25
0 -3 -5 16.04 0.63
0 -3 -5 16.47 0.65
0 3 -5 16.38 0.63
0 3 -5 16.08 0.64
-1 -3 -5 103.26 3.81
1 -3 5 106.33 3.84
1 3 -5 102.67 3.88
-1 -3 -5 105.18 3.86
1 3 -5 103.87 3.81
1 -3 -5 109.31 3.88
-1 3 -5 105.27 3.84
-1 3 -5 101.2 3.79
1 -3 -5 98.86 3.8
-2 -3 -5 102.1 3.65
2 3 -5 98.37 3.66
2 -3 5 100.84 3.66
-2 -3 -5 103.17 3.68
2 3 -5 100.28 3.72
-2 3 -5 98.78 3.62
2 -3 -5 97.25 3.64
2 -3 -5 93.69 3.72
-3 -3 -5 28.46 1.09
-3 -3 -5 26.43 1.1
3 3 -5 28.93 1.15
3 -3 5 27.87 1.06
-3 -3 5 29.04 1.13
3 -3 -5 27.97 1.14
-3 3 -5 29.05 1.08
3 -3 -5 29.33 1.1
-4 -3 -5 16.06 0.68
4 3 -5 16.12 0.71
-4 -3 -5 16.52 0.65
4 -3 5 15.9 0.61
4 -3 -5 16.43 0.68
-4 3 -5 15.29 0.64
4 -3 -5 15.8 0.7
-4 -3 5 16.48 0.7
-5 -3 -5 17.34 0.7
5 -3 5 17.35 0.67
-5 3 5 17.43 0.74
-5 -3 -5 17.39 0.75
5 3 -5 17.72 0.78
-5 -3 5 16.95 0.77
5 3 5 18.02 0.7
-5 3 -5 16.68 0.7
5 -3 -5 16.64 0.77
6 -3 5 3.35 0.18
-6 3 5 2.97 0.25
-6 -3 -5 3.28 0.21
-6 -3 -5 2.72 0.26
6 3 -5 2.82 0.28
6 -3 -5 2.74 0.24
-6 3 -5 3.33 0.22
-6 -3 5 3.09 0.3
6 3 5 3.22 0.2
-7 -3 -5 19.29 0.76
-7 -3 -5 18.45 0.82
-7 3 5 17.7 0.81
7 3 -5 17.68 0.83
-7 3 -5 17.42 0.77
7 -3 -5 16.5 0.82
-7 -3 5 17.36 0.83
7 3 5 18.4 0.75
-8 -3 -5 3.9 0.34
-8 3 5 3.62 0.32
8 3 -5 4.32 0.34
-8 3 -5 3.92 0.29
-8 -3 5 3.62 0.36
8 3 5 3.68 0.25
8 -3 -5 3.28 0.33
-9 3 5 6.18 0.44
9 3 -5 6.51 0.46
-9 -3 -5 7.22 0.47
-9 3 -5 7.28 0.42
9 -3 -5 7.11 0.45
-9 -3 5 6.48 0.49
10 3 -5 1.51 0.27
-10 -3 -5 1.52 0.25
-10 3 5 1.63 0.27
10 -3 -5 1.65 0.27
-10 3 -5 1.55 0.23
-10 -3 5 1.95 0.33
-11 -3 -5 2.6 0.35
11 3 -5 2.12 0.31
-11 3 5 1.68 0.29
11 -3 -5 1.92 0.3
-11 3 -5 1.92 0.27
-11 -3 5 1.73 0.33
12 3 -5 0 0.19
-12 -3 -5 0.31 0.24
-12 3 5 0.04 0.17
-12 -3 5 0.04 0.17
-13 -3 -5 -0.03 0.24
-13 -3 5 0.34 0.26
0 -4 -5 8.21 0.37
0 -4 5 8.46 0.37
0 4 -5 8.69 0.37
0 -4 -5 8.22 0.35
0 4 -5 8.63 0.35
-1 -4 -5 32.27 1.19
-1 -4 -5 30 1.17
1 4 -5 31.52 1.18
1 -4 5 31.65 1.17
1 4 -5 31.08 1.21
1 -4 -5 29.15 1.2
-1 4 -5 31.69 1.17
1 -4 -5 30.4 1.16
-1 4 -5 30.6 1.15
2 4 -5 54.6 2.12
-2 -4 -5 55.2 2.11
-2 -4 -5 58.59 2.13
2 4 -5 56.86 2.16
2 -4 5 59.41 2.1
-2 4 -5 56.64 2.07
2 -4 -5 56.88 2.09
2 -4 -5 53.22 2.15
-3 -4 -5 69.73 2.65
-3 -4 -5 68.69 2.65
3 -4 5 69.77 2.62
3 4 -5 70.17 2.71
-3 -4 5 73.5 2.67
3 -4 -5 70.93 2.7
-3 4 -5 72.95 2.61
3 -4 -5 71.75 2.63
-4 -4 -5 0.26 0.09
4 -4 5 0.46 0.06
4 4 -5 0.23 0.12
-4 -4 -5 0.42 0.09
4 -4 -5 0.27 0.09
-4 -4 5 0.46 0.13
4 -4 -5 0.27 0.11
-4 4 -5 0.41 0.08
-5 -4 -5 25.1 1
-5 4 5 24.59 1.02
5 4 -5 25.83 1.08
5 -4 5 25.57 0.97
-5 -4 -5 25.5 1.04
-5 4 -5 25.06 0.99
5 -4 -5 24.69 1.06
-5 -4 5 25.41 1.07
-6 -4 -5 27.79 1.07
6 4 -5 26.38 1.15
6 -4 5 27.61 1.04
-6 -4 -5 27.1 1.12
-6 4 5 25.85 1.1
-6 -4 5 26.26 1.15
6 -4 -5 26.6 1.14
-6 4 -5 26.55 1.06
6 4 5 26.36 1.06
-7 -4 -5 2.42 0.2
-7 -4 -5 1.91 0.25
-7 4 5 1.93 0.23
7 4 -5 1.86 0.25
-7 4 -5 1.75 0.19
7 -4 -5 1.64 0.23
-7 -4 5 1.7 0.26
7 4 5 2.19 0.18
8 4 -5 0.84 0.19
-8 4 5 1.15 0.2
-8 -4 -5 0.84 0.21
8 4 5 1.16 0.16
-8 -4 5 0.91 0.2
-8 4 -5 0.83 0.17
8 -4 -5 0.93 0.2
9 4 -5 2.36 0.3
-9 -4 -5 2.48 0.31
-9 4 5 2.93 0.31
-9 -4 5 2.34 0.34
-9 4 -5 2.81 0.27
9 -4 -5 2.91 0.31
-10 -4 -5 8.46 0.52
-10 4 5 7.36 0.5
10 4 -5 7.84 0.52
-10 4 -5 8.01 0.46
10 -4 -5 7.47 0.52
-10 -4 5 7.84 0.54
-11 -4 -5 0.6 0.24
11 4 -5 0.03 0.18
-11 4 5 0.11 0.2
-11 -4 5 0.24 0.23
11 -4 -5 0.15 0.19
12 4 -5 0.52 0.23
-12 -4 -5 0.97 0.28
-12 -4 5 0.42 0.27
-13 -4 -5 1.82 0.36
-13 -4 5 2.16 0.4
0 5 -5 1.21 0.1
0 5 -5 1.33 0.11
0 -5 5 0.94 0.11
0 -5 -5 0.82 0.11
0 -5 -5 0.86 0.09
1 5 -5 37.4 1.41
1 -5 5 37.29 1.41
-1 -5 -5 39.06 1.43
-1 -5 -5 38.51 1.4
1 5 -5 36.28 1.44
1 -5 -5 36.7 1.39
1 -5 -5 36.05 1.44
-1 5 -5 36.14 1.37
-2 -5 -5 48.38 1.78
-2 -5 -5 47.8 1.79
2 5 -5 48.08 1.82
2 -5 5 48.26 1.77
-2 -5 5 47.98 1.79
2 -5 -5 46.5 1.76
-2 5 -5 44.7 1.73
2 -5 -5 45.45 1.82
3 -5 5 1.89 0.11
-3 -5 -5 1.39 0.16
-3 -5 -5 1.72 0.14
3 5 -5 2.05 0.2
3 -5 -5 1.83 0.18
-3 5 -5 2 0.12
-3 -5 5 1.61 0.17
3 -5 -5 1.69 0.13
4 5 -5 5.21 0.32
-4 -5 -5 4.77 0.29
-4 -5 -5 5.09 0.27
4 -5 5 5.58 0.25
4 -5 -5 5.31 0.32
-4 -5 5 5.66 0.32
4 -5 -5 5.84 0.28
-4 5 -5 5.66 0.25
-5 5 5 64.51 2.46
-5 -5 -5 67.87 2.48
5 -5 5 68.01 2.45
5 5 -5 63.4 2.54
-5 -5 -5 63.67 2.49
-5 5 -5 65.22 2.42
5 -5 -5 63.55 2.53
-5 -5 5 65.5 2.52
-6 -5 -5 0.59 0.16
6 5 -5 0.62 0.17
-6 5 5 0.74 0.14
-6 -5 -5 0.65 0.12
6 -5 5 0.83 0.1
-6 5 -5 0.69 0.12
6 -5 -5 0.53 0.16
-6 -5 5 0.48 0.17
-7 -5 -5 13.44 0.66
7 5 -5 12.14 0.68
-7 -5 -5 13.99 0.61
-7 5 5 14.67 0.66
7 5 5 14.07 0.6
-7 -5 5 13.3 0.71
7 -5 -5 12.54 0.67
-7 5 -5 14.07 0.6
8 5 -5 4.37 0.38
-8 -5 -5 4.75 0.36
-8 -5 -5 5.09 0.32
-8 5 5 4.9 0.35
-8 -5 5 4.55 0.37
-8 5 -5 4.72 0.3
8 5 5 5.32 0.31
8 -5 -5 4.56 0.36
-9 -5 -5 0.86 0.22
-9 5 5 0.4 0.17
9 5 -5 0.73 0.21
-9 -5 5 0.31 0.21
9 -5 -5 1.09 0.21
-9 5 -5 0.29 0.14
-10 5 5 2.75 0.32
-10 -5 -5 3.32 0.38
10 5 -5 2.75 0.34
-10 -5 5 3.02 0.4
10 -5 -5 2.93 0.34
-11 -5 -5 0.32 0.23
11 5 -5 0.72 0.23
-11 -5 5 0.6 0.27
11 -5 -5 0.97 0.25
-12 -5 -5 0.6 0.27
12 5 -5 0.53 0.24
-12 -5 5 -0.12 0.17
-13 -5 -5 0.7 0.3
-13 -5 5 0.49 0.3
0 -6 -5 2.41 0.15
0 6 -5 2.79 0.17
0 -6 -5 2.52 0.18
0 -6 5 2.49 0.17
0 6 -5 2.68 0.15
-1 -6 -5 12.54 0.52
1 6 -5 12.23 0.53
-1 -6 -5 11.53 0.5
1 6 -5 11.96 0.5
1 -6 5 12.52 0.51
-1 -6 5 12.31 0.53
1 -6 -5 11.92 0.53
-1 6 -5 11.91 0.47
1 -6 -5 12.31 0.49
-2 -6 -5 2.33 0.18
2 -6 5 2.65 0.16
-2 -6 -5 2.61 0.19
2 6 -5 2.41 0.19
-2 6 -5 3.12 0.14
2 -6 -5 3.01 0.16
2 -6 -5 3.02 0.21
-2 -6 5 3.11 0.2
3 6 -5 46.49 1.87
-3 -6 -5 47.88 1.84
3 -6 5 49.82 1.81
-3 -6 -5 47.1 1.82
-3 6 -5 48.61 1.76
3 -6 -5 47.13 1.87
-3 -6 5 48.6 1.85
3 -6 -5 47.13 1.79
-4 -6 -5 1.64 0.18
4 6 -5 1.95 0.2
4 -6 5 1.74 0.13
-4 -6 -5 1.6 0.16
4 -6 -5 1.68 0.2
-4 6 -5 1.83 0.12
4 -6 -5 1.79 0.14
-4 -6 5 2.07 0.21
5 -6 5 19.63 0.78
-5 -6 -5 17.71 0.83
5 6 -5 20.01 0.87
-5 6 5 20.91 0.82
-5 -6 -5 19.74 0.81
5 -6 -5 19.1 0.86
-5 -6 5 18.2 0.86
-5 6 -5 19.73 0.76
-6 -6 -5 0.54 0.12
6 -6 5 0.52 0.1
-6 6 5 0.54 0.13
6 6 -5 0.46 0.16
-6 -6 -5 0.45 0.13
-6 6 -5 0.49 0.1
6 -6 -5 0.92 0.18
-6 -6 5 0.53 0.18
-7 -6 -5 5.49 0.4
7 6 -5 6.04 0.41
-7 6 5 5.9 0.36
-7 -6 -5 6.61 0.36
-7 6 -5 5.58 0.31
-7 -6 5 6.18 0.41
7 -6 -5 4.81 0.38
-8 -6 -5 7.33 0.41
8 6 -5 7.67 0.47
-8 -6 -5 7.35 0.49
-8 6 5 7.31 0.45
8 -6 -5 7.01 0.46
-8 -6 5 8.05 0.52
-8 6 -5 7.43 0.4
-9 -6 -5 2.52 0.32
-9 6 5 1.94 0.27
9 6 -5 2.13 0.29
9 -6 -5 1.99 0.28
-9 -6 5 1.6 0.3
10 6 -5 2.57 0.33
-10 -6 -5 3.22 0.38
-10 6 5 2.12 0.29
10 -6 -5 2.29 0.31
-10 -6 5 2.77 0.39
-11 -6 -5 3.35 0.42
11 6 -5 3.09 0.38
-11 -6 5 4.09 0.48
11 -6 -5 3.07 0.38
-12 -6 -5 2.4 0.38
12 6 -5 2.19 0.34
-12 -6 5 2.02 0.4
-13 -6 -5 3.99 0.48
-13 -6 5 3.04 0.47
0 7 -5 94.18 3.49
0 -7 5 97.63 3.57
0 7 -5 94.88 3.57
0 -7 -5 96.39 3.49
0 -7 -5 93.18 3.58
1 7 -5 106.99 4.07
-1 -7 -5 114.88 3.99
1 -7 5 109.97 4.05
-1 -7 -5 102.74 4.06
-1 -7 5 111.12 4
1 -7 -5 104.78 3.97
-1 7 -5 107.75 3.96
1 -7 -5 110.12 4.08
-1 -7 5 109.42 4.08
-2 -7 -5 91.73 3.48
-2 -7 -5 91.59 3.42
2 -7 5 95.6 3.45
2 7 -5 93.11 3.5
-2 7 -5 92.96 3.37
-2 -7 5 94.51 3.44
-2 -7 5 90.76 3.5
2 -7 -5 90.75 3.39
2 -7 -5 92.26 3.5
-3 -7 -5 18.75 0.8
3 -7 5 19.43 0.77
3 7 -5 19.33 0.84
-3 -7 -5 19.3 0.81
-3 -7 5 19.52 0.82
3 -7 -5 19 0.76
-3 -7 5 19.77 0.85
-3 7 -5 20.52 0.73
3 -7 -5 18.85 0.83
4 7 -5 7.94 0.45
-4 -7 -5 8.91 0.43
4 -7 5 9.31 0.39
-4 -7 -5 8.56 0.44
4 -7 -5 8.47 0.4
4 -7 -5 8.29 0.46
-4 -7 5 9.48 0.46
-4 7 -5 9.73 0.37
-5 -7 -5 16.63 0.73
-5 7 5 16.73 0.71
5 7 -5 16.52 0.79
5 -7 5 17.51 0.7
-5 -7 -5 15.21 0.74
-5 7 -5 18.06 0.67
-5 -7 5 17.43 0.79
5 -7 -5 16.96 0.78
6 7 -5 17.56 0.83
-6 -7 -5 17.92 0.77
-6 -7 -5 16.6 0.81
-6 7 5 18.05 0.77
6 -7 5 18.89 0.74
6 -7 -5 18.03 0.83
-6 7 -5 17.91 0.72
-6 -7 5 18.07 0.85
7 7 -5 7.21 0.45
-7 -7 -5 7.64 0.4
-7 7 5 6.82 0.39
-7 -7 -5 7.29 0.46
-7 -7 5 7.54 0.49
7 -7 -5 6.27 0.44
-7 7 -5 7.37 0.36
-8 -7 -5 2.28 0.25
8 7 -5 1.9 0.28
-8 7 5 2.45 0.25
-8 -7 -5 2.37 0.3
8 -7 -5 1.77 0.27
-8 -7 5 1.94 0.3
-9 -7 -5 4.38 0.36
9 7 -5 3.73 0.38
-9 -7 5 3.25 0.4
9 -7 -5 3.47 0.37
-10 -7 -5 0.72 0.26
10 7 -5 0.05 0.19
10 -7 -5 0.35 0.19
-10 -7 5 0.5 0.25
-11 -7 -5 0.46 0.26
11 7 -5 0.31 0.22
-11 -7 5 0.28 0.23
-11 -7 5 0.34 0.26
11 -7 -5 0.39 0.22
-12 -7 -5 2.37 0.39
12 7 -5 1.8 0.33
-12 -7 5 2.32 0.41
-12 -7 5 1.95 0.34
-13 -7 -5 1 0.35
0 -8 5 7.39 0.36
0 -8 -5 7.52 0.38
0 -8 -5 6.81 0.32
0 -8 5 7.37 0.32
1 -8 5 68.65 2.48
-1 -8 -5 64.03 2.49
1 8 -5 64.06 2.49
-1 -8 -5 70.08 2.43
1 -8 -5 63.37 2.41
-1 -8 5 65.83 2.5
-1 8 -5 63.48 2.39
-1 -8 5 66.83 2.44
1 -8 -5 61.53 2.5
2 8 -5 7.06 0.38
-2 -8 -5 6.95 0.34
2 -8 5 7.1 0.33
-2 -8 -5 7.05 0.36
2 -8 -5 6.59 0.3
-2 8 -5 7.09 0.28
-2 -8 5 6.92 0.36
-2 -8 5 6.75 0.37
2 -8 -5 6.67 0.36
-3 -8 -5 1.17 0.15
3 -8 5 1.16 0.12
3 8 -5 1.21 0.16
-3 -8 -5 0.99 0.14
3 -8 -5 1.22 0.16
3 -8 -5 1.45 0.12
-3 -8 5 1.23 0.16
-3 8 -5 1.39 0.08
-3 -8 5 1.2 0.17
4 8 -5 0.35 0.14
-4 -8 -5 0.17 0.12
4 -8 5 0.35 0.08
-4 -8 -5 0.51 0.12
-4 -8 5 0.44 0.14
-4 8 -5 0.4 0.06
4 -8 -5 0.58 0.09
-4 -8 5 0.52 0.13
4 -8 -5 0.3 0.13
5 -8 5 10.31 0.45
-5 -8 -5 9.67 0.48
5 8 -5 9.83 0.54
-5 8 5 10.17 0.46
-5 -8 -5 9.9 0.51
-5 8 -5 10.21 0.41
-5 -8 5 9.96 0.52
5 -8 -5 9.69 0.53
-5 -8 5 9.33 0.54
-6 8 5 12.96 0.57
6 -8 5 11.89 0.55
-6 -8 -5 11.76 0.62
-6 -8 -5 12.58 0.59
6 8 -5 12.03 0.64
6 -8 -5 12.33 0.64
-6 -8 5 13.09 0.65
-7 8 5 3.51 0.27
-7 -8 -5 3.74 0.28
7 8 -5 3.33 0.34
-7 -8 -5 3.46 0.34
-7 -8 5 3.04 0.33
7 -8 -5 3.15 0.33
-8 -8 -5 1.69 0.27
8 8 -5 1.68 0.28
-8 -8 -5 1.61 0.21
-8 -8 5 2.16 0.29
8 -8 -5 1.26 0.24
-9 -8 -5 5.54 0.46
9 8 -5 5.73 0.45
9 -8 -5 5.32 0.43
-9 -8 5 5.86 0.46
-9 -8 5 5.68 0.49
10 8 -5 0.59 0.23
-10 -8 -5 0.52 0.25
10 -8 -5 0.69 0.23
-10 -8 5 1.02 0.26
-10 -8 5 0.76 0.28
11 8 -5 0.54 0.23
-11 -8 -5 0.67 0.29
11 -8 -5 0.5 0.23
-11 -8 5 1.05 0.26
-11 -8 5 0.48 0.28
-12 -8 -5 1.72 0.36
12 8 -5 1.67 0.32
-12 -8 5 0.87 0.34
-12 -8 5 1.28 0.32
0 -9 -5 0.08 0.06
0 -9 5 0.1 0.08
0 -9 -5 -0.06 0.09
0 -9 5 0.03 0.05
-1 -9 -5 33.18 1.21
1 -9 5 32.24 1.18
-1 -9 -5 29.38 1.26
1 -9 5 30.6 1.24
1 9 -5 30.52 1.26
1 -9 -5 31.74 1.19
-1 -9 5 32.59 1.27
1 -9 -5 31.98 1.27
-1 -9 5 30.63 1.21
2 -9 5 30.02 1.2
2 9 -5 30.25 1.24
-2 -9 -5 30.63 1.23
-2 -9 -5 32.15 1.2
-2 -9 5 30.75 1.25
-2 9 -5 30.42 1.12
2 -9 -5 29.87 1.15
2 -9 -5 29.49 1.24
-2 -9 5 30.13 1.2
-3 -9 -5 9.56 0.48
3 -9 5 10.4 0.45
-3 -9 -5 9.35 0.47
3 9 -5 9.87 0.51
-3 -9 5 10.29 0.51
3 -9 -5 10.06 0.42
-3 -9 5 10.24 0.49
3 -9 -5 8.67 0.49
-3 9 -5 10.08 0.38
4 -9 5 5.98 0.3
-4 -9 -5 5.25 0.33
-4 -9 -5 5.65 0.33
4 9 -5 5.41 0.37
4 -9 -5 5.97 0.28
-4 -9 5 5.41 0.35
-4 9 -5 6.04 0.24
-4 -9 5 5.43 0.36
4 -9 -5 5.18 0.34
-5 -9 -5 6.15 0.36
5 -9 5 7.2 0.34
-5 9 5 7.43 0.34
5 9 -5 5.96 0.41
-5 -9 -5 5.92 0.38
-5 -9 5 5.21 0.39
5 -9 -5 6.08 0.4
-5 -9 5 5.69 0.41
6 9 -5 0.31 0.17
-6 -9 -5 0.55 0.15
-6 9 5 0.66 0.13
6 -9 5 0.47 0.12
-6 -9 -5 0.52 0.14
6 -9 -5 0.21 0.16
-6 -9 5 0.85 0.18
-6 -9 5 0.31 0.15
-7 -9 -5 1.46 0.22
-7 -9 -5 1.49 0.23
7 9 -5 1.75 0.27
-7 -9 5 1.42 0.25
-7 -9 5 1.83 0.28
7 -9 -5 1.6 0.25
-8 -9 -5 1.22 0.2
-8 -9 -5 1.2 0.23
8 9 -5 1.3 0.23
8 -9 -5 1.32 0.25
-8 -9 5 1.36 0.26
-8 -9 5 1.2 0.27
-9 -9 -5 0.76 0.25
9 9 -5 0.68 0.22
9 -9 -5 0.37 0.2
-9 -9 5 0.5 0.22
-9 -9 5 0.44 0.2
10 9 -5 0.63 0.25
-10 -9 -5 0.88 0.28
10 -9 -5 0.98 0.25
-10 -9 5 1.97 0.35
-10 -9 5 1.05 0.27
-11 -9 -5 0.43 0.27
11 9 -5 -0.27 0.19
-11 -9 5 0.53 0.29
-11 -9 5 -0.25 0.21
-12 -9 -5 1.23 0.31
12 9 -5 1.55 0.32
-12 -9 5 1.67 0.36
-12 -9 5 1.82 0.34
13 9 -5 0.16 0.25
0 -10 5 1.34 0.12
0 -10 -5 1.16 0.16
0 -10 5 1.62 0.16
0 -10 -5 1.39 0.12
-1 -10 -5 9.04 0.38
-1 -10 -5 7.69 0.41
1 -10 5 7.95 0.39
1 -10 5 8.42 0.34
1 -10 -5 7.79 0.34
-1 -10 5 7.88 0.37
1 -10 -5 6.86 0.4
-1 -10 5 8.26 0.42
2 -10 5 23.46 0.97
2 -10 5 25.37 0.89
2 10 -5 23.17 1.02
-2 -10 -5 25.61 0.97
-2 -10 -5 22.67 1
2 -10 -5 24.25 1.02
-2 -10 5 23.19 1.01
2 -10 -5 24.63 0.93
-2 -10 5 23.52 0.98
-3 -10 -5 9.23 0.49
3 -10 5 9.18 0.45
-3 -10 -5 10.41 0.48
3 10 -5 10.06 0.51
-3 -10 5 10.38 0.5
3 -10 -5 10.47 0.42
3 -10 -5 9.62 0.51
-3 -10 5 10.39 0.52
4 -10 5 32.93 1.31
-4 -10 -5 33.76 1.35
4 10 -5 33.69 1.38
-4 -10 -5 31.1 1.32
-4 -10 5 32.09 1.38
4 -10 -5 33.16 1.38
4 -10 -5 34.32 1.26
-4 -10 5 32.67 1.35
5 -10 5 2.19 0.19
5 10 -5 2.36 0.26
-5 -10 -5 1.96 0.24
-5 -10 -5 1.73 0.21
-5 10 5 1.82 0.17
-5 -10 5 1.76 0.25
5 -10 -5 1.98 0.26
-5 -10 5 2.08 0.27
-6 -10 -5 1.62 0.21
-6 -10 -5 1.66 0.24
6 -10 5 2.04 0.2
6 10 -5 2.14 0.28
-6 -10 5 1.18 0.24
6 -10 -5 1.45 0.23
-6 -10 5 1.49 0.23
-7 -10 -5 1.39 0.22
-7 -10 -5 1.4 0.23
7 10 -5 1.31 0.23
-7 -10 5 1.25 0.25
7 -10 -5 1.47 0.25
-7 -10 5 0.81 0.23
-8 -10 -5 17.37 0.84
8 10 -5 16.08 0.81
-8 -10 -5 15.12 0.75
-8 -10 5 16.31 0.84
-8 -10 5 16.75 0.86
8 -10 -5 14.57 0.81
-9 -10 -5 0.59 0.25
9 10 -5 0.59 0.23
-9 -10 5 0.62 0.27
-9 -10 5 0.4 0.22
9 -10 -5 0.86 0.25
10 10 -5 3.82 0.41
-10 -10 -5 3.08 0.4
-10 -10 5 2.85 0.41
-10 -10 5 3.62 0.42
10 -10 -5 2.74 0.38
11 10 -5 1.64 0.32
-11 -10 -5 0.94 0.3
-11 -10 5 0.86 0.33
-11 -10 5 1.31 0.31
-12 -10 -5 0.43 0.29
12 10 -5 0.55 0.26
-12 -10 5 0.71 0.29
-12 -10 5 0.87 0.28
13 10 -5 0.53 0.29
0 -11 5 12.07 0.56
0 -11 -5 11.04 0.56
0 -11 -5 12.38 0.49
0 -11 5 11.54 0.49
-1 -11 -5 4.14 0.23
-1 -11 -5 3.84 0.28
1 -11 5 3.85 0.18
1 -11 5 3.84 0.25
-1 -11 5 3.7 0.26
-1 -11 5 3.53 0.23
1 -11 -5 3.56 0.28
1 -11 -5 3.75 0.2
2 -11 5 4.57 0.27
-2 -11 -5 4.09 0.3
2 11 -5 4.45 0.31
-2 -11 -5 4.28 0.26
-2 -11 5 4.35 0.31
-2 -11 5 4.25 0.27
2 -11 -5 3.85 0.28
2 -11 -5 4.52 0.22
-3 -11 -5 4.6 0.32
3 -11 5 4.73 0.28
-3 -11 -5 4.92 0.3
3 11 -5 4.84 0.35
3 -11 -5 4.85 0.23
3 -11 -5 4.58 0.31
-3 -11 5 4.59 0.34
-3 -11 5 4.26 0.3
-4 -11 -5 12.21 0.61
4 11 -5 13.79 0.66
-4 -11 -5 12.46 0.6
4 -11 5 12.6 0.57
4 -11 -5 12.57 0.52
-4 -11 5 12.37 0.61
4 -11 -5 12.66 0.64
-4 -11 5 11.96 0.65
-5 -11 -5 1.29 0.21
-5 -11 -5 1.58 0.22
5 11 -5 1.87 0.27
5 -11 5 2.06 0.21
-5 -11 5 1.69 0.24
-5 -11 5 1.63 0.24
5 -11 -5 1.8 0.26
-6 -11 -5 10.7 0.55
6 11 -5 9.91 0.58
-6 -11 -5 11.45 0.58
-6 -11 5 10.13 0.61
6 -11 -5 10.98 0.6
-6 -11 5 10.07 0.58
-7 -11 -5 4.28 0.33
7 11 -5 3.92 0.39
-7 -11 -5 4.24 0.37
7 -11 -5 4.21 0.37
-7 -11 5 4.07 0.35
-7 -11 5 3.51 0.4
8 11 -5 0.89 0.22
-8 -11 -5 1.34 0.23
-8 -11 -5 0.8 0.24
8 -11 -5 0.87 0.23
-8 -11 5 0.77 0.25
-8 -11 5 1.3 0.29
-9 -11 -5 3.99 0.43
9 11 -5 3.61 0.41
-9 -11 5 3.29 0.42
-9 -11 5 3.75 0.4
9 -11 -5 3.91 0.42
-10 -11 -5 1.75 0.32
10 11 -5 1.45 0.31
-10 -11 5 1.09 0.28
-10 -11 5 1.2 0.3
10 -11 -5 1.12 0.28
11 11 -5 2.37 0.36
-11 -11 -5 2.68 0.38
-11 -11 5 2.26 0.43
-11 -11 5 2.53 0.39
-12 -11 -5 0.5 0.3
12 11 -5 0.84 0.29
-12 -11 5 1.03 0.29
-12 -11 5 0.89 0.3
0 -12 -5 0.02 0.12
0 -12 5 0.08 0.11
0 -12 -5 0.06 0.07
0 -12 5 0.02 0.06
-1 -12 -5 0.98 0.12
-1 -12 -5 1.04 0.19
1 -12 5 1.24 0.17
1 -12 -5 1.16 0.11
-1 -12 5 0.76 0.16
1 -12 -5 1.12 0.19
-1 -12 5 0.8 0.12
-2 -12 -5 0.22 0.1
2 -12 5 0.19 0.11
-2 -12 -5 0.2 0.14
-2 -12 5 0.1 0.14
-2 -12 5 0.19 0.11
2 -12 -5 0.21 0.06
2 -12 -5 0.08 0.1
-3 -12 -5 10.69 0.56
3 12 -5 11.37 0.58
-3 -12 -5 11.6 0.53
3 -12 5 9.75 0.51
3 -12 -5 10.99 0.45
-3 -12 5 11.35 0.59
3 -12 -5 10.47 0.57
-3 -12 5 10.43 0.53
4 -12 5 17.01 0.75
-4 -12 -5 15.96 0.76
4 12 -5 17.82 0.83
-4 -12 -5 16.73 0.78
-4 -12 5 17.96 0.83
4 -12 -5 17.51 0.82
-4 -12 5 15.8 0.77
5 -12 5 18.09 0.77
-5 -12 -5 16.59 0.79
5 12 -5 17.1 0.85
-5 -12 -5 16.3 0.8
5 -12 -5 18.97 0.86
-5 -12 5 17.04 0.85
-5 -12 5 17.29 0.82
-6 -12 -5 10.03 0.55
-6 -12 -5 10.05 0.57
6 12 -5 10.73 0.6
-6 -12 5 10.91 0.62
-6 -12 5 10.43 0.58
6 -12 -5 10.15 0.58
-7 -12 -5 7.29 0.49
7 12 -5 7.82 0.53
-7 -12 -5 7 0.45
-7 -12 5 7.58 0.5
-7 -12 5 7.52 0.5
7 -12 -5 7.64 0.52
-8 -12 -5 3.03 0.32
8 12 -5 4.07 0.42
-8 -12 -5 3.84 0.4
8 -12 -5 2.86 0.36
-8 -12 5 3.75 0.41
-8 -12 5 3.27 0.38
-9 -12 -5 0.89 0.28
9 12 -5 0.67 0.25
-9 -12 -5 1.14 0.23
-9 -12 5 1.08 0.3
9 -12 -5 0.97 0.28
-9 -12 5 1.19 0.29
-10 -12 -5 0.51 0.23
10 12 -5 0.07 0.23
-10 -12 5 0.05 0.27
-10 -12 5 0.57 0.26
10 -12 -5 0.66 0.27
-11 -12 -5 0.77 0.3
11 12 -5 1.01 0.28
-11 -12 5 0.68 0.27
-11 -12 5 0.56 0.33
12 12 -5 -0.12 0.23
-12 -12 5 0.05 0.24
0 -13 -5 12.48 0.66
0 -13 5 14.93 0.58
0 -13 -5 13.8 0.58
0 -13 5 14.15 0.66
-1 -13 -5 6.21 0.39
1 -13 5 6.52 0.39
-1 -13 -5 6.83 0.35
1 -13 -5 6.18 0.42
-1 -13 5 7.24 0.35
-1 -13 5 7.4 0.43
1 -13 -5 7.4 0.32
2 -13 5 4.02 0.28
-2 -13 -5 4.36 0.27
-2 -13 -5 3.58 0.29
2 -13 -5 4.26 0.33
-2 -13 5 4.55 0.34
-2 -13 5 3.8 0.27
-3 -13 -5 10.9 0.58
-3 -13 -5 11.82 0.54
3 -13 5 10.67 0.53
-3 -13 5 10.45 0.54
-3 -13 5 11.63 0.61
3 -13 -5 11.11 0.6
4 13 -5 6.7 0.44
-4 -13 -5 5.38 0.37
-4 -13 -5 6.05 0.37
4 -13 5 5.46 0.34
4 -13 -5 5.42 0.38
-4 -13 5 5.37 0.37
-4 -13 5 6.37 0.44
5 -13 5 6.51 0.38
-5 -13 -5 6.37 0.41
-5 -13 -5 5.65 0.41
5 13 -5 7.17 0.48
5 -13 -5 7.11 0.46
-5 -13 5 5.73 0.41
-5 -13 5 6.45 0.46
-6 -13 -5 2.36 0.28
6 13 -5 2.67 0.31
-6 -13 -5 2.44 0.27
-6 -13 5 2.44 0.31
-6 -13 5 2.75 0.34
6 -13 -5 2.65 0.33
7 13 -5 1.22 0.24
-7 -13 -5 1.08 0.22
-7 -13 -5 1.42 0.23
-7 -13 5 1.41 0.29
7 -13 -5 1.5 0.28
-7 -13 5 1.03 0.26
-8 -13 -5 1.72 0.26
-8 -13 -5 2.07 0.31
8 13 -5 1.81 0.33
8 -13 -5 1.75 0.31
-8 -13 5 1.84 0.33
-8 -13 5 2.05 0.34
-9 -13 -5 0.16 0.24
9 13 -5 -0.08 0.21
-9 -13 -5 0.19 0.19
-9 -13 5 0.14 0.24
9 -13 -5 -0.04 0.21
-9 -13 5 -0.1 0.23
-10 -13 -5 1.98 0.36
10 13 -5 2.19 0.33
10 -13 -5 1.47 0.34
-10 -13 5 2.06 0.37
-10 -13 5 1.95 0.39
11 13 -5 0.61 0.27
-11 -13 -5 0.92 0.34
-11 -13 5 0.87 0.3
-11 -13 5 0.89 0.31
12 13 -5 -0.24 0.22
-12 -13 5 -0.19 0.23
0 -14 -5 17.61 0.81
0 -14 -5 17.29 0.7
0 -14 5 16.47 0.78
1 -14 5 2.37 0.25
-1 -14 -5 2.49 0.2
-1 -14 -5 2.2 0.27
1 -14 -5 1.9 0.26
-1 -14 5 2.54 0.2
-1 -14 5 2.43 0.26
-2 -14 -5 0.22 0.13
-2 -14 -5 0.13 0.12
2 -14 5 0.02 0.11
-2 -14 5 0.05 0.11
2 -14 -5 0.1 0.11
-2 -14 5 0.38 0.17
-3 -14 -5 14.78 0.64
-3 -14 -5 12.79 0.67
3 -14 5 13.28 0.64
-3 -14 5 14.64 0.72
-3 -14 5 13.51 0.65
3 -14 -5 13.65 0.69
-4 -14 -5 12.45 0.6
-4 -14 -5 11.79 0.63
4 -14 5 11.99 0.59
4 -14 -5 11.75 0.63
-4 -14 5 12.46 0.67
-4 -14 5 11.37 0.6
5 14 -5 5.82 0.46
5 -14 5 5.84 0.37
-5 -14 -5 6.54 0.43
-5 -14 -5 6.2 0.4
-5 -14 5 6.04 0.41
5 -14 -5 6.21 0.43
-5 -14 5 6.72 0.47
-6 -14 -5 1.24 0.23
6 14 -5 0.95 0.26
-6 -14 -5 1.09 0.22
6 -14 -5 0.69 0.22
-6 -14 5 0.75 0.25
-6 -14 5 1.07 0.23
7 14 -5 6.57 0.52
-7 -14 -5 5.82 0.45
-7 -14 -5 5.99 0.44
7 -14 -5 6.67 0.5
-7 -14 5 6.02 0.5
-7 -14 5 7.08 0.5
-8 -14 -5 4.43 0.44
8 14 -5 4.81 0.48
-8 -14 -5 4.25 0.38
-8 -14 5 4.11 0.43
8 -14 -5 4.95 0.48
-8 -14 5 4.57 0.47
-9 -14 -5 1.09 0.3
9 14 -5 1.74 0.34
-9 -14 -5 1.43 0.27
9 -14 -5 1.3 0.3
-9 -14 5 1.23 0.32
-9 -14 5 1.65 0.33
-10 -14 -5 1.25 0.33
10 14 -5 2.03 0.37
10 -14 -5 2.36 0.39
-10 -14 5 1.63 0.35
-10 -14 5 2.31 0.41
11 14 -5 0.68 0.28
-11 -14 -5 0.38 0.31
-11 -14 5 0.92 0.31
-11 -14 5 0.78 0.33
0 -15 -5 4.43 0.25
0 -15 5 3.64 0.32
0 -15 -5 3.31 0.3
-1 -15 -5 10.51 0.62
1 -15 5 12.57 0.61
-1 -15 -5 12.84 0.54
-1 -15 5 12.35 0.63
1 -15 -5 11.16 0.62
-2 -15 -5 0.77 0.14
2 -15 5 0.71 0.16
-2 -15 -5 0.75 0.17
-2 -15 5 0.93 0.16
2 -15 -5 0.77 0.2
-2 -15 5 0.87 0.21
-3 -15 -5 0.28 0.14
3 -15 5 0.23 0.13
-3 -15 -5 0.2 0.13
-3 -15 5 0.18 0.14
3 -15 -5 0.39 0.18
-3 -15 5 0.19 0.15
4 -15 5 3.23 0.29
-4 -15 -5 3.29 0.28
-4 -15 -5 3.06 0.33
4 -15 -5 2.71 0.33
-4 -15 5 2.92 0.3
-4 -15 5 3.24 0.34
-5 -15 -5 5.2 0.39
-5 -15 -5 5.68 0.39
5 -15 5 6.63 0.4
5 -15 -5 5.52 0.44
-5 -15 5 5.37 0.39
-5 -15 5 5.68 0.43
6 15 -5 0.37 0.23
-6 -15 -5 0.17 0.18
-6 -15 -5 0.67 0.2
-6 -15 5 0.25 0.17
-6 -15 5 0.45 0.23
6 -15 -5 0.12 0.15
-7 -15 -5 3.61 0.37
7 15 -5 4.22 0.45
-7 -15 -5 3.55 0.38
7 -15 -5 3.65 0.42
-7 -15 5 3.74 0.41
-7 -15 5 3.72 0.4
-8 -15 -5 3.54 0.39
8 15 -5 3.26 0.43
-8 -15 -5 4.52 0.44
-8 -15 5 4.9 0.49
-8 -15 5 3.96 0.44
8 -15 -5 4.17 0.47
-9 -15 -5 0.72 0.28
9 15 -5 0.83 0.3
-9 -15 -5 0.72 0.25
-9 -15 5 0.91 0.29
9 -15 -5 1.33 0.32
-9 -15 5 0.66 0.3
-10 -15 -5 0.29 0.21
10 15 -5 0.2 0.26
-10 -15 5 0.17 0.28
-10 -15 5 0.37 0.26
11 15 -5 -0.29 0.24
-11 -15 5 0.13 0.26
0 -16 -5 4.09 0.35
0 -16 5 3.55 0.34
1 -16 5 0.88 0.2
-1 -16 -5 0.94 0.19
-1 -16 -5 1.04 0.15
1 -16 -5 0.89 0.21
-1 -16 5 0.8 0.2
2 -16 5 0.72 0.17
-2 -16 -5 0.89 0.19
-2 -16 -5 0.85 0.16
-2 -16 5 0.91 0.22
2 -16 -5 1.03 0.23
-3 -16 -5 6.56 0.46
3 -16 5 6.95 0.42
-3 -16 -5 6.86 0.4
3 -16 -5 6.78 0.45
-3 -16 5 7.87 0.51
-3 -16 5 7.09 0.41
-4 -16 -5 1.42 0.21
-4 -16 -5 0.94 0.2
4 -16 5 1.31 0.2
4 -16 -5 1.2 0.24
-4 -16 5 1.67 0.29
-4 -16 5 1.7 0.24
-5 -16 -5 3.41 0.37
5 -16 5 3.7 0.31
-5 -16 -5 3.92 0.33
5 -16 -5 4.37 0.43
-5 -16 5 3.59 0.34
-5 -16 5 3.18 0.4
-6 -16 -5 0.67 0.23
-6 -16 -5 0.8 0.22
-6 -16 5 0.38 0.25
6 -16 -5 0.6 0.23
-6 -16 5 0.69 0.21
-7 -16 -5 0.45 0.22
-7 -16 -5 0.42 0.22
-7 -16 5 0.12 0.21
-7 -16 5 0.27 0.26
7 -16 -5 0.54 0.23
-8 -16 -5 1.78 0.31
-8 -16 -5 2.47 0.35
-8 -16 5 2.5 0.36
8 -16 -5 2.52 0.38
-8 -16 5 1.82 0.33
-9 -16 -5 0.48 0.25
-9 -16 -5 1.11 0.3
9 16 -5 1 0.27
9 -16 -5 0.67 0.25
-9 -16 5 0.83 0.3
-9 -16 5 1.17 0.32
-10 -16 -5 -0.14 0.24
-10 -16 5 0.02 0.27
-10 -16 5 0.72 0.3
0 -17 5 0.88 0.22
0 -17 -5 1.29 0.22
-1 -17 -5 0.88 0.22
1 -17 5 0.79 0.19
-1 -17 5 0.95 0.22
1 -17 -5 0.61 0.2
-2 -17 -5 2.06 0.28
2 -17 5 1.92 0.25
2 -17 -5 2.06 0.3
-2 -17 5 2.46 0.31
-3 -17 -5 1.07 0.25
-3 -17 -5 0.79 0.19
3 -17 5 1.27 0.22
-3 -17 5 0.7 0.2
3 -17 -5 1.3 0.24
4 -17 5 2.59 0.29
-4 -17 -5 3.24 0.3
-4 -17 -5 2.84 0.34
-4 -17 5 2.62 0.29
-4 -17 5 3.15 0.37
4 -17 -5 2.66 0.35
-5 -17 -5 6.99 0.44
-5 -17 -5 6.4 0.45
5 -17 5 5.92 0.42
-5 -17 5 7.2 0.5
-5 -17 5 6.74 0.46
5 -17 -5 6.3 0.5
-6 -17 -5 6.74 0.46
-6 -17 -5 7.15 0.51
-6 -17 5 6.43 0.48
-6 -17 5 6.88 0.56
6 -17 -5 6.55 0.53
-7 -17 -5 2.63 0.34
-7 -17 -5 3.24 0.39
7 -17 -5 2.19 0.37
-7 -17 5 2.85 0.39
-7 -17 5 3.02 0.37
-8 -17 -5 0.74 0.26
-8 -17 -5 1.11 0.28
8 -17 -5 1.21 0.3
-8 -17 5 0.65 0.31
-8 -17 5 0.72 0.26
-9 -17 -5 1.18 0.31
-9 -17 -5 0.87 0.28
9 -17 -5 1.56 0.34
-9 -17 5 1.15 0.32
-9 -17 5 0.94 0.28
-10 -17 -5 -0.22 0.25
-10 -17 5 0.07 0.29
-10 -17 5 0.07 0.25
0 -18 -5 1.66 0.28
0 -18 5 1.49 0.26
-1 -18 -5 0.47 0.22
1 -18 5 0.42 0.18
-1 -18 5 0.5 0.21
1 -18 -5 0.46 0.2
2 -18 5 4.33 0.36
-2 -18 -5 4.96 0.39
-2 -18 5 5.49 0.43
2 -18 -5 3.79 0.4
3 -18 5 0.31 0.16
-3 -18 -5 -0.07 0.19
3 -18 -5 0.11 0.19
-3 -18 5 0.16 0.21
-4 -18 -5 0.65 0.18
4 -18 5 0.62 0.18
-4 -18 -5 0.85 0.25
4 -18 -5 0.48 0.19
-4 -18 5 0.32 0.24
-5 -18 -5 0.93 0.21
-5 -18 -5 1.12 0.28
-5 -18 5 1.53 0.32
5 -18 -5 1.17 0.29
-6 -18 -5 1.95 0.33
-6 -18 -5 2.51 0.32
-6 -18 5 2.88 0.4
-6 -18 5 2 0.3
6 -18 -5 2.99 0.39
-7 -18 -5 0.61 0.25
-7 -18 -5 0.32 0.21
-7 -18 5 0.05 0.21
7 -18 -5 0.53 0.26
-7 -18 5 1.18 0.34
-8 -18 -5 2.96 0.39
-8 -18 -5 2.41 0.35
-8 -18 5 2.31 0.36
-8 -18 5 2.99 0.44
8 -18 -5 3.04 0.43
-9 -18 -5 1.9 0.35
-9 -18 -5 1.5 0.33
9 -18 -5 1.68 0.37
-9 -18 5 1.57 0.35
-9 -18 5 1.4 0.36
0 -19 -5 1.74 0.31
0 -19 5 2.61 0.3
1 -19 5 3.7 0.32
-1 -19 -5 3.45 0.4
1 -19 -5 4.07 0.41
-1 -19 5 3.7 0.4
2 -19 5 2.54 0.3
-2 -19 -5 2.01 0.3
2 -19 -5 2.72 0.37
-2 -19 5 2.88 0.36
-3 -19 -5 1.11 0.28
3 -19 5 1.43 0.24
3 -19 -5 1.31 0.26
-3 -19 5 1.69 0.32
4 -19 5 1.14 0.23
-4 -19 -5 1.12 0.28
4 -19 -5 0.96 0.24
-4 -19 5 0.94 0.29
-5 -19 -5 0.21 0.24
-5 -19 -5 0.27 0.18
5 -19 -5 0.05 0.21
-5 -19 5 0.01 0.25
-6 -19 -5 2.9 0.36
-6 -19 -5 2.64 0.35
-6 -19 5 3.13 0.41
6 -19 -5 2.98 0.41
-7 -19 -5 0.44 0.26
-7 -19 -5 0.46 0.23
7 -19 -5 0.15 0.25
-7 -19 5 0.63 0.24
-7 -19 5 1.11 0.35
-8 -19 -5 0.4 0.24
-8 -19 -5 -0.12 0.23
-8 -19 5 -0.07 0.23
8 -19 -5 0.14 0.24
-8 -19 5 0.27 0.23
-9 -19 -5 2.35 0.38
-9 -19 -5 2.02 0.37
-9 -19 5 1.62 0.36
-9 -19 5 1.22 0.38
0 -20 -5 1.53 0.31
0 -20 5 1.71 0.29
-1 -20 -5 0.34 0.23
1 -20 5 -0.42 0.15
-1 -20 5 0.29 0.23
1 -20 -5 0.11 0.22
2 -20 5 2.28 0.31
-2 -20 -5 2.42 0.33
-2 -20 5 2.11 0.36
2 -20 -5 2.33 0.36
-3 -20 -5 0.82 0.23
3 -20 5 0.58 0.21
3 -20 -5 0.64 0.26
-3 -20 5 1.2 0.3
-4 -20 -5 0.91 0.29
4 -20 5 1.21 0.26
4 -20 -5 1.52 0.29
-4 -20 5 1.48 0.29
-5 -20 -5 4.34 0.47
5 -20 -5 5.08 0.45
-5 -20 5 5.23 0.52
-6 -20 -5 0.48 0.28
6 -20 -5 0.61 0.27
-6 -20 5 0.68 0.31
-7 -20 -5 -0.03 0.21
-7 -20 -5 0.36 0.26
-7 -20 5 0.25 0.22
7 -20 -5 0.47 0.27
-8 -20 -5 0.08 0.27
-8 -20 -5 0.36 0.28
8 -20 -5 0.84 0.32
-8 -20 5 0.24 0.3
-9 -20 -5 -0.05 0.26
-9 -20 -5 0.01 0.24
-9 -20 5 0.02 0.25
0 -21 -5 0.89 0.23
0 -21 5 0.6 0.26
-1 -21 -5 0.37 0.25
1 -21 5 -0.03 0.19
-1 -21 5 0.09 0.23
1 -21 -5 0.26 0.25
-2 -21 -5 3.02 0.41
2 -21 5 2.82 0.35
-2 -21 5 3.37 0.41
2 -21 -5 2.68 0.37
3 -21 5 1.73 0.29
-3 -21 -5 1.42 0.33
-3 -21 5 2.36 0.38
3 -21 -5 1.59 0.34
4 -21 5 3.6 0.39
-4 -21 -5 3.51 0.44
4 -21 -5 3.05 0.42
-4 -21 5 4.14 0.48
-5 -21 -5 0.36 0.26
5 -21 -5 0.53 0.26
-5 -21 5 0.04 0.19
-6 -21 -5 1.15 0.28
6 -21 -5 1.42 0.34
-6 -21 5 2.24 0.41
-7 -21 -5 0.39 0.28
7 -21 -5 0.51 0.28
-7 -21 5 0.84 0.34
-8 -21 -5 0.78 0.32
8 -21 -5 0.7 0.31
0 -22 -5 2.78 0.39
0 -22 5 2.22 0.32
-1 -22 -5 0.25 0.25
1 -22 5 0.6 0.24
1 -22 -5 0.09 0.25
-1 -22 5 0.06 0.19
2 -22 5 0.21 0.2
-2 -22 -5 0.22 0.25
-2 -22 5 0.24 0.27
2 -22 -5 0.32 0.28
-3 -22 -5 2.05 0.37
3 -22 5 2.22 0.33
-3 -22 5 1.83 0.37
3 -22 -5 1.79 0.36
-4 -22 -5 2.26 0.39
4 -22 -5 2.47 0.4
-4 -22 5 2.85 0.44
-5 -22 -5 0.25 0.27
-5 -22 5 0.58 0.3
5 -22 -5 0.39 0.25
-6 -22 -5 0.11 0.27
-6 -22 5 0.6 0.32
6 -22 -5 0.7 0.29
-7 -22 -5 0.11 0.26
7 -22 -5 0.74 0.3
0 -23 -5 7.7 0.61
0 -23 5 6.93 0.56
-1 -23 -5 1.58 0.34
1 -23 5 1.04 0.27
1 -23 -5 0.81 0.31
-1 -23 5 0.9 0.3
2 -23 5 0.9 0.26
-2 -23 -5 0.51 0.29
-2 -23 5 0.32 0.28
2 -23 -5 0.54 0.28
3 -23 5 1.5 0.29
-3 -23 -5 1.17 0.35
-3 -23 5 1.42 0.35
3 -23 -5 0.79 0.32
-4 -23 -5 3 0.44
-4 -23 5 2.46 0.44
4 -23 -5 3.12 0.44
-5 -23 -5 0.03 0.27
5 -23 -5 -0.18 0.24
-5 -23 5 -0.15 0.26
-6 -23 -5 0.62 0.27
6 -23 -5 1.17 0.32
0 -24 5 0.61 0.28
0 -24 -5 0.54 0.3
1 -24 5 0.97 0.3
-1 -24 -5 0.75 0.32
-1 -24 5 0.65 0.3
1 -24 -5 1.36 0.35
2 -24 5 0.65 0.26
-2 -24 -5 0.61 0.31
-2 -24 5 0.23 0.29
2 -24 -5 0.32 0.28
-3 -24 -5 0.08 0.27
3 -24 5 0.62 0.25
-3 -24 5 0.9 0.35
3 -24 -5 0.31 0.28
-4 -24 -5 -0.03 0.27
4 -24 -5 0.82 0.3
-4 -24 5 0.24 0.32
5 -24 -5 0.19 0.27
0 -25 -5 0.55 0.31
0 -25 5 -0.12 0.24
-1 -25 -5 -0.1 0.26
1 -25 5 0.01 0.23
-1 -25 5 0.01 0.26
1 -25 -5 -0.03 0.2
2 -25 5 1.17 0.31
-2 -25 -5 0.57 0.31
-2 -25 5 0.56 0.32
2 -25 -5 0.91 0.33
2 -26 5 -0.05 0.23
0 0 -6 179.37 6.68
0 0 -6 188.01 6.78
-1 0 -6 373.54 13.77
1 0 -6 385.49 14
-1 0 -6 384.57 13.96
1 0 -6 377.21 13.78
-2 0 -6 268.1 10.08
-2 0 -6 276.85 9.96
2 0 -6 273.63 9.97
2 0 -6 279.08 10.14
3 0 -6 0.1 0.09
-3 0 -6 0.11 0.02
-3 0 -6 0.18 0.06
3 0 -6 0.08 0.06
-4 0 -6 4.79 0.19
4 0 -6 3.94 0.27
-4 0 -6 4.27 0.25
4 0 -6 4.37 0.28
-5 0 6 8.12 0.43
-5 0 -6 7.91 0.4
5 0 -6 7.73 0.45
-5 0 -6 9.04 0.35
5 0 6 8.51 0.34
-6 0 6 12.01 0.61
-6 0 -6 12.74 0.51
6 0 6 13.09 0.51
-6 0 -6 12.21 0.58
6 0 -6 12.17 0.62
7 0 -6 1.54 0.24
-7 0 -6 1.93 0.21
-7 0 6 2.22 0.25
-8 0 6 2.32 0.29
-8 0 -6 1.97 0.24
8 0 -6 2.5 0.29
9 0 -6 2.13 0.27
-9 0 -6 1.96 0.26
-9 0 6 2.19 0.3
10 0 -6 6.87 0.49
-10 0 6 6.51 0.51
-10 0 -6 7.6 0.47
-11 0 -6 0.73 0.22
11 0 -6 0.77 0.23
-11 0 6 0.49 0.23
12 0 -6 0.06 0.22
-12 0 -6 -0.2 0.19
-12 0 6 0.09 0.21
-13 0 -6 0.23 0.22
-13 0 6 0.15 0.25
0 1 -6 391.95 13.91
0 -1 -6 388.11 13.91
0 -1 -6 367.59 13.7
0 1 -6 365.94 13.7
-1 -1 -6 86.92 3.26
-1 -1 -6 89.82 3.3
1 1 -6 90.57 3.33
1 1 -6 91.7 3.27
-1 1 -6 86.09 3.26
1 -1 -6 89.63 3.33
-1 1 -6 88.49 3.29
1 -1 -6 89.46 3.27
-2 -1 -6 53.74 2.02
-2 -1 -6 54.05 2.01
2 1 -6 56.38 2.08
2 1 -6 54.66 2.03
-2 1 -6 52.09 2
2 -1 -6 52.76 2.08
2 -1 -6 55.1 2.03
-2 1 -6 55.34 2.01
-3 -1 -6 19.85 0.74
-3 -1 -6 19.33 0.78
3 1 -6 19.22 0.8
3 1 -6 18.29 0.81
3 -1 -6 20.05 0.83
-3 1 -6 19.58 0.77
3 -1 -6 19.59 0.79
4 1 -6 12.38 0.61
-4 -1 -6 12.52 0.57
-4 -1 -6 14.27 0.53
4 -1 -6 13.48 0.6
4 -1 -6 14.33 0.63
-4 1 -6 14.65 0.51
-4 -1 6 12.84 0.61
-4 1 -6 13.42 0.57
-5 -1 -6 7.85 0.31
5 1 -6 6.36 0.4
5 -1 6 7.17 0.29
-5 -1 -6 6.05 0.35
-5 1 6 6.45 0.38
-5 1 -6 6.92 0.35
-5 1 -6 7.52 0.29
5 -1 -6 7.05 0.39
-5 -1 6 7.08 0.4
-6 -1 -6 2.7 0.24
-6 1 6 2.4 0.25
6 -1 6 2.66 0.15
6 1 -6 2.86 0.24
-6 -1 -6 3.07 0.17
-6 -1 6 2.56 0.26
6 1 6 2.72 0.16
-6 1 -6 2.81 0.22
6 -1 -6 2.8 0.27
-6 1 -6 3.01 0.16
7 1 -6 32.23 1.4
-7 -1 -6 33.72 1.36
-7 1 6 32.91 1.39
7 1 6 35.61 1.31
-7 1 -6 33.31 1.34
-7 -1 6 33.6 1.4
7 -1 -6 32.3 1.4
-8 1 6 18.71 0.88
-8 -1 -6 17.9 0.84
8 1 -6 17.66 0.87
-8 1 -6 18.47 0.83
-8 -1 6 19.62 0.9
8 -1 -6 18.95 0.88
-9 -1 -6 2.87 0.29
-9 1 6 2.94 0.33
9 1 -6 2.61 0.31
-9 -1 6 2.35 0.32
-9 1 -6 2.51 0.28
9 -1 -6 2.61 0.31
-10 -1 -6 0.17 0.18
10 1 -6 0.35 0.19
-10 1 6 0.15 0.19
10 -1 -6 0.24 0.18
-10 -1 6 0.12 0.18
-10 1 -6 0.46 0.19
-11 1 6 0.55 0.23
-11 -1 -6 0.27 0.2
11 1 -6 0.28 0.2
11 -1 -6 0.27 0.19
-11 -1 6 0.75 0.26
-11 1 -6 0.22 0.18
12 1 -6 1.05 0.27
-12 -1 -6 0.4 0.23
-12 1 6 1.41 0.32
-12 -1 6 1.1 0.29
-12 1 -6 0.17 0.23
12 -1 -6 0.85 0.26
-13 1 6 0.3 0.25
-13 -1 -6 0.42 0.24
-13 -1 6 0.66 0.29
-14 1 6 1.11 0.33
0 -2 -6 0.54 0.07
0 2 -6 0.46 0.07
0 2 -6 0.68 0.09
0 -2 -6 0.54 0.08
-1 -2 -6 39.68 1.59
1 2 -6 43.08 1.59
-1 -2 -6 41.21 1.58
1 2 -6 44.18 1.63
1 -2 -6 44.18 1.63
-1 2 -6 40.58 1.57
1 -2 -6 43.17 1.59
-1 2 -6 43.27 1.59
-2 -2 -6 46.06 1.71
2 2 -6 45.62 1.73
2 2 -6 44.28 1.76
2 -2 6 47.41 1.68
-2 -2 -6 45.24 1.71
2 -2 -6 46.45 1.72
2 -2 -6 46.25 1.77
-2 2 -6 44.19 1.7
-3 -2 -6 0.21 0.08
3 2 -6 0.34 0.1
3 2 -6 0.41 0.1
-3 -2 -6 0.25 0.05
3 -2 -6 0.18 0.07
-3 2 -6 0.17 0.06
3 -2 -6 0.24 0.1
4 2 -6 25.69 1.09
-4 -2 -6 26.29 1.05
-4 -2 -6 29.14 1.01
-4 2 -6 25.47 1.02
-4 -2 6 26.39 1.08
4 -2 -6 24.53 1.08
4 -2 -6 26.3 1.06
-5 2 6 0.28 0.11
5 2 -6 0.32 0.13
5 -2 6 0.42 0.05
-5 -2 -6 0.44 0.12
-5 -2 -6 0.46 0.08
5 -2 -6 0.37 0.12
-5 -2 6 0.31 0.13
-5 2 -6 0.23 0.09
6 -2 6 11.52 0.45
-6 -2 -6 11.9 0.48
6 2 -6 10.83 0.57
-6 2 6 10.79 0.55
-6 -2 -6 10.06 0.52
6 2 6 11.87 0.47
6 -2 -6 11.35 0.57
-6 -2 6 10.27 0.56
-6 2 -6 10.95 0.51
-7 -2 -6 6.89 0.44
-7 -2 -6 7.96 0.39
7 2 -6 6.95 0.46
-7 2 6 7.83 0.46
-7 2 -6 7.88 0.41
7 2 6 8.5 0.37
-7 -2 6 7.9 0.46
7 -2 -6 7.59 0.47
-8 -2 -6 4.23 0.34
-8 2 6 4.12 0.34
8 2 -6 3.86 0.36
-8 2 -6 3.15 0.29
-8 -2 6 3.62 0.36
8 -2 -6 3.9 0.34
9 2 -6 11.09 0.63
-9 2 6 12.36 0.65
-9 -2 -6 12.06 0.63
-9 2 -6 11.26 0.58
-9 -2 6 11.17 0.66
9 -2 -6 10.59 0.62
10 2 -6 2.88 0.35
-10 2 6 3.13 0.36
-10 -2 -6 3.28 0.35
-10 -2 6 3.09 0.39
-10 2 -6 3.01 0.31
10 -2 -6 3.02 0.35
11 2 -6 0.81 0.25
-11 -2 -6 1.16 0.26
-11 2 6 0.76 0.24
-11 2 -6 0.26 0.18
-11 -2 6 0.58 0.21
11 -2 -6 0.07 0.2
-12 2 6 0.35 0.25
-12 -2 -6 0.33 0.23
12 2 -6 0.4 0.23
12 -2 -6 0.31 0.21
-12 2 -6 -0.23 0.17
-12 -2 6 0.75 0.28
-13 2 6 0.36 0.24
-13 -2 -6 0.1 0.22
-13 -2 6 0.62 0.3
0 -3 -6 5.98 0.27
0 -3 -6 5.97 0.28
0 3 -6 6.25 0.28
0 3 -6 5.82 0.26
1 3 -6 0.65 0.1
-1 -3 -6 0.72 0.09
-1 -3 -6 0.8 0.09
1 3 -6 0.73 0.09
1 -3 -6 0.91 0.12
-1 3 -6 1.03 0.08
-1 3 -6 1.07 0.08
1 -3 -6 0.88 0.09
2 -3 6 9.49 0.37
2 3 -6 9.5 0.43
-2 -3 -6 9.83 0.4
-2 -3 -6 9.39 0.41
2 3 -6 9.22 0.45
2 -3 -6 9.86 0.41
2 -3 -6 9.53 0.45
-2 3 -6 10 0.4
-3 -3 -6 31.69 1.17
-3 -3 -6 28.78 1.18
3 3 -6 29.47 1.23
3 3 -6 30.19 1.21
-3 3 -6 30.95 1.16
3 -3 -6 31.34 1.23
3 -3 -6 31.17 1.18
4 -3 6 3.03 0.12
-4 -3 -6 2.77 0.21
-4 -3 -6 3.28 0.17
4 3 -6 3.19 0.23
-4 -3 6 2.59 0.21
4 -3 -6 3.17 0.21
-4 3 -6 2.75 0.18
4 -3 -6 2.92 0.24
5 3 -6 13.81 0.66
-5 -3 -6 13.72 0.63
-5 -3 -6 15.99 0.58
5 -3 6 14.11 0.54
-5 3 6 13.54 0.62
-5 3 -6 13.4 0.58
5 -3 -6 12.66 0.64
-5 -3 6 13.64 0.66
-6 -3 -6 1.94 0.16
-6 -3 -6 1.6 0.21
-6 3 6 1.72 0.21
6 3 -6 2.04 0.24
6 -3 6 1.72 0.11
-6 -3 6 1.59 0.23
6 -3 -6 1.38 0.2
-6 3 -6 1.79 0.17
-7 -3 -6 8.78 0.47
-7 3 6 7.09 0.44
7 3 -6 7.27 0.45
-7 -3 -6 9.16 0.39
7 -3 -6 7.39 0.47
-7 3 -6 7.54 0.41
-7 -3 6 7.38 0.47
7 3 6 8.4 0.38
-8 3 6 1.37 0.23
8 3 -6 1.15 0.21
-8 -3 -6 1.22 0.22
-8 -3 6 0.83 0.23
8 -3 -6 1.08 0.21
-8 3 -6 1.27 0.19
-9 -3 -6 5.35 0.4
9 3 -6 4.67 0.4
-9 3 6 4.61 0.38
-9 3 -6 5.21 0.35
9 -3 -6 4.31 0.38
-9 -3 6 5.63 0.44
-10 3 6 0.18 0.17
10 3 -6 -0.04 0.17
-10 -3 -6 0.28 0.15
10 -3 -6 0.07 0.17
-10 3 -6 -0.08 0.14
-10 -3 6 0.27 0.17
-11 -3 -6 1.7 0.28
11 3 -6 2.43 0.33
-11 3 6 1.83 0.3
-11 -3 6 1.42 0.32
11 -3 -6 1.16 0.27
-11 3 -6 1.36 0.24
-12 -3 -6 0.88 0.27
12 3 -6 0.71 0.26
-12 3 6 0.97 0.27
-12 -3 6 1.03 0.27
12 -3 -6 0.88 0.25
-13 -3 -6 1.53 0.33
-13 -3 6 1.69 0.37
0 -4 -6 154.8 5.95
0 4 -6 164.51 5.85
0 4 -6 163.15 5.95
0 -4 -6 160.41 5.85
1 4 -6 25.52 1
-1 -4 -6 25.31 1
-1 -4 -6 27.73 1
1 4 -6 25.46 1.02
1 -4 6 26.03 0.99
-1 4 -6 26.16 0.99
1 -4 -6 25.05 0.98
1 -4 -6 24.96 1.02
-1 4 -6 25.48 0.97
-2 -4 -6 36.79 1.44
2 4 -6 36.49 1.48
2 4 -6 37.65 1.45
2 -4 6 37.5 1.41
-2 -4 -6 38.1 1.44
-2 4 -6 38.7 1.41
2 -4 -6 40.03 1.43
2 -4 -6 36.42 1.48
-3 -4 -6 84.08 3.03
3 -4 6 82.65 2.99
-3 -4 -6 81.4 3.01
3 4 -6 78.85 3.08
3 -4 -6 75.83 3.07
3 -4 -6 79.97 3
-3 -4 6 82.68 3.04
-3 4 -6 81.44 2.97
-4 -4 -6 36.06 1.32
-4 -4 -6 34.5 1.35
4 -4 6 35.28 1.28
4 4 -6 33.99 1.39
-4 -4 6 34.37 1.38
4 -4 -6 34.62 1.33
-4 4 -6 33.95 1.3
4 -4 -6 31.05 1.38
-5 4 6 43.24 1.67
-5 -4 -6 45.22 1.65
5 4 -6 44.66 1.73
-5 -4 -6 40.36 1.67
5 -4 6 45.09 1.6
-5 -4 6 41.91 1.7
5 -4 -6 40.19 1.71
-5 4 -6 41.34 1.62
-6 -4 -6 13.33 0.63
-6 -4 -6 14.33 0.58
6 4 -6 13.24 0.66
-6 4 6 12.77 0.61
6 -4 -6 13.4 0.65
-6 4 -6 12.75 0.57
-6 -4 6 12.3 0.64
-7 -4 -6 0.27 0.16
-7 -4 -6 0.1 0.11
7 4 -6 0.04 0.12
-7 4 6 0.19 0.13
-7 4 -6 0.2 0.11
-7 -4 6 0.16 0.17
7 -4 -6 0.15 0.15
8 4 -6 1.07 0.23
-8 -4 -6 1.34 0.23
-8 4 6 1.25 0.21
-8 4 -6 1.49 0.19
8 -4 -6 1.76 0.25
-8 -4 6 1.48 0.26
-9 -4 -6 4.78 0.39
-9 4 6 3.82 0.37
9 4 -6 3.89 0.39
9 -4 -6 3.9 0.33
-9 -4 6 3.7 0.39
-9 4 -6 3.79 0.31
-10 -4 -6 1.43 0.24
-10 4 6 1.18 0.26
10 4 -6 1.45 0.28
10 -4 -6 1.21 0.25
-10 -4 6 1.61 0.31
-10 4 -6 0.93 0.21
-11 4 6 0.19 0.19
11 4 -6 0.28 0.21
-11 -4 -6 0.14 0.17
11 -4 -6 0.86 0.24
-11 -4 6 0.8 0.28
-12 -4 -6 2.57 0.37
12 4 -6 2.08 0.34
12 -4 -6 2.25 0.37
-12 -4 6 2.38 0.4
-13 -4 -6 0.61 0.28
-13 -4 6 0.51 0.28
0 5 -6 97.47 3.64
0 5 -6 99.91 3.58
0 -5 6 98.67 3.65
0 -5 -6 95.2 3.65
0 -5 -6 97.25 3.58
-1 -5 -6 21.25 0.79
1 -5 6 20.2 0.79
1 5 -6 19.92 0.82
-1 -5 -6 20.32 0.81
1 5 -6 20.19 0.8
-1 5 -6 19.79 0.79
-1 5 -6 19.46 0.76
1 -5 -6 19.29 0.82
1 -5 -6 20.1 0.78
2 5 -6 24.56 1.03
2 5 -6 24.28 1
2 -5 6 25.19 0.96
-2 -5 -6 26.63 0.99
-2 -5 -6 26.95 1
-2 5 -6 25.17 0.95
2 -5 -6 25.8 0.98
2 -5 -6 23.22 1.02
-3 -5 -6 56.71 2.25
3 5 -6 58.87 2.31
3 -5 6 60.08 2.22
-3 -5 -6 61.03 2.26
3 -5 -6 56.96 2.3
3 -5 -6 60.3 2.23
-3 -5 6 61.81 2.28
-3 5 -6 62.06 2.21
4 5 -6 3.49 0.25
-4 -5 -6 3.68 0.21
4 -5 6 2.95 0.16
-4 -5 -6 3.15 0.24
4 -5 -6 3.33 0.21
4 -5 -6 3.14 0.24
-4 5 -6 3.45 0.19
-4 -5 6 3.37 0.24
5 5 -6 15.65 0.75
-5 -5 -6 15.72 0.71
5 -5 6 17.03 0.63
-5 5 6 16.48 0.7
-5 -5 -6 17.03 0.68
-5 5 -6 15.58 0.65
-5 -5 6 14.58 0.73
5 -5 -6 14.81 0.73
6 5 -6 13.5 0.66
-6 -5 -6 13.41 0.65
-6 -5 -6 14.32 0.59
-6 5 6 12.76 0.61
-6 -5 6 13.31 0.68
-6 5 -6 13.69 0.57
6 -5 -6 12.37 0.64
-7 -5 -6 8.81 0.5
-7 5 6 8.29 0.46
7 5 -6 8.63 0.5
-7 -5 -6 9.61 0.44
-7 -5 6 8.28 0.52
7 -5 -6 7.38 0.49
-7 5 -6 8.65 0.42
8 5 -6 8.21 0.53
-8 -5 -6 8.7 0.52
-8 5 6 8.69 0.49
-8 5 -6 8.76 0.44
8 -5 -6 7.84 0.5
-8 -5 6 8.12 0.54
-9 5 6 1.96 0.27
9 5 -6 1.97 0.29
-9 -5 -6 2 0.29
9 -5 -6 1.7 0.25
-9 -5 6 2.02 0.3
-9 5 -6 1.8 0.21
10 5 -6 0.35 0.2
-10 -5 -6 0.67 0.21
-10 5 6 0.45 0.19
10 -5 -6 0.7 0.21
-10 -5 6 0.54 0.26
-11 -5 -6 3.94 0.41
-11 5 6 3 0.38
11 5 -6 3.99 0.42
11 -5 -6 4.51 0.45
-11 -5 6 4.96 0.51
12 5 -6 2 0.35
-12 -5 -6 2.16 0.36
-12 -5 6 1.86 0.34
-13 -5 -6 0.09 0.27
13 5 -6 0.62 0.27
-13 -5 6 0.52 0.31
0 6 -6 71.74 2.68
0 -6 -6 68.81 2.69
0 6 -6 71.91 2.63
0 -6 6 71.43 2.69
0 -6 -6 72.47 2.63
1 6 -6 9.5 0.43
1 -6 6 9.87 0.42
-1 -6 -6 9.71 0.42
-1 -6 -6 9.95 0.45
1 6 -6 9.59 0.45
-1 -6 6 9.72 0.45
-1 6 -6 10.21 0.4
1 -6 -6 10.12 0.41
1 -6 -6 9.46 0.45
-2 -6 -6 13.61 0.56
2 -6 6 13.12 0.53
-2 -6 -6 13.4 0.56
2 6 -6 12.98 0.59
2 -6 -6 13.49 0.54
-2 6 -6 12.63 0.51
-2 -6 6 13.49 0.58
2 -6 -6 11.67 0.58
3 -6 6 3.27 0.17
-3 -6 -6 3 0.22
-3 -6 -6 3.06 0.2
3 6 -6 2.85 0.22
-3 6 -6 2.78 0.15
-3 -6 6 2.94 0.23
3 -6 -6 3.12 0.19
3 -6 -6 3.09 0.22
4 6 -6 66.56 2.58
-4 -6 -6 65.22 2.51
4 -6 6 68.44 2.48
-4 -6 -6 66.1 2.52
-4 -6 6 66.85 2.55
4 -6 -6 65.98 2.49
-4 6 -6 69.08 2.45
4 -6 -6 62.6 2.57
5 6 -6 8.04 0.49
-5 -6 -6 9.84 0.48
5 -6 6 9.35 0.39
-5 -6 -6 9.87 0.44
-5 -6 6 9.03 0.5
5 -6 -6 8.31 0.42
5 -6 -6 8.77 0.49
-5 6 -6 8.76 0.39
-6 -6 -6 9.38 0.51
-6 -6 -6 10.62 0.49
6 6 -6 9.96 0.56
-6 6 6 10.54 0.51
6 -6 -6 9.84 0.55
-6 -6 6 10.48 0.57
-6 6 -6 10.54 0.45
-7 -6 -6 4.75 0.3
-7 6 6 4.77 0.32
7 6 -6 4.5 0.38
-7 -6 -6 4.04 0.32
7 -6 -6 4.3 0.35
-7 -6 6 4.34 0.38
-7 6 -6 4.57 0.26
-8 6 6 8.57 0.49
8 6 -6 8.71 0.55
-8 -6 -6 8.5 0.53
8 -6 -6 9.41 0.54
-8 -6 6 8.66 0.57
-8 6 -6 9.11 0.44
9 6 -6 3.75 0.37
-9 -6 -6 3.67 0.38
-9 6 6 3.74 0.35
-9 -6 6 3.7 0.4
9 -6 -6 3.52 0.38
10 6 -6 3.98 0.4
-10 -6 -6 4.06 0.42
-10 6 6 3.06 0.34
-10 -6 6 3.69 0.44
10 -6 -6 3.17 0.37
11 6 -6 0.79 0.25
-11 -6 -6 0.73 0.27
11 -6 -6 0.92 0.24
-11 -6 6 0.96 0.31
12 6 -6 0.38 0.24
-12 -6 -6 0.03 0.23
-12 -6 6 0.5 0.28
-13 -6 -6 0.72 0.3
13 6 -6 0.41 0.28
-13 -6 6 0.76 0.32
0 -7 -6 19.49 0.8
0 7 -6 20.72 0.8
0 -7 -6 20.66 0.85
0 7 -6 19.75 0.83
0 -7 6 21.54 0.84
1 7 -6 21.21 0.89
-1 -7 -6 21.8 0.92
-1 -7 -6 21.4 0.89
1 7 -6 21.86 0.93
1 -7 6 22.61 0.9
-1 7 -6 24.38 0.87
-1 -7 6 23.95 0.94
1 -7 -6 23.04 0.88
1 -7 -6 23.98 0.94
2 -7 6 15.21 0.63
-2 -7 -6 14.91 0.66
-2 -7 -6 16.23 0.65
2 7 -6 16.05 0.69
2 -7 -6 15.92 0.69
-2 -7 6 15.12 0.69
-2 7 -6 15.6 0.6
-2 -7 6 15.55 0.66
2 -7 -6 15.06 0.62
3 -7 6 13.63 0.55
-3 -7 -6 12.77 0.58
3 7 -6 13.07 0.61
-3 -7 -6 13.47 0.58
3 -7 -6 13.5 0.62
3 -7 -6 12.51 0.55
-3 7 -6 13.52 0.52
-3 -7 6 13.52 0.61
4 7 -6 1.35 0.19
4 -7 6 1.26 0.12
-4 -7 -6 1.23 0.15
-4 -7 -6 1.33 0.16
-4 7 -6 1.52 0.11
-4 -7 6 1.17 0.18
4 -7 -6 1.46 0.14
4 -7 -6 1.39 0.2
5 -7 6 5.2 0.25
-5 -7 -6 4.47 0.3
5 7 -6 4.97 0.36
-5 -7 -6 4.76 0.28
5 -7 -6 4.57 0.32
-5 7 -6 5.2 0.25
-5 -7 6 5.06 0.36
5 -7 -6 4.51 0.27
-6 7 6 4.19 0.29
-6 -7 -6 4.14 0.32
-6 -7 -6 3.98 0.27
6 7 -6 4.22 0.35
6 -7 -6 3.88 0.31
-6 -7 6 4.07 0.35
-6 7 -6 4.3 0.23
-7 7 6 7.77 0.42
-7 -7 -6 7.86 0.47
-7 -7 -6 7.5 0.42
7 7 -6 7.78 0.5
-7 -7 6 7.72 0.51
7 -7 -6 6.58 0.47
-7 7 -6 7.72 0.38
-8 -7 -6 0.77 0.21
-8 7 6 0.35 0.16
8 7 -6 0.79 0.19
8 -7 -6 0.53 0.19
-8 -7 6 0.35 0.16
-9 7 6 5.31 0.38
-9 -7 -6 5.62 0.41
9 7 -6 4.95 0.4
-9 -7 6 5.02 0.49
9 -7 -6 5.33 0.43
-10 -7 -6 1.23 0.29
10 7 -6 1.58 0.29
-10 -7 6 0.98 0.28
10 -7 -6 1.02 0.25
-11 -7 -6 0.51 0.27
11 7 -6 0.94 0.26
-11 -7 6 1.07 0.32
11 -7 -6 1.02 0.27
-12 -7 -6 1.31 0.33
12 7 -6 0.42 0.25
-12 -7 6 1.06 0.33
-12 -7 6 0.93 0.3
13 7 -6 0.18 0.26
0 -8 -6 0.25 0.11
0 8 -6 0.29 0.07
0 8 -6 0.36 0.08
0 -8 6 0.24 0.09
0 -8 -6 0.24 0.07
1 8 -6 13.73 0.59
1 -8 6 13.1 0.56
-1 -8 -6 13.25 0.58
-1 -8 -6 13.4 0.55
-1 8 -6 12.37 0.51
-1 -8 6 13.37 0.56
1 -8 -6 12.47 0.59
-1 -8 6 11.97 0.57
1 -8 -6 12.75 0.53
2 8 -6 25.71 1.11
-2 -8 -6 27 1.09
-2 -8 -6 27.9 1.07
2 -8 6 26.81 1.06
-2 8 -6 26.81 1.01
2 -8 -6 27.57 1.04
-2 -8 6 27.42 1.12
-2 -8 6 27.58 1.08
2 -8 -6 26.16 1.11
-3 -8 -6 3.11 0.22
-3 -8 -6 3.11 0.21
3 8 -6 2.7 0.26
3 -8 6 2.82 0.18
-3 -8 6 2.53 0.26
3 -8 -6 3.17 0.18
-3 8 -6 3.21 0.15
3 -8 -6 3.05 0.25
-3 -8 6 3.12 0.24
4 -8 6 2.9 0.18
-4 -8 -6 2.33 0.23
4 8 -6 2.9 0.28
-4 -8 -6 2.57 0.22
-4 8 -6 3.01 0.15
-4 -8 6 2.6 0.26
4 -8 -6 2.7 0.27
-4 -8 6 2.76 0.24
4 -8 -6 3.06 0.19
5 -8 6 7.69 0.35
-5 -8 -6 6.82 0.41
-5 -8 -6 7.08 0.39
5 8 -6 6.8 0.44
-5 -8 6 6.82 0.44
-5 8 -6 7.43 0.32
5 -8 -6 6.67 0.41
5 -8 -6 7 0.36
-6 -8 -6 1.12 0.17
-6 8 6 1.33 0.17
-6 -8 -6 1.06 0.2
6 8 -6 1.23 0.21
-6 -8 6 1.25 0.21
6 -8 -6 1.04 0.19
-7 8 6 7.24 0.42
-7 -8 -6 7.36 0.47
7 8 -6 7.69 0.48
-7 -8 -6 8.17 0.43
7 -8 -6 6.88 0.47
-7 -8 6 7.29 0.51
-8 -8 -6 13.81 0.73
-8 8 6 13.8 0.69
-8 -8 -6 13.64 0.66
8 8 -6 14.8 0.76
8 -8 -6 13.84 0.74
-8 -8 6 14.69 0.79
9 8 -6 1.43 0.27
-9 -8 -6 1.91 0.31
9 -8 -6 2.24 0.31
-9 -8 6 1.77 0.32
-10 -8 -6 0.86 0.23
10 8 -6 0.61 0.25
-10 -8 6 1.45 0.31
10 -8 -6 1.2 0.28
-10 -8 6 0.92 0.26
11 8 -6 0.15 0.21
-11 -8 -6 -0.38 0.22
-11 -8 6 0.03 0.25
11 -8 -6 -0.33 0.21
-11 -8 6 -0.04 0.2
-12 -8 -6 -0.41 0.24
12 8 -6 0.28 0.23
-12 -8 6 0.32 0.3
-12 -8 6 0.31 0.23
13 8 -6 0.96 0.31
-13 -8 6 0.43 0.28
0 -9 6 9.16 0.42
0 -9 -6 8.37 0.38
0 -9 -6 7.93 0.43
0 -9 6 8.95 0.38
1 -9 6 24.16 1
-1 -9 -6 25.95 0.98
1 9 -6 24.23 1.02
-1 -9 -6 24.76 1.03
-1 9 -6 24.57 0.94
-1 -9 6 25.49 1.03
1 -9 -6 23.49 1.03
1 -9 -6 24.55 0.96
-1 -9 6 26.2 0.99
2 9 -6 3.59 0.25
-2 -9 -6 3.41 0.25
2 -9 6 3.84 0.22
-2 -9 -6 3.66 0.23
-2 -9 6 3.91 0.27
-2 -9 6 3.76 0.25
-2 9 -6 3.72 0.17
2 -9 -6 3.5 0.2
2 -9 -6 3.7 0.27
-3 -9 -6 0.42 0.12
3 9 -6 0.34 0.12
-3 -9 -6 0.71 0.13
3 -9 6 0.39 0.08
-3 -9 6 0.6 0.13
-3 -9 6 0.48 0.13
3 -9 -6 0.59 0.09
-3 9 -6 0.59 0.06
3 -9 -6 0.69 0.14
-4 -9 -6 5.11 0.32
-4 -9 -6 4.91 0.31
4 -9 6 5.26 0.27
4 9 -6 4.68 0.35
-4 -9 6 4.16 0.32
-4 -9 6 5.26 0.34
4 -9 -6 5.01 0.26
-4 9 -6 5.2 0.22
4 -9 -6 4.6 0.34
-5 -9 -6 2.52 0.26
-5 -9 -6 2.39 0.23
5 9 -6 1.96 0.27
5 -9 6 2.78 0.19
5 -9 -6 2.51 0.2
-5 -9 6 3.1 0.3
5 -9 -6 3.23 0.31
-5 -9 6 2.49 0.29
-6 -9 -6 0.24 0.16
-6 -9 -6 0.46 0.14
6 9 -6 0.21 0.17
-6 9 6 0.24 0.12
-6 -9 6 0.13 0.18
6 -9 -6 0.33 0.17
-6 -9 6 0.26 0.14
7 9 -6 0.57 0.21
-7 -9 -6 0.49 0.17
-7 -9 -6 0.39 0.19
7 -9 -6 0.14 0.17
-7 -9 6 0.37 0.15
-7 -9 6 0.31 0.17
-8 -9 -6 1.44 0.21
-8 -9 -6 0.8 0.2
8 9 -6 0.85 0.24
-8 -9 6 0.77 0.22
-8 -9 6 1.1 0.26
8 -9 -6 0.99 0.21
-9 -9 -6 7.8 0.51
9 9 -6 6.65 0.49
-9 -9 6 8.41 0.59
9 -9 -6 7.44 0.53
-9 -9 6 7.44 0.54
10 9 -6 0.68 0.26
-10 -9 -6 0.79 0.28
-10 -9 6 1.02 0.28
10 -9 -6 0.91 0.26
-10 -9 6 0.98 0.3
11 9 -6 0.26 0.23
-11 -9 -6 -0.07 0.23
11 -9 -6 0.04 0.21
-11 -9 6 0.22 0.26
-11 -9 6 0.01 0.22
12 9 -6 0.29 0.23
-12 -9 -6 -0.28 0.24
-12 -9 6 -0.09 0.22
-12 -9 6 -0.03 0.26
13 9 -6 2.38 0.42
-13 -9 6 1.74 0.37
0 -10 -6 10.68 0.54
0 -10 -6 11.02 0.47
0 -10 6 12.13 0.48
0 -10 6 10.82 0.52
1 -10 6 6.21 0.34
-1 -10 -6 7.02 0.38
-1 -10 -6 6.8 0.33
1 10 -6 6.97 0.37
1 -10 6 6.8 0.29
1 -10 -6 6.51 0.37
-1 -10 6 6.54 0.33
1 -10 -6 6.51 0.3
-1 -10 6 5.92 0.36
2 -10 6 2.25 0.18
2 10 -6 2.54 0.21
-2 -10 -6 2.51 0.2
-2 -10 -6 2.28 0.23
2 -10 -6 2.58 0.16
2 -10 -6 2.33 0.24
-2 -10 6 2.47 0.24
-2 10 -6 2.67 0.13
-2 -10 6 2.49 0.21
-3 -10 -6 3.17 0.25
3 10 -6 3.07 0.26
3 -10 6 3.09 0.21
-3 -10 -6 3.35 0.25
-3 -10 6 3.52 0.29
-3 -10 6 3.11 0.25
3 -10 -6 3.32 0.26
3 -10 -6 3.31 0.19
-4 -10 -6 16.12 0.74
4 10 -6 17.18 0.8
-4 -10 -6 17.29 0.76
4 -10 6 17.18 0.72
4 -10 -6 17.91 0.7
-4 -10 6 16.57 0.78
4 -10 -6 16.69 0.8
-4 -10 6 16.88 0.8
-5 -10 -6 24.55 1.07
-5 -10 -6 24.64 1.07
5 10 -6 25.34 1.13
5 -10 6 27.33 1.04
5 -10 -6 25.22 1.12
-5 -10 6 26.31 1.12
-5 -10 6 24.78 1.13
-6 -10 -6 12.81 0.65
-6 -10 -6 12.48 0.62
6 10 -6 12.88 0.68
-6 -10 6 13.37 0.7
-6 -10 6 13.31 0.68
6 -10 -6 12.35 0.66
7 10 -6 5.8 0.45
-7 -10 -6 4.89 0.34
-7 -10 -6 4.26 0.35
7 -10 -6 5.58 0.39
-7 -10 6 4.95 0.43
-7 -10 6 5.25 0.44
-8 -10 -6 3.68 0.39
8 10 -6 3.69 0.4
-8 -10 -6 3.69 0.31
-8 -10 6 3.34 0.41
8 -10 -6 3.82 0.39
-8 -10 6 3.82 0.41
-9 -10 -6 0.57 0.24
9 10 -6 0.27 0.18
-9 -10 6 0.95 0.25
9 -10 -6 0.35 0.21
-9 -10 6 0.43 0.24
-10 -10 -6 1.74 0.3
10 10 -6 2.06 0.34
-10 -10 6 2.21 0.39
-10 -10 6 1.81 0.33
10 -10 -6 2.42 0.36
11 10 -6 1.74 0.3
-11 -10 -6 0.9 0.31
-11 -10 6 0.89 0.32
-11 -10 6 1.89 0.35
11 -10 -6 1.3 0.31
-12 -10 -6 0.67 0.31
12 10 -6 0.62 0.27
-12 -10 6 0.62 0.29
-12 -10 6 0.32 0.3
0 -11 -6 0.88 0.11
0 -11 -6 0.84 0.17
0 -11 6 1.3 0.17
0 -11 6 1.29 0.12
-1 -11 -6 3.01 0.2
1 -11 6 2.93 0.16
-1 -11 -6 2.59 0.25
1 -11 6 2.39 0.21
-1 -11 6 2.97 0.2
1 -11 -6 3 0.17
-1 -11 6 2.93 0.25
1 -11 -6 2.39 0.24
-2 -11 -6 12.04 0.5
-2 -11 -6 9.98 0.52
2 -11 6 11.09 0.5
2 11 -6 10.56 0.54
2 -11 -6 10.01 0.45
-2 -11 6 9.94 0.49
-2 -11 6 10.34 0.54
2 -11 -6 10.56 0.55
-3 -11 -6 9.89 0.5
3 11 -6 9.67 0.55
3 -11 6 10.31 0.48
-3 -11 -6 10.35 0.53
-3 -11 6 10.24 0.55
3 -11 -6 10.46 0.54
3 -11 -6 10.86 0.45
-3 -11 6 10.53 0.52
-4 -11 -6 4.4 0.31
4 -11 6 4.14 0.26
4 11 -6 3.97 0.35
-4 -11 -6 4.58 0.31
-4 -11 6 4.2 0.35
4 -11 -6 2.66 0.32
4 -11 -6 3.85 0.22
-4 -11 6 3.78 0.31
5 11 -6 1.17 0.24
-5 -11 -6 1.03 0.19
-5 -11 -6 1.26 0.19
5 -11 6 1.54 0.18
-5 -11 6 1.26 0.24
5 -11 -6 1.19 0.23
-5 -11 6 0.68 0.2
-6 -11 -6 0.55 0.16
-6 -11 -6 0.86 0.18
6 11 -6 0.9 0.23
-6 -11 6 0.43 0.18
-6 -11 6 1.04 0.23
6 -11 -6 0.67 0.18
7 11 -6 1.59 0.28
-7 -11 -6 1.8 0.25
-7 -11 -6 1.18 0.21
-7 -11 6 1.25 0.27
-7 -11 6 1.22 0.27
7 -11 -6 1.57 0.27
-8 -11 -6 2.2 0.28
8 11 -6 2.19 0.33
-8 -11 -6 2.19 0.31
-8 -11 6 2.58 0.36
8 -11 -6 2.55 0.34
-8 -11 6 2.64 0.35
9 11 -6 0.62 0.25
-9 -11 -6 0.55 0.25
9 -11 -6 0.85 0.25
-9 -11 6 0.46 0.25
-9 -11 6 0.46 0.27
-10 -11 -6 1.04 0.3
10 11 -6 0.97 0.28
-10 -11 6 0.6 0.28
-10 -11 6 0.61 0.24
10 -11 -6 1.3 0.3
-11 -11 -6 0.5 0.29
11 11 -6 0.41 0.26
-11 -11 6 0.96 0.33
-11 -11 6 0.01 0.24
12 11 -6 0.48 0.27
-12 -11 6 -0.22 0.24
0 -12 -6 13.22 0.56
0 -12 6 13.87 0.63
0 -12 -6 12.8 0.64
0 -12 6 13.49 0.56
-1 -12 -6 0.32 0.1
-1 -12 -6 0.35 0.14
1 -12 6 0.45 0.12
1 -12 -6 0.4 0.15
-1 -12 6 0.48 0.15
1 -12 -6 0.27 0.08
-1 -12 6 0.48 0.11
-2 -12 -6 0.86 0.15
2 12 -6 0.98 0.19
2 -12 6 1.21 0.16
-2 -12 -6 1.28 0.2
2 -12 -6 1.05 0.2
-2 -12 6 1 0.15
-2 -12 6 1.08 0.2
2 -12 -6 1.36 0.13
-3 -12 -6 4.04 0.29
3 12 -6 4.74 0.36
3 -12 6 3.92 0.27
-3 -12 -6 4.14 0.3
3 -12 -6 5.27 0.36
3 -12 -6 4.7 0.23
-3 -12 6 4.18 0.31
-3 -12 6 3.79 0.34
-4 -12 -6 29.3 1.3
-4 -12 -6 32.35 1.29
4 12 -6 31.91 1.35
4 -12 6 32.06 1.27
-4 -12 6 30.51 1.31
-4 -12 6 32.02 1.36
4 -12 -6 32.65 1.36
-5 -12 -6 1.7 0.23
5 12 -6 1.84 0.28
5 -12 6 1.99 0.21
-5 -12 -6 1.16 0.19
5 -12 -6 1.76 0.27
-5 -12 6 1.55 0.24
-5 -12 6 1.42 0.26
-6 -12 -6 3.98 0.32
6 12 -6 2.51 0.34
-6 -12 -6 3.32 0.31
6 -12 -6 3.45 0.37
-6 -12 6 3.42 0.35
-6 -12 6 3.07 0.35
-7 -12 -6 5.64 0.43
7 12 -6 5.8 0.47
-7 -12 -6 5.47 0.39
-7 -12 6 4.72 0.46
-7 -12 6 6.15 0.48
7 -12 -6 5.35 0.42
-8 -12 -6 1.69 0.3
-8 -12 -6 1.67 0.25
8 12 -6 1.43 0.3
-8 -12 6 1.53 0.28
8 -12 -6 1.93 0.32
-8 -12 6 1.72 0.32
-9 -12 -6 1.05 0.28
9 12 -6 0.67 0.27
9 -12 -6 0.22 0.21
-9 -12 6 0.12 0.19
-9 -12 6 -0.04 0.22
-10 -12 -6 1.97 0.36
10 12 -6 2.19 0.36
-10 -12 6 1.41 0.33
-10 -12 6 2.2 0.41
10 -12 -6 1.67 0.34
-11 -12 -6 1.8 0.34
11 12 -6 1.66 0.31
-11 -12 6 2.24 0.38
-11 -12 6 1.4 0.37
12 12 -6 -0.21 0.22
-12 -12 6 -0.15 0.23
0 -13 6 0.21 0.09
0 -13 -6 0.22 0.09
0 -13 -6 0.17 0.14
0 -13 6 0.13 0.12
-1 -13 -6 1.17 0.14
1 -13 6 1.15 0.18
-1 -13 -6 0.93 0.17
1 -13 -6 1.06 0.18
1 -13 -6 1.13 0.12
-1 -13 6 1.13 0.2
-1 -13 6 1.21 0.15
2 -13 6 4.48 0.3
-2 -13 -6 4.7 0.29
-2 -13 -6 4.53 0.34
2 -13 -6 4.66 0.36
-2 -13 6 4.38 0.29
-2 -13 6 5.05 0.37
2 -13 -6 4.93 0.24
3 13 -6 1.68 0.23
-3 -13 -6 2.01 0.22
3 -13 6 1.7 0.2
-3 -13 -6 1.72 0.22
-3 -13 6 1.91 0.22
3 -13 -6 2.11 0.27
-3 -13 6 2.14 0.28
4 13 -6 3.84 0.32
4 -13 6 3.6 0.27
-4 -13 -6 3.18 0.28
-4 -13 -6 3.1 0.31
-4 -13 6 3.28 0.32
-4 -13 6 4.24 0.36
4 -13 -6 3.4 0.35
-5 -13 -6 1.09 0.21
-5 -13 -6 0.9 0.2
5 13 -6 0.65 0.19
5 -13 6 1.24 0.18
-5 -13 6 0.93 0.21
5 -13 -6 0.84 0.22
-5 -13 6 0.99 0.24
-6 -13 -6 0.79 0.19
-6 -13 -6 0.84 0.21
6 13 -6 1.19 0.26
-6 -13 6 0.81 0.25
-6 -13 6 0.66 0.22
6 -13 -6 0.65 0.22
-7 -13 -6 4.67 0.38
-7 -13 -6 4.63 0.41
7 13 -6 6.43 0.49
7 -13 -6 4.87 0.48
-7 -13 6 4.88 0.48
-7 -13 6 4.66 0.45
8 13 -6 0.8 0.24
-8 -13 -6 1.04 0.23
-8 -13 -6 1.11 0.27
-8 -13 6 0.85 0.28
8 -13 -6 0.78 0.25
-8 -13 6 1.4 0.31
9 13 -6 4.43 0.48
-9 -13 -6 3.74 0.42
-9 -13 6 4.2 0.44
9 -13 -6 4.46 0.48
-9 -13 6 4.02 0.46
10 13 -6 0.86 0.29
-10 -13 -6 0.11 0.25
-10 -13 6 0.68 0.29
10 -13 -6 0.82 0.28
-10 -13 6 1.12 0.33
11 13 -6 0.4 0.27
-11 -13 -6 0.89 0.31
-11 -13 6 0.17 0.3
-11 -13 6 0.15 0.26
0 -14 -6 8.73 0.4
0 -14 -6 8.09 0.5
0 -14 6 9.18 0.48
1 -14 6 3.55 0.29
-1 -14 -6 3.5 0.24
-1 -14 -6 3.22 0.33
-1 -14 6 3.45 0.29
-1 -14 6 4.41 0.26
1 -14 -6 3.75 0.35
1 -14 -6 3.9 0.22
-2 -14 -6 17.55 0.72
2 -14 6 15.36 0.73
-2 -14 -6 14.39 0.75
-2 -14 6 16.87 0.72
2 -14 -6 15.71 0.79
-2 -14 6 18.31 0.81
-3 -14 -6 5.85 0.35
-3 -14 -6 6.09 0.4
3 -14 6 5.22 0.34
3 -14 -6 5.24 0.38
-3 -14 6 4.86 0.36
-3 -14 6 6.12 0.43
4 14 -6 1.99 0.26
-4 -14 -6 2.02 0.24
4 -14 6 2.38 0.24
-4 -14 -6 2.19 0.27
-4 -14 6 1.72 0.28
-4 -14 6 1.56 0.22
4 -14 -6 1.86 0.28
5 -14 6 1.29 0.19
-5 -14 -6 1.2 0.23
-5 -14 -6 1.25 0.21
5 14 -6 1.16 0.26
5 -14 -6 0.97 0.25
-5 -14 6 1.03 0.25
-5 -14 6 1.5 0.23
-6 -14 -6 1.07 0.24
-6 -14 -6 1.61 0.26
6 14 -6 1.99 0.33
6 -14 -6 1.93 0.31
-6 -14 6 1.87 0.28
-6 -14 6 1.72 0.28
7 14 -6 7.36 0.55
-7 -14 -6 6.98 0.47
-7 -14 -6 6.75 0.45
-7 -14 6 6.6 0.5
-7 -14 6 7.13 0.52
7 -14 -6 6.91 0.5
-8 -14 -6 1.53 0.29
-8 -14 -6 1.18 0.27
8 14 -6 1.39 0.31
8 -14 -6 1.37 0.3
-8 -14 6 1.58 0.33
-8 -14 6 1.41 0.3
9 14 -6 0.63 0.28
-9 -14 -6 0.58 0.21
-9 -14 6 0.66 0.29
9 -14 -6 0.35 0.22
-9 -14 6 0.33 0.27
10 14 -6 1.48 0.34
-10 -14 -6 1.93 0.36
-10 -14 6 1.37 0.34
-10 -14 6 1.03 0.35
10 -14 -6 2.14 0.38
11 14 -6 0.35 0.28
-11 -14 -6 0.23 0.28
-11 -14 6 0.5 0.33
-11 -14 6 0.6 0.29
0 -15 -6 6.66 0.33
0 -15 -6 6.65 0.44
0 -15 6 5.96 0.4
-1 -15 -6 6.96 0.46
1 -15 6 8.69 0.47
-1 -15 -6 8.7 0.41
-1 -15 6 8.07 0.49
1 -15 -6 8.22 0.5
-2 -15 -6 2.57 0.23
2 -15 6 2.26 0.24
-2 -15 -6 2.09 0.27
-2 -15 6 2.2 0.22
-2 -15 6 2.12 0.26
2 -15 -6 1.89 0.25
-3 -15 -6 9.11 0.47
-3 -15 -6 8.13 0.5
3 -15 6 8.15 0.46
3 -15 -6 8.82 0.54
-3 -15 6 8.49 0.53
-3 -15 6 7.71 0.45
-4 -15 -6 3.63 0.29
4 -15 6 3.08 0.28
-4 -15 -6 2.79 0.32
4 -15 -6 3.42 0.35
-4 -15 6 3.32 0.36
-4 -15 6 3.29 0.31
5 15 -6 0.75 0.25
-5 -15 -6 1.33 0.24
-5 -15 -6 1.13 0.22
5 -15 -6 1.1 0.26
-5 -15 6 0.95 0.21
-5 -15 6 1.22 0.28
-6 -15 -6 10.38 0.6
-6 -15 -6 9.78 0.57
6 15 -6 10.91 0.63
6 -15 -6 9.64 0.64
-6 -15 6 10.49 0.65
-6 -15 6 9.15 0.6
7 15 -6 0.97 0.26
-7 -15 -6 1.08 0.26
-7 -15 -6 1.65 0.28
7 -15 -6 1.65 0.32
-7 -15 6 1.47 0.33
-7 -15 6 1.07 0.27
8 15 -6 0.12 0.25
-8 -15 -6 0.03 0.2
-8 -15 -6 -0.05 0.21
8 -15 -6 0.3 0.23
-8 -15 6 0.37 0.23
-8 -15 6 0.01 0.22
9 15 -6 0.22 0.26
-9 -15 -6 0.66 0.26
-9 -15 6 0.24 0.21
9 -15 -6 0.23 0.22
-9 -15 6 0.57 0.27
10 15 -6 1 0.33
-10 -15 -6 1.41 0.34
10 -15 -6 1.36 0.36
-10 -15 6 0.92 0.34
-10 -15 6 1.59 0.36
-11 -15 6 0.83 0.31
0 -16 6 0.38 0.17
0 -16 -6 0.42 0.15
1 -16 6 17.83 0.85
-1 -16 -6 18.49 0.89
-1 -16 6 18.6 0.87
1 -16 -6 18.55 0.89
2 -16 6 2.64 0.27
-2 -16 -6 2.95 0.23
-2 -16 -6 1.85 0.28
2 -16 -6 1.8 0.28
-2 -16 6 2.33 0.3
-3 -16 -6 4.32 0.31
3 -16 6 4.67 0.34
-3 -16 -6 3.99 0.38
-3 -16 6 4.49 0.36
3 -16 -6 3.77 0.34
-3 -16 6 3.54 0.31
4 -16 6 1.98 0.25
-4 -16 -6 1.66 0.23
-4 -16 -6 1.92 0.28
-4 -16 6 1.74 0.28
4 -16 -6 1.54 0.28
-4 -16 6 1.77 0.25
-5 -16 -6 3.09 0.34
-5 -16 -6 3.1 0.31
-5 -16 6 3.08 0.32
-5 -16 6 2.71 0.35
5 -16 -6 3.25 0.39
-6 -16 -6 2 0.3
-6 -16 -6 1.77 0.27
6 -16 -6 1.64 0.32
-6 -16 6 1.38 0.27
-6 -16 6 1.1 0.3
7 16 -6 0.15 0.26
-7 -16 -6 -0.02 0.2
-7 -16 -6 0.31 0.21
-7 -16 6 -0.22 0.19
7 -16 -6 -0.18 0.2
-7 -16 6 -0.15 0.23
-8 -16 -6 -0.06 0.2
8 16 -6 0.2 0.25
-8 -16 -6 -0.29 0.19
8 -16 -6 0.31 0.25
-8 -16 6 0.25 0.23
-8 -16 6 0.53 0.28
9 16 -6 2.29 0.4
-9 -16 -6 1.87 0.35
-9 -16 6 2.22 0.39
9 -16 -6 2.59 0.41
-9 -16 6 2.09 0.38
10 16 -6 0.77 0.31
-10 -16 -6 0.61 0.29
-10 -16 6 0.67 0.31
-10 -16 6 0.92 0.32
0 -17 6 0.18 0.16
0 -17 -6 -0.07 0.15
-1 -17 -6 4.17 0.34
1 -17 6 3.87 0.33
-1 -17 6 3.67 0.32
1 -17 -6 4.03 0.34
2 -17 6 1.12 0.2
-2 -17 -6 1.26 0.19
-2 -17 -6 0.95 0.24
-2 -17 6 1.07 0.24
2 -17 -6 0.92 0.24
-3 -17 -6 2.16 0.25
3 -17 6 1.97 0.25
-3 -17 -6 1.97 0.27
-3 -17 6 2.7 0.34
3 -17 -6 2.35 0.33
4 -17 6 2.19 0.26
-4 -17 -6 1.76 0.24
-4 -17 -6 1.84 0.27
4 -17 -6 1.87 0.31
-4 -17 6 2.07 0.28
-4 -17 6 2.06 0.33
-5 -17 -6 2.72 0.3
-5 -17 -6 3 0.35
5 -17 -6 3.56 0.42
-5 -17 6 2.37 0.31
-5 -17 6 2.71 0.38
-6 -17 -6 0.08 0.18
-6 -17 -6 0.33 0.21
-6 -17 6 0.19 0.19
-6 -17 6 0.69 0.28
6 -17 -6 0.19 0.24
-7 -17 -6 0.67 0.24
-7 -17 -6 0.81 0.24
-7 -17 6 0.91 0.31
7 -17 -6 0.93 0.27
-7 -17 6 0.28 0.22
-8 -17 -6 1 0.26
-8 -17 -6 0.79 0.26
8 -17 -6 1.11 0.32
-8 -17 6 0.82 0.27
-8 -17 6 1.08 0.28
-9 -17 -6 -0.13 0.23
9 -17 -6 0.73 0.29
-9 -17 6 0.4 0.28
-9 -17 6 0.5 0.3
-10 -17 -6 1.44 0.34
-10 -17 6 1.35 0.36
-10 -17 6 0.92 0.34
0 -18 6 0.62 0.2
0 -18 -6 0.17 0.18
1 -18 6 0.72 0.19
-1 -18 -6 0.73 0.23
1 -18 -6 0.83 0.24
-1 -18 6 0.81 0.2
-2 -18 -6 2.76 0.35
2 -18 6 2.96 0.33
2 -18 -6 3.15 0.38
-2 -18 6 3.59 0.38
3 -18 6 0.39 0.15
-3 -18 -6 0.47 0.19
-3 -18 6 0.19 0.21
3 -18 -6 0.31 0.22
-4 -18 -6 1.64 0.3
4 -18 6 1.12 0.22
-4 -18 -6 1.21 0.22
4 -18 -6 0.95 0.27
-4 -18 6 1.24 0.26
-5 -18 -6 3.18 0.38
-5 -18 -6 2.45 0.3
-5 -18 6 3.12 0.38
5 -18 -6 2.79 0.4
-6 -18 -6 3.15 0.39
-6 -18 -6 3.75 0.38
-6 -18 6 3.95 0.47
-6 -18 6 3.71 0.39
6 -18 -6 3.98 0.47
-7 -18 -6 1.53 0.3
-7 -18 -6 1.63 0.29
7 -18 -6 1.64 0.34
-7 -18 6 1.96 0.37
-7 -18 6 1.66 0.32
-8 -18 -6 0.47 0.25
-8 -18 -6 0.47 0.24
-8 -18 6 0.33 0.25
-8 -18 6 0.74 0.31
8 -18 -6 0.79 0.29
-9 -18 -6 1.34 0.32
9 -18 -6 0.7 0.3
-9 -18 6 0.49 0.3
-9 -18 6 0.96 0.3
0 -19 -6 2.75 0.35
0 -19 6 2.4 0.32
-1 -19 -6 0.76 0.25
1 -19 6 0.84 0.22
1 -19 -6 1.12 0.27
-1 -19 6 1.17 0.26
2 -19 6 0.24 0.16
-2 -19 -6 -0.13 0.2
-2 -19 6 0.35 0.22
2 -19 -6 0.23 0.18
3 -19 6 3.34 0.34
-3 -19 -6 3.52 0.38
-3 -19 6 3.15 0.37
3 -19 -6 2.26 0.37
4 -19 6 1.64 0.26
-4 -19 -6 2.11 0.34
4 -19 -6 2.25 0.36
-4 -19 6 2.27 0.37
-5 -19 -6 3.43 0.37
-5 -19 -6 3.92 0.42
5 -19 -6 3.93 0.46
-5 -19 6 3.83 0.46
-6 -19 -6 1.38 0.31
-6 -19 -6 2.11 0.3
-6 -19 6 2.16 0.38
6 -19 -6 1.84 0.35
-7 -19 -6 2.9 0.36
-7 -19 -6 2.71 0.39
-7 -19 6 2.61 0.38
7 -19 -6 3.21 0.44
-7 -19 6 2.61 0.44
-8 -19 -6 0.6 0.26
-8 -19 -6 0.61 0.28
-8 -19 6 1.17 0.3
8 -19 -6 0.91 0.3
-8 -19 6 0.87 0.34
-9 -19 -6 0.27 0.25
-9 -19 6 0.11 0.25
9 -19 -6 0.5 0.28
0 -20 -6 0.18 0.18
0 -20 6 0.17 0.21
1 -20 6 1.79 0.3
-1 -20 -6 1.62 0.32
-1 -20 6 2.1 0.33
1 -20 -6 2.44 0.34
2 -20 6 4.93 0.41
-2 -20 -6 5.15 0.49
2 -20 -6 5.07 0.5
-2 -20 6 5.03 0.49
3 -20 6 2.44 0.31
-3 -20 -6 2.38 0.35
-3 -20 6 3.14 0.4
3 -20 -6 2.54 0.39
-4 -20 -6 0.82 0.28
4 -20 -6 0.7 0.28
-4 -20 6 0.86 0.29
-5 -20 -6 0.71 0.28
-5 -20 6 1.22 0.32
5 -20 -6 0.92 0.3
-6 -20 -6 0.63 0.28
-6 -20 6 0.67 0.26
6 -20 -6 1.5 0.32
-7 -20 -6 0.6 0.27
-7 -20 -6 0.41 0.23
-7 -20 6 -0.17 0.26
7 -20 -6 0.51 0.27
-8 -20 -6 0.76 0.29
-8 -20 -6 0.42 0.25
8 -20 -6 1.6 0.37
-8 -20 6 0.63 0.27
9 -20 -6 2.28 0.42
0 -21 6 4.23 0.43
0 -21 -6 3.57 0.44
1 -21 6 0.14 0.19
-1 -21 -6 0.33 0.26
-1 -21 6 0.15 0.18
1 -21 -6 0.11 0.24
2 -21 6 3.03 0.36
-2 -21 -6 3.8 0.45
-2 -21 6 3.22 0.42
2 -21 -6 3.97 0.46
-3 -21 -6 1.27 0.32
3 -21 6 1.21 0.26
3 -21 -6 1.74 0.31
-3 -21 6 1.77 0.35
-4 -21 -6 0.3 0.25
-4 -21 6 0.81 0.3
4 -21 -6 0.52 0.28
-5 -21 -6 -0.15 0.22
-5 -21 6 1.16 0.32
5 -21 -6 1.24 0.33
-6 -21 -6 0.37 0.27
-6 -21 6 0.01 0.26
6 -21 -6 0.32 0.21
-7 -21 -6 0.2 0.26
-7 -21 6 0.03 0.22
7 -21 -6 0.75 0.3
-8 -21 -6 1.28 0.33
8 -21 -6 1.66 0.41
0 -22 -6 0.62 0.28
0 -22 6 1.35 0.29
1 -22 6 1.31 0.28
-1 -22 -6 1.88 0.36
-1 -22 6 1.48 0.32
1 -22 -6 1.19 0.31
2 -22 6 0.62 0.23
-2 -22 -6 0.37 0.27
-2 -22 6 0.65 0.3
2 -22 -6 1.04 0.31
3 -22 6 0.53 0.23
-3 -22 -6 0.54 0.29
3 -22 -6 0.79 0.3
-3 -22 6 0.54 0.29
-4 -22 -6 1.44 0.34
-4 -22 6 1.17 0.29
4 -22 -6 0.92 0.32
-5 -22 -6 2.96 0.42
-5 -22 6 3.01 0.41
5 -22 -6 3.95 0.49
-6 -22 -6 0.57 0.31
-6 -22 6 0.49 0.32
6 -22 -6 0.99 0.31
-7 -22 -6 1.02 0.32
7 -22 -6 0.93 0.32
0 -23 6 0.27 0.24
0 -23 -6 0.06 0.26
1 -23 6 0.26 0.23
-1 -23 -6 0.31 0.26
1 -23 -6 0.27 0.21
-1 -23 6 -0.13 0.23
-2 -23 -6 0.29 0.27
2 -23 6 0.61 0.24
2 -23 -6 0.23 0.26
-2 -23 6 0.28 0.27
-3 -23 -6 0.57 0.29
3 -23 6 0.81 0.26
3 -23 -6 0.75 0.3
-3 -23 6 0.6 0.32
-4 -23 -6 1.17 0.35
-4 -23 6 1.46 0.38
4 -23 -6 0.65 0.26
-5 -23 -6 0.08 0.27
-5 -23 6 0.4 0.31
5 -23 -6 0.38 0.29
-6 -23 -6 0.03 0.27
6 -23 -6 0.63 0.25
0 -24 6 1.09 0.3
0 -24 -6 1.72 0.38
1 -24 6 0.31 0.23
-1 -24 -6 -0.1 0.26
1 -24 -6 -0.66 0.23
-1 -24 6 -0.09 0.25
2 -24 6 0.6 0.25
-2 -24 -6 0.96 0.34
-2 -24 6 0.55 0.3
2 -24 -6 0.43 0.3
-3 -24 -6 0.91 0.32
-3 -24 6 1.17 0.36
3 -24 -6 0.9 0.33
-4 -24 -6 0.52 0.31
4 -24 -6 0.59 0.31
0 -25 6 1.03 0.3
0 -25 -6 0.54 0.33
1 -25 6 0.27 0.26
1 -25 -6 0.95 0.34
-1 -25 6 0.79 0.31
2 -25 6 0.11 0.24
-2 -25 6 0.2 0.28
2 -26 6 0.08 0.24
0 0 -7 -0.06 0.06
0 0 -7 -0.1 0.04
1 0 -7 6.94 0.33
1 0 -7 6.81 0.31
-1 0 -7 6.57 0.3
-1 0 -7 7.07 0.3
-2 0 -7 82.25 3.07
2 0 -7 85.08 3.16
2 0 -7 83.07 3.09
-2 0 -7 83.23 3.08
3 0 -7 0.57 0.11
-3 0 -7 0.75 0.04
-3 0 -7 0.65 0.1
3 0 -7 0.71 0.14
4 0 -7 50.69 2
-4 0 -7 48.44 1.92
4 0 -7 51.93 1.96
-4 0 -7 52.6 1.88
-5 0 -7 12.25 0.43
5 0 -7 10.52 0.55
-5 0 7 10.1 0.53
-5 0 -7 9.64 0.49
-6 0 7 9.14 0.5
6 0 -7 9.14 0.5
-6 0 -7 9.49 0.46
-7 0 7 3.12 0.31
-7 0 -7 3.57 0.28
7 0 -7 3.29 0.32
-8 0 7 2.81 0.31
-8 0 -7 3.52 0.3
8 0 -7 3.33 0.33
9 0 -7 0.56 0.2
-9 0 7 0.92 0.23
-9 0 -7 0.88 0.18
-10 0 -7 1.06 0.22
-10 0 7 1.15 0.24
10 0 -7 1.09 0.25
11 0 -7 1 0.25
-11 0 7 1.06 0.28
-11 0 -7 0.69 0.22
-12 0 7 0.87 0.27
12 0 -7 1.03 0.28
-12 0 -7 1.18 0.27
-13 0 -7 5.41 0.47
-13 0 7 4.95 0.54
0 -1 -7 77.42 2.84
0 1 -7 76.56 2.84
0 -1 -7 74.21 2.79
0 1 -7 75.29 2.79
1 1 -7 35.3 1.34
-1 -1 -7 35.32 1.34
1 1 -7 36.17 1.38
-1 -1 -7 34.03 1.33
1 -1 -7 35.29 1.34
-1 1 -7 34.76 1.33
-1 1 -7 35.9 1.34
1 -1 -7 36.38 1.38
2 1 -7 3.36 0.22
-2 -1 -7 3.09 0.19
-2 -1 -7 3.29 0.15
2 1 -7 3.6 0.21
2 -1 -7 3.11 0.18
-2 1 -7 3.27 0.18
-2 1 -7 3.02 0.14
2 -1 -7 3.37 0.22
3 1 -7 23.44 0.97
3 1 -7 23.3 0.94
-3 -1 -7 23.2 0.87
-3 -1 -7 22.95 0.92
3 -1 -7 23.86 0.93
3 -1 -7 23.18 0.97
-3 1 -7 22.37 0.9
4 1 -7 10.32 0.49
-4 -1 -7 10.92 0.41
-4 -1 -7 9.63 0.46
4 1 -7 10.24 0.52
4 -1 -7 10.65 0.48
-4 1 -7 9.81 0.45
4 -1 -7 10.07 0.51
5 1 -7 10.12 0.54
-5 -1 -7 11.99 0.44
-5 1 7 9.66 0.52
-5 -1 -7 9.5 0.49
-5 -1 7 10.29 0.53
-5 1 -7 12.34 0.41
5 -1 -7 9.03 0.53
-5 1 -7 10.4 0.49
-6 -1 -7 1.15 0.15
-6 -1 -7 1.17 0.11
-6 1 7 0.78 0.15
6 1 -7 0.88 0.19
-6 1 -7 0.96 0.15
6 -1 -7 0.85 0.19
-6 -1 7 1.07 0.19
-7 -1 -7 13.11 0.61
7 1 -7 10.93 0.62
-7 1 7 12.72 0.64
-7 -1 7 12.04 0.63
-7 1 -7 13.12 0.59
7 -1 -7 12.14 0.63
-8 -1 -7 18.69 0.86
8 1 -7 19.27 0.91
-8 1 7 18.25 0.89
8 -1 -7 18.48 0.9
-8 -1 7 19.05 0.91
-8 1 -7 19.06 0.84
9 1 -7 0.51 0.2
-9 1 7 0.99 0.23
-9 -1 -7 0.58 0.19
9 -1 -7 0.62 0.18
-9 1 -7 0.69 0.18
-9 -1 7 0.67 0.23
-10 -1 -7 3.75 0.37
10 1 -7 3.81 0.39
-10 1 7 3.51 0.4
-10 -1 7 4.95 0.47
-10 1 -7 3.87 0.34
10 -1 -7 3.35 0.38
-11 1 7 0.26 0.22
11 1 -7 0.33 0.21
-11 -1 -7 0.26 0.21
11 -1 -7 0.56 0.21
-11 -1 7 0.14 0.22
-11 1 -7 0.33 0.19
-12 -1 -7 0.16 0.21
12 1 -7 0.11 0.21
-12 1 7 0.08 0.21
12 -1 -7 0.31 0.22
-12 1 -7 0.26 0.2
-12 -1 7 0.24 0.23
-13 -1 -7 0.03 0.21
13 1 -7 0.27 0.3
-13 1 7 0.18 0.23
-13 -1 7 0.21 0.25
0 2 -7 3.34 0.17
0 2 -7 3.47 0.19
0 -2 -7 3.07 0.17
0 -2 -7 3.53 0.19
-1 -2 -7 28.71 1.1
1 2 -7 29.31 1.1
-1 -2 -7 28.2 1.09
1 2 -7 29.85 1.13
1 -2 -7 28.64 1.13
-1 2 -7 28.86 1.08
1 -2 -7 27.77 1.09
-1 2 -7 26.87 1.08
2 2 -7 3.51 0.2
-2 -2 -7 3.99 0.21
2 -2 7 3.42 0.15
2 2 -7 3.35 0.23
-2 -2 -7 3.47 0.17
2 -2 -7 3.99 0.24
2 -2 -7 3.12 0.19
-2 2 -7 3.34 0.18
-2 2 -7 3.55 0.15
3 2 -7 13.97 0.64
3 2 -7 14.09 0.62
-3 -2 -7 13.31 0.59
-3 -2 -7 13.75 0.56
3 -2 -7 15 0.65
3 -2 -7 14.72 0.61
-3 2 -7 15.06 0.59
-4 -2 -7 30.85 1.08
4 2 -7 27.91 1.17
4 2 -7 29.18 1.15
-4 -2 -7 27.08 1.11
-4 2 -7 25.95 1.09
4 -2 -7 28.55 1.13
4 -2 -7 27.84 1.17
5 2 -7 3.25 0.28
-5 -2 -7 4.08 0.19
-5 -2 -7 3.12 0.22
-5 2 -7 3.03 0.21
-5 -2 7 3.4 0.25
5 -2 -7 3 0.25
5 -2 -7 3.28 0.25
-6 -2 -7 10.12 0.4
-6 2 7 8.46 0.46
-6 -2 -7 9.02 0.47
6 2 -7 8.53 0.5
-6 2 -7 8.3 0.43
6 -2 -7 8.74 0.5
-6 -2 7 9.13 0.49
-7 -2 -7 18.1 0.77
-7 2 7 16.94 0.78
7 2 -7 16.73 0.79
-7 2 -7 16.44 0.72
7 -2 -7 14.43 0.78
-7 -2 7 16.02 0.79
-8 2 7 1.28 0.23
8 2 -7 1.77 0.27
-8 -2 -7 1.34 0.2
-8 2 -7 1.81 0.22
8 -2 -7 1.68 0.24
-8 -2 7 1.88 0.27
9 2 -7 2.06 0.29
-9 2 7 1.23 0.24
-9 -2 -7 1.78 0.24
-9 2 -7 1.93 0.24
-9 -2 7 1.43 0.25
9 -2 -7 1.58 0.26
-10 -2 -7 16.61 0.81
-10 2 7 15.65 0.83
10 2 -7 15.38 0.83
10 -2 -7 15.96 0.83
-10 2 -7 15.75 0.77
-10 -2 7 16.01 0.85
-11 2 7 0.38 0.23
11 2 -7 0.5 0.23
-11 -2 -7 0.81 0.24
-11 -2 7 0.65 0.27
11 -2 -7 0.36 0.21
-11 2 -7 0.71 0.21
-12 2 7 1.8 0.32
12 2 -7 1.19 0.31
-12 -2 -7 1.67 0.31
12 -2 -7 1.87 0.33
-12 -2 7 1.3 0.31
13 2 -7 -0.36 0.2
-13 2 7 0.69 0.27
-13 -2 -7 0.63 0.27
-13 -2 7 1.3 0.32
0 3 -7 0.57 0.09
0 3 -7 0.55 0.08
0 -3 -7 0.54 0.08
0 -3 -7 0.57 0.09
-1 -3 -7 14.95 0.65
-1 -3 -7 15.82 0.65
1 3 -7 16.55 0.66
1 3 -7 16.82 0.68
-1 3 -7 16.36 0.64
1 -3 -7 16.68 0.68
1 -3 -7 16.23 0.65
-1 3 -7 16.55 0.64
-2 -3 -7 12.37 0.5
2 -3 7 12.23 0.47
2 3 -7 11.89 0.55
-2 -3 -7 12.21 0.52
2 3 -7 12.27 0.53
2 -3 -7 12.09 0.51
2 -3 -7 12.47 0.56
-2 3 -7 12.19 0.5
-2 3 -7 12.39 0.47
3 3 -7 31.61 1.25
3 3 -7 30.43 1.22
-3 -3 -7 30.21 1.2
-3 -3 -7 32.22 1.18
3 -3 -7 30.52 1.2
3 -3 -7 29.85 1.24
-3 3 -7 30.27 1.17
-4 -3 -7 5.34 0.29
-4 -3 -7 5.66 0.26
4 3 -7 4.82 0.33
-4 3 -7 4.94 0.26
4 -3 -7 5.67 0.3
-4 -3 7 5.46 0.34
4 -3 -7 5.32 0.33
-5 -3 -7 15.83 0.61
5 3 -7 14.22 0.7
-5 -3 -7 12.86 0.65
5 -3 -7 14.5 0.7
-5 3 -7 14.98 0.62
-5 -3 7 14.54 0.68
5 -3 -7 15.93 0.67
-6 -3 -7 5.41 0.25
6 3 -7 4.09 0.34
-6 -3 -7 4.45 0.31
-6 3 7 4.33 0.31
6 -3 -7 4 0.31
-6 3 -7 4.06 0.26
-6 -3 7 3.95 0.34
7 3 -7 8.13 0.49
-7 3 7 8.79 0.49
-7 -3 -7 8.42 0.48
-7 3 -7 8.74 0.44
7 -3 -7 8.6 0.51
-7 -3 7 8.61 0.52
-8 3 7 3.85 0.33
8 3 -7 3.49 0.31
-8 -3 -7 3.49 0.34
-8 -3 7 3.6 0.37
-8 3 -7 3.42 0.27
8 -3 -7 2.93 0.33
-9 3 7 2.53 0.31
-9 -3 -7 2.15 0.29
9 3 -7 1.94 0.29
-9 3 -7 2.21 0.24
-9 -3 7 1.99 0.31
9 -3 -7 2.04 0.29
-10 3 7 2.82 0.34
-10 -3 -7 2.26 0.29
10 3 -7 1.93 0.31
-10 3 -7 2.11 0.26
-10 -3 7 2.16 0.35
10 -3 -7 2.22 0.32
11 3 -7 1.58 0.3
-11 -3 -7 1.55 0.3
-11 3 7 1.41 0.29
-11 3 -7 1.54 0.25
-11 -3 7 1.78 0.35
11 -3 -7 1.66 0.3
12 3 -7 1.73 0.32
-12 3 7 1.63 0.33
-12 -3 -7 1.48 0.31
12 -3 -7 1.68 0.32
-12 -3 7 1.51 0.32
13 3 -7 0.14 0.23
-13 -3 -7 -0.1 0.23
-13 -3 7 0.17 0.26
0 4 -7 20.64 0.81
0 -4 -7 20.84 0.84
0 -4 -7 20.74 0.82
0 4 -7 21.4 0.83
-1 -4 -7 43.51 1.66
1 -4 7 45.49 1.67
-1 -4 -7 44.28 1.69
1 4 -7 44.15 1.71
1 4 -7 45.95 1.67
1 -4 -7 42.97 1.71
-1 4 -7 42.84 1.65
1 -4 -7 45.48 1.66
-1 4 -7 43.8 1.67
-2 -4 -7 11.52 0.46
-2 -4 -7 10.66 0.47
2 4 -7 10.55 0.49
2 4 -7 10.98 0.51
2 -4 7 11.43 0.43
2 -4 -7 10.68 0.5
2 -4 -7 11.11 0.47
-2 4 -7 10.35 0.44
-3 -4 -7 15.36 0.6
-3 -4 -7 13.84 0.61
3 4 -7 14.34 0.64
3 4 -7 14.04 0.66
3 -4 7 15.1 0.55
3 -4 -7 13.72 0.65
-3 4 -7 14.72 0.59
3 -4 -7 14.85 0.61
-4 -4 -7 35.82 1.4
-4 -4 -7 38.92 1.38
4 4 -7 36.41 1.46
-4 -4 7 36.28 1.44
4 -4 -7 35.29 1.39
4 -4 -7 32.88 1.45
-4 4 -7 34.95 1.36
-5 -4 -7 27.54 1.15
5 4 -7 28.1 1.21
-5 -4 -7 32.1 1.12
-5 -4 7 27.19 1.19
5 -4 -7 27.43 1.15
-5 4 -7 28.07 1.11
5 -4 -7 28.38 1.2
-6 -4 -7 11.13 0.46
-6 4 7 9.64 0.5
-6 -4 -7 10.14 0.52
6 4 -7 9.71 0.55
-6 4 -7 9.57 0.45
6 -4 -7 8.69 0.51
-6 -4 7 9.87 0.53
-7 -4 -7 8.02 0.48
7 4 -7 7.51 0.5
-7 4 7 9.04 0.48
-7 4 -7 8.72 0.43
-7 -4 7 8.91 0.53
7 -4 -7 8 0.5
-8 -4 -7 20.66 0.95
-8 4 7 20.55 0.94
8 4 -7 20.85 0.98
-8 4 -7 20.11 0.87
8 -4 -7 20.46 0.97
-8 -4 7 21 1
9 4 -7 2.95 0.35
-9 4 7 3.29 0.34
-9 -4 -7 2.99 0.34
-9 -4 7 3.34 0.39
-9 4 -7 2.94 0.27
9 -4 -7 3.58 0.37
10 4 -7 1.15 0.26
-10 -4 -7 1.32 0.27
-10 4 7 1.28 0.24
10 -4 -7 0.9 0.24
-10 4 -7 0.69 0.18
-10 -4 7 1 0.29
11 4 -7 0.15 0.21
-11 -4 -7 0.4 0.24
-11 4 7 0.43 0.24
11 -4 -7 0.5 0.21
-11 -4 7 0.44 0.22
12 4 -7 0.77 0.26
-12 -4 -7 0.63 0.26
-12 -4 7 0.27 0.26
12 -4 -7 1.16 0.29
13 4 -7 1.2 0.31
-13 -4 -7 0.99 0.3
-13 -4 7 0.9 0.28
0 5 -7 26.72 1.02
0 -5 -7 25.92 1.06
0 -5 -7 26.44 1.03
0 5 -7 27.77 1.05
1 5 -7 9.04 0.42
1 -5 7 9.53 0.41
1 5 -7 9.32 0.44
-1 -5 -7 9.12 0.42
-1 -5 -7 9.13 0.42
-1 5 -7 9.92 0.4
1 -5 -7 9.83 0.41
-1 5 -7 10.33 0.41
1 -5 -7 9.38 0.45
-2 -5 -7 14.94 0.63
2 5 -7 14.8 0.64
2 5 -7 14.64 0.66
2 -5 7 15.9 0.6
-2 -5 -7 14.91 0.63
2 -5 -7 15.16 0.62
-2 5 -7 15.32 0.6
2 -5 -7 15.9 0.67
3 5 -7 27.45 1.18
-3 -5 -7 28.27 1.13
-3 -5 -7 29.98 1.12
3 -5 7 29.13 1.08
3 5 -7 26.82 1.14
-3 5 -7 30.16 1.09
-3 -5 7 28.61 1.16
3 -5 -7 27.83 1.17
3 -5 -7 28.84 1.12
-4 -5 -7 13.56 0.56
-4 -5 -7 12.09 0.58
4 -5 7 13.61 0.51
4 5 -7 13.16 0.64
-4 -5 7 13.19 0.62
4 -5 -7 12.56 0.62
4 -5 -7 13.86 0.58
-4 5 -7 12.74 0.54
-5 -5 -7 27.39 1
5 5 -7 24.15 1.08
-5 -5 -7 24.83 1.03
5 -5 7 24.66 0.93
5 -5 -7 23.39 1.06
-5 -5 7 24.42 1.06
-5 5 -7 24.4 0.97
5 -5 -7 24.14 1.01
-6 5 7 2.69 0.23
-6 -5 -7 2.05 0.24
-6 -5 -7 2.64 0.2
6 5 -7 2.05 0.27
-6 -5 7 2.71 0.3
-6 5 -7 2.55 0.18
6 -5 -7 2.53 0.28
7 5 -7 12.3 0.68
-7 -5 -7 11.75 0.64
-7 -5 -7 15.36 0.6
-7 5 7 12.04 0.63
-7 5 -7 12.9 0.57
7 -5 -7 12.48 0.67
-7 -5 7 13.01 0.68
8 5 -7 1.86 0.26
-8 -5 -7 1.16 0.24
-8 5 7 1.71 0.23
8 -5 -7 1.66 0.26
-8 -5 7 2.52 0.32
-8 5 -7 1.82 0.19
-9 -5 -7 3.45 0.36
-9 5 7 2.9 0.32
9 5 -7 3.51 0.38
-9 5 -7 3.03 0.26
9 -5 -7 3.1 0.35
-9 -5 7 3.61 0.41
10 5 -7 0.24 0.21
-10 -5 -7 0.13 0.21
-10 5 7 0.76 0.22
-10 -5 7 0.23 0.24
10 -5 -7 0.14 0.19
-11 5 7 3.56 0.4
11 5 -7 3.94 0.44
-11 -5 -7 4.55 0.45
-11 -5 7 4.34 0.5
11 -5 -7 3.97 0.43
-12 -5 -7 1.44 0.32
12 5 -7 1.31 0.3
-12 -5 7 1 0.32
12 -5 -7 1.3 0.32
13 5 -7 1.24 0.32
-13 -5 -7 1.2 0.33
-13 -5 7 0.93 0.35
0 -6 -7 2.92 0.18
0 6 -7 3.39 0.2
0 -6 7 3 0.2
0 6 -7 3.01 0.17
0 -6 -7 2.98 0.21
1 6 -7 9.71 0.42
-1 -6 -7 10.04 0.44
1 6 -7 9.58 0.44
-1 -6 -7 9.82 0.42
1 -6 7 9.4 0.41
-1 6 -7 9.19 0.41
-1 6 -7 8.99 0.39
1 -6 -7 9.15 0.45
1 -6 -7 8.73 0.4
2 -6 7 60.71 2.24
-2 -6 -7 62.31 2.25
-2 -6 -7 60.86 2.27
2 6 -7 58.74 2.26
2 6 -7 58.25 2.3
2 -6 -7 61.27 2.23
-2 6 -7 59.08 2.2
2 -6 -7 56.71 2.3
-3 -6 -7 3.19 0.2
3 -6 7 3.12 0.16
3 6 -7 2.84 0.23
-3 -6 -7 2.85 0.2
-3 -6 7 3.37 0.24
3 -6 -7 3.09 0.19
3 -6 -7 3 0.23
-3 6 -7 3.11 0.17
4 -6 7 13.67 0.53
4 6 -7 15.59 0.67
-4 -6 -7 13.48 0.58
-4 -6 -7 12.53 0.6
-4 6 -7 13.17 0.54
-4 -6 7 12.55 0.62
4 -6 -7 12.76 0.57
4 -6 -7 12.62 0.63
-5 -6 -7 0.48 0.12
-5 -6 -7 0.48 0.12
5 6 -7 0.42 0.17
5 -6 7 0.48 0.07
-5 -6 7 0.63 0.15
5 -6 -7 0.51 0.16
5 -6 -7 0.53 0.12
-5 6 -7 0.56 0.1
6 6 -7 5.24 0.4
-6 6 7 5.9 0.35
-6 -6 -7 6.55 0.33
-6 -6 -7 6.62 0.39
6 -6 -7 5.39 0.38
-6 6 -7 5.95 0.3
-6 -6 7 5.95 0.42
7 6 -7 0.98 0.23
-7 -6 -7 0.93 0.16
-7 6 7 1.18 0.19
-7 -6 -7 0.8 0.2
7 -6 -7 0.85 0.22
-7 -6 7 0.58 0.2
-7 6 -7 0.91 0.14
-8 6 7 4.19 0.33
-8 -6 -7 4.83 0.39
8 6 -7 4.77 0.4
-8 -6 7 4.03 0.41
-8 6 -7 4.1 0.28
8 -6 -7 3.65 0.38
-9 6 7 2.82 0.31
9 6 -7 2.72 0.35
-9 -6 -7 2.65 0.35
9 -6 -7 3.1 0.34
-9 -6 7 3.2 0.39
10 6 -7 1.27 0.28
-10 6 7 1.04 0.25
-10 -6 -7 1.09 0.24
10 -6 -7 1.56 0.29
-10 -6 7 1.33 0.31
11 6 -7 3.94 0.45
-11 -6 -7 3.63 0.44
-11 -6 7 4.45 0.51
11 -6 -7 4.4 0.46
12 6 -7 0.09 0.23
-12 -6 -7 0.51 0.27
-12 -6 7 0.74 0.3
12 -6 -7 0.4 0.24
13 6 -7 1.08 0.31
-13 -6 -7 0.26 0.23
0 7 -7 86.48 3.21
0 -7 -7 84.28 3.23
0 7 -7 88.92 3.15
0 -7 7 85.71 3.22
0 -7 -7 81.76 3.15
1 7 -7 8.63 0.39
-1 -7 -7 8.56 0.38
-1 -7 -7 8.27 0.41
1 -7 7 8.32 0.38
1 7 -7 8.26 0.41
-1 7 -7 8.31 0.36
1 -7 -7 8.61 0.37
-1 -7 7 8.08 0.41
1 -7 -7 8.7 0.43
2 7 -7 15.98 0.74
-2 -7 -7 16.6 0.7
-2 -7 -7 17.13 0.72
2 -7 7 16.03 0.68
-2 7 -7 16.77 0.65
-2 -7 7 18.38 0.73
2 -7 -7 17.82 0.68
2 -7 -7 16.26 0.74
3 -7 7 38.69 1.47
-3 -7 -7 37.89 1.5
3 7 -7 37.13 1.55
-3 -7 -7 40.73 1.52
3 -7 -7 36.3 1.55
3 -7 -7 39.16 1.48
-3 -7 7 38.89 1.53
-3 7 -7 40.38 1.44
-4 -7 -7 21.29 0.95
-4 -7 -7 23.73 0.95
4 -7 7 24.12 0.9
4 7 -7 22.58 1
4 -7 -7 22.42 0.99
4 -7 -7 22.27 0.92
-4 7 -7 23.58 0.89
-4 -7 7 23.98 1
-5 -7 -7 5.08 0.33
5 -7 7 5.23 0.26
-5 -7 -7 5.65 0.32
5 7 -7 4.98 0.36
5 -7 -7 5.4 0.31
-5 7 -7 5.97 0.27
5 -7 -7 5.75 0.36
-5 -7 7 5.49 0.38
-6 -7 -7 4.87 0.3
-6 7 7 5.54 0.32
6 7 -7 4.2 0.37
-6 -7 -7 4.47 0.31
-6 7 -7 4.45 0.25
-6 -7 7 4.04 0.36
6 -7 -7 3.89 0.35
-7 -7 -7 6.03 0.34
7 7 -7 4.86 0.38
-7 7 7 4.73 0.35
-7 -7 -7 5.76 0.4
7 -7 -7 5.05 0.41
-7 -7 7 5.27 0.4
8 7 -7 0.34 0.2
-8 7 7 0.41 0.15
-8 -7 -7 0.25 0.14
8 -7 -7 0.44 0.19
-8 -7 7 0.09 0.19
-9 7 7 2.3 0.28
-9 -7 -7 2.32 0.3
9 7 -7 2.34 0.33
9 -7 -7 2.45 0.33
-9 -7 7 2.37 0.34
10 7 -7 6.79 0.53
-10 -7 -7 6.48 0.52
10 -7 -7 6.37 0.5
-10 -7 7 7.04 0.57
-11 -7 -7 -0.26 0.21
11 7 -7 0.39 0.19
-11 -7 7 0.34 0.27
11 -7 -7 0.56 0.24
-12 -7 -7 0.32 0.26
12 7 -7 0.29 0.23
-12 -7 7 0.67 0.3
12 -7 -7 -0.05 0.23
13 7 -7 1.15 0.31
-13 -7 7 0.98 0.3
0 8 -7 2.46 0.19
0 -8 -7 2.49 0.22
0 -8 -7 2.89 0.17
0 -8 7 2.78 0.19
0 8 -7 2.84 0.17
1 8 -7 63.51 2.42
1 -8 7 62.2 2.39
1 8 -7 63.52 2.36
-1 -8 -7 65.73 2.42
-1 -8 -7 65.22 2.36
-1 8 -7 63.15 2.33
-1 -8 7 62.4 2.42
1 -8 -7 59.8 2.34
1 -8 -7 62.8 2.44
-2 -8 -7 6.73 0.34
2 8 -7 6.75 0.38
2 -8 7 6.61 0.32
-2 -8 -7 6.63 0.36
2 -8 -7 6.52 0.32
-2 -8 7 6.84 0.38
2 -8 -7 7.19 0.39
-2 8 -7 6.96 0.29
-2 -8 7 7.4 0.36
-3 -8 -7 0.2 0.1
-3 -8 -7 0.39 0.11
3 8 -7 0.24 0.13
3 -8 7 0.24 0.07
-3 8 -7 0.27 0.06
-3 -8 7 0.08 0.12
3 -8 -7 0.26 0.13
3 -8 -7 0.22 0.08
-3 -8 7 0.45 0.12
4 8 -7 7.35 0.45
-4 -8 -7 6.79 0.4
-4 -8 -7 7.37 0.39
4 -8 7 7.92 0.35
4 -8 -7 7.61 0.37
-4 8 -7 8.33 0.33
4 -8 -7 7.39 0.43
-4 -8 7 8.07 0.44
-5 -8 -7 13.88 0.62
5 -8 7 14.93 0.58
5 8 -7 14.16 0.69
-5 -8 -7 13.02 0.64
-5 8 -7 14.08 0.56
-5 -8 7 13.35 0.68
5 -8 -7 12.55 0.68
5 -8 -7 12.78 0.6
-6 -8 -7 6.19 0.42
6 8 -7 7.4 0.48
-6 8 7 7.05 0.38
-6 -8 -7 7.63 0.39
-6 -8 7 6.72 0.46
6 -8 -7 5.98 0.42
-7 8 7 23.89 0.99
7 8 -7 23.59 1.08
-7 -8 -7 23.8 0.98
-7 -8 -7 21.13 1.01
7 -8 -7 21.8 1.06
-7 -8 7 23.34 1.08
-8 -8 -7 1.96 0.29
-8 8 7 2.29 0.26
8 8 -7 1.88 0.28
-8 -8 7 2.15 0.31
8 -8 -7 1.92 0.29
9 8 -7 0.62 0.24
-9 -8 -7 0.6 0.23
9 -8 -7 0.6 0.23
-9 -8 7 1.15 0.28
10 8 -7 0.98 0.28
-10 -8 -7 0.53 0.26
10 -8 -7 1.26 0.28
-10 -8 7 1.43 0.31
-11 -8 -7 0.84 0.31
11 8 -7 0.8 0.27
-11 -8 7 0.85 0.29
-11 -8 7 0.23 0.24
11 -8 -7 0.92 0.27
-12 -8 -7 0.19 0.26
12 8 -7 0.44 0.25
-12 -8 7 0.57 0.32
-12 -8 7 0.42 0.25
13 8 -7 0.07 0.26
-13 -8 7 -0.01 0.23
0 -9 -7 23.54 1.02
0 9 -7 24.85 0.96
0 9 -7 24.36 1
0 -9 -7 24.89 0.96
0 -9 7 25.06 1
-1 -9 -7 28.14 1.08
1 -9 7 26.7 1.1
1 9 -7 26.9 1.13
-1 -9 -7 27.18 1.13
1 -9 -7 26.71 1.06
-1 9 -7 28.32 1.05
-1 -9 7 28.24 1.09
1 -9 -7 27.72 1.15
-1 -9 7 28.38 1.13
2 9 -7 20.89 0.9
2 -9 7 20.51 0.85
-2 -9 -7 20.65 0.88
-2 -9 -7 21.04 0.85
2 -9 -7 20.75 0.91
-2 -9 7 21.57 0.87
2 -9 -7 20.08 0.82
-2 -9 7 21.36 0.91
-2 9 -7 21.39 0.8
-3 -9 -7 26.35 1.1
3 9 -7 27.27 1.14
-3 -9 -7 27.36 1.09
3 -9 7 27.05 1.06
3 -9 -7 26.77 1.14
-3 9 -7 27.42 1.01
-3 -9 7 26.64 1.14
3 -9 -7 26.56 1.05
-3 -9 7 26.15 1.11
-4 -9 -7 4.02 0.27
-4 -9 -7 3.76 0.28
4 -9 7 3.64 0.22
4 9 -7 3.79 0.32
-4 -9 7 3.12 0.32
-4 -9 7 3.55 0.3
4 -9 -7 3.08 0.31
4 -9 -7 3.63 0.23
-4 9 -7 4.08 0.19
5 -9 7 1.97 0.16
-5 -9 -7 1.92 0.22
-5 -9 -7 1.59 0.2
5 9 -7 1.74 0.24
5 -9 -7 1.61 0.17
5 -9 -7 1.08 0.22
-5 -9 7 1.6 0.26
-5 -9 7 1.83 0.25
-6 9 7 1.57 0.19
6 9 -7 1.42 0.23
-6 -9 -7 1.34 0.22
-6 -9 -7 1.48 0.19
6 -9 -7 1.23 0.24
-6 -9 7 1.25 0.24
-6 -9 7 1.03 0.21
7 9 -7 0.55 0.21
-7 -9 -7 0.78 0.21
-7 -9 -7 0.64 0.17
-7 -9 7 0.37 0.2
7 -9 -7 0.33 0.15
-8 -9 -7 14.2 0.75
8 9 -7 13.83 0.75
-8 -9 7 14.66 0.77
8 -9 -7 13.67 0.77
-8 -9 7 14.79 0.81
9 9 -7 3.53 0.41
-9 -9 -7 3.5 0.4
-9 -9 7 3.48 0.41
-9 -9 7 3.91 0.45
9 -9 -7 4.1 0.43
10 9 -7 3.12 0.39
-10 -9 -7 2.65 0.35
-10 -9 7 2.35 0.36
10 -9 -7 3.17 0.4
-10 -9 7 3.2 0.44
11 9 -7 0.07 0.22
-11 -9 -7 0.55 0.27
-11 -9 7 0.3 0.27
-11 -9 7 0.15 0.18
11 -9 -7 -0.04 0.22
12 9 -7 0.18 0.23
-12 -9 -7 0.09 0.27
-12 -9 7 0.32 0.26
-12 -9 7 0.48 0.32
0 -10 -7 31.7 1.23
0 -10 7 32.26 1.29
0 -10 7 33.94 1.24
0 -10 -7 29.74 1.3
1 -10 7 6.99 0.36
-1 -10 -7 6.64 0.39
-1 -10 -7 7.7 0.35
1 10 -7 6.38 0.38
1 -10 -7 7.16 0.32
-1 -10 7 6.54 0.35
1 -10 -7 6.6 0.38
-1 10 -7 7.11 0.31
-1 -10 7 7.16 0.38
2 -10 7 33.31 1.29
-2 -10 -7 33.78 1.28
2 10 -7 31.73 1.34
-2 -10 -7 32.55 1.32
-2 10 -7 33.8 1.22
-2 -10 7 31.82 1.34
2 -10 -7 31.05 1.34
-2 -10 7 33.16 1.3
2 -10 -7 31.67 1.25
-3 -10 -7 4.3 0.29
-3 -10 -7 4.14 0.28
3 -10 7 4.14 0.24
3 10 -7 4.03 0.3
-3 -10 7 3.68 0.31
3 -10 -7 3.76 0.29
3 -10 -7 4.29 0.23
-3 -10 7 4.6 0.3
-4 -10 -7 1.45 0.19
-4 -10 -7 1.64 0.2
4 10 -7 1.26 0.22
4 -10 7 1.47 0.15
-4 -10 7 1.43 0.19
4 -10 -7 1.38 0.15
-4 -10 7 1.2 0.2
4 -10 -7 1.6 0.24
-5 -10 -7 4.21 0.31
5 10 -7 4.29 0.36
-5 -10 -7 3.54 0.3
5 -10 -7 3.54 0.35
5 -10 -7 3.46 0.24
-5 -10 7 3.05 0.34
-5 -10 7 3.39 0.33
-6 -10 -7 0.65 0.2
-6 -10 -7 0.64 0.18
6 10 -7 0.95 0.23
-6 -10 7 0.61 0.21
6 -10 -7 0.94 0.22
-6 -10 7 1.24 0.24
-7 -10 -7 7.32 0.44
7 10 -7 8.51 0.52
-7 -10 -7 7.15 0.48
-7 -10 7 7.97 0.54
-7 -10 7 7.42 0.5
7 -10 -7 7.5 0.51
-8 -10 -7 2.28 0.32
8 10 -7 1.76 0.31
-8 -10 7 1.67 0.28
8 -10 -7 1.49 0.29
-8 -10 7 1.28 0.29
-9 -10 -7 3.61 0.4
9 10 -7 3.88 0.44
-9 -10 7 3.55 0.42
9 -10 -7 4.05 0.45
-9 -10 7 4.21 0.46
10 10 -7 1.23 0.3
-10 -10 -7 1.25 0.3
-10 -10 7 1.01 0.29
10 -10 -7 1.19 0.29
-10 -10 7 1.1 0.31
11 10 -7 2.1 0.36
-11 -10 -7 1.75 0.33
-11 -10 7 2.31 0.42
-11 -10 7 1.98 0.37
11 -10 -7 2.36 0.38
-12 -10 -7 0.18 0.22
12 10 -7 0.07 0.26
-12 -10 7 0.46 0.31
-12 -10 7 0.18 0.26
0 -11 7 1.24 0.13
0 -11 -7 0.72 0.15
0 -11 7 1.01 0.15
0 -11 -7 1.15 0.12
1 -11 7 15.57 0.7
1 11 -7 15.34 0.72
-1 -11 -7 15.44 0.67
1 -11 7 17.37 0.65
-1 -11 -7 15.65 0.73
1 -11 -7 15.3 0.73
-1 -11 7 17.07 0.69
1 -11 -7 16.03 0.65
-1 -11 7 16.07 0.73
2 11 -7 42.95 1.75
-2 -11 -7 44.25 1.74
-2 -11 -7 45.38 1.68
2 -11 7 42.89 1.7
-2 -11 7 43.74 1.69
-2 -11 7 43.1 1.75
2 -11 -7 40.56 1.75
2 -11 -7 45.03 1.65
3 -11 7 1.37 0.16
3 11 -7 1.14 0.2
-3 -11 -7 1.43 0.18
-3 -11 -7 1.21 0.19
-3 -11 7 1.21 0.21
3 -11 -7 1.21 0.13
3 -11 -7 1 0.21
-3 -11 7 1.1 0.17
-4 -11 -7 4.53 0.32
4 -11 7 4.41 0.27
4 11 -7 4.38 0.33
-4 -11 -7 4.47 0.32
-4 -11 7 4.39 0.33
4 -11 -7 3.87 0.37
-4 -11 7 4.41 0.37
4 -11 -7 4.36 0.25
5 11 -7 4.11 0.33
-5 -11 -7 3.65 0.31
-5 -11 -7 4.47 0.31
-5 -11 7 3.13 0.33
5 -11 -7 3.4 0.36
-5 -11 7 3.68 0.37
-6 -11 -7 4.12 0.31
6 11 -7 3.57 0.38
-6 -11 -7 3.31 0.33
6 -11 -7 3.8 0.39
-6 -11 7 3.7 0.38
-6 -11 7 4.13 0.4
-7 -11 -7 3.83 0.34
-7 -11 -7 3.58 0.35
7 11 -7 4.21 0.42
7 -11 -7 4.3 0.43
-7 -11 7 3.55 0.38
-7 -11 7 4.45 0.43
-8 -11 -7 1.9 0.3
-8 -11 -7 1.74 0.26
8 11 -7 1.87 0.32
-8 -11 7 1.85 0.29
8 -11 -7 1.99 0.32
-8 -11 7 1.75 0.33
9 11 -7 6.51 0.53
-9 -11 -7 6.36 0.48
9 -11 -7 6.71 0.53
-9 -11 7 6.69 0.57
-9 -11 7 5.84 0.52
-10 -11 -7 0.81 0.28
10 11 -7 1.38 0.31
10 -11 -7 0.43 0.24
-10 -11 7 0.68 0.24
-10 -11 7 0.77 0.32
11 11 -7 1.2 0.31
-11 -11 -7 1.78 0.37
11 -11 -7 2.25 0.39
-11 -11 7 1.21 0.35
-11 -11 7 1.79 0.35
12 11 -7 -0.06 0.23
-12 -11 7 0.48 0.28
0 -12 7 14.34 0.58
0 -12 -7 12.75 0.65
0 -12 -7 13.58 0.58
0 -12 7 13.53 0.63
-1 -12 -7 20.28 0.81
1 -12 7 19.52 0.84
-1 -12 -7 19.08 0.87
1 -12 -7 19.76 0.79
-1 -12 7 19.38 0.87
-1 -12 7 20.05 0.81
1 -12 -7 19.51 0.88
-2 -12 -7 9.59 0.52
2 12 -7 10.04 0.55
-2 -12 -7 11.56 0.5
2 -12 7 9.67 0.49
-2 -12 7 10.6 0.55
2 -12 -7 11.61 0.46
-2 -12 7 10.85 0.51
2 -12 -7 8.59 0.53
3 12 -7 3.84 0.3
3 -12 7 3.69 0.25
-3 -12 -7 3.84 0.31
-3 -12 -7 3.86 0.28
-3 -12 7 3.47 0.3
3 -12 -7 3.2 0.32
-3 -12 7 3.61 0.28
3 -12 -7 4.19 0.23
-4 -12 -7 3.53 0.3
4 -12 7 3.79 0.25
4 12 -7 2.81 0.32
-4 -12 -7 3.48 0.29
-4 -12 7 2.51 0.28
-4 -12 7 2.85 0.31
4 -12 -7 3.41 0.35
5 12 -7 1.86 0.28
-5 -12 -7 1.62 0.23
-5 -12 -7 1.51 0.22
-5 -12 7 1.4 0.24
5 -12 -7 1.01 0.24
-5 -12 7 1.39 0.23
-6 -12 -7 4.11 0.35
6 12 -7 4.07 0.36
-6 -12 -7 4.06 0.34
-6 -12 7 4.25 0.42
-6 -12 7 3.95 0.39
6 -12 -7 4.67 0.41
7 12 -7 3.33 0.4
-7 -12 -7 3.07 0.34
-7 -12 -7 2.91 0.31
7 -12 -7 4.07 0.41
-7 -12 7 3.63 0.38
-7 -12 7 3.46 0.38
-8 -12 -7 3.06 0.33
8 12 -7 2.9 0.36
-8 -12 -7 2.53 0.32
-8 -12 7 2.72 0.39
-8 -12 7 2.71 0.39
8 -12 -7 3 0.39
9 12 -7 4.29 0.46
-9 -12 -7 4.61 0.45
-9 -12 7 3.34 0.42
9 -12 -7 4.03 0.47
-9 -12 7 4 0.44
-10 -12 -7 0.22 0.25
10 12 -7 0.21 0.24
-10 -12 7 0.41 0.28
-10 -12 7 -0.21 0.22
10 -12 -7 0.15 0.22
-11 -12 -7 0.16 0.28
11 12 -7 0.22 0.27
-11 -12 7 0.16 0.25
11 -12 -7 0.54 0.27
-11 -12 7 0.05 0.29
-12 -12 7 0.74 0.31
0 -13 7 2.73 0.26
0 -13 -7 2.84 0.19
0 -13 7 2.83 0.2
0 -13 -7 2.5 0.26
-1 -13 -7 1.26 0.2
-1 -13 -7 1.67 0.17
1 -13 7 1.54 0.2
1 -13 -7 1.82 0.16
-1 -13 7 1.8 0.18
1 -13 -7 1.65 0.24
-1 -13 7 1.6 0.22
2 -13 7 17.42 0.75
-2 -13 -7 17.52 0.73
-2 -13 -7 15.27 0.78
-2 -13 7 15.75 0.73
-2 -13 7 17.66 0.8
2 -13 -7 15.77 0.79
2 -13 -7 17.38 0.69
3 13 -7 18.81 0.89
3 -13 7 19.21 0.82
-3 -13 -7 19.08 0.82
-3 -13 -7 17.76 0.86
-3 -13 7 19.92 0.89
-3 -13 7 19.08 0.84
3 -13 -7 18.39 0.89
-4 -13 -7 2.16 0.26
-4 -13 -7 2.33 0.25
4 13 -7 2.31 0.3
4 -13 7 2.41 0.21
4 -13 -7 2.18 0.3
-4 -13 7 1.78 0.28
-4 -13 7 2.11 0.25
-5 -13 -7 5.9 0.4
-5 -13 -7 6.79 0.42
5 13 -7 6.53 0.47
-5 -13 7 5.49 0.42
-5 -13 7 5.73 0.42
5 -13 -7 6.82 0.47
-6 -13 -7 1.13 0.23
6 13 -7 0.99 0.23
-6 -13 -7 1.25 0.22
-6 -13 7 1.3 0.26
-6 -13 7 1.2 0.27
6 -13 -7 1.29 0.27
-7 -13 -7 2.86 0.34
7 13 -7 3.32 0.38
-7 -13 -7 2.89 0.32
-7 -13 7 3.78 0.39
7 -13 -7 3.96 0.44
-7 -13 7 3.27 0.38
-8 -13 -7 3.03 0.37
-8 -13 -7 3.25 0.34
8 13 -7 2.66 0.4
-8 -13 7 3.82 0.43
8 -13 -7 3.06 0.41
-8 -13 7 2.99 0.41
9 13 -7 0.97 0.3
-9 -13 -7 0.73 0.27
-9 -13 7 0.47 0.27
-9 -13 7 0.22 0.25
9 -13 -7 0.94 0.28
10 13 -7 0.33 0.27
-10 -13 -7 0.35 0.27
10 -13 -7 0.52 0.28
-10 -13 7 0.87 0.29
-10 -13 7 0.48 0.25
-11 -13 -7 0.3 0.28
11 13 -7 0.05 0.27
-11 -13 7 0.46 0.33
-11 -13 7 0.06 0.2
0 -14 -7 5.44 0.38
0 -14 7 6.47 0.38
0 -14 -7 5.64 0.3
-1 -14 -7 0.96 0.14
1 -14 7 0.66 0.17
-1 -14 -7 0.92 0.2
-1 -14 7 0.82 0.15
1 -14 -7 1.16 0.2
-1 -14 7 0.87 0.19
1 -14 -7 1.23 0.13
2 -14 7 12.29 0.59
-2 -14 -7 13 0.57
-2 -14 -7 11.05 0.62
-2 -14 7 12.44 0.58
-2 -14 7 12.4 0.64
2 -14 -7 10.9 0.63
-3 -14 -7 1.65 0.2
3 -14 7 1.84 0.22
-3 -14 -7 1.33 0.23
3 -14 -7 2.18 0.27
-3 -14 7 1.58 0.24
-3 -14 7 1.49 0.21
4 14 -7 10.53 0.63
-4 -14 -7 11.9 0.57
-4 -14 -7 10.25 0.58
4 -14 7 11.26 0.54
4 -14 -7 11.48 0.64
-4 -14 7 9.67 0.56
-4 -14 7 12.2 0.65
5 14 -7 0.18 0.2
-5 -14 -7 0.09 0.17
-5 -14 -7 0.66 0.18
-5 -14 7 0.66 0.19
-5 -14 7 0.5 0.18
5 -14 -7 0.35 0.17
-6 -14 -7 2.66 0.31
6 14 -7 2.43 0.36
-6 -14 -7 2.84 0.31
-6 -14 7 1.96 0.3
6 -14 -7 2.76 0.37
-6 -14 7 3.08 0.38
-7 -14 -7 0.51 0.2
-7 -14 -7 0.41 0.21
7 14 -7 0.72 0.23
-7 -14 7 0.85 0.28
7 -14 -7 0.55 0.21
-7 -14 7 0.97 0.26
-8 -14 -7 0.37 0.23
-8 -14 -7 0.31 0.22
8 14 -7 0.12 0.24
8 -14 -7 0.4 0.24
-8 -14 7 0.49 0.26
-8 -14 7 0.06 0.23
-9 -14 -7 2.73 0.39
9 14 -7 3.94 0.47
-9 -14 7 4.02 0.47
9 -14 -7 3.63 0.46
-9 -14 7 3.4 0.45
10 14 -7 1.45 0.35
-10 -14 -7 1.61 0.34
-10 -14 7 0.6 0.31
10 -14 -7 1.1 0.33
-10 -14 7 0.41 0.3
11 14 -7 1.52 0.37
-11 -14 7 1.92 0.43
-11 -14 7 1.06 0.34
0 -15 -7 8.19 0.51
0 -15 7 8.96 0.51
0 -15 -7 10.23 0.43
-1 -15 -7 1 0.22
1 -15 7 0.93 0.19
-1 -15 -7 1.23 0.15
-1 -15 7 1.13 0.22
1 -15 -7 1.09 0.2
2 -15 7 0.15 0.13
-2 -15 -7 0.11 0.16
-2 -15 -7 0.37 0.14
2 -15 -7 0.2 0.14
-2 -15 7 0.15 0.16
-2 -15 7 0.03 0.12
3 -15 7 5.12 0.35
-3 -15 -7 6.12 0.37
-3 -15 -7 6.11 0.42
3 -15 -7 6.28 0.45
-3 -15 7 5.94 0.44
-3 -15 7 5.52 0.38
4 -15 7 5.13 0.33
-4 -15 -7 5.22 0.35
-4 -15 -7 5.49 0.4
-4 -15 7 4.47 0.38
-4 -15 7 4.45 0.35
4 -15 -7 4.84 0.45
-5 -15 -7 0.27 0.19
-5 -15 -7 0.11 0.16
5 15 -7 0.25 0.17
-5 -15 7 0.39 0.19
-5 -15 7 0.09 0.18
5 -15 -7 0.13 0.15
-6 -15 -7 1.64 0.27
6 15 -7 2.56 0.36
-6 -15 -7 2.3 0.31
-6 -15 7 1.67 0.28
6 -15 -7 2.34 0.35
-6 -15 7 2.22 0.35
-7 -15 -7 1.91 0.3
7 15 -7 2.62 0.38
-7 -15 -7 2.35 0.32
7 -15 -7 2.51 0.39
-7 -15 7 2.68 0.4
-7 -15 7 2.88 0.36
8 15 -7 0.21 0.21
-8 -15 -7 0.2 0.22
-8 -15 -7 0.22 0.21
-8 -15 7 0.5 0.27
-8 -15 7 0.39 0.23
8 -15 -7 0.26 0.23
-9 -15 -7 1.02 0.29
9 15 -7 0.69 0.26
-9 -15 7 0.93 0.27
-9 -15 7 1.26 0.33
9 -15 -7 0.67 0.28
10 15 -7 2.81 0.44
-10 -15 -7 2.33 0.4
-10 -15 7 2.09 0.36
10 -15 -7 2.8 0.44
-10 -15 7 2.1 0.41
0 -16 7 1.9 0.25
0 -16 -7 1.95 0.28
1 -16 7 7.06 0.45
-1 -16 -7 8.19 0.4
-1 -16 -7 7.19 0.47
1 -16 -7 7.65 0.48
-1 -16 7 7.94 0.49
2 -16 7 0.55 0.16
-2 -16 -7 0.44 0.13
-2 -16 -7 0.46 0.17
2 -16 -7 1.07 0.24
-2 -16 7 0.66 0.18
-3 -16 -7 0.69 0.21
3 -16 7 0.39 0.15
-3 -16 -7 0.56 0.16
-3 -16 7 1.06 0.25
-3 -16 7 0.73 0.16
3 -16 -7 0.93 0.24
-4 -16 -7 1.99 0.25
4 -16 7 2.29 0.26
-4 -16 -7 2.05 0.29
-4 -16 7 2.21 0.27
4 -16 -7 1.9 0.29
-4 -16 7 2.46 0.34
-5 -16 -7 0.3 0.16
-5 -16 -7 0.23 0.19
-5 -16 7 0.29 0.17
-5 -16 7 0.25 0.23
5 -16 -7 0.67 0.24
-6 -16 -7 0.63 0.23
-6 -16 -7 0.74 0.22
6 16 -7 1.06 0.3
-6 -16 7 0.88 0.23
-6 -16 7 1.07 0.27
6 -16 -7 1.23 0.3
-7 -16 -7 0.69 0.24
7 16 -7 1.15 0.32
-7 -16 -7 0.95 0.24
-7 -16 7 0.88 0.26
-7 -16 7 0.74 0.25
7 -16 -7 0.2 0.23
-8 -16 -7 0.38 0.22
-8 -16 -7 -0.21 0.2
8 16 -7 0.02 0.26
-8 -16 7 0.05 0.21
8 -16 -7 0.08 0.2
-8 -16 7 0.11 0.27
9 16 -7 0.12 0.28
-9 -16 -7 0.48 0.27
9 -16 -7 0.12 0.23
-9 -16 7 -0.34 0.23
-9 -16 7 -0.45 0.21
-10 -16 -7 2.53 0.4
10 16 -7 2.37 0.43
-10 -16 7 2.11 0.41
10 -16 -7 2.55 0.44
-10 -16 7 2.43 0.44
0 -17 -7 2.8 0.34
0 -17 7 3.23 0.33
-1 -17 -7 2.22 0.31
1 -17 7 2.42 0.28
1 -17 -7 2.59 0.3
-1 -17 7 2.47 0.3
-2 -17 -7 0.22 0.19
2 -17 7 0.08 0.13
-2 -17 -7 0.4 0.15
2 -17 -7 0.48 0.21
-2 -17 7 0.11 0.18
-3 -17 -7 4.66 0.41
-3 -17 -7 5.1 0.35
3 -17 7 3.94 0.33
-3 -17 7 5.11 0.4
3 -17 -7 4.79 0.46
-4 -17 -7 0.19 0.15
-4 -17 -7 0.14 0.19
4 -17 7 0.11 0.13
-4 -17 7 0.24 0.22
4 -17 -7 0.33 0.21
-5 -17 -7 0.42 0.18
-5 -17 -7 0.21 0.17
-5 -17 7 0.24 0.24
5 -17 -7 0.35 0.24
-5 -17 7 0.13 0.17
-6 -17 -7 0.06 0.21
-6 -17 -7 0.42 0.21
-6 -17 7 -0.21 0.22
6 -17 -7 0.08 0.23
-6 -17 7 0.37 0.2
-7 -17 -7 3.07 0.38
-7 -17 -7 3.31 0.37
7 -17 -7 3.77 0.46
-7 -17 7 2.81 0.37
-7 -17 7 2.31 0.41
-8 -17 -7 0.83 0.26
-8 -17 -7 0.49 0.25
-8 -17 7 1.45 0.31
-8 -17 7 0.88 0.32
8 -17 -7 0.32 0.25
9 17 -7 0.49 0.31
-9 -17 -7 0.32 0.26
-9 -17 7 0.36 0.27
-9 -17 7 0.98 0.34
9 -17 -7 0.59 0.28
-10 -17 7 -0.37 0.24
10 -17 -7 0.42 0.29
0 -18 -7 -0.04 0.14
0 -18 7 0.36 0.18
1 -18 7 0.83 0.2
-1 -18 -7 0.58 0.19
-1 -18 7 0.45 0.21
1 -18 -7 1.13 0.25
-2 -18 -7 7.01 0.51
2 -18 7 6.29 0.43
2 -18 -7 7.03 0.52
-2 -18 7 7.52 0.51
-3 -18 -7 8.3 0.56
-3 -18 -7 8.06 0.48
3 -18 7 8.07 0.5
-3 -18 7 9.93 0.6
3 -18 -7 9.07 0.6
-4 -18 -7 2.05 0.32
-4 -18 -7 1.73 0.25
-4 -18 7 2.21 0.36
4 -18 -7 1.71 0.3
-5 -18 -7 0 0.16
-5 -18 -7 -0.06 0.21
-5 -18 7 -0.06 0.23
5 -18 -7 0.01 0.17
-6 -18 -7 0.99 0.28
-6 -18 -7 0.99 0.25
-6 -18 7 1.16 0.28
6 -18 -7 1.16 0.32
-6 -18 7 1.02 0.27
-7 -18 -7 0.28 0.21
-7 -18 -7 0.17 0.23
-7 -18 7 0.09 0.22
7 -18 -7 0.86 0.29
-7 -18 7 -0.47 0.14
-8 -18 -7 2.28 0.34
-8 -18 -7 1.46 0.31
8 -18 -7 1.46 0.37
-8 -18 7 1.65 0.39
-8 -18 7 1.49 0.32
-9 -18 -7 0.26 0.24
-9 -18 7 0.57 0.28
9 -18 -7 0.78 0.32
-9 -18 7 -0.18 0.25
0 -19 -7 0.74 0.26
0 -19 7 1.17 0.25
-1 -19 -7 2.36 0.34
1 -19 7 1.82 0.27
-1 -19 7 1.24 0.28
1 -19 -7 1.55 0.31
-2 -19 -7 0.25 0.23
2 -19 7 0.19 0.15
-2 -19 7 0.16 0.15
2 -19 -7 -0.02 0.21
3 -19 7 0.7 0.2
-3 -19 -7 0.98 0.27
-3 -19 7 0.75 0.26
3 -19 -7 1.02 0.28
-4 -19 -7 2.26 0.35
4 -19 -7 2.38 0.34
-4 -19 7 2.64 0.38
-5 -19 -7 1.09 0.3
-5 -19 -7 1.98 0.28
-5 -19 7 1.55 0.3
5 -19 -7 2.03 0.37
-6 -19 -7 -0.07 0.22
-6 -19 -7 -0.26 0.21
-6 -19 7 -0.03 0.25
6 -19 -7 0.18 0.26
-7 -19 -7 0.77 0.27
-7 -19 -7 0.48 0.23
-7 -19 7 0.47 0.31
7 -19 -7 1.07 0.32
-8 -19 -7 0.61 0.28
-8 -19 -7 0.67 0.27
-8 -19 7 0.75 0.28
8 -19 -7 0.6 0.29
-8 -19 7 0.31 0.31
-9 -19 -7 0.1 0.24
-9 -19 7 -0.41 0.22
9 -19 -7 0.54 0.29
0 -20 -7 0.19 0.18
0 -20 7 -0.43 0.15
1 -20 7 1.9 0.29
-1 -20 -7 2.37 0.36
1 -20 -7 2.41 0.33
-1 -20 7 2.55 0.35
2 -20 7 0.8 0.22
-2 -20 -7 0.64 0.26
-2 -20 7 0.5 0.24
2 -20 -7 0.91 0.25
3 -20 7 1.22 0.24
-3 -20 -7 1.09 0.3
3 -20 -7 1.29 0.31
-3 -20 7 1.6 0.29
-4 -20 -7 3.94 0.45
4 -20 -7 4.76 0.51
-4 -20 7 4.71 0.5
-5 -20 -7 1.14 0.3
-5 -20 7 1.16 0.34
5 -20 -7 1.21 0.33
-6 -20 -7 0.62 0.28
-6 -20 -7 0.74 0.24
6 -20 -7 0.74 0.31
-6 -20 7 0.83 0.32
-7 -20 -7 0.03 0.22
-7 -20 -7 0.78 0.29
7 -20 -7 0.28 0.28
-7 -20 7 0.35 0.3
-8 -20 -7 0.13 0.25
-8 -20 -7 0.06 0.22
8 -20 -7 0.22 0.26
0 -21 7 -0.2 0.18
0 -21 -7 -0.17 0.21
-1 -21 -7 0.29 0.26
1 -21 7 0.41 0.21
1 -21 -7 0.1 0.23
-1 -21 7 0.69 0.26
2 -21 7 1 0.25
-2 -21 -7 0.69 0.28
-2 -21 7 1.46 0.31
2 -21 -7 0.76 0.28
3 -21 7 -0.06 0.18
-3 -21 -7 -0.02 0.24
-3 -21 7 0.21 0.25
3 -21 -7 -0.04 0.24
-4 -21 -7 1.73 0.31
-4 -21 7 1.78 0.35
4 -21 -7 1.62 0.34
-5 -21 -7 4.04 0.47
5 -21 -7 4.39 0.52
-5 -21 7 4.08 0.5
-6 -21 -7 1.22 0.32
-6 -21 7 0.46 0.25
6 -21 -7 0.86 0.32
-7 -21 -7 -0.22 0.23
7 -21 -7 0.39 0.26
-7 -21 7 0.14 0.23
-8 -21 -7 0.3 0.26
0 -22 7 -0.14 0.18
0 -22 -7 -0.34 0.22
-1 -22 -7 1.37 0.29
1 -22 7 1.67 0.3
1 -22 -7 1.92 0.32
-1 -22 7 1.69 0.34
-2 -22 -7 0.78 0.25
2 -22 7 0.93 0.26
2 -22 -7 0.73 0.3
-2 -22 7 0.47 0.29
-3 -22 -7 1.72 0.35
3 -22 -7 1.73 0.36
-3 -22 7 1.36 0.35
-4 -22 -7 0.82 0.3
4 -22 -7 0.09 0.2
-4 -22 7 0.25 0.27
-5 -22 -7 0.25 0.26
5 -22 -7 0.09 0.27
-5 -22 7 0.15 0.28
-6 -22 -7 0.55 0.3
-6 -22 7 1 0.35
6 -22 -7 0.29 0.29
-7 -22 -7 0.02 0.26
0 -23 7 1.24 0.29
0 -23 -7 1.38 0.34
-1 -23 -7 0.68 0.25
1 -23 7 1.21 0.28
-1 -23 7 1.24 0.31
1 -23 -7 0.91 0.32
-2 -23 -7 5.79 0.58
2 -23 7 5.48 0.48
2 -23 -7 6.13 0.61
-2 -23 7 5.66 0.57
-3 -23 -7 0.81 0.32
-3 -23 7 0.83 0.33
3 -23 -7 0.75 0.31
-4 -23 -7 0.27 0.29
4 -23 -7 -0.01 0.27
-4 -23 7 0.25 0.23
-5 -23 -7 0.19 0.29
-5 -23 7 0.41 0.26
5 -23 -7 0.89 0.33
0 -24 -7 -0.01 0.19
0 -24 7 0.55 0.26
1 -24 7 0.44 0.25
-1 -24 -7 0.16 0.26
-1 -24 7 0.29 0.27
1 -24 -7 0.57 0.3
-2 -24 -7 3.68 0.49
2 -24 7 3.57 0.43
-2 -24 7 3.6 0.47
2 -24 -7 3.68 0.5
-3 -24 -7 0.13 0.28
-3 -24 7 0.3 0.31
3 -24 -7 0.43 0.29
0 -25 7 1.25 0.31
1 -25 7 0.58 0.31
-1 -25 7 1.06 0.32
0 0 -8 14.59 0.6
0 0 -8 15.4 0.62
-1 0 -8 118.91 4.38
-1 0 -8 114.25 4.33
1 0 -8 120.9 4.34
1 0 -8 119.07 4.42
2 0 -8 67.9 2.53
2 0 -8 65.74 2.59
-2 0 -8 68.8 2.51
-2 0 -8 68.14 2.51
-3 0 -8 10.63 0.4
-3 0 -8 10.4 0.46
3 0 -8 10.14 0.51
3 0 -8 10.32 0.48
4 0 -8 7.3 0.42
-4 0 -8 7.04 0.36
4 0 -8 8.13 0.39
-5 0 -8 5.55 0.32
5 0 -8 6.1 0.38
5 0 -8 5.61 0.35
-6 0 -8 16.63 0.73
6 0 -8 17.32 0.8
-6 0 8 16.15 0.77
-7 0 8 0.05 0.14
-7 0 -8 -0.05 0.09
7 0 -8 -0.07 0.15
8 0 -8 0.51 0.2
-8 0 8 0.58 0.19
-8 0 -8 0.69 0.17
-9 0 8 1.4 0.27
9 0 -8 1.9 0.29
-9 0 -8 1.74 0.25
-10 0 8 0.49 0.22
10 0 -8 0.35 0.21
-10 0 -8 0.51 0.19
-11 0 -8 0.43 0.21
11 0 -8 0.97 0.25
-11 0 8 1.07 0.28
-12 0 -8 2.01 0.31
12 0 -8 2.43 0.36
-12 0 8 2.29 0.37
13 0 -8 0.22 0.24
-13 0 8 0.48 0.25
-13 0 -8 0.12 0.24
0 1 -8 12.62 0.52
0 -1 -8 11.97 0.51
0 -1 -8 12.49 0.52
0 1 -8 12.16 0.51
-1 -1 -8 23.39 0.89
1 1 -8 23.35 0.93
1 1 -8 23.48 0.9
-1 -1 -8 22.87 0.89
1 -1 -8 22.98 0.93
-1 1 -8 22.04 0.89
-1 1 -8 23.02 0.89
1 -1 -8 21.93 0.9
-2 -1 -8 116.33 4.26
-2 -1 -8 118.84 4.24
2 1 -8 117.35 4.26
2 1 -8 113.26 4.33
2 -1 -8 110.14 4.33
2 -1 -8 117.95 4.25
-2 1 -8 113.29 4.23
-2 1 -8 115.86 4.25
-3 -1 -8 66.92 2.49
3 1 -8 67.94 2.54
-3 -1 -8 66.99 2.51
3 1 -8 68.34 2.6
3 -1 -8 68.08 2.6
3 -1 -8 68.13 2.53
-3 1 -8 65.26 2.5
-4 -1 -8 8.89 0.41
4 1 -8 7.79 0.43
4 1 -8 8.07 0.45
-4 -1 -8 9.25 0.34
4 -1 -8 8.64 0.43
-4 1 -8 8.74 0.4
4 -1 -8 8.58 0.46
-5 -1 -8 47.56 1.95
-5 -1 -8 56.79 1.91
5 1 -8 54.24 2.05
5 -1 -8 50.07 1.99
-5 -1 8 51.29 2.01
-5 1 -8 48.76 1.94
5 -1 -8 48.98 2.04
6 1 -8 2.01 0.25
-6 -1 -8 1.88 0.2
-6 1 8 2.11 0.24
-6 1 -8 1.54 0.18
6 -1 -8 1.94 0.25
-6 -1 8 1.55 0.23
-7 1 8 2.62 0.29
-7 -1 -8 2.78 0.26
7 1 -8 2.61 0.3
-7 1 -8 2.5 0.24
-7 -1 8 1.91 0.28
7 -1 -8 2.48 0.29
8 1 -8 7.82 0.49
-8 -1 -8 7.68 0.46
-8 1 8 8.16 0.5
-8 -1 8 7.75 0.51
8 -1 -8 7.63 0.5
-8 1 -8 7.87 0.44
9 1 -8 3.85 0.4
-9 -1 -8 3.98 0.36
-9 1 8 4.58 0.39
-9 1 -8 4.25 0.34
9 -1 -8 4.51 0.42
-9 -1 8 4.33 0.37
-10 -1 -8 2.53 0.31
-10 1 8 2.4 0.35
10 1 -8 2.16 0.32
10 -1 -8 2.35 0.33
-10 -1 8 2.31 0.34
-10 1 -8 2.55 0.29
-11 -1 -8 2.26 0.31
-11 1 8 2.83 0.37
11 1 -8 1.84 0.32
-11 -1 8 1.57 0.33
-11 1 -8 1.74 0.27
11 -1 -8 2.62 0.36
12 1 -8 1.21 0.29
-12 1 8 1.06 0.3
-12 -1 -8 1.09 0.27
-12 1 -8 1.14 0.25
-12 -1 8 1.33 0.33
12 -1 -8 1.2 0.29
-13 1 8 0.97 0.29
13 1 -8 0.82 0.3
-13 -1 -8 0.57 0.27
-13 -1 8 0.99 0.3
13 -1 -8 0.59 0.28
0 2 -8 20.09 0.8
0 -2 -8 20.63 0.81
0 2 -8 20 0.79
0 -2 -8 19.38 0.79
-1 -2 -8 1.78 0.13
1 2 -8 1.62 0.16
-1 -2 -8 1.51 0.13
1 2 -8 1.95 0.13
1 -2 -8 1.96 0.17
-1 2 -8 1.88 0.13
1 -2 -8 1.67 0.14
-1 2 -8 2.02 0.12
-2 -2 -8 8.78 0.37
2 2 -8 8.58 0.43
-2 -2 -8 9.11 0.4
2 2 -8 8.92 0.41
2 -2 -8 9.25 0.44
-2 2 -8 8.86 0.38
2 -2 -8 8.5 0.4
-2 2 -8 8.68 0.35
-3 -2 -8 30.11 1.11
3 2 -8 30.57 1.18
3 2 -8 30.77 1.21
-3 -2 -8 28.43 1.15
3 -2 -8 28.37 1.15
3 -2 -8 28.65 1.2
-3 2 -8 28.55 1.13
-4 -2 -8 3.59 0.24
-4 -2 -8 4.09 0.18
4 2 -8 3.56 0.28
4 2 -8 3.62 0.26
-4 2 -8 3.71 0.22
4 -2 -8 3.33 0.24
4 -2 -8 3.79 0.27
-5 -2 -8 5.62 0.32
5 2 -8 4.7 0.34
-5 -2 -8 5.99 0.25
5 -2 -8 5.37 0.33
-5 2 -8 4.82 0.28
5 -2 -8 4.52 0.35
-5 -2 8 4.98 0.33
6 2 -8 5.84 0.38
-6 2 8 5.87 0.37
-6 -2 -8 5.94 0.36
-6 2 -8 5.48 0.32
6 -2 -8 5.54 0.4
-6 -2 8 6.47 0.41
-7 -2 -8 29.5 1.22
7 2 -8 29.27 1.28
-7 2 8 28.59 1.24
-7 -2 8 30.04 1.28
-7 2 -8 30.35 1.19
7 -2 -8 27.84 1.26
8 2 -8 15.28 0.78
-8 2 8 14.47 0.75
-8 -2 -8 15.17 0.73
-8 2 -8 15.14 0.69
-8 -2 8 15.01 0.78
8 -2 -8 14.32 0.76
-9 -2 -8 1.79 0.26
-9 2 8 1.51 0.27
9 2 -8 1.9 0.27
9 -2 -8 1.99 0.29
-9 2 -8 1.6 0.22
-9 -2 8 1.7 0.29
10 2 -8 0.15 0.2
-10 2 8 0.09 0.19
-10 -2 -8 0.45 0.21
-10 -2 8 0.04 0.15
-10 2 -8 -0.21 0.13
10 -2 -8 0.12 0.17
11 2 -8 0.14 0.21
-11 2 8 -0.03 0.19
-11 -2 -8 0.47 0.22
11 -2 -8 0.38 0.21
-11 -2 8 0.38 0.19
-11 2 -8 -0.02 0.16
-12 2 8 2.8 0.4
12 2 -8 2.96 0.4
-12 -2 -8 3.38 0.39
12 -2 -8 3.02 0.41
-12 -2 8 2.46 0.41
-13 -2 -8 0.5 0.28
-13 2 8 0.47 0.27
13 2 -8 0.31 0.27
13 -2 -8 0.51 0.27
-13 -2 8 0.12 0.27
0 3 -8 22.98 0.91
0 -3 -8 23.38 0.94
0 3 -8 23.36 0.93
0 -3 -8 24.01 0.92
-1 -3 -8 12.68 0.55
1 3 -8 13.41 0.55
1 3 -8 13.3 0.57
-1 -3 -8 13.76 0.55
1 -3 -8 13.52 0.58
-1 3 -8 12.69 0.53
1 -3 -8 12.93 0.55
-1 3 -8 13.04 0.53
2 3 -8 23.34 0.96
-2 -3 -8 23.67 0.93
-2 -3 -8 24.08 0.94
2 -3 8 23.92 0.9
2 3 -8 23.64 0.98
2 -3 -8 24.37 0.94
-2 3 -8 23.38 0.92
-2 3 -8 24.53 0.9
2 -3 -8 23.67 0.99
3 3 -8 31.56 1.27
-3 -3 -8 31.46 1.22
-3 -3 -8 33.1 1.19
3 3 -8 30.86 1.24
3 -3 -8 29.83 1.22
-3 3 -8 30.46 1.19
3 -3 -8 30.24 1.27
-4 -3 -8 28.26 1.03
4 3 -8 26.18 1.12
-4 -3 -8 25.81 1.06
4 3 -8 26.22 1.1
4 -3 -8 25.25 1.12
-4 3 -8 26.57 1.04
4 -3 -8 27.04 1.07
-5 -3 -8 3.06 0.25
5 3 -8 3.06 0.27
-5 -3 -8 3.8 0.2
5 -3 -8 3.66 0.28
-5 3 -8 3.5 0.22
5 -3 -8 3.57 0.26
-5 -3 8 3.42 0.27
-6 -3 -8 2.46 0.25
6 3 -8 2.35 0.29
-6 3 8 2.34 0.25
-6 -3 -8 3.3 0.19
-6 3 -8 2.25 0.21
-6 -3 8 2.11 0.27
6 -3 -8 2.33 0.28
-7 -3 -8 14.09 0.66
-7 3 8 13.56 0.68
7 3 -8 13.8 0.7
7 -3 -8 13.31 0.71
-7 -3 8 13.73 0.72
-7 3 -8 13.81 0.62
-8 -3 -8 2.21 0.27
-8 3 8 1.45 0.24
8 3 -8 2.01 0.27
-8 -3 8 2.26 0.31
-8 3 -8 1.68 0.21
8 -3 -8 1.73 0.27
-9 -3 -8 0.34 0.19
9 3 -8 0.2 0.19
-9 3 8 0.53 0.2
-9 3 -8 0.22 0.14
-9 -3 8 0.29 0.2
9 -3 -8 0.13 0.18
-10 -3 -8 1.29 0.24
10 3 -8 1.19 0.28
-10 3 8 0.94 0.26
-10 -3 8 1.24 0.3
-10 3 -8 0.74 0.19
10 -3 -8 1.6 0.29
-11 3 8 4.19 0.45
-11 -3 -8 3.77 0.41
11 3 -8 4.17 0.46
11 -3 -8 4.36 0.45
-11 -3 8 4.93 0.51
-12 -3 -8 0.69 0.27
-12 3 8 0.7 0.29
12 3 -8 0.74 0.26
12 -3 -8 0.66 0.26
-12 -3 8 1.07 0.32
-13 -3 -8 0.37 0.25
13 3 -8 0.93 0.3
-13 -3 8 0.25 0.27
0 -4 -8 1.82 0.14
0 4 -8 2.11 0.14
0 4 -8 2.01 0.16
0 -4 -8 2 0.16
1 4 -8 26.21 1.01
-1 -4 -8 24.59 1.01
1 4 -8 25.15 1.03
-1 -4 -8 26.09 1
1 -4 -8 25.05 1.04
-1 4 -8 25.69 0.99
1 -4 -8 26.95 1
-1 4 -8 25.38 0.98
-2 -4 -8 10.85 0.47
-2 -4 -8 11.67 0.49
2 -4 8 11.2 0.44
2 4 -8 10.84 0.52
2 4 -8 11.47 0.5
-2 4 -8 11.18 0.46
2 -4 -8 10.9 0.48
-2 4 -8 11.13 0.44
2 -4 -8 10.14 0.52
3 4 -8 26.81 1.09
-3 -4 -8 26.13 1.07
3 4 -8 26.79 1.12
-3 -4 -8 27.17 1.05
3 -4 8 28.55 1
3 -4 -8 25.89 1.06
3 -4 -8 26.2 1.12
-3 4 -8 27.35 1.04
4 4 -8 5.13 0.33
-4 -4 -8 5.94 0.27
-4 -4 -8 5.2 0.29
-4 -4 8 5.07 0.32
4 -4 -8 5.07 0.3
-4 4 -8 5.37 0.27
4 -4 -8 4.42 0.33
-5 -4 -8 5.48 0.3
5 4 -8 4.46 0.34
-5 -4 -8 4.73 0.25
-5 -4 8 3.77 0.3
5 -4 -8 4.07 0.28
-5 4 -8 4.11 0.25
5 -4 -8 4.12 0.33
-6 -4 -8 5.63 0.28
-6 4 8 5.08 0.34
6 4 -8 5.08 0.38
-6 -4 -8 4.59 0.33
6 -4 -8 4.64 0.37
-6 4 -8 5.04 0.28
-6 -4 8 4.85 0.37
-7 -4 -8 8.55 0.49
-7 4 8 8.03 0.48
7 4 -8 8.46 0.51
-7 -4 8 8.03 0.5
-7 4 -8 8.75 0.42
7 -4 -8 8.35 0.5
-8 -4 -8 0.43 0.15
-8 4 8 0.63 0.18
8 4 -8 0.35 0.2
-8 4 -8 0.4 0.13
-8 -4 8 0.38 0.2
8 -4 -8 0.36 0.19
-9 -4 -8 2.89 0.33
-9 4 8 3.01 0.35
9 4 -8 2.54 0.34
-9 -4 8 2.66 0.36
-9 4 -8 2.53 0.25
9 -4 -8 2.54 0.33
-10 4 8 4.95 0.46
-10 -4 -8 5.24 0.44
10 4 -8 4.11 0.44
10 -4 -8 4.26 0.44
-10 4 -8 4.11 0.36
-10 -4 8 6.3 0.56
-11 -4 -8 3.73 0.41
11 4 -8 3.46 0.41
-11 4 8 3.66 0.41
-11 -4 8 3.12 0.44
11 -4 -8 4.1 0.44
12 4 -8 1.46 0.32
-12 -4 -8 1.58 0.33
-12 -4 8 1.05 0.33
12 -4 -8 1.96 0.35
13 4 -8 0.44 0.26
-13 -4 -8 0.36 0.27
-13 -4 8 0.61 0.3
0 5 -8 2.55 0.17
0 -5 -8 2.78 0.19
0 -5 -8 2.22 0.16
0 5 -8 2.41 0.16
-1 -5 -8 16.85 0.71
1 -5 8 17.42 0.69
-1 -5 -8 17.11 0.7
1 5 -8 17.03 0.72
1 5 -8 17.86 0.7
1 -5 -8 16.45 0.73
1 -5 -8 16.69 0.69
-1 5 -8 17.86 0.69
-1 5 -8 16.8 0.67
2 5 -8 17.17 0.73
2 5 -8 17.08 0.71
2 -5 8 17.11 0.66
-2 -5 -8 16.66 0.69
-2 -5 -8 16.63 0.69
2 -5 -8 17.54 0.69
2 -5 -8 15.49 0.73
-2 5 -8 16.97 0.66
3 -5 8 12.53 0.47
3 5 -8 12.45 0.58
-3 -5 -8 11.71 0.54
-3 -5 -8 12.68 0.52
3 5 -8 11.11 0.55
3 -5 -8 12.22 0.53
3 -5 -8 11.27 0.57
-3 5 -8 12.34 0.5
-4 -5 -8 18.7 0.73
-4 -5 -8 16.4 0.75
4 -5 8 18.27 0.67
4 5 -8 16.91 0.8
4 -5 -8 17.14 0.75
4 -5 -8 17.04 0.8
-4 -5 8 18.16 0.8
-4 5 -8 18.96 0.72
-5 -5 -8 1.5 0.2
-5 -5 -8 1.99 0.17
5 5 -8 1.85 0.23
-5 -5 8 1.88 0.22
-5 5 -8 1.8 0.15
5 -5 -8 1.55 0.18
5 -5 -8 1.97 0.23
-6 -5 -8 0.51 0.16
6 5 -8 0.66 0.2
-6 -5 -8 0.77 0.13
-6 5 8 0.45 0.15
6 -5 -8 0.5 0.15
-6 -5 8 0.55 0.16
-6 5 -8 0.56 0.11
7 5 -8 4.23 0.39
-7 5 8 4.04 0.33
-7 -5 -8 3.92 0.34
7 -5 -8 4.54 0.37
-7 -5 8 3.89 0.39
-8 -5 -8 0.36 0.19
8 5 -8 0.65 0.19
-8 5 8 0.17 0.15
-8 5 -8 0.15 0.12
8 -5 -8 0.37 0.19
-8 -5 8 0.14 0.18
-9 -5 -8 4.27 0.41
-9 5 8 4.4 0.41
9 5 -8 4.71 0.45
-9 -5 8 4.49 0.46
9 -5 -8 4.27 0.43
-9 5 -8 4.39 0.3
-10 5 8 5.54 0.44
-10 -5 -8 6 0.48
10 5 -8 5.58 0.49
-10 -5 8 5.66 0.55
10 -5 -8 5.19 0.46
-11 5 8 0.13 0.22
11 5 -8 0.29 0.22
-11 -5 -8 0.54 0.26
-11 -5 8 0.06 0.18
11 -5 -8 0.48 0.22
12 5 -8 0.97 0.29
-12 -5 -8 1.46 0.32
-12 -5 8 1.08 0.34
12 -5 -8 1.52 0.32
-13 -5 -8 0.54 0.29
13 5 -8 0.82 0.3
0 -6 8 28.27 1.1
0 6 -8 27.8 1.07
0 6 -8 28.43 1.1
0 -6 -8 27.21 1.11
0 -6 -8 26.57 1.07
1 6 -8 14.82 0.64
1 -6 8 14.89 0.61
-1 -6 -8 14.33 0.63
1 6 -8 15.1 0.62
-1 -6 -8 15.27 0.62
-1 6 -8 13.9 0.59
1 -6 -8 14.89 0.66
-1 6 -8 15.06 0.61
1 -6 -8 15.25 0.61
-2 -6 -8 70.61 2.62
2 6 -8 69.86 2.68
2 6 -8 67.93 2.63
2 -6 8 70.48 2.61
-2 -6 -8 72 2.65
2 -6 -8 68.63 2.6
2 -6 -8 70.26 2.69
-2 6 -8 69.12 2.57
-3 -6 -8 6.15 0.31
3 6 -8 5.9 0.36
3 6 -8 5.19 0.33
3 -6 8 5.85 0.26
-3 -6 -8 6.04 0.32
-3 -6 8 5.03 0.32
3 -6 -8 5.99 0.35
3 -6 -8 6.02 0.3
-3 6 -8 5.78 0.27
-4 -6 -8 19.21 0.77
-4 -6 -8 17.67 0.79
4 -6 8 19.14 0.71
4 6 -8 17.69 0.83
-4 6 -8 19.02 0.73
4 -6 -8 18.33 0.77
-4 -6 8 18.84 0.82
4 -6 -8 16.6 0.82
-5 -6 -8 1.46 0.16
-5 -6 -8 0.93 0.18
5 6 -8 1.03 0.21
-5 6 -8 1.17 0.12
5 -6 -8 1.46 0.18
-5 -6 8 1.32 0.21
5 -6 -8 1.04 0.2
6 6 -8 9.67 0.59
-6 6 8 10.26 0.53
-6 -6 -8 10.31 0.55
-6 -6 -8 11.62 0.5
-6 -6 8 10.34 0.59
-6 6 -8 10.35 0.46
6 -6 -8 11.18 0.6
-7 6 8 8.12 0.47
7 6 -8 8.27 0.54
-7 -6 -8 8.69 0.5
-7 6 -8 8.61 0.4
-7 -6 8 8.22 0.52
7 -6 -8 8.68 0.53
-8 6 8 3.46 0.33
-8 -6 -8 3.51 0.35
8 6 -8 3.24 0.37
-8 -6 8 3.65 0.38
8 -6 -8 3.03 0.36
9 6 -8 -0.08 0.19
-9 6 8 0.07 0.15
-9 -6 -8 0.2 0.21
9 -6 -8 0.14 0.19
-9 -6 8 0.3 0.22
-10 6 8 2.76 0.34
-10 -6 -8 3.38 0.4
10 6 -8 2.83 0.4
10 -6 -8 3.66 0.41
-10 -6 8 3.84 0.45
11 6 -8 2.31 0.36
-11 -6 -8 2.06 0.35
11 -6 -8 1.88 0.33
-11 -6 8 1.81 0.37
-12 -6 -8 0.49 0.28
12 6 -8 -0.01 0.23
-12 -6 8 0.82 0.32
12 -6 -8 0.7 0.27
13 6 -8 -0.16 0.23
0 -7 -8 51.17 1.99
0 7 -8 53.23 2.03
0 -7 8 54.58 2.03
0 -7 -8 52.83 2.05
0 7 -8 53.23 1.98
1 7 -8 11.5 0.52
-1 -7 -8 11.82 0.54
-1 -7 -8 12.4 0.52
1 -7 8 11.94 0.51
1 7 -8 11.71 0.54
-1 7 -8 12.19 0.51
-1 -7 8 12.24 0.54
1 -7 -8 12.23 0.51
-1 7 -8 11.7 0.49
1 -7 -8 11.35 0.55
2 -7 8 2.54 0.16
-2 -7 -8 2.31 0.19
2 7 -8 2.3 0.19
2 7 -8 2.29 0.22
-2 -7 -8 2.52 0.19
-2 7 -8 2.49 0.15
2 -7 -8 2.69 0.17
2 -7 -8 2.18 0.23
3 7 -8 10.17 0.53
-3 -7 -8 10.85 0.49
-3 -7 -8 10.4 0.49
3 -7 8 10.15 0.44
-3 7 -8 10.44 0.43
3 -7 -8 10.81 0.54
3 -7 -8 10.87 0.47
-3 -7 8 10.08 0.51
-4 -7 -8 6.44 0.36
-4 -7 -8 6.64 0.33
4 -7 8 6.51 0.28
4 7 -8 5.66 0.39
-4 7 -8 5.91 0.28
4 -7 -8 5.15 0.38
-4 -7 8 5.44 0.37
4 -7 -8 5.58 0.32
-5 -7 -8 15.45 0.74
5 7 -8 17.58 0.81
-5 -7 -8 17.96 0.72
-5 -7 8 15.99 0.79
-5 7 -8 16.72 0.67
5 -7 -8 16.18 0.71
5 -7 -8 15.83 0.79
-6 7 8 3.15 0.28
-6 -7 -8 2.79 0.29
-6 -7 -8 3.15 0.25
6 7 -8 3.07 0.34
-6 -7 8 3.33 0.34
-6 7 -8 3.45 0.21
6 -7 -8 2.94 0.32
7 7 -8 10.39 0.62
-7 -7 -8 9.96 0.56
-7 7 8 10.39 0.54
7 -7 -8 10.81 0.61
-7 -7 8 11.16 0.64
8 7 -8 1.63 0.29
-8 7 8 1.44 0.23
-8 -7 -8 1.63 0.24
-8 -7 8 1.44 0.29
8 -7 -8 1.67 0.29
-9 7 8 1.3 0.23
9 7 -8 1.52 0.29
-9 -7 -8 1.49 0.28
-9 -7 8 1.32 0.27
9 -7 -8 1.6 0.29
-10 -7 -8 1.39 0.27
10 7 -8 1.46 0.31
-10 -7 8 2.18 0.37
10 -7 -8 0.97 0.26
11 7 -8 0.49 0.24
-11 -7 -8 0.8 0.29
-11 -7 8 0.31 0.27
11 -7 -8 0.82 0.26
12 7 -8 0.39 0.25
-12 -7 -8 0.08 0.26
-12 -7 8 0.58 0.26
12 -7 -8 0.44 0.26
13 7 -8 0.95 0.32
-13 -7 8 1.74 0.37
0 8 -8 5 0.25
0 -8 -8 5.04 0.26
0 -8 -8 4.69 0.3
0 8 -8 4.93 0.29
0 -8 8 5.25 0.29
1 8 -8 2.63 0.21
1 -8 8 2.97 0.19
-1 -8 -8 2.83 0.18
1 8 -8 2.58 0.19
-1 -8 -8 3.05 0.22
1 -8 -8 2.94 0.18
-1 -8 8 2.71 0.2
-1 8 -8 2.68 0.17
1 -8 -8 3.28 0.23
-2 -8 -8 1.98 0.19
2 -8 8 2.11 0.16
-2 -8 -8 2.69 0.2
2 8 -8 2.36 0.23
-2 -8 8 2.6 0.21
-2 8 -8 2.24 0.14
-2 -8 8 2.22 0.22
2 -8 -8 2.41 0.17
2 -8 -8 1.9 0.22
-3 -8 -8 0.41 0.12
3 8 -8 0.46 0.13
3 -8 8 0.34 0.08
-3 -8 -8 0.4 0.12
3 -8 -8 0.35 0.14
3 -8 -8 0.43 0.09
-3 -8 8 0.35 0.13
-3 8 -8 0.55 0.08
-4 -8 -8 4.97 0.29
4 -8 8 5.11 0.24
4 8 -8 4.96 0.34
-4 -8 -8 4.35 0.3
4 -8 -8 4.5 0.34
4 -8 -8 3.91 0.25
-4 -8 8 4.99 0.34
-4 8 -8 4.58 0.23
5 8 -8 3.05 0.32
-5 -8 -8 2.26 0.24
-5 -8 -8 2.86 0.24
5 -8 -8 1.92 0.27
5 -8 -8 2.64 0.22
-5 8 -8 2.86 0.17
-5 -8 8 2.89 0.3
-6 -8 -8 2.18 0.23
-6 -8 -8 1.9 0.24
-6 8 8 1.91 0.22
6 8 -8 2.05 0.29
6 -8 -8 2.28 0.28
-6 -8 8 2.03 0.28
-7 8 8 1.53 0.22
-7 -8 -8 1.88 0.26
7 8 -8 2.31 0.31
-7 -8 -8 2 0.22
-7 -8 8 1.2 0.26
7 -8 -8 1.45 0.26
-8 8 8 1.08 0.21
8 8 -8 0.92 0.26
-8 -8 -8 1.26 0.25
8 -8 -8 1.25 0.26
-8 -8 8 1.4 0.26
-9 -8 -8 2.7 0.33
9 8 -8 2.53 0.36
9 -8 -8 2.6 0.36
-9 -8 8 2.64 0.39
10 8 -8 1.29 0.27
-10 -8 -8 1.8 0.34
10 -8 -8 2.15 0.35
-10 -8 8 1.27 0.33
-11 -8 -8 0.26 0.26
11 8 -8 0.42 0.26
-11 -8 8 0.87 0.31
11 -8 -8 0.9 0.28
12 8 -8 1.02 0.31
-12 -8 -8 0.43 0.29
-12 -8 8 0.9 0.3
12 -8 -8 1.46 0.33
-12 -8 8 1.3 0.35
0 -9 -8 0.36 0.08
0 9 -8 0.29 0.1
0 9 -8 0.39 0.08
0 -9 -8 0.56 0.13
0 -9 8 0.38 0.1
1 9 -8 24.92 1.04
-1 -9 -8 26.2 1.08
1 -9 8 26.08 1.05
1 9 -8 25.13 1.08
-1 -9 -8 27.25 1.04
-1 9 -8 26.84 1.01
1 -9 -8 26.64 1.03
1 -9 -8 27.35 1.11
-1 -9 8 25.59 1.08
-2 -9 -8 7.49 0.37
2 9 -8 7.52 0.41
2 -9 8 6.72 0.35
-2 -9 -8 7.27 0.39
-2 -9 8 7.46 0.39
2 -9 -8 7.13 0.34
-2 -9 8 7.29 0.41
-2 9 -8 7.36 0.32
2 -9 -8 7 0.4
-3 -9 -8 1.33 0.17
-3 -9 -8 1.22 0.17
3 -9 8 1.32 0.13
3 9 -8 1.13 0.19
-3 9 -8 1.19 0.1
3 -9 -8 0.93 0.12
-3 -9 8 1 0.17
-3 -9 8 1.06 0.17
3 -9 -8 1.16 0.2
-4 -9 -8 0.89 0.16
-4 -9 -8 0.87 0.16
4 9 -8 0.92 0.18
4 -9 8 0.75 0.11
-4 -9 8 0.86 0.16
-4 9 -8 1.03 0.1
-4 -9 8 0.69 0.19
4 -9 -8 0.99 0.14
4 -9 -8 0.68 0.19
-5 -9 -8 2.83 0.27
-5 -9 -8 2.4 0.23
5 9 -8 2.39 0.3
5 -9 -8 2.5 0.22
5 -9 -8 2.21 0.27
-5 -9 8 1.6 0.23
-6 9 8 0.14 0.12
-6 -9 -8 0.28 0.13
-6 -9 -8 0.15 0.15
6 9 -8 0 0.17
-6 -9 8 0.29 0.18
6 -9 -8 0.26 0.17
7 9 -8 11.55 0.69
-7 9 8 12.81 0.61
-7 -9 -8 12.65 0.6
-7 -9 -8 12.03 0.65
7 -9 -8 11.84 0.68
-7 -9 8 11.85 0.68
8 9 -8 2.8 0.35
-8 -9 -8 3.9 0.38
8 -9 -8 3.2 0.37
-8 -9 8 3.1 0.4
-9 -9 -8 0.99 0.27
9 9 -8 0.92 0.27
-9 -9 8 1.07 0.31
9 -9 -8 0.55 0.24
-10 -9 -8 1.98 0.35
10 9 -8 2.41 0.37
10 -9 -8 1.29 0.3
-10 -9 8 1.66 0.36
-10 -9 8 2.14 0.37
-11 -9 -8 0.76 0.25
11 9 -8 1.06 0.31
-11 -9 8 0.55 0.29
11 -9 -8 0.69 0.28
-11 -9 8 0.69 0.28
-12 -9 -8 -0.08 0.26
12 9 -8 0.19 0.25
-12 -9 8 -0.15 0.24
-12 -9 8 0.16 0.27
12 -9 -8 0.33 0.28
0 -10 -8 -0.09 0.07
0 -10 -8 0.1 0.08
0 -10 8 0.12 0.09
0 10 -8 -0.06 0.07
1 10 -8 5.52 0.34
-1 -10 -8 5.95 0.35
1 -10 8 5.69 0.32
-1 -10 -8 6.31 0.31
-1 -10 8 5.8 0.32
-1 -10 8 5.8 0.34
1 -10 -8 5.69 0.29
-1 10 -8 5.84 0.28
1 -10 -8 5.61 0.35
-2 -10 -8 8.49 0.41
2 -10 8 8.4 0.4
-2 -10 -8 8.26 0.44
2 10 -8 7.26 0.44
2 -10 -8 8.36 0.46
2 -10 -8 7.68 0.38
-2 -10 8 8.26 0.46
-2 10 -8 8.89 0.36
-2 -10 8 8.77 0.43
-3 -10 -8 1.35 0.18
3 10 -8 1.36 0.22
3 -10 8 1.44 0.15
-3 -10 -8 1 0.18
-3 -10 8 1.3 0.2
3 -10 -8 1.18 0.19
3 -10 -8 1.3 0.14
-3 -10 8 1.09 0.18
-4 -10 -8 0.86 0.18
4 -10 8 1.02 0.13
-4 -10 -8 1.25 0.18
4 10 -8 1.01 0.22
4 -10 -8 1.25 0.21
-4 -10 8 1.1 0.2
4 -10 -8 1.09 0.14
-4 -10 8 1.06 0.22
-5 -10 -8 4.33 0.31
-5 -10 -8 4.25 0.32
5 10 -8 4.24 0.35
-5 -10 8 4.69 0.36
-5 -10 8 5.1 0.38
5 -10 -8 4.92 0.39
5 -10 -8 4.49 0.28
6 10 -8 1.38 0.26
-6 -10 -8 1.21 0.22
-6 -10 -8 1.54 0.22
6 -10 -8 1.34 0.26
-6 -10 8 1.4 0.24
-6 -10 8 1.16 0.25
7 10 -8 2.93 0.36
-7 -10 -8 3.15 0.33
-7 -10 -8 2.89 0.28
-7 -10 8 3.14 0.37
-7 -10 8 3.17 0.36
7 -10 -8 3.12 0.36
8 10 -8 5.09 0.42
-8 -10 -8 4.28 0.41
8 -10 -8 3.89 0.43
-8 -10 8 4.48 0.45
-8 -10 8 4.23 0.46
9 10 -8 1.49 0.31
-9 -10 -8 0.75 0.23
-9 -10 8 1.31 0.28
-9 -10 8 0.41 0.25
9 -10 -8 1 0.28
-10 -10 -8 1.2 0.26
10 10 -8 0.54 0.27
-10 -10 8 0.81 0.27
10 -10 -8 1.2 0.31
-10 -10 8 1.07 0.31
11 10 -8 0.86 0.31
-11 -10 -8 0.29 0.27
-11 -10 8 0.75 0.31
-11 -10 8 0.67 0.27
11 -10 -8 1.91 0.35
12 10 -8 0.97 0.32
-12 -10 8 0.98 0.28
0 -11 -8 0.77 0.12
0 -11 8 1.04 0.16
0 -11 8 1.06 0.13
0 -11 -8 0.81 0.15
1 11 -8 3.9 0.28
-1 -11 -8 3.55 0.23
-1 -11 -8 3.27 0.28
1 -11 8 3.57 0.25
-1 -11 8 3.66 0.25
-1 -11 8 3.46 0.27
-1 11 -8 3.7 0.21
1 -11 -8 3.89 0.22
1 -11 -8 4.1 0.31
2 -11 8 5.84 0.32
-2 -11 -8 6.13 0.34
-2 -11 -8 5.62 0.36
2 11 -8 5.71 0.38
2 -11 -8 5.37 0.38
-2 -11 8 5.58 0.34
2 -11 -8 5.58 0.3
-2 -11 8 6.48 0.39
3 11 -8 12.99 0.67
3 -11 8 13.26 0.6
-3 -11 -8 13.47 0.65
-3 -11 -8 13.84 0.63
3 -11 -8 14.36 0.59
3 -11 -8 13.18 0.69
-3 -11 8 14.59 0.7
-3 -11 8 14.55 0.66
-4 -11 -8 8.86 0.48
4 -11 8 10.24 0.46
4 11 -8 10.38 0.57
-4 -11 -8 9.92 0.51
-4 -11 8 9.57 0.57
-4 -11 8 9.4 0.53
4 -11 -8 9.58 0.57
4 -11 -8 9.77 0.45
5 11 -8 23.57 1.09
-5 -11 -8 23.55 1.02
-5 -11 -8 24.29 1.02
-5 -11 8 23.25 1.06
-5 -11 8 23.5 1.09
5 -11 -8 23.03 1.09
5 -11 -8 23.38 0.96
6 11 -8 5.17 0.44
-6 -11 -8 5.12 0.39
-6 -11 -8 5.21 0.38
-6 -11 8 5.91 0.45
-6 -11 8 5.47 0.43
6 -11 -8 5.19 0.43
-7 -11 -8 2.21 0.28
7 11 -8 2.54 0.32
-7 -11 -8 2.28 0.3
-7 -11 8 2.64 0.35
7 -11 -8 2.1 0.32
-7 -11 8 1.79 0.32
8 11 -8 1.16 0.25
-8 -11 -8 1.17 0.23
-8 -11 8 0.53 0.26
-8 -11 8 1.22 0.3
8 -11 -8 1.28 0.29
9 11 -8 2.63 0.38
-9 -11 -8 2.61 0.37
9 -11 -8 2.33 0.35
-9 -11 8 2.33 0.4
-9 -11 8 2.55 0.39
-10 -11 -8 0.21 0.25
10 11 -8 -0.3 0.21
10 -11 -8 0.2 0.21
-10 -11 8 0.12 0.23
-10 -11 8 -0.03 0.25
-11 -11 -8 0.63 0.24
11 11 -8 0.89 0.3
-11 -11 8 0.65 0.24
-11 -11 8 0.49 0.31
11 -11 -8 0.87 0.32
12 11 -8 0.42 0.29
-12 -11 8 -0.03 0.26
0 -12 8 3.65 0.28
0 -12 -8 3.74 0.31
0 -12 -8 3.71 0.23
0 -12 8 3.96 0.24
-1 -12 -8 4.32 0.33
-1 -12 -8 3.77 0.25
1 -12 8 4.01 0.27
1 -12 -8 4.19 0.33
-1 -12 8 4.57 0.32
-1 -12 8 4.49 0.28
1 -12 -8 4.35 0.25
-2 -12 -8 4.47 0.28
-2 -12 -8 3.55 0.31
2 12 -8 3.83 0.3
2 -12 8 4.31 0.29
2 -12 -8 4.24 0.25
-2 -12 8 4.75 0.34
2 -12 -8 4.04 0.34
-2 -12 8 4.15 0.3
-3 -12 -8 0.73 0.16
-3 -12 -8 0.82 0.17
3 -12 8 0.67 0.14
3 12 -8 1 0.21
3 -12 -8 0.78 0.12
-3 -12 8 0.72 0.16
-3 -12 8 0.57 0.19
3 -12 -8 0.76 0.18
-4 -12 -8 6.05 0.39
4 12 -8 5.67 0.43
-4 -12 -8 6.21 0.38
4 -12 8 5.69 0.33
-4 -12 8 6.12 0.4
4 -12 -8 5.96 0.44
-4 -12 8 5.55 0.43
-5 -12 -8 2.91 0.29
5 12 -8 3.53 0.36
-5 -12 -8 3.42 0.32
-5 -12 8 3.34 0.34
-5 -12 8 3.5 0.37
5 -12 -8 3.07 0.34
-6 -12 -8 3.6 0.33
6 12 -8 3.69 0.39
-6 -12 -8 3.39 0.33
6 -12 -8 3.64 0.4
-6 -12 8 3.5 0.39
-6 -12 8 3.11 0.36
7 12 -8 3.23 0.38
-7 -12 -8 3.35 0.34
-7 -12 -8 3.25 0.36
-7 -12 8 2.97 0.38
-7 -12 8 3.26 0.4
7 -12 -8 3.45 0.4
8 12 -8 0.21 0.24
-8 -12 -8 0.05 0.21
8 -12 -8 0 0.21
-8 -12 8 -0.09 0.22
-8 -12 8 0.02 0.23
-9 -12 -8 0.87 0.28
9 12 -8 0.96 0.25
-9 -12 8 0.46 0.27
-9 -12 8 0.72 0.29
9 -12 -8 1.42 0.32
10 12 -8 2.1 0.38
-10 -12 -8 2.35 0.38
-10 -12 8 1.85 0.37
10 -12 -8 2.19 0.39
-10 -12 8 2.13 0.39
11 12 -8 1.81 0.37
-11 -12 -8 2.66 0.41
11 -12 -8 1.8 0.37
-11 -12 8 1.66 0.37
-11 -12 8 1.83 0.41
0 -13 -8 0.13 0.09
0 -13 8 0.16 0.1
0 -13 8 0.12 0.12
0 -13 -8 0.07 0.11
-1 -13 -8 0.54 0.15
1 -13 8 0.49 0.14
-1 -13 -8 0.61 0.13
-1 -13 8 0.65 0.17
1 -13 -8 0.51 0.16
-1 -13 8 0.74 0.14
1 -13 -8 0.65 0.11
2 13 -8 32.9 1.43
2 -13 8 33.59 1.38
-2 -13 -8 33.33 1.43
-2 -13 -8 36.1 1.37
-2 -13 8 34.4 1.38
2 -13 -8 35.93 1.33
-2 -13 8 33.43 1.43
2 -13 -8 34.37 1.46
3 -13 8 12.7 0.59
-3 -13 -8 14.82 0.62
3 13 -8 13.42 0.68
-3 -13 -8 11.53 0.63
-3 -13 8 11.99 0.61
-3 -13 8 12.77 0.67
3 -13 -8 12.16 0.67
4 -13 8 10.62 0.52
-4 -13 -8 10.62 0.55
-4 -13 -8 10.99 0.57
4 13 -8 9.87 0.58
4 -13 -8 11.28 0.63
-4 -13 8 9.27 0.55
-4 -13 8 12.73 0.64
-5 -13 -8 1.42 0.23
-5 -13 -8 0.99 0.2
5 13 -8 1.27 0.23
-5 -13 8 1.08 0.23
5 -13 -8 1.42 0.27
-5 -13 8 0.74 0.23
-6 -13 -8 6.02 0.42
6 13 -8 5.36 0.48
-6 -13 -8 6.16 0.4
6 -13 -8 6.37 0.46
-6 -13 8 6.06 0.46
-6 -13 8 6.72 0.5
7 13 -8 2.63 0.35
-7 -13 -8 2.02 0.28
-7 -13 -8 2.53 0.33
7 -13 -8 3.18 0.4
-7 -13 8 3.4 0.4
-7 -13 8 2.94 0.39
8 13 -8 0.5 0.28
-8 -13 -8 0.58 0.25
-8 -13 8 0.2 0.25
-8 -13 8 0.97 0.3
8 -13 -8 0.76 0.28
9 13 -8 1.09 0.31
-9 -13 -8 1.85 0.29
9 -13 -8 1.6 0.34
-9 -13 8 1.51 0.35
-9 -13 8 1.58 0.36
-10 -13 -8 0.56 0.23
10 13 -8 0.59 0.32
-10 -13 8 0.74 0.33
10 -13 -8 0.52 0.26
-10 -13 8 0.62 0.24
11 13 -8 0.93 0.32
-11 -13 -8 0.64 0.32
-11 -13 8 1.25 0.36
11 -13 -8 1.12 0.34
-11 -13 8 1.24 0.34
0 -14 8 0.17 0.14
0 -14 -8 0.42 0.1
0 -14 -8 0.02 0.16
-1 -14 -8 3.15 0.28
1 -14 8 2.71 0.27
-1 -14 -8 3.07 0.23
-1 -14 8 3.25 0.25
1 -14 -8 3.16 0.21
1 -14 -8 2.78 0.32
-1 -14 8 2.5 0.28
-2 -14 -8 0.26 0.17
-2 -14 -8 0.31 0.13
2 -14 8 0.36 0.13
2 -14 -8 0.38 0.18
-2 -14 8 0.35 0.14
-2 -14 8 0.37 0.15
3 14 -8 1 0.22
-3 -14 -8 1.13 0.18
-3 -14 -8 0.68 0.19
3 -14 8 0.86 0.15
3 -14 -8 0.67 0.18
-3 -14 8 0.87 0.22
-3 -14 8 0.69 0.18
-4 -14 -8 2.11 0.27
-4 -14 -8 2.13 0.25
4 -14 8 2.01 0.22
4 14 -8 2.35 0.29
-4 -14 8 1.87 0.25
4 -14 -8 1.85 0.29
-4 -14 8 1.95 0.29
-5 -14 -8 4.13 0.35
5 14 -8 3.83 0.39
-5 -14 -8 3.86 0.33
-5 -14 8 4 0.38
5 -14 -8 3.72 0.41
-5 -14 8 4 0.41
6 14 -8 8.46 0.58
-6 -14 -8 7.93 0.5
-6 -14 -8 7.91 0.48
-6 -14 8 6.72 0.51
6 -14 -8 8.65 0.59
-6 -14 8 9.17 0.59
-7 -14 -8 2.49 0.33
7 14 -8 2.19 0.36
-7 -14 -8 2.28 0.3
-7 -14 8 2.41 0.36
7 -14 -8 3.22 0.39
-7 -14 8 3.18 0.41
-8 -14 -8 0.61 0.26
8 14 -8 1.23 0.32
-8 -14 8 0.95 0.29
-8 -14 8 1.2 0.28
8 -14 -8 1.21 0.3
9 14 -8 0.66 0.3
-9 -14 -8 0.48 0.25
9 -14 -8 0.39 0.26
-9 -14 8 0.93 0.31
-9 -14 8 0.31 0.27
-10 -14 -8 0.03 0.25
10 14 -8 -0.04 0.26
-10 -14 8 -0.6 0.22
10 -14 -8 0.3 0.28
-10 -14 8 -0.13 0.25
-11 -14 8 0.75 0.35
11 -14 -8 0.2 0.29
0 -15 8 3.58 0.31
0 -15 -8 3.92 0.25
0 -15 -8 3.75 0.36
-1 -15 -8 8.88 0.44
1 -15 8 9.47 0.5
-1 -15 -8 8.24 0.53
-1 -15 8 9.86 0.53
1 -15 -8 9.21 0.55
-2 -15 -8 13.62 0.69
2 -15 8 13.45 0.64
-2 -15 -8 13.45 0.61
-2 -15 8 13.46 0.64
-2 -15 8 12.66 0.68
2 -15 -8 11.41 0.67
3 -15 8 2.06 0.23
-3 -15 -8 2.04 0.28
-3 -15 -8 2.14 0.24
3 -15 -8 2.68 0.33
-3 -15 8 2.33 0.31
-3 -15 8 2.43 0.26
4 15 -8 -0.33 0.15
-4 -15 -8 -0.11 0.13
-4 -15 -8 -0.33 0.14
4 -15 -8 0.1 0.18
-4 -15 8 -0.05 0.14
-4 -15 8 -0.1 0.18
-5 -15 -8 0.64 0.21
-5 -15 -8 0.6 0.19
5 15 -8 1.16 0.27
-5 -15 8 0.74 0.2
-5 -15 8 0.93 0.26
5 -15 -8 0.72 0.25
-6 -15 -8 1.72 0.28
6 15 -8 2.31 0.36
-6 -15 -8 1.93 0.28
-6 -15 8 1.82 0.33
6 -15 -8 1.91 0.34
-6 -15 8 1.77 0.3
-7 -15 -8 1.18 0.26
-7 -15 -8 1.08 0.25
7 15 -8 1.08 0.32
-7 -15 8 0.63 0.28
-7 -15 8 1.25 0.27
7 -15 -8 1.26 0.32
8 15 -8 1.88 0.33
-8 -15 -8 1.97 0.33
-8 -15 8 1.44 0.34
-8 -15 8 1.45 0.31
8 -15 -8 1.41 0.32
-9 -15 -8 1.32 0.32
9 15 -8 1.85 0.38
-9 -15 8 2.06 0.38
9 -15 -8 2.94 0.43
-9 -15 8 2.29 0.41
-10 -15 -8 1.08 0.32
10 15 -8 0.95 0.34
-10 -15 8 1.72 0.4
-10 -15 8 0.83 0.27
10 -15 -8 0.69 0.3
0 -16 8 0.94 0.2
0 -16 -8 1.35 0.25
-1 -16 -8 7.22 0.36
-1 -16 -8 6.84 0.47
1 -16 8 6.42 0.41
-1 -16 8 6.05 0.43
1 -16 -8 6.18 0.43
2 -16 8 1.2 0.2
-2 -16 -8 1.3 0.25
-2 -16 -8 1.27 0.18
2 -16 -8 1.46 0.26
-2 -16 8 1.19 0.24
3 -16 8 3.43 0.28
-3 -16 -8 3.46 0.29
-3 -16 -8 3.32 0.35
3 -16 -8 2.71 0.35
-3 -16 8 3.35 0.35
-4 -16 -8 1.8 0.29
-4 -16 -8 2.2 0.26
-4 -16 8 2.05 0.28
-4 -16 8 2.1 0.33
4 -16 -8 2.05 0.32
-5 -16 -8 0.26 0.17
-5 -16 -8 0.26 0.2
5 16 -8 0.23 0.23
-5 -16 8 0.18 0.23
5 -16 -8 0.32 0.23
-5 -16 8 0.33 0.19
-6 -16 -8 1.4 0.27
-6 -16 -8 1.24 0.25
6 16 -8 0.72 0.23
6 -16 -8 1.57 0.33
-6 -16 8 1.2 0.26
-6 -16 8 1.6 0.32
7 16 -8 2.3 0.36
-7 -16 -8 2.09 0.31
-7 -16 -8 2.35 0.32
-7 -16 8 1.95 0.33
7 -16 -8 2.44 0.4
-7 -16 8 2.28 0.39
-8 -16 -8 0.84 0.27
8 16 -8 1.3 0.35
-8 -16 8 0.95 0.33
-8 -16 8 0.89 0.28
8 -16 -8 0.93 0.29
9 16 -8 0.61 0.32
-9 -16 -8 0.55 0.27
-9 -16 8 0.63 0.28
9 -16 -8 0.93 0.31
-9 -16 8 0.78 0.31
10 16 -8 0.78 0.33
-10 -16 -8 0.4 0.29
-10 -16 8 -0.06 0.28
-10 -16 8 0.42 0.31
10 -16 -8 0.79 0.32
0 -17 -8 9.53 0.6
0 -17 8 10.24 0.56
1 -17 8 2.47 0.28
-1 -17 -8 2.8 0.32
-1 -17 8 2.47 0.3
1 -17 -8 2.72 0.32
-2 -17 -8 8.06 0.42
-2 -17 -8 7.08 0.5
2 -17 8 6.98 0.45
-2 -17 8 7.7 0.48
2 -17 -8 7.34 0.53
3 -17 8 1.62 0.22
-3 -17 -8 1.61 0.26
-3 -17 -8 1.18 0.21
-3 -17 8 1.2 0.27
3 -17 -8 1.93 0.32
-4 -17 -8 2.94 0.34
-4 -17 -8 2.57 0.29
4 -17 -8 1.96 0.31
-4 -17 8 2.79 0.35
-5 -17 -8 0.67 0.2
-5 -17 -8 0.48 0.23
5 -17 -8 1.02 0.26
-5 -17 8 0.83 0.24
-5 -17 8 0.55 0.22
-6 -17 -8 1.36 0.26
-6 -17 -8 1.32 0.28
-6 -17 8 1.14 0.27
6 -17 -8 1.5 0.34
-6 -17 8 1.4 0.34
-7 -17 -8 0.2 0.2
-7 -17 -8 -0.18 0.19
7 17 -8 0.03 0.26
-7 -17 8 0.25 0.27
-7 -17 8 0.01 0.21
7 -17 -8 0.39 0.27
-8 -17 -8 1.28 0.3
8 17 -8 1.45 0.32
-8 -17 8 0.95 0.34
8 -17 -8 0.99 0.32
-8 -17 8 0.93 0.28
9 17 -8 0.89 0.35
-9 -17 -8 0.88 0.29
-9 -17 8 0.86 0.31
-9 -17 8 2.1 0.41
9 -17 -8 0.75 0.33
10 -17 -8 0.77 0.31
0 -18 -8 -0.05 0.13
0 -18 8 -0.13 0.11
-1 -18 -8 -0.07 0.18
1 -18 8 -0.01 0.14
-1 -18 8 -0.3 0.15
1 -18 -8 0.08 0.19
-2 -18 -8 0.76 0.24
2 -18 8 0.84 0.19
2 -18 -8 0.82 0.26
-2 -18 8 0.42 0.22
3 -18 8 1.26 0.22
-3 -18 -8 1.63 0.22
-3 -18 -8 1.54 0.3
3 -18 -8 1.46 0.27
-3 -18 8 1.99 0.32
-4 -18 -8 6.99 0.47
-4 -18 -8 6.14 0.47
-4 -18 8 7.54 0.57
4 -18 -8 8.42 0.59
-5 -18 -8 -0.1 0.2
-5 -18 -8 -0.17 0.17
-5 -18 8 -0.14 0.24
5 -18 -8 -0.1 0.22
-6 -18 -8 0.88 0.26
-6 -18 -8 2.18 0.33
6 -18 -8 0.89 0.32
-6 -18 8 0.73 0.25
-6 -18 8 0.91 0.25
-7 -18 -8 0.58 0.24
-7 -18 -8 0.34 0.23
-7 -18 8 0.86 0.27
7 -18 -8 0.68 0.29
-7 -18 8 0.99 0.33
-8 -18 -8 1.58 0.31
-8 -18 8 0.88 0.3
-8 -18 8 1.49 0.38
8 -18 -8 2.28 0.4
-9 -18 -8 -0.29 0.21
9 -18 -8 0.67 0.29
-9 -18 8 0.01 0.25
-9 -18 8 -0.15 0.21
0 -19 8 4 0.39
0 -19 -8 3.97 0.43
1 -19 8 0.74 0.21
-1 -19 -8 0.87 0.22
1 -19 -8 1.43 0.3
-1 -19 8 1.31 0.26
2 -19 8 0.27 0.18
-2 -19 -8 0.36 0.24
2 -19 -8 0.25 0.24
-2 -19 8 0.63 0.24
-3 -19 -8 5.5 0.47
3 -19 8 4.66 0.38
3 -19 -8 5.25 0.5
-3 -19 8 5.78 0.5
-4 -19 -8 0.75 0.22
4 -19 -8 1.3 0.33
-4 -19 8 0.9 0.26
-5 -19 -8 0.79 0.24
-5 -19 -8 0.97 0.28
-5 -19 8 1.19 0.29
5 -19 -8 0.99 0.28
-6 -19 -8 2.05 0.34
-6 -19 -8 1.57 0.29
-6 -19 8 1.86 0.39
6 -19 -8 2.07 0.39
-7 -19 -8 0.72 0.26
-7 -19 -8 0.68 0.26
-7 -19 8 0.73 0.33
7 -19 -8 0.85 0.3
-8 -19 -8 0.14 0.23
8 -19 -8 0.39 0.27
-8 -19 8 -0.03 0.23
-8 -19 8 0.06 0.31
9 -19 -8 0.39 0.29
-9 -19 8 -0.36 0.23
0 -20 -8 1.17 0.26
0 -20 8 1.47 0.27
-1 -20 -8 3.4 0.42
1 -20 8 3.31 0.36
1 -20 -8 2.94 0.4
-1 -20 8 4.02 0.41
2 -20 8 4.34 0.41
-2 -20 -8 4.29 0.46
2 -20 -8 3.67 0.45
-2 -20 8 4 0.41
-3 -20 -8 1.4 0.32
3 -20 -8 1.53 0.3
-3 -20 8 1.03 0.3
-4 -20 -8 0.87 0.24
-4 -20 8 1.43 0.33
4 -20 -8 0.89 0.3
-5 -20 -8 0.08 0.22
5 -20 -8 -0.07 0.25
-5 -20 8 0.63 0.28
-6 -20 -8 0.29 0.26
-6 -20 -8 0.3 0.25
-6 -20 8 0.3 0.28
6 -20 -8 0.43 0.3
-7 -20 -8 1.03 0.3
-7 -20 -8 0.45 0.27
7 -20 -8 0.33 0.29
-7 -20 8 0.48 0.32
-8 -20 -8 -0.31 0.22
8 -20 -8 0.56 0.3
0 -21 8 2.1 0.33
0 -21 -8 3.21 0.42
1 -21 8 0.4 0.22
-1 -21 -8 0.91 0.29
1 -21 -8 0.99 0.29
-1 -21 8 0.71 0.25
-2 -21 -8 4.93 0.51
2 -21 8 4.76 0.46
-2 -21 8 6.17 0.51
2 -21 -8 5.26 0.46
-3 -21 -8 1.86 0.36
-3 -21 8 3.68 0.43
3 -21 -8 2.12 0.35
-4 -21 -8 0.45 0.25
4 -21 -8 0.12 0.27
-4 -21 8 0.41 0.28
-5 -21 -8 0.8 0.29
5 -21 -8 1.04 0.34
-5 -21 8 1.13 0.35
-6 -21 -8 0.56 0.26
6 -21 -8 0.16 0.28
-6 -21 8 0.52 0.25
-7 -21 -8 0.43 0.27
7 -21 -8 1.3 0.36
-8 -21 -8 0.26 0.26
0 -22 -8 0.44 0.27
0 -22 8 0.9 0.27
1 -22 8 2.21 0.33
-1 -22 -8 2.4 0.36
-1 -22 8 2.4 0.36
1 -22 -8 2.76 0.41
2 -22 8 0.7 0.25
-2 -22 -8 1.21 0.28
-2 -22 8 0.98 0.3
2 -22 -8 0.87 0.31
-3 -22 -8 1.17 0.32
-3 -22 8 1.9 0.36
3 -22 -8 1.07 0.33
-4 -22 -8 1.47 0.35
4 -22 -8 1.18 0.35
-4 -22 8 1.73 0.36
-5 -22 -8 0.9 0.32
5 -22 -8 1.05 0.33
-5 -22 8 0.34 0.3
-6 -22 -8 1.04 0.32
6 -22 -8 0.23 0.29
0 -23 -8 1.69 0.36
0 -23 8 1.81 0.32
-1 -23 -8 0.01 0.26
1 -23 8 0.34 0.25
1 -23 -8 0.27 0.28
-1 -23 8 0.37 0.25
-2 -23 -8 0.28 0.21
2 -23 8 0.4 0.23
-2 -23 8 0.07 0.25
2 -23 -8 0.61 0.3
-3 -23 -8 0.8 0.32
3 -23 -8 0.75 0.33
-3 -23 8 1.25 0.34
-4 -23 -8 0.35 0.28
4 -23 -8 0.89 0.34
-4 -23 8 0.7 0.27
-5 -23 -8 3.43 0.46
5 -23 -8 2.58 0.46
0 -24 -8 0.17 0.28
0 -24 8 -0.29 0.2
-1 -24 -8 0.7 0.32
1 -24 8 0.42 0.24
-1 -24 8 0.12 0.25
1 -24 -8 0.31 0.29
-2 -24 -8 0.89 0.28
-2 -24 8 1.23 0.35
2 -24 -8 1.4 0.38
-3 -24 -8 0.52 0.3
-3 -24 8 0.23 0.31
3 -24 -8 0.62 0.27
0 -25 8 0.41 0.26
1 -25 8 0.6 0.28
-1 -25 8 0.31 0.27
0 0 -9 0 0.06
0 0 -9 -0.04 0.06
-1 0 -9 3.21 0.18
1 0 -9 3.35 0.19
-1 0 -9 3.08 0.19
1 0 -9 3.14 0.22
-2 0 -9 10.16 0.41
2 0 -9 10.35 0.46
2 0 -9 9.26 0.48
-2 0 -9 10.02 0.44
3 0 -9 8.17 0.43
-3 0 -9 8.35 0.32
3 0 -9 8.16 0.41
-3 0 -9 7.82 0.38
4 0 -9 11.62 0.55
4 0 -9 11.46 0.58
-4 0 -9 11.1 0.51
5 0 -9 0.87 0.17
5 0 -9 1 0.19
-5 0 -9 0.97 0.14
-6 0 -9 24.21 0.99
-6 0 9 23.62 1.04
6 0 -9 24.34 1.08
-7 0 9 0.88 0.19
-7 0 -9 0.93 0.18
7 0 -9 1.06 0.23
-8 0 -9 6.19 0.41
-8 0 9 7.36 0.48
8 0 -9 7.42 0.49
9 0 -9 0.44 0.22
-9 0 -9 0.61 0.19
-9 0 9 0.94 0.24
-10 0 9 0.6 0.24
10 0 -9 0.67 0.24
-10 0 -9 0.61 0.2
11 0 -9 0.19 0.22
-11 0 9 0.51 0.24
-11 0 -9 -0.25 0.16
-12 0 -9 0.99 0.26
-12 0 9 0.95 0.3
12 0 -9 1.17 0.29
-13 0 -9 0.23 0.23
-13 0 9 1.03 0.32
13 0 -9 0.17 0.24
0 -1 -9 75.73 2.83
0 -1 -9 78.93 2.87
0 1 -9 73.79 2.82
0 1 -9 76.68 2.87
-1 -1 -9 105.61 3.91
-1 -1 -9 109.8 3.95
1 1 -9 106.47 3.98
1 1 -9 107.38 3.92
-1 1 -9 103.14 3.9
1 -1 -9 107.51 3.99
-1 1 -9 106.12 3.94
1 -1 -9 103.68 3.91
-2 -1 -9 26.01 0.97
2 1 -9 24.89 1.04
-2 -1 -9 24.6 0.99
2 1 -9 25.65 1.01
-2 1 -9 25.2 0.96
2 -1 -9 26.06 1.05
2 -1 -9 25.35 1
-2 1 -9 24.67 0.99
3 1 -9 47.19 1.82
-3 -1 -9 46.61 1.76
3 1 -9 48.25 1.87
-3 -1 -9 46.65 1.79
-3 1 -9 46.6 1.78
3 -1 -9 47.74 1.87
3 -1 -9 47.37 1.81
4 1 -9 9.12 0.47
4 1 -9 9.14 0.49
-4 -1 -9 8.79 0.42
-4 -1 -9 9.46 0.36
-4 1 -9 8.83 0.42
4 -1 -9 8.51 0.48
4 -1 -9 9.18 0.46
-5 -1 -9 22.3 0.94
5 1 -9 22.94 0.98
5 1 -9 21.79 1
-5 1 -9 22.47 0.92
5 -1 -9 23.63 1.01
5 -1 -9 23.66 0.98
6 1 -9 17.16 0.79
-6 -1 -9 15.48 0.7
-6 1 9 15.54 0.75
-6 -1 9 15.15 0.75
6 -1 -9 16.69 0.79
-6 1 -9 15.66 0.69
-7 1 9 5.01 0.36
-7 -1 -9 5.42 0.36
7 1 -9 5.32 0.39
7 -1 -9 5.79 0.42
-7 1 -9 5.51 0.34
-7 -1 9 5.39 0.38
8 1 -9 6.27 0.46
-8 -1 -9 6.07 0.4
-8 1 9 5.85 0.43
-8 -1 9 5.74 0.44
8 -1 -9 5.44 0.41
-8 1 -9 5.86 0.38
9 1 -9 0.71 0.24
-9 1 9 1.07 0.24
-9 -1 -9 0.91 0.21
-9 1 -9 0.94 0.2
9 -1 -9 1.13 0.25
-9 -1 9 0.91 0.24
10 1 -9 3.93 0.43
-10 1 9 3.75 0.41
-10 -1 -9 3.26 0.35
-10 -1 9 3.99 0.44
10 -1 -9 3.76 0.42
-10 1 -9 3.62 0.34
11 1 -9 0.83 0.26
-11 -1 -9 0.36 0.21
-11 1 9 0.76 0.27
-11 -1 9 0.46 0.24
-11 1 -9 0.45 0.2
11 -1 -9 0.71 0.26
12 1 -9 2.23 0.38
-12 -1 -9 2.98 0.37
-12 1 9 2.08 0.37
12 -1 -9 2.53 0.38
-12 -1 9 2.34 0.4
-12 1 -9 2.13 0.31
13 1 -9 2.04 0.38
-13 -1 -9 1.88 0.36
-13 1 9 2.43 0.4
-13 -1 9 2.13 0.41
13 -1 -9 2.42 0.4
0 -2 -9 66.22 2.52
0 2 -9 65.97 2.52
0 -2 -9 69.8 2.57
0 2 -9 69.21 2.56
-1 -2 -9 14.08 0.56
1 2 -9 13.72 0.59
-1 -2 -9 13.95 0.57
1 2 -9 13.2 0.57
1 -2 -9 13.16 0.57
-1 2 -9 13.15 0.55
1 -2 -9 13.55 0.59
-1 2 -9 12.78 0.55
-2 -2 -9 60.36 2.23
2 2 -9 58.55 2.29
2 2 -9 60.84 2.25
-2 -2 -9 59.44 2.23
2 -2 -9 59.99 2.24
-2 2 -9 58.72 2.22
2 -2 -9 60.11 2.3
-2 2 -9 58.57 2.21
3 2 -9 49.27 1.99
3 2 -9 50.22 1.95
-3 -2 -9 49.25 1.92
-3 -2 -9 50.37 1.89
3 -2 -9 50.88 1.93
3 -2 -9 51.73 2
-3 2 -9 52.09 1.91
4 2 -9 6.05 0.36
-4 -2 -9 6.33 0.26
-4 -2 -9 5.81 0.32
4 2 -9 6.27 0.36
4 -2 -9 5.46 0.32
4 -2 -9 5.69 0.37
-4 2 -9 5.74 0.3
-5 -2 -9 2.38 0.13
-5 -2 -9 1.95 0.2
5 2 -9 2.13 0.26
5 -2 -9 1.89 0.22
-5 2 -9 2.08 0.18
5 -2 -9 2.02 0.26
-5 -2 9 1.83 0.23
-6 2 9 1.18 0.2
6 2 -9 0.87 0.21
-6 -2 -9 1.24 0.19
-6 -2 9 1.16 0.22
-6 2 -9 1.18 0.16
6 -2 -9 1.45 0.23
-7 -2 -9 2.41 0.26
7 2 -9 2.27 0.31
-7 2 9 2.47 0.28
-7 2 -9 3.2 0.25
-7 -2 9 2.57 0.31
7 -2 -9 2.86 0.3
8 2 -9 3.09 0.34
-8 2 9 2.31 0.3
-8 -2 -9 2.34 0.28
8 -2 -9 2.47 0.32
-8 2 -9 2.86 0.26
-8 -2 9 2.46 0.3
-9 2 9 0.85 0.23
9 2 -9 0.59 0.23
-9 -2 -9 0.83 0.21
-9 -2 9 0.88 0.24
-9 2 -9 0.83 0.18
9 -2 -9 0.88 0.24
10 2 -9 2.29 0.32
-10 -2 -9 1.96 0.29
-10 2 9 2.67 0.35
10 -2 -9 2.14 0.33
-10 2 -9 2.01 0.26
-10 -2 9 2.54 0.35
-11 -2 -9 7.38 0.52
11 2 -9 7.31 0.56
-11 2 9 7.46 0.57
-11 -2 9 6.81 0.54
-11 2 -9 7.02 0.47
11 -2 -9 7.77 0.57
12 2 -9 2.56 0.39
-12 2 9 2.55 0.41
-12 -2 -9 2.6 0.36
12 -2 -9 2.38 0.39
-12 -2 9 3.04 0.41
13 2 -9 1.12 0.32
-13 2 9 0.85 0.29
-13 -2 -9 0.82 0.27
-13 -2 9 1.09 0.32
13 -2 -9 0.74 0.29
0 3 -9 18.05 0.72
0 3 -9 16.89 0.7
0 -3 -9 17.38 0.73
0 -3 -9 17.52 0.71
-1 -3 -9 22.16 0.86
-1 -3 -9 21.8 0.86
1 3 -9 21.69 0.86
1 3 -9 21.72 0.89
1 -3 -9 21.6 0.86
1 -3 -9 20.84 0.89
-1 3 -9 20.43 0.84
-1 3 -9 21.53 0.84
-2 -3 -9 114.47 4.05
2 3 -9 109.27 4.14
-2 -3 -9 109.97 4.08
2 3 -9 108.71 4.06
-2 3 -9 108.74 4.03
2 -3 -9 109.66 4.05
-2 3 -9 109.04 4.05
2 -3 -9 107.96 4.14
3 3 -9 6.07 0.34
-3 -3 -9 5.46 0.27
3 3 -9 5.47 0.35
-3 -3 -9 5.81 0.31
-3 3 -9 6 0.29
3 -3 -9 6.14 0.32
3 -3 -9 6.39 0.37
4 3 -9 22.01 0.94
-4 -3 -9 21.1 0.9
-4 -3 -9 22.07 0.86
4 3 -9 22.47 0.97
4 -3 -9 22.05 0.92
4 -3 -9 21.69 0.97
-4 3 -9 22.66 0.88
-5 -3 -9 11.14 0.54
5 3 -9 11.33 0.59
-5 -3 -9 13.31 0.48
-5 -3 9 10.05 0.58
5 -3 -9 10.66 0.55
-5 3 -9 11.54 0.51
5 -3 -9 11.44 0.6
-6 -3 -9 7.98 0.43
6 3 -9 7.08 0.48
6 -3 -9 6.86 0.46
-6 3 -9 7.25 0.37
-6 -3 9 7.55 0.46
-7 -3 -9 6.73 0.42
-7 3 9 6.69 0.43
7 3 -9 6.46 0.47
-7 -3 9 6.72 0.46
-7 3 -9 6.3 0.36
7 -3 -9 7.59 0.48
-8 -3 -9 2.95 0.31
-8 3 9 2.93 0.32
8 3 -9 3.19 0.36
8 -3 -9 3.22 0.35
-8 -3 9 2.59 0.34
-8 3 -9 3.65 0.27
-9 3 9 4.02 0.4
-9 -3 -9 4.2 0.36
9 3 -9 3.42 0.39
-9 -3 9 4.02 0.43
-9 3 -9 3.46 0.29
9 -3 -9 4.5 0.43
-10 3 9 3.19 0.38
-10 -3 -9 3.16 0.36
10 3 -9 2.85 0.37
-10 -3 9 2.76 0.4
10 -3 -9 2.36 0.35
-10 3 -9 2.24 0.27
-11 -3 -9 1.7 0.3
11 3 -9 1.74 0.34
-11 3 9 1.52 0.32
-11 -3 9 2.35 0.38
11 -3 -9 2 0.33
12 3 -9 0.33 0.26
-12 3 9 0.18 0.25
-12 -3 -9 0.33 0.2
-12 -3 9 0.23 0.28
12 -3 -9 0.5 0.26
13 3 -9 1.23 0.33
-13 -3 -9 0.92 0.29
-13 -3 9 1.22 0.35
13 -3 -9 1.14 0.32
0 4 -9 13.22 0.54
0 -4 -9 13.16 0.55
0 -4 -9 12.7 0.57
0 4 -9 12.97 0.55
1 4 -9 49.75 1.86
-1 -4 -9 51.15 1.86
-1 -4 -9 49.62 1.87
1 4 -9 50.41 1.9
-1 4 -9 48.06 1.85
-1 4 -9 46.92 1.83
1 -4 -9 49.46 1.85
1 -4 -9 47.38 1.9
2 4 -9 29.27 1.22
-2 -4 -9 31.2 1.17
2 4 -9 30.73 1.2
-2 -4 -9 30.32 1.18
2 -4 9 30.47 1.14
-2 4 -9 30.39 1.14
-2 4 -9 29.26 1.15
2 -4 -9 29.3 1.23
2 -4 -9 29.91 1.18
3 4 -9 8.43 0.43
3 -4 9 9.23 0.34
-3 -4 -9 8.55 0.39
-3 -4 -9 8.5 0.42
3 4 -9 8.2 0.46
3 -4 -9 9.19 0.42
3 -4 -9 8.99 0.46
-3 4 -9 9.03 0.39
-4 -4 -9 16.13 0.62
4 4 -9 14.95 0.7
-4 -4 -9 14.29 0.65
4 4 -9 14.91 0.71
4 -4 -9 15.02 0.66
-4 4 -9 15.78 0.63
4 -4 -9 14.23 0.7
5 4 -9 35.32 1.45
-5 -4 -9 38.05 1.33
-5 -4 -9 33.69 1.37
-5 -4 9 34.39 1.43
-5 4 -9 33.27 1.33
5 -4 -9 32.49 1.44
5 -4 -9 33.15 1.37
6 4 -9 15.35 0.75
-6 -4 -9 14.85 0.67
-6 -4 9 14.15 0.72
6 -4 -9 13.93 0.72
6 -4 -9 14.39 0.68
-6 4 -9 14.51 0.62
7 4 -9 8.49 0.52
-7 4 9 8.52 0.49
-7 -4 -9 8.74 0.49
7 -4 -9 8.37 0.53
-7 -4 9 8.43 0.53
-7 4 -9 8.65 0.43
-8 4 9 4.81 0.38
-8 -4 -9 4.85 0.38
8 4 -9 4.8 0.45
-8 -4 9 5.06 0.43
8 -4 -9 4.98 0.42
-8 4 -9 4.67 0.3
9 4 -9 0.77 0.25
-9 -4 -9 0.38 0.2
-9 4 9 0.84 0.22
-9 -4 9 0.81 0.25
9 -4 -9 0.59 0.22
-9 4 -9 0.47 0.16
-10 -4 -9 3.54 0.39
-10 4 9 4.09 0.42
10 4 -9 4.14 0.45
10 -4 -9 4.25 0.44
-10 -4 9 4.17 0.48
-11 4 9 1.7 0.32
11 4 -9 1.6 0.31
-11 -4 -9 1.69 0.28
-11 -4 9 1.37 0.34
11 -4 -9 2.12 0.35
12 4 -9 0.42 0.25
-12 -4 -9 0.44 0.25
-12 4 9 0.07 0.23
-12 -4 9 0.66 0.29
12 -4 -9 0.39 0.25
-13 -4 -9 0.32 0.28
13 4 -9 0.21 0.27
13 -4 -9 0.55 0.29
0 5 -9 4.35 0.23
0 -5 -9 4.53 0.24
0 5 -9 4.4 0.24
0 -5 -9 4.49 0.26
1 -5 9 2.49 0.16
-1 -5 -9 2.47 0.18
1 5 -9 2.46 0.18
1 5 -9 2.37 0.19
-1 -5 -9 2.21 0.18
1 -5 -9 3.06 0.18
1 -5 -9 2.47 0.19
-1 5 -9 2.65 0.16
-1 5 -9 2.69 0.16
2 -5 9 6.35 0.29
2 5 -9 7.02 0.38
-2 -5 -9 7.17 0.35
2 5 -9 6.78 0.35
-2 -5 -9 6.59 0.33
2 -5 -9 6.2 0.36
2 -5 -9 7.06 0.34
-2 5 -9 7.08 0.3
-2 5 -9 6.65 0.31
3 -5 9 20.62 0.75
-3 -5 -9 19.94 0.8
-3 -5 -9 18.58 0.82
3 5 -9 19.57 0.84
3 5 -9 19.48 0.87
3 -5 -9 19.09 0.87
3 -5 -9 20.14 0.82
-3 5 -9 20.34 0.79
-4 -5 -9 2.69 0.24
-4 -5 -9 3.1 0.2
4 5 -9 2.91 0.25
4 -5 -9 3.49 0.23
4 -5 -9 3.62 0.27
-4 5 -9 3.01 0.2
-4 -5 9 2.75 0.28
-5 -5 -9 24.24 0.87
5 5 -9 20.74 0.96
-5 -5 -9 21.1 0.91
5 -5 -9 20.76 0.96
-5 -5 9 20.74 0.96
5 -5 -9 20.97 0.91
-5 5 -9 20.62 0.85
6 5 -9 3.5 0.35
-6 -5 -9 3.56 0.24
-6 -5 -9 3.17 0.26
6 -5 -9 3.09 0.33
6 -5 -9 3 0.26
-6 -5 9 3.23 0.33
-6 5 -9 3.32 0.22
-7 -5 -9 1.69 0.22
7 5 -9 1.82 0.29
-7 5 9 2.04 0.25
-7 5 -9 1.71 0.19
-7 -5 9 1.55 0.27
7 -5 -9 1.52 0.26
-8 5 9 0.11 0.15
-8 -5 -9 -0.03 0.12
8 5 -9 0.19 0.15
8 -5 -9 0.21 0.19
-8 -5 9 0.15 0.18
-8 5 -9 0.24 0.12
9 5 -9 3.71 0.41
-9 5 9 3.97 0.39
-9 -5 -9 3.72 0.38
-9 -5 9 3.98 0.44
9 -5 -9 4.18 0.43
10 5 -9 0.07 0.22
-10 5 9 0.1 0.17
-10 -5 -9 0 0.2
-10 -5 9 0.31 0.26
10 -5 -9 0.09 0.15
11 5 -9 0.91 0.27
-11 5 9 0.47 0.23
-11 -5 -9 1 0.27
11 -5 -9 0.76 0.26
-11 -5 9 0.65 0.3
-12 -5 -9 0.06 0.23
12 5 -9 0.55 0.26
12 -5 -9 1.03 0.3
-12 -5 9 0.65 0.31
13 5 -9 -0.13 0.23
0 6 -9 17.55 0.71
0 -6 -9 17.91 0.72
0 -6 9 18.07 0.73
0 -6 -9 17.16 0.75
0 6 -9 17.11 0.73
-1 -6 -9 2.44 0.18
1 6 -9 2.92 0.19
-1 -6 -9 2.4 0.19
1 -6 9 2.63 0.16
1 6 -9 2.58 0.2
1 -6 -9 2.5 0.2
-1 6 -9 2.37 0.16
1 -6 -9 2.58 0.18
-1 6 -9 2.72 0.17
-2 -6 -9 16.16 0.68
2 -6 9 16.51 0.65
-2 -6 -9 15.89 0.68
2 6 -9 15.22 0.71
2 6 -9 16.33 0.7
2 -6 -9 16.54 0.67
-2 6 -9 16.69 0.65
2 -6 -9 15.33 0.72
-3 -6 -9 5.49 0.31
3 -6 9 5.65 0.24
3 6 -9 4.87 0.32
-3 -6 -9 5.54 0.29
3 6 -9 4.71 0.31
3 -6 -9 5.62 0.3
-3 6 -9 5.46 0.27
3 -6 -9 5.13 0.33
4 6 -9 15.66 0.76
-4 -6 -9 14.93 0.69
-4 -6 -9 17.62 0.69
4 -6 -9 15.45 0.69
-4 6 -9 16.51 0.65
-4 -6 9 16.2 0.75
4 -6 -9 15.29 0.76
-5 -6 -9 8.36 0.38
-5 -6 -9 7.04 0.41
5 6 -9 6.93 0.46
-5 -6 9 7.1 0.45
5 -6 -9 6.78 0.45
-5 6 -9 7.47 0.35
5 -6 -9 6.85 0.39
-6 -6 -9 14.36 0.71
-6 -6 -9 17.52 0.68
6 6 -9 15.07 0.78
6 -6 -9 15.22 0.78
6 -6 -9 14.51 0.7
-6 6 -9 15.39 0.64
-6 -6 9 14.42 0.76
7 6 -9 3.19 0.37
-7 -6 -9 1.88 0.24
-7 6 9 2.66 0.28
-7 -6 9 2.78 0.34
7 -6 -9 2.77 0.33
-7 6 -9 2.45 0.21
-8 6 9 1.37 0.23
-8 -6 -9 1.89 0.25
8 6 -9 1.67 0.29
-8 -6 9 1.39 0.26
8 -6 -9 1.77 0.3
-9 -6 -9 0.06 0.19
-9 6 9 0.01 0.15
9 6 -9 0.09 0.2
9 -6 -9 0.34 0.21
-9 -6 9 -0.18 0.19
-10 -6 -9 0.26 0.22
-10 6 9 -0.04 0.19
10 6 -9 -0.05 0.21
-10 -6 9 0.32 0.24
10 -6 -9 0.6 0.25
11 6 -9 1 0.29
-11 -6 -9 0.94 0.28
11 -6 -9 0.62 0.26
-11 -6 9 0.9 0.26
12 6 -9 0.16 0.25
-12 -6 -9 0.42 0.27
12 -6 -9 0.51 0.26
-12 -6 9 0.71 0.32
13 6 -9 1.03 0.3
0 -7 9 2.85 0.19
0 -7 -9 2.29 0.21
0 -7 -9 2.85 0.18
0 7 -9 2.34 0.18
0 7 -9 2.42 0.18
1 7 -9 2.19 0.18
1 -7 9 2.12 0.16
1 7 -9 2.31 0.19
-1 -7 -9 2.55 0.2
-1 -7 -9 2.49 0.18
-1 7 -9 2.26 0.15
-1 7 -9 2.31 0.17
1 -7 -9 2.38 0.17
1 -7 -9 1.82 0.21
2 7 -9 10.52 0.5
-2 -7 -9 10.38 0.49
2 7 -9 10.7 0.52
2 -7 9 11.3 0.46
-2 -7 -9 10.77 0.49
-2 7 -9 11.24 0.45
2 -7 -9 9.58 0.52
2 -7 -9 10.05 0.47
3 7 -9 19.24 0.86
3 -7 9 20.1 0.76
-3 -7 -9 20.78 0.82
-3 -7 -9 18.57 0.81
-3 -7 9 19.62 0.85
3 -7 -9 17.68 0.86
3 -7 -9 18.74 0.79
-3 7 -9 19.46 0.76
-4 -7 -9 39.62 1.48
-4 -7 -9 35.77 1.48
4 7 -9 37.2 1.55
4 -7 9 41.32 1.43
-4 -7 9 36.03 1.52
4 -7 -9 35.45 1.46
-4 7 -9 38.91 1.42
4 -7 -9 33.9 1.54
5 7 -9 4.35 0.37
-5 -7 -9 3.83 0.3
-5 -7 -9 4.56 0.28
5 -7 -9 3.91 0.35
-5 -7 9 4.52 0.35
-5 7 -9 4.9 0.25
5 -7 -9 3.59 0.27
-6 -7 -9 2.56 0.28
6 7 -9 3.37 0.36
-6 -7 -9 3.59 0.25
6 -7 -9 3.28 0.35
6 -7 -9 3.14 0.25
-6 -7 9 3.15 0.34
-6 7 -9 2.84 0.21
7 7 -9 6.16 0.47
-7 7 9 5.75 0.4
-7 -7 -9 5.71 0.39
7 -7 -9 5.6 0.44
-7 -7 9 6.6 0.48
8 7 -9 0.75 0.25
-8 -7 -9 1.01 0.2
-8 7 9 0.62 0.18
8 -7 -9 0.75 0.23
-8 -7 9 0.56 0.24
-9 -7 -9 0.2 0.21
9 7 -9 0.11 0.22
-9 7 9 0.66 0.2
9 -7 -9 0.5 0.22
-9 -7 9 0.25 0.19
10 7 -9 2.72 0.39
-10 -7 -9 3.92 0.42
-10 -7 9 3.57 0.46
10 -7 -9 3.4 0.43
-11 -7 -9 0.22 0.19
11 7 -9 0.4 0.21
-11 -7 9 0.06 0.19
11 -7 -9 0.11 0.22
-12 -7 -9 0.11 0.25
12 7 -9 0.34 0.25
12 -7 -9 0.24 0.25
-12 -7 9 0.14 0.26
0 -8 -9 10.76 0.5
0 -8 9 12.13 0.53
0 -8 -9 11.51 0.55
0 8 -9 11.59 0.5
0 8 -9 11.73 0.52
-1 -8 -9 3.62 0.25
1 8 -9 3.57 0.23
-1 -8 -9 3.56 0.23
1 -8 9 4.05 0.23
1 8 -9 3.84 0.24
1 -8 -9 3.77 0.26
-1 8 -9 3.47 0.2
-1 8 -9 3.4 0.22
-1 -8 9 3.58 0.25
1 -8 -9 3.56 0.22
2 -8 9 4.64 0.25
-2 -8 -9 4.86 0.29
-2 -8 -9 5.11 0.3
2 8 -9 4.47 0.29
2 8 -9 4.99 0.32
2 -8 -9 5.03 0.32
2 -8 -9 5.11 0.27
-2 8 -9 4.86 0.24
-2 -8 9 4.65 0.31
-3 -8 -9 18.26 0.81
3 -8 9 19.43 0.78
3 8 -9 19.04 0.87
-3 -8 -9 20.15 0.83
3 -8 -9 19.35 0.8
-3 -8 9 19.88 0.85
-3 8 -9 20.21 0.76
3 -8 -9 18.62 0.87
-4 -8 -9 15.58 0.71
-4 -8 -9 17.08 0.71
4 8 -9 15.58 0.77
4 -8 9 17.71 0.66
4 -8 -9 14.75 0.77
4 -8 -9 15.45 0.69
-4 8 -9 16.69 0.65
-4 -8 9 15.37 0.75
-5 -8 -9 7.22 0.45
5 8 -9 7.85 0.51
-5 -8 -9 8.79 0.44
5 -8 -9 8.01 0.49
-5 -8 9 8.71 0.49
5 -8 -9 8.02 0.42
-5 8 -9 9.01 0.38
6 8 -9 5.01 0.39
-6 -8 -9 4.61 0.34
-6 -8 -9 5.51 0.34
6 -8 -9 5.01 0.38
6 -8 -9 5.45 0.33
-6 -8 9 5.27 0.41
-7 8 9 3.05 0.3
-7 -8 -9 2.79 0.31
7 8 -9 3.29 0.37
7 -8 -9 2.68 0.33
-7 -8 9 2.87 0.36
-8 8 9 2.42 0.29
8 8 -9 2.32 0.34
-8 -8 -9 2.25 0.3
-8 -8 9 2.07 0.34
8 -8 -9 2.39 0.34
9 8 -9 0.52 0.25
-9 -8 -9 0.41 0.21
-9 -8 9 0.52 0.26
9 -8 -9 0.07 0.22
-10 -8 -9 1.59 0.32
10 8 -9 1.69 0.3
-10 -8 9 1.84 0.38
10 -8 -9 2.09 0.35
-11 -8 -9 0.22 0.25
11 8 -9 0.09 0.24
-11 -8 9 -0.07 0.18
11 -8 -9 -0.17 0.2
12 8 -9 0.89 0.31
-12 -8 -9 0.23 0.27
-12 -8 9 0.19 0.27
-12 -8 9 0.82 0.32
12 -8 -9 0.79 0.28
0 9 -9 4.41 0.26
0 -9 -9 4.48 0.31
0 9 -9 4.65 0.29
0 -9 -9 4.76 0.26
0 -9 9 4.72 0.29
-1 -9 -9 3.97 0.27
1 9 -9 3.82 0.27
-1 -9 -9 4.46 0.26
1 -9 9 4.05 0.25
1 9 -9 3.98 0.25
1 -9 -9 4.2 0.3
1 -9 -9 3.86 0.23
-1 9 -9 4.18 0.22
-1 -9 9 4.17 0.28
-2 -9 -9 0.16 0.11
2 -9 9 0.56 0.09
-2 -9 -9 0.5 0.12
2 9 -9 0.57 0.13
-2 -9 9 0.83 0.14
2 -9 -9 0.4 0.15
-2 9 -9 0.52 0.09
-2 -9 9 0.57 0.14
2 -9 -9 0.73 0.11
-3 -9 -9 3.91 0.27
3 -9 9 3.67 0.22
3 9 -9 3.5 0.3
-3 -9 -9 4.32 0.26
-3 -9 9 3.87 0.29
3 -9 -9 3.59 0.23
-3 -9 9 3.72 0.31
-3 9 -9 3.88 0.2
3 -9 -9 3.11 0.32
4 9 -9 13.77 0.7
-4 -9 -9 14.12 0.64
-4 -9 -9 14.29 0.65
-4 9 -9 14.25 0.57
4 -9 -9 13.26 0.61
-4 -9 9 12.74 0.67
4 -9 -9 14.64 0.7
-5 -9 -9 9.55 0.51
5 9 -9 9.76 0.57
-5 -9 -9 10.09 0.5
5 -9 -9 9.34 0.47
-5 -9 9 9.38 0.55
5 -9 -9 9.32 0.57
6 9 -9 7.54 0.51
-6 -9 -9 8.28 0.42
-6 -9 -9 7.33 0.45
6 -9 -9 6.76 0.39
6 -9 -9 6.82 0.49
-6 -9 9 7.06 0.49
7 9 -9 2.67 0.35
-7 -9 -9 2.84 0.32
-7 9 9 3.11 0.29
-7 -9 9 2.69 0.34
7 -9 -9 2.71 0.35
-8 -9 -9 2.44 0.33
8 9 -9 2.83 0.35
-8 -9 9 2.87 0.39
8 -9 -9 3.05 0.38
-9 -9 -9 0.34 0.23
9 9 -9 0.34 0.23
-9 -9 9 -0.18 0.21
9 -9 -9 0.36 0.23
-10 -9 -9 2.04 0.35
10 9 -9 2.17 0.37
10 -9 -9 1.98 0.35
-10 -9 9 2.3 0.36
-11 -9 -9 1.5 0.34
11 9 -9 1.18 0.33
11 -9 -9 1.34 0.32
-11 -9 9 0.98 0.28
-11 -9 9 1.04 0.34
12 9 -9 0.21 0.26
-12 -9 -9 -0.15 0.26
12 -9 -9 0.23 0.28
-12 -9 9 0.47 0.32
-12 -9 9 -0.19 0.24
0 10 -9 3.88 0.22
0 -10 9 3.98 0.27
0 -10 -9 3.68 0.29
0 10 -9 3.37 0.26
0 -10 -9 3.37 0.22
1 10 -9 21.55 0.94
-1 -10 -9 22.62 0.9
1 -10 9 21.36 0.91
-1 -10 -9 21.34 0.95
-1 -10 9 22.92 0.95
-1 10 -9 23.63 0.87
1 -10 -9 21.51 0.89
1 -10 -9 21.4 0.96
-2 -10 -9 12.29 0.57
2 -10 9 11.75 0.55
-2 -10 -9 12.16 0.6
2 10 -9 11.72 0.6
-2 10 -9 12.72 0.51
-2 -10 9 13.69 0.62
2 -10 -9 12.49 0.55
2 -10 -9 12.07 0.63
-2 -10 9 13.83 0.6
3 -10 9 1.93 0.16
-3 -10 -9 1.9 0.21
-3 -10 -9 2 0.22
3 10 -9 1.88 0.25
-3 -10 9 2.03 0.23
-3 -10 9 1.24 0.22
3 -10 -9 1.86 0.25
3 -10 -9 2.08 0.19
4 10 -9 0.93 0.21
-4 -10 -9 0.86 0.18
-4 -10 -9 1.2 0.19
-4 -10 9 0.64 0.21
-4 -10 9 0.65 0.18
4 -10 -9 0.62 0.21
4 -10 -9 0.94 0.14
5 10 -9 19.89 0.93
-5 -10 -9 19.9 0.85
-5 -10 -9 17.92 0.85
-5 -10 9 19.11 0.91
-5 -10 9 20.11 0.94
5 -10 -9 19.14 0.93
5 -10 -9 18.69 0.81
-6 -10 -9 3.74 0.35
-6 -10 -9 3.88 0.3
6 10 -9 3.72 0.38
-6 -10 9 3.42 0.36
6 -10 -9 3.74 0.39
-6 -10 9 3.68 0.39
6 -10 -9 4.76 0.3
-7 -10 -9 1.18 0.24
7 10 -9 1.6 0.3
-7 -10 9 0.96 0.26
7 -10 -9 1.73 0.29
-7 -10 9 1.39 0.29
8 10 -9 10.71 0.65
-8 -10 -9 11.26 0.61
8 -10 -9 9.01 0.65
-8 -10 9 10.53 0.68
-8 -10 9 11.01 0.67
-9 -10 -9 0.41 0.24
9 10 -9 0.3 0.25
9 -10 -9 0.45 0.25
-9 -10 9 0.55 0.28
-9 -10 9 0.09 0.25
-10 -10 -9 0.01 0.24
10 10 -9 0.41 0.27
10 -10 -9 0.6 0.27
-10 -10 9 0.75 0.29
-10 -10 9 0.92 0.32
11 10 -9 0.63 0.3
-11 -10 -9 0.6 0.29
11 -10 -9 0.65 0.29
-11 -10 9 0.89 0.29
-11 -10 9 1.05 0.34
12 10 -9 0.16 0.28
-12 -10 9 0.5 0.3
12 -10 -9 0.89 0.33
0 -11 -9 1.2 0.14
0 -11 9 0.67 0.14
0 11 -9 0.99 0.13
0 -11 -9 0.77 0.17
-1 -11 -9 18.95 0.86
1 -11 9 18.69 0.82
-1 -11 -9 20.03 0.81
1 11 -9 18.61 0.85
-1 11 -9 19.76 0.78
-1 -11 9 18.82 0.85
-1 -11 9 20.59 0.83
1 -11 -9 19.93 0.8
1 -11 -9 19.59 0.89
2 11 -9 3.33 0.28
-2 -11 -9 2.83 0.24
2 -11 9 2.9 0.22
-2 -11 -9 2.57 0.25
2 -11 -9 2.84 0.2
-2 -11 9 2.64 0.23
-2 -11 9 2.81 0.28
2 -11 -9 2.74 0.28
-3 -11 -9 7.92 0.46
3 -11 9 8.35 0.4
-3 -11 -9 8.33 0.44
3 11 -9 8.11 0.49
3 -11 -9 8.32 0.4
3 -11 -9 8.14 0.5
-3 -11 9 8.12 0.46
-3 -11 9 7.68 0.48
-4 -11 -9 2.63 0.26
-4 -11 -9 2.16 0.25
4 11 -9 2.97 0.3
-4 -11 9 2.96 0.33
4 -11 -9 1.99 0.27
4 -11 -9 3.07 0.22
-4 -11 9 2.6 0.28
-5 -11 -9 12.96 0.65
-5 -11 -9 13.19 0.64
5 11 -9 14.07 0.73
-5 -11 9 12.83 0.69
-5 -11 9 12.82 0.7
5 -11 -9 12.88 0.72
5 -11 -9 13.59 0.6
-6 -11 -9 1.75 0.25
6 11 -9 1.37 0.27
-6 -11 -9 1.43 0.24
6 -11 -9 1.97 0.31
-6 -11 9 1.13 0.25
-6 -11 9 1.56 0.26
-7 -11 -9 3.59 0.37
7 11 -9 3.53 0.38
-7 -11 -9 3.38 0.32
-7 -11 9 3.7 0.41
7 -11 -9 3.71 0.42
-7 -11 9 3.37 0.4
-8 -11 -9 0.76 0.25
8 11 -9 0.99 0.26
8 -11 -9 1.22 0.3
-8 -11 9 1.08 0.29
-8 -11 9 1 0.29
9 11 -9 0.49 0.28
-9 -11 -9 0.83 0.26
-9 -11 9 0.62 0.27
-9 -11 9 0.48 0.28
9 -11 -9 0.47 0.25
10 11 -9 1.29 0.33
-10 -11 -9 1.17 0.27
-10 -11 9 1.53 0.31
10 -11 -9 1.31 0.33
-10 -11 9 1.38 0.36
11 11 -9 -0.18 0.23
-11 -11 -9 0.01 0.25
-11 -11 9 0.56 0.33
11 -11 -9 1.15 0.32
-11 -11 9 0.3 0.21
0 -12 9 0.02 0.09
0 -12 -9 0.03 0.08
0 -12 -9 -0.06 0.13
0 -12 9 0 0.11
1 -12 9 4.4 0.28
-1 -12 -9 3.85 0.26
1 12 -9 4.14 0.29
-1 -12 -9 3.88 0.32
-1 -12 9 4.46 0.28
1 -12 -9 3.65 0.24
1 -12 -9 3.73 0.33
-1 -12 9 4.17 0.31
-2 -12 -9 19.81 0.89
2 12 -9 20.19 0.9
-2 -12 -9 20.49 0.85
2 -12 9 20.26 0.85
2 -12 -9 18.33 0.91
2 -12 -9 20.9 0.82
-2 -12 9 20.36 0.86
-2 -12 9 17.89 0.89
-3 -12 -9 1.43 0.2
-3 -12 -9 1.9 0.24
3 12 -9 1.72 0.23
3 -12 9 1.43 0.18
3 -12 -9 1.52 0.16
-3 -12 9 1.51 0.25
3 -12 -9 1.44 0.23
-3 -12 9 1.36 0.21
4 12 -9 7.61 0.51
-4 -12 -9 9.08 0.47
-4 -12 -9 7.77 0.47
-4 -12 9 8.08 0.52
4 -12 -9 8.52 0.41
4 -12 -9 8.49 0.53
-4 -12 9 7.16 0.47
-5 -12 -9 5.72 0.4
-5 -12 -9 6.34 0.4
5 12 -9 5.28 0.45
-5 -12 9 5.72 0.42
-5 -12 9 6.41 0.47
5 -12 -9 5.79 0.46
-6 -12 -9 13.72 0.65
-6 -12 -9 13.31 0.66
6 12 -9 11.33 0.71
-6 -12 9 12.39 0.73
-6 -12 9 11.56 0.69
6 -12 -9 12.79 0.73
7 12 -9 1.19 0.26
-7 -12 -9 1.14 0.22
-7 -12 -9 0.97 0.24
7 -12 -9 1.19 0.29
-7 -12 9 0.59 0.25
-7 -12 9 0.61 0.27
-8 -12 -9 0.53 0.23
8 12 -9 0.39 0.27
-8 -12 9 1.02 0.3
8 -12 -9 0.9 0.28
-8 -12 9 0.49 0.26
-9 -12 -9 0.29 0.24
9 12 -9 0.57 0.23
9 -12 -9 0.42 0.27
-9 -12 9 0.6 0.28
-9 -12 9 0.67 0.29
-10 -12 -9 0 0.25
10 12 -9 0.21 0.27
-10 -12 9 0.63 0.28
-10 -12 9 0.29 0.23
10 -12 -9 0.13 0.25
-11 -12 -9 0.41 0.28
11 12 -9 0.64 0.31
11 -12 -9 0.76 0.31
-11 -12 9 0.53 0.33
-11 -12 9 0.4 0.3
0 -13 -9 5.81 0.41
0 -13 -9 6.54 0.34
0 -13 9 6.08 0.38
1 -13 9 2.66 0.24
-1 -13 -9 2.94 0.29
-1 -13 -9 3.05 0.23
-1 -13 9 2.52 0.27
1 -13 -9 2.66 0.2
1 -13 -9 2.83 0.31
-1 -13 9 3.36 0.25
2 13 -9 3.98 0.33
-2 -13 -9 3.34 0.27
2 -13 9 3.85 0.29
-2 -13 -9 3.85 0.33
-2 -13 9 4.27 0.34
2 -13 -9 3.79 0.37
-2 -13 9 4.13 0.29
2 -13 -9 4.34 0.25
-3 -13 -9 0.4 0.14
-3 -13 -9 0.47 0.18
3 -13 9 0.48 0.13
3 13 -9 0.2 0.18
3 -13 -9 0.29 0.19
-3 -13 9 0.35 0.16
-3 -13 9 0.87 0.19
4 13 -9 6.97 0.48
-4 -13 -9 6.62 0.4
-4 -13 -9 6.24 0.42
-4 -13 9 6.32 0.47
4 -13 -9 6.33 0.45
-4 -13 9 6.26 0.42
5 13 -9 3.18 0.37
-5 -13 -9 3.12 0.32
-5 -13 -9 3.16 0.31
-5 -13 9 3 0.34
-5 -13 9 3.32 0.37
5 -13 -9 2.97 0.37
-6 -13 -9 5.24 0.38
-6 -13 -9 5.24 0.37
6 13 -9 5.75 0.48
-6 -13 9 3.59 0.4
6 -13 -9 4.94 0.49
-6 -13 9 4.89 0.48
7 13 -9 3.94 0.44
-7 -13 -9 3.09 0.35
-7 -13 -9 3.12 0.33
-7 -13 9 2.81 0.4
7 -13 -9 3.79 0.45
-7 -13 9 3.1 0.39
8 13 -9 4.07 0.46
-8 -13 -9 3.3 0.38
8 -13 -9 4.35 0.49
-8 -13 9 2.98 0.44
-8 -13 9 3.68 0.45
9 13 -9 4.11 0.49
-9 -13 -9 2.95 0.4
-9 -13 9 3.74 0.47
9 -13 -9 3.49 0.47
-9 -13 9 4.27 0.49
10 13 -9 -0.07 0.25
-10 -13 -9 -0.01 0.24
-10 -13 9 0.38 0.27
-10 -13 9 0.08 0.28
10 -13 -9 0.38 0.26
11 13 -9 0.03 0.26
-11 -13 9 0.77 0.35
11 -13 -9 0.43 0.27
-11 -13 9 -0.01 0.2
0 -14 9 -0.03 0.12
0 -14 -9 -0.12 0.14
0 -14 -9 0.11 0.09
-1 -14 -9 12.61 0.58
1 -14 9 12.36 0.61
-1 -14 -9 12.47 0.66
-1 -14 9 11.99 0.62
1 -14 -9 12.07 0.65
1 -14 -9 13.26 0.56
-2 -14 -9 2.27 0.28
2 -14 9 2.34 0.25
-2 -14 -9 2.51 0.24
-2 -14 9 2.64 0.3
-2 -14 9 2.6 0.25
2 -14 -9 2.51 0.3
-3 -14 -9 7.99 0.44
-3 -14 -9 7.39 0.45
3 14 -9 8.21 0.51
3 -14 9 7.93 0.43
3 -14 -9 7.02 0.48
-3 -14 9 8.43 0.51
-3 -14 9 7.43 0.44
-4 -14 -9 4.39 0.33
-4 -14 -9 3.75 0.36
4 14 -9 4.2 0.41
-4 -14 9 4.21 0.34
4 -14 -9 4.38 0.37
-4 -14 9 3.96 0.39
-5 -14 -9 4.36 0.35
5 14 -9 4.31 0.43
-5 -14 -9 3.66 0.36
-5 -14 9 3.92 0.42
5 -14 -9 4.49 0.44
-5 -14 9 4.38 0.37
-6 -14 -9 0.16 0.18
-6 -14 -9 0.02 0.17
6 14 -9 0.46 0.24
-6 -14 9 0.2 0.23
-6 -14 9 0.48 0.21
6 -14 -9 0.18 0.17
-7 -14 -9 2.02 0.3
-7 -14 -9 2.33 0.3
7 14 -9 1.46 0.34
7 -14 -9 1.9 0.32
-7 -14 9 2.41 0.38
-7 -14 9 2.31 0.35
8 14 -9 4.51 0.51
-8 -14 -9 5.12 0.41
-8 -14 9 4.54 0.48
-8 -14 9 4.98 0.51
8 -14 -9 5.3 0.53
-9 -14 -9 0.24 0.26
9 14 -9 0.54 0.3
-9 -14 9 0.43 0.28
-9 -14 9 0.58 0.29
9 -14 -9 0.37 0.27
-10 -14 -9 0.31 0.27
10 14 -9 0.28 0.28
10 -14 -9 -0.01 0.24
-10 -14 9 0.28 0.28
-10 -14 9 0.2 0.29
11 -14 -9 0.05 0.26
0 -15 9 1.31 0.2
0 -15 -9 1.28 0.22
0 -15 -9 1.21 0.15
-1 -15 -9 3.67 0.35
1 -15 9 3.22 0.28
-1 -15 -9 3.45 0.26
1 -15 -9 2.79 0.34
-1 -15 9 3.25 0.32
-2 -15 -9 1.07 0.2
2 -15 9 1.37 0.2
-2 -15 -9 1.53 0.19
-2 -15 9 1.38 0.25
2 -15 -9 0.98 0.24
3 -15 9 0.99 0.18
-3 -15 -9 1.25 0.24
-3 -15 -9 0.92 0.18
-3 -15 9 0.83 0.19
-3 -15 9 1.3 0.21
3 -15 -9 0.79 0.2
4 15 -9 3.27 0.37
-4 -15 -9 2.63 0.31
-4 -15 -9 2.62 0.28
-4 -15 9 2.99 0.36
4 -15 -9 3.11 0.37
-4 -15 9 2.64 0.31
-5 -15 -9 1.11 0.22
5 15 -9 1.03 0.27
-5 -15 -9 0.89 0.23
-5 -15 9 0.77 0.22
5 -15 -9 1.42 0.27
-5 -15 9 1.12 0.28
-6 -15 -9 1.26 0.25
6 15 -9 1.83 0.33
-6 -15 -9 1.66 0.27
-6 -15 9 1.6 0.29
6 -15 -9 1.81 0.34
-6 -15 9 1.8 0.31
-7 -15 -9 2.83 0.34
7 15 -9 3.37 0.44
-7 -15 -9 3.04 0.35
7 -15 -9 3.21 0.44
-7 -15 9 2.88 0.41
-7 -15 9 2.93 0.38
-8 -15 -9 2.71 0.35
8 15 -9 1.86 0.34
-8 -15 9 2.63 0.38
8 -15 -9 2.53 0.4
-8 -15 9 2.94 0.43
-9 -15 -9 -0.23 0.22
9 15 -9 0.33 0.24
9 -15 -9 0.52 0.28
-9 -15 9 0.2 0.27
-9 -15 9 0.41 0.28
10 15 -9 0.53 0.33
-10 -15 -9 0.37 0.22
10 -15 -9 0.24 0.28
-10 -15 9 0.56 0.31
-10 -15 9 0.15 0.21
11 -15 -9 0.79 0.34
0 -16 9 0.92 0.19
0 -16 -9 0.76 0.19
-1 -16 -9 1.06 0.21
1 -16 9 1 0.19
-1 -16 -9 1.25 0.18
-1 -16 9 1.45 0.23
1 -16 -9 1.34 0.26
-2 -16 -9 0.68 0.17
2 -16 9 0.38 0.15
-2 -16 -9 0.44 0.2
2 -16 -9 0.56 0.21
-2 -16 9 0.64 0.21
-3 -16 -9 0.62 0.17
3 -16 9 0.34 0.15
-3 -16 -9 0.61 0.18
-3 -16 9 0.49 0.22
3 -16 -9 0.63 0.24
-4 -16 -9 0.67 0.19
-4 -16 -9 0.97 0.2
-4 -16 9 0.58 0.2
4 -16 -9 0.86 0.26
-4 -16 9 0.92 0.26
-5 -16 -9 0.63 0.2
5 16 -9 0.43 0.27
-5 -16 -9 0.98 0.24
5 -16 -9 0.75 0.24
-5 -16 9 0.73 0.21
-5 -16 9 1.02 0.29
-6 -16 -9 6.16 0.48
6 16 -9 7.42 0.53
-6 -16 -9 6.58 0.46
-6 -16 9 6.28 0.49
6 -16 -9 7.02 0.53
-6 -16 9 7.24 0.57
-7 -16 -9 1.57 0.29
7 16 -9 1.62 0.31
-7 -16 -9 1.73 0.29
-7 -16 9 1.38 0.34
-7 -16 9 1.65 0.32
7 -16 -9 1.83 0.36
8 16 -9 1.12 0.34
-8 -16 -9 0.7 0.25
-8 -16 9 0.66 0.28
-8 -16 9 0.77 0.31
8 -16 -9 1.42 0.34
9 16 -9 -0.07 0.26
-9 -16 -9 0.01 0.22
-9 -16 9 0.03 0.27
-9 -16 9 0.24 0.26
9 -16 -9 0.18 0.27
10 -16 -9 0.59 0.32
-10 -16 9 0.61 0.32
0 -17 9 0.91 0.2
0 -17 -9 0.73 0.19
-1 -17 -9 1.64 0.28
1 -17 9 1.55 0.23
1 -17 -9 1.03 0.26
-1 -17 9 1.27 0.24
-2 -17 -9 1.53 0.21
2 -17 9 1.56 0.22
-2 -17 -9 1.24 0.26
2 -17 -9 1.68 0.3
-2 -17 9 1.09 0.25
-3 -17 -9 2.66 0.34
-3 -17 -9 2.18 0.25
3 -17 9 2.65 0.28
3 -17 -9 2.8 0.34
-3 -17 9 2.47 0.35
-4 -17 -9 0.47 0.22
-4 -17 -9 0.08 0.15
4 -17 -9 0.42 0.24
-4 -17 9 -0.07 0.21
-5 -17 -9 1.25 0.27
-5 -17 -9 0.97 0.22
-5 -17 9 1.81 0.34
-5 -17 9 0.66 0.21
5 -17 -9 1.33 0.32
-6 -17 -9 1.26 0.25
-6 -17 -9 1.02 0.26
6 17 -9 0.91 0.31
6 -17 -9 1.42 0.33
-6 -17 9 1.27 0.33
-6 -17 9 0.67 0.23
-7 -17 -9 2.81 0.36
-7 -17 -9 3.5 0.39
7 17 -9 4.01 0.48
-7 -17 9 3.04 0.4
7 -17 -9 3.32 0.45
-7 -17 9 3.39 0.45
8 17 -9 -0.21 0.18
-8 -17 -9 0.62 0.25
-8 -17 9 0.8 0.27
-8 -17 9 0.73 0.31
8 -17 -9 0.4 0.28
9 17 -9 2.52 0.44
-9 -17 -9 1.14 0.31
-9 -17 9 2.11 0.42
-9 -17 9 1.93 0.38
9 -17 -9 2.03 0.39
10 -17 -9 1.39 0.39
0 -18 9 3.83 0.37
0 -18 -9 3.7 0.41
1 -18 9 3.63 0.35
-1 -18 -9 3.51 0.39
-1 -18 9 3.85 0.38
1 -18 -9 3.04 0.39
2 -18 9 -0.06 0.13
-2 -18 -9 -0.05 0.2
-2 -18 9 0.35 0.21
2 -18 -9 0.17 0.22
-3 -18 -9 1.42 0.29
-3 -18 -9 1.68 0.25
3 -18 -9 1.49 0.32
-3 -18 9 1.59 0.28
-4 -18 -9 3.45 0.4
-4 -18 -9 3.46 0.34
4 -18 -9 4.25 0.47
-4 -18 9 4.12 0.45
-5 -18 -9 0.83 0.24
-5 -18 -9 0.61 0.25
-5 -18 9 0.48 0.29
5 -18 -9 1.04 0.31
-6 -18 -9 0.99 0.27
-6 -18 -9 0.63 0.23
-6 -18 9 0.63 0.29
6 -18 -9 1.05 0.33
-7 -18 -9 0.91 0.27
-7 -18 -9 0.73 0.25
7 -18 -9 0.86 0.32
-7 -18 9 0.38 0.24
-7 -18 9 1.65 0.36
-8 -18 -9 0.39 0.25
-8 -18 9 0.2 0.25
8 -18 -9 0.74 0.29
-8 -18 9 0.42 0.3
-9 -18 -9 0.32 0.26
-9 -18 9 -0.1 0.26
9 -18 -9 0.23 0.26
0 -19 9 0.65 0.21
0 -19 -9 0.61 0.26
-1 -19 -9 1.84 0.29
1 -19 9 1.54 0.26
-1 -19 9 2.17 0.31
1 -19 -9 1.29 0.3
-2 -19 -9 0.51 0.24
2 -19 9 0.15 0.18
-2 -19 9 0.5 0.24
2 -19 -9 0.57 0.26
-3 -19 -9 1.79 0.29
-3 -19 9 1.52 0.32
3 -19 -9 1.98 0.36
-4 -19 -9 3.04 0.39
4 -19 -9 3.83 0.44
-4 -19 9 3.38 0.4
-5 -19 -9 0.18 0.19
-5 -19 -9 0.28 0.24
5 -19 -9 0.14 0.26
-5 -19 9 0.23 0.26
-6 -19 -9 1.72 0.29
-6 -19 -9 2.26 0.35
-6 -19 9 1.79 0.39
6 -19 -9 2.13 0.37
-7 -19 -9 1.29 0.3
-7 -19 -9 1.23 0.29
-7 -19 9 1.8 0.4
7 -19 -9 0.66 0.33
-8 -19 -9 0.68 0.27
-8 -19 9 0.57 0.3
8 -19 -9 0.65 0.31
-8 -19 9 0.48 0.32
-9 -19 9 0.01 0.27
0 -20 9 1.16 0.26
0 -20 -9 0.83 0.25
1 -20 9 4.1 0.4
-1 -20 -9 3.98 0.46
-1 -20 9 3.33 0.4
1 -20 -9 4.54 0.48
-2 -20 -9 2.17 0.36
2 -20 9 1.77 0.28
2 -20 -9 2.83 0.4
-2 -20 9 1.9 0.33
-3 -20 -9 0.29 0.24
3 -20 -9 0.51 0.27
-3 -20 9 0.3 0.24
-4 -20 -9 5.97 0.51
-4 -20 9 5.77 0.56
4 -20 -9 5.4 0.57
-5 -20 -9 1.14 0.31
5 -20 -9 0.75 0.31
-5 -20 9 0.69 0.31
-6 -20 -9 0.14 0.21
-6 -20 -9 0.02 0.24
6 -20 -9 0.35 0.31
-6 -20 9 0.13 0.3
-7 -20 -9 1.45 0.32
-7 -20 -9 0.76 0.27
7 -20 -9 1.31 0.37
-7 -20 9 1.57 0.39
-8 -20 -9 0.5 0.27
0 -21 -9 1.73 0.35
0 -21 9 0.72 0.23
1 -21 9 0.41 0.21
-1 -21 -9 0.84 0.29
1 -21 -9 0.36 0.21
-1 -21 9 0.62 0.24
-2 -21 -9 2.81 0.41
2 -21 9 2.57 0.35
2 -21 -9 3.36 0.44
-2 -21 9 3.02 0.4
-3 -21 -9 3.47 0.44
3 -21 -9 4.21 0.51
-3 -21 9 4.2 0.47
-4 -21 -9 0.19 0.25
-4 -21 9 -0.12 0.25
4 -21 -9 0.14 0.27
-5 -21 -9 1.41 0.33
5 -21 -9 1.1 0.3
-5 -21 9 0.88 0.35
-6 -21 -9 0.77 0.3
-6 -21 9 0.47 0.32
6 -21 -9 0.31 0.3
-7 -21 -9 0.29 0.27
7 -21 -9 -0.14 0.24
0 -22 -9 -0.03 0.18
0 -22 9 -0.09 0.2
-1 -22 -9 2.27 0.35
1 -22 9 1.89 0.31
-1 -22 9 2.1 0.34
1 -22 -9 1.6 0.36
-2 -22 -9 0.33 0.2
2 -22 -9 0.18 0.21
-2 -22 9 1.03 0.3
-3 -22 -9 2.53 0.41
3 -22 -9 4.04 0.49
-3 -22 9 3.06 0.43
-4 -22 -9 1.45 0.33
-4 -22 9 0.9 0.31
4 -22 -9 0.48 0.31
-5 -22 -9 0.04 0.25
-5 -22 9 -0.07 0.2
5 -22 -9 -0.08 0.2
-6 -22 -9 0.07 0.26
0 -23 9 0.2 0.24
0 -23 -9 0.38 0.28
1 -23 9 0.09 0.2
-1 -23 -9 0.29 0.28
-1 -23 9 -0.13 0.21
1 -23 -9 0.27 0.22
-2 -23 -9 0.22 0.27
2 -23 -9 0.6 0.32
-2 -23 9 0.15 0.27
-3 -23 -9 0.6 0.31
-3 -23 9 0.87 0.33
3 -23 -9 0.71 0.32
-4 -23 -9 0.4 0.29
4 -23 -9 1.41 0.33
-4 -23 9 1.03 0.34
-5 -23 -9 -0.09 0.26
0 -24 9 1.17 0.3
0 -24 -9 1.25 0.36
-1 -24 -9 1.27 0.37
1 -24 9 2.04 0.34
-1 -24 9 1.52 0.33
1 -24 -9 2.04 0.4
-2 -24 -9 0.2 0.29
2 -24 -9 0.35 0.28
-2 -24 9 0.13 0.26
-3 -24 9 0.29 0.32
0 -25 9 0.94 0.3
-1 -25 9 1.71 0.34
0 0 -10 210.52 7.83
0 0 -10 218.95 7.95
1 0 -10 0.33 0.1
-1 0 -10 0.37 0.09
-1 0 -10 0.47 0.08
1 0 -10 0.21 0.07
-2 0 -10 5.16 0.27
-2 0 -10 5.34 0.25
2 0 -10 5.64 0.32
2 0 -10 5.59 0.3
-3 0 -10 0.2 0.08
3 0 -10 -0.08 0.06
3 0 -10 0.03 0.11
-3 0 -10 0.06 0.04
4 0 -10 0.06 0.1
4 0 -10 -0.16 0.09
-4 0 -10 -0.02 0.09
5 0 -10 0.56 0.14
-5 0 -10 0.48 0.12
5 0 -10 0.31 0.16
-6 0 -10 0.58 0.12
-6 0 10 0.52 0.17
6 0 -10 0.16 0.17
-7 0 10 1.07 0.22
7 0 -10 0.71 0.18
-8 0 10 0.24 0.18
-8 0 -10 0.14 0.14
8 0 -10 0.15 0.14
-9 0 10 0.7 0.23
9 0 -10 0.11 0.16
-9 0 -10 0.34 0.17
-10 0 10 1.02 0.27
10 0 -10 1.44 0.27
-10 0 -10 1.13 0.24
-11 0 -10 1.52 0.27
11 0 -10 1.72 0.31
-11 0 10 1.59 0.35
-12 0 -10 2.44 0.33
-12 0 10 2.18 0.39
12 0 -10 1.83 0.36
-13 0 10 2.27 0.41
13 0 -10 3.34 0.47
0 -1 -10 92.42 3.56
0 -1 -10 100.74 3.62
0 1 -10 94.52 3.56
0 1 -10 98.27 3.62
1 1 -10 29.03 1.14
1 1 -10 29.86 1.18
-1 -1 -10 29.46 1.14
-1 -1 -10 28.53 1.14
1 -1 -10 30.59 1.18
-1 1 -10 27.93 1.13
1 -1 -10 29.68 1.15
-1 1 -10 29.39 1.13
2 1 -10 62.35 2.39
-2 -1 -10 64.48 2.37
2 1 -10 62.11 2.44
-2 -1 -10 63.22 2.38
-2 1 -10 63.51 2.37
2 -1 -10 62.43 2.45
2 -1 -10 63.85 2.39
-2 1 -10 65 2.36
3 1 -10 18.1 0.77
-3 -1 -10 18.72 0.7
3 1 -10 18.14 0.8
-3 -1 -10 17.28 0.74
3 -1 -10 17.8 0.76
-3 1 -10 17.44 0.73
3 -1 -10 17.94 0.8
-3 1 -10 17.67 0.67
-4 -1 -10 4.93 0.2
-4 -1 -10 4.06 0.26
4 1 -10 5.07 0.32
4 1 -10 5.17 0.35
4 -1 -10 4.6 0.32
-4 1 -10 4.4 0.27
4 -1 -10 4.29 0.3
5 1 -10 30.32 1.26
-5 -1 -10 29.36 1.18
5 1 -10 30.16 1.23
5 -1 -10 27.98 1.21
-5 1 -10 28.74 1.16
5 -1 -10 29.13 1.26
-6 -1 -10 11.94 0.57
6 1 -10 12.91 0.67
-6 1 10 11.35 0.62
-6 1 -10 12.23 0.56
6 -1 -10 12.25 0.66
-6 -1 10 12.2 0.62
7 1 -10 11.53 0.65
-7 1 10 11.31 0.62
-7 -1 -10 11.65 0.57
7 -1 -10 11.97 0.66
-7 -1 10 10.95 0.63
-7 1 -10 11.33 0.55
-8 -1 -10 3.93 0.32
-8 1 10 3.22 0.36
8 1 -10 3.95 0.4
-8 -1 10 3.91 0.34
8 -1 -10 3.69 0.39
-8 1 -10 3.75 0.3
-9 -1 -10 1.7 0.25
9 1 -10 1.61 0.28
-9 1 10 2.27 0.32
-9 -1 10 2.04 0.3
9 -1 -10 2.01 0.29
-9 1 -10 2.12 0.26
-10 1 10 0.51 0.24
10 1 -10 1.24 0.29
-10 -1 -10 0.41 0.2
10 -1 -10 1.09 0.28
-10 1 -10 0.53 0.19
-10 -1 10 1.08 0.28
11 1 -10 0.68 0.26
-11 -1 -10 0.59 0.22
-11 1 10 0.96 0.28
-11 1 -10 0.24 0.18
-11 -1 10 0.63 0.26
11 -1 -10 0.79 0.27
-12 -1 -10 0.36 0.22
12 1 -10 0.67 0.28
-12 1 10 0.72 0.28
12 -1 -10 0.24 0.24
-12 1 -10 0.47 0.22
-12 -1 10 0.52 0.28
13 1 -10 1.11 0.33
-13 1 10 0.33 0.26
-13 -1 -10 0.15 0.23
-13 -1 10 0.65 0.3
13 -1 -10 0.49 0.28
0 -2 -10 3.65 0.21
0 2 -10 3.6 0.22
0 2 -10 3.83 0.22
0 -2 -10 4.14 0.24
-1 -2 -10 0.53 0.09
1 2 -10 0.67 0.1
-1 -2 -10 1 0.11
1 2 -10 0.73 0.12
1 -2 -10 0.83 0.11
-1 2 -10 0.69 0.09
1 -2 -10 0.66 0.13
-1 2 -10 0.97 0.11
-2 -2 -10 25.5 1.02
-2 -2 -10 25.95 1
2 2 -10 25.98 1.04
2 2 -10 25.99 1.07
-2 2 -10 24.6 1.01
2 -2 -10 26.46 1.03
-2 2 -10 26.24 0.98
2 -2 -10 25.23 1.07
3 2 -10 36.1 1.46
-3 -2 -10 36.25 1.44
-3 -2 -10 37.2 1.4
3 2 -10 36.3 1.5
-3 2 -10 37.68 1.42
3 -2 -10 37.54 1.45
3 -2 -10 38.18 1.51
-4 -2 -10 15.25 0.58
-4 -2 -10 14.34 0.64
4 2 -10 14.31 0.71
4 2 -10 15.16 0.69
4 -2 -10 14.59 0.71
4 -2 -10 14.52 0.66
-4 2 -10 14.85 0.63
-5 -2 -10 3.25 0.23
5 2 -10 3.4 0.33
5 2 -10 3.3 0.31
5 -2 -10 3.44 0.33
5 -2 -10 3.41 0.28
-5 2 -10 3.48 0.23
-6 -2 -10 6.33 0.37
6 2 -10 6.95 0.44
-6 -2 10 6.86 0.44
6 -2 -10 6.92 0.42
6 -2 -10 6.62 0.45
-6 2 -10 6.5 0.36
7 2 -10 8.46 0.52
-7 2 10 7.31 0.47
-7 -2 -10 7.25 0.43
-7 2 -10 7.4 0.4
7 -2 -10 7.83 0.51
-7 -2 10 6.77 0.46
-8 2 10 6.16 0.44
8 2 -10 6.34 0.48
-8 -2 -10 6.26 0.41
8 -2 -10 6.32 0.47
-8 -2 10 5.72 0.43
-8 2 -10 6.09 0.37
9 2 -10 2.48 0.32
-9 2 10 1.94 0.3
-9 -2 -10 2.19 0.29
-9 -2 10 2.65 0.35
9 -2 -10 1.75 0.3
-9 2 -10 2.3 0.25
-10 2 10 2.16 0.34
10 2 -10 2.45 0.36
-10 -2 -10 2.61 0.33
-10 2 -10 2.67 0.29
-10 -2 10 2.65 0.38
10 -2 -10 1.5 0.32
-11 2 10 0.63 0.26
11 2 -10 1.76 0.33
-11 -2 -10 1.26 0.27
-11 2 -10 1.04 0.23
-11 -2 10 1.28 0.32
11 -2 -10 1.31 0.27
12 2 -10 0.94 0.29
-12 -2 -10 0.57 0.24
-12 2 10 0.69 0.27
-12 -2 10 1.03 0.31
12 -2 -10 1.07 0.29
-13 -2 -10 0.43 0.24
-13 2 10 -0.23 0.23
13 2 -10 0.28 0.29
13 -2 -10 0.03 0.23
-13 -2 10 0 0.26
0 -3 -10 21.55 0.89
0 -3 -10 21.19 0.87
0 3 -10 21.95 0.87
0 3 -10 22.14 0.88
1 3 -10 85.87 3.22
-1 -3 -10 86.89 3.16
1 3 -10 83.66 3.16
-1 -3 -10 85.06 3.2
1 -3 -10 84.33 3.16
-1 3 -10 87.42 3.18
1 -3 -10 85.31 3.23
-1 3 -10 82.49 3.15
-2 -3 -10 5.83 0.29
2 3 -10 6.51 0.35
-2 -3 -10 6.38 0.32
2 3 -10 5.9 0.33
2 -3 -10 5.88 0.35
-2 3 -10 5.85 0.3
-2 3 -10 6.08 0.26
2 -3 -10 6.26 0.32
3 3 -10 19.33 0.85
-3 -3 -10 20.15 0.83
-3 -3 -10 20.19 0.79
3 3 -10 19.19 0.87
-3 3 -10 20.52 0.81
3 -3 -10 19.97 0.83
3 -3 -10 20.82 0.89
-4 -3 -10 7.58 0.41
4 3 -10 8.45 0.45
4 3 -10 8.03 0.47
-4 -3 -10 8.49 0.36
-4 3 -10 8.7 0.39
4 -3 -10 7.88 0.47
4 -3 -10 8.13 0.43
5 3 -10 9.54 0.54
-5 -3 -10 9.28 0.47
-5 3 -10 9.31 0.43
5 -3 -10 9.06 0.53
-5 -3 10 9.11 0.51
5 -3 -10 9.21 0.47
-6 -3 -10 2.69 0.26
6 3 -10 2.97 0.31
6 -3 -10 2.82 0.31
6 -3 -10 2.56 0.28
-6 3 -10 3.12 0.22
-6 -3 10 2.45 0.28
-7 -3 -10 5.66 0.37
-7 3 10 6.23 0.42
7 3 -10 6 0.43
7 -3 -10 6.09 0.43
-7 3 -10 6.49 0.36
-7 -3 10 6.73 0.46
-8 -3 -10 3.88 0.34
8 3 -10 3.98 0.41
-8 3 10 3.91 0.38
8 -3 -10 4.35 0.42
-8 -3 10 4.27 0.42
-8 3 -10 3.78 0.29
-9 -3 -10 3.93 0.34
-9 3 10 4.83 0.41
9 3 -10 4.58 0.45
9 -3 -10 4.61 0.46
-9 -3 10 4.79 0.47
-9 3 -10 4.07 0.31
-10 3 10 3.41 0.4
10 3 -10 3.79 0.44
-10 -3 -10 3.73 0.39
-10 3 -10 3.81 0.34
-10 -3 10 3.65 0.42
10 -3 -10 3.42 0.4
-11 3 10 0.52 0.25
-11 -3 -10 0.27 0.22
11 3 -10 0.2 0.24
11 -3 -10 0.45 0.24
-11 -3 10 0.16 0.19
-12 -3 -10 0.47 0.25
-12 3 10 0.66 0.27
12 3 -10 1.08 0.32
12 -3 -10 1.04 0.29
-12 -3 10 0.37 0.27
13 3 -10 0.54 0.28
-13 -3 -10 0.38 0.26
13 -3 -10 0.48 0.3
0 -4 -10 0.51 0.11
0 -4 -10 0.6 0.11
0 4 -10 0.41 0.08
0 4 -10 0.59 0.11
1 4 -10 42.49 1.67
-1 -4 -10 42.17 1.65
1 4 -10 42.45 1.63
-1 -4 -10 45.43 1.64
-1 4 -10 42.75 1.62
1 -4 -10 41.27 1.68
-1 4 -10 43.01 1.61
1 -4 -10 41.68 1.63
2 -4 10 17.52 0.67
-2 -4 -10 16.88 0.7
2 4 -10 18.19 0.76
-2 -4 -10 17.25 0.72
2 4 -10 17.54 0.73
-2 4 -10 17.11 0.69
2 -4 -10 16.46 0.71
2 -4 -10 16.27 0.76
-2 4 -10 17.29 0.67
-3 -4 -10 1.21 0.15
3 4 -10 1.18 0.16
-3 -4 -10 1.25 0.12
3 -4 10 1.36 0.07
3 4 -10 1.24 0.19
-3 4 -10 1.43 0.14
3 -4 -10 1.44 0.2
3 -4 -10 1.23 0.16
-4 -4 -10 4.87 0.32
4 4 -10 5.34 0.37
-4 -4 -10 5.4 0.27
4 4 -10 5.09 0.33
4 -4 -10 6.13 0.33
-4 4 -10 5.75 0.29
4 -4 -10 5.13 0.35
-5 -4 -10 1.04 0.18
5 4 -10 0.93 0.19
-5 -4 -10 1.36 0.13
-5 -4 10 1.11 0.19
5 -4 -10 1.25 0.18
-5 4 -10 1.13 0.14
5 -4 -10 0.91 0.21
6 4 -10 8.79 0.52
-6 -4 -10 8.57 0.47
6 -4 -10 8.7 0.48
-6 -4 10 8.2 0.52
-6 4 -10 9.18 0.43
6 -4 -10 8.73 0.54
-7 4 10 6.5 0.42
-7 -4 -10 5.93 0.4
7 4 -10 6.77 0.48
-7 -4 10 6.23 0.45
7 -4 -10 6.58 0.46
-7 4 -10 5.74 0.34
-8 -4 -10 0.96 0.22
-8 4 10 1.43 0.24
8 4 -10 1 0.26
8 -4 -10 0.83 0.23
-8 -4 10 1.4 0.27
-8 4 -10 1.31 0.18
9 4 -10 3.24 0.38
-9 -4 -10 3.75 0.37
-9 4 10 3.95 0.39
9 -4 -10 4.01 0.42
-9 4 -10 3.61 0.29
-9 -4 10 4.43 0.45
10 4 -10 2.68 0.38
-10 -4 -10 2 0.32
-10 4 10 2.13 0.32
10 -4 -10 2.02 0.35
-10 -4 10 2.05 0.36
-11 4 10 1.7 0.32
-11 -4 -10 1.81 0.32
11 4 -10 1.83 0.35
11 -4 -10 1.27 0.3
-11 -4 10 1.96 0.38
-12 4 10 2.28 0.38
12 4 -10 3.07 0.43
-12 -4 -10 1.91 0.36
-12 -4 10 3.24 0.47
12 -4 -10 2.45 0.39
13 4 -10 0.09 0.26
13 -4 -10 -0.08 0.27
0 5 -10 13.68 0.58
0 -5 -10 13.63 0.59
0 -5 -10 13.67 0.61
0 5 -10 14.44 0.6
-1 -5 -10 0.65 0.11
-1 -5 -10 0.59 0.11
1 5 -10 0.6 0.12
1 5 -10 0.8 0.12
-1 5 -10 0.6 0.09
-1 5 -10 0.64 0.09
1 -5 -10 0.74 0.11
1 -5 -10 0.49 0.13
2 5 -10 19.81 0.84
-2 -5 -10 19.53 0.83
2 5 -10 19.74 0.87
2 -5 10 20.4 0.79
-2 -5 -10 20.9 0.83
2 -5 -10 19.73 0.88
-2 5 -10 19.32 0.8
-2 5 -10 20.95 0.79
2 -5 -10 21.26 0.83
3 5 -10 14.63 0.67
-3 -5 -10 14.08 0.64
3 -5 10 15.61 0.57
-3 -5 -10 13.87 0.62
3 5 -10 13.96 0.69
3 -5 -10 14.91 0.7
3 -5 -10 15.15 0.65
-3 5 -10 15.45 0.61
4 5 -10 1.33 0.2
4 5 -10 1.76 0.24
-4 -5 -10 1.63 0.15
-4 -5 -10 1.6 0.18
4 -5 -10 1.32 0.22
4 -5 -10 1.58 0.18
-4 5 -10 1.52 0.15
-5 -5 -10 14.9 0.68
-5 -5 -10 16.48 0.64
5 5 -10 13.74 0.74
-5 -5 10 15.25 0.74
5 -5 -10 15.56 0.69
-5 5 -10 14.71 0.64
5 -5 -10 15.22 0.75
-6 -5 -10 5.57 0.36
6 5 -10 4.79 0.37
-6 5 -10 4.91 0.28
6 -5 -10 4.7 0.33
-6 -5 10 4.87 0.39
6 -5 -10 5.37 0.41
-7 -5 -10 1.74 0.24
-7 5 10 2.06 0.26
7 5 -10 1.8 0.27
-7 5 -10 2.01 0.19
7 -5 -10 2.05 0.3
-7 -5 10 2.37 0.31
-8 5 10 0.19 0.16
8 5 -10 0.39 0.23
-8 -5 -10 0.22 0.14
-8 5 -10 0.13 0.13
8 -5 -10 0.04 0.14
-8 -5 10 0.25 0.2
9 5 -10 0.08 0.16
-9 -5 -10 0.27 0.2
-9 5 10 0.31 0.18
-9 -5 10 0.5 0.24
9 -5 -10 0.33 0.18
10 5 -10 0.31 0.2
-10 5 10 0.35 0.19
-10 -5 -10 0.18 0.21
10 -5 -10 0.53 0.22
-10 -5 10 0.35 0.26
-11 -5 -10 2.04 0.34
-11 5 10 1.69 0.31
11 5 -10 2.08 0.36
-11 -5 10 3.51 0.46
11 -5 -10 1.89 0.32
-12 -5 -10 1.23 0.31
12 5 -10 1.37 0.34
-12 -5 10 1.95 0.41
12 -5 -10 2.38 0.38
13 -5 -10 0.84 0.34
0 6 -10 13.43 0.55
0 -6 -10 12.35 0.58
0 -6 -10 12.23 0.55
0 6 -10 13.2 0.56
1 6 -10 18.25 0.76
1 -6 10 18.85 0.74
1 6 -10 17.62 0.78
-1 -6 -10 18.8 0.77
-1 -6 -10 18.45 0.76
-1 6 -10 18.49 0.74
-1 6 -10 17.67 0.73
1 -6 -10 17.77 0.79
1 -6 -10 18.37 0.75
-2 -6 -10 38.18 1.47
2 6 -10 35.84 1.5
2 6 -10 37.54 1.47
-2 -6 -10 35.32 1.45
2 -6 10 37.89 1.43
2 -6 -10 37.85 1.52
2 -6 -10 38.95 1.45
-2 6 -10 37.7 1.42
3 6 -10 1.95 0.23
-3 -6 -10 1.91 0.18
-3 -6 -10 1.77 0.19
3 -6 10 2.05 0.12
3 6 -10 2.1 0.22
3 -6 -10 2.15 0.18
3 -6 -10 1.69 0.21
-3 6 -10 1.98 0.15
4 6 -10 0.61 0.18
-4 -6 -10 0.62 0.15
-4 -6 -10 0.73 0.13
4 -6 -10 0.64 0.15
-4 -6 10 0.66 0.17
4 -6 -10 0.86 0.14
-4 6 -10 0.74 0.11
-5 -6 -10 8.84 0.4
-5 -6 -10 7.15 0.41
5 6 -10 7.52 0.49
5 -6 -10 7.61 0.42
5 -6 -10 8.33 0.5
-5 6 -10 8.19 0.38
-5 -6 10 7.43 0.48
6 6 -10 6.16 0.45
-6 -6 -10 5.39 0.35
-6 -6 10 6.78 0.45
6 -6 -10 5.46 0.36
6 -6 -10 5.58 0.43
-6 6 -10 5.49 0.3
-7 6 10 4.49 0.34
7 6 -10 3.81 0.41
-7 -6 -10 3.73 0.35
7 -6 -10 4.13 0.36
-7 6 -10 4.57 0.27
-7 -6 10 4.18 0.41
8 6 -10 6.13 0.5
-8 6 10 5.84 0.42
-8 -6 -10 6.42 0.42
-8 -6 10 6.27 0.47
8 -6 -10 5.95 0.48
9 6 -10 0.73 0.23
-9 -6 -10 0.71 0.24
-9 6 10 1.05 0.22
9 -6 -10 1.07 0.28
-9 -6 10 1.33 0.27
10 6 -10 0.14 0.24
-10 -6 -10 -0.15 0.21
-10 6 10 0 0.16
-10 -6 10 -0.07 0.22
10 -6 -10 0.02 0.2
-11 -6 -10 -0.3 0.21
11 6 -10 0.04 0.24
11 -6 -10 0.13 0.23
-11 -6 10 -0.26 0.23
12 6 -10 -0.28 0.22
-12 -6 -10 0.08 0.19
-12 -6 10 0.2 0.22
12 -6 -10 0.68 0.27
13 -6 -10 0.41 0.32
0 7 -10 0.16 0.08
0 7 -10 0.15 0.08
0 -7 -10 0.24 0.09
0 -7 10 0.11 0.08
0 -7 -10 0.31 0.11
-1 -7 -10 21.86 0.91
-1 -7 -10 21.2 0.88
1 7 -10 21.41 0.88
1 -7 10 21.43 0.87
1 7 -10 22.39 0.91
1 -7 -10 20.76 0.93
-1 7 -10 22.8 0.86
-1 7 -10 21.8 0.87
1 -7 -10 21.13 0.87
-2 -7 -10 40.03 1.54
2 7 -10 39.57 1.53
2 -7 10 39.81 1.5
2 7 -10 39.44 1.57
-2 -7 -10 40.61 1.52
-2 7 -10 37.44 1.47
2 -7 -10 38.16 1.58
2 -7 -10 37.34 1.51
3 7 -10 5.72 0.36
3 -7 10 6.17 0.28
-3 -7 -10 5.88 0.35
-3 -7 -10 6.41 0.34
3 7 -10 5.94 0.39
-3 7 -10 6.86 0.3
3 -7 -10 6.24 0.33
3 -7 -10 5.69 0.39
4 7 -10 1.18 0.21
-4 -7 -10 0.86 0.17
-4 -7 -10 1.12 0.15
-4 7 -10 1.2 0.13
4 -7 -10 0.94 0.18
-4 -7 10 1.18 0.21
4 -7 -10 1.34 0.16
-5 -7 -10 9.45 0.43
5 7 -10 8.23 0.52
-5 -7 -10 8.63 0.46
5 -7 -10 7.66 0.48
-5 7 -10 8.25 0.38
5 -7 -10 7.76 0.43
-5 -7 10 7.85 0.49
-6 -7 -10 5.86 0.36
6 7 -10 6.49 0.46
6 -7 -10 4.92 0.34
6 -7 -10 5.46 0.43
-6 7 -10 5.53 0.3
-6 -7 10 5.8 0.41
-7 7 10 6.46 0.41
7 7 -10 6.69 0.46
-7 -7 -10 6.39 0.43
7 -7 -10 6.53 0.48
-7 -7 10 5.61 0.47
8 7 -10 2.71 0.37
-8 -7 -10 2.96 0.31
-8 7 10 2.9 0.31
-8 -7 10 2.38 0.36
8 -7 -10 2.6 0.36
-9 7 10 1.64 0.26
-9 -7 -10 1.03 0.26
9 7 -10 1.36 0.27
9 -7 -10 0.98 0.28
-9 -7 10 1.08 0.3
10 7 -10 0.56 0.27
-10 -7 -10 0.65 0.26
10 -7 -10 1.08 0.3
-10 -7 10 0.72 0.27
-11 -7 -10 1.02 0.32
11 7 -10 0.66 0.28
11 -7 -10 1.66 0.35
-11 -7 10 1.45 0.37
-12 -7 -10 2.02 0.34
12 7 -10 2.21 0.4
12 -7 -10 1.93 0.4
-12 -7 10 1.42 0.38
0 8 -10 5.06 0.29
0 8 -10 5.29 0.29
0 -8 10 4.86 0.29
0 -8 -10 5.27 0.33
0 -8 -10 5.8 0.29
1 8 -10 37.83 1.54
-1 -8 -10 39.98 1.5
1 8 -10 38.25 1.51
1 -8 10 40.16 1.51
-1 -8 -10 37.85 1.54
-1 8 -10 38.88 1.51
-1 -8 10 38.56 1.55
1 -8 -10 38.69 1.5
1 -8 -10 38.44 1.57
-1 8 -10 39.33 1.48
-2 -8 -10 26.97 1.07
2 -8 10 25.81 1.02
2 8 -10 24.7 1.05
-2 -8 -10 26.27 1.05
2 8 -10 25.19 1.08
2 -8 -10 25.12 1.03
-2 8 -10 26.78 1
2 -8 -10 25.62 1.11
-3 -8 -10 1.8 0.19
-3 -8 -10 1.35 0.17
3 -8 10 1.5 0.13
3 8 -10 1.4 0.2
-3 8 -10 1.44 0.14
3 -8 -10 1.06 0.19
3 -8 -10 1.36 0.16
-3 -8 10 1.96 0.23
4 8 -10 17.46 0.86
-4 -8 -10 19.37 0.8
-4 -8 -10 16.91 0.8
4 -8 -10 18.41 0.87
-4 -8 10 18.45 0.84
-4 8 -10 20.08 0.74
4 -8 -10 17.36 0.78
-5 -8 -10 3.12 0.26
-5 -8 -10 3.69 0.27
5 8 -10 3.49 0.35
-5 8 -10 3.65 0.22
5 -8 -10 3.19 0.34
5 -8 -10 2.74 0.24
-5 -8 10 2.96 0.32
-6 -8 -10 2.48 0.22
-6 -8 -10 1.58 0.24
6 8 -10 1.89 0.28
6 -8 -10 1.4 0.24
-6 -8 10 2.13 0.28
6 -8 -10 1.82 0.23
-7 -8 -10 4.46 0.37
7 8 -10 4.09 0.43
-7 8 10 4.25 0.33
7 -8 -10 4.91 0.46
-7 -8 10 4.56 0.39
-8 8 10 0.99 0.21
8 8 -10 0.73 0.22
-8 -8 -10 1.17 0.26
8 -8 -10 1.21 0.28
-8 -8 10 1.28 0.27
9 8 -10 0.77 0.23
-9 -8 -10 0.55 0.24
9 -8 -10 0.57 0.26
-9 -8 10 0.52 0.27
-10 -8 -10 0.08 0.23
10 8 -10 0.04 0.23
-10 -8 10 0.14 0.19
10 -8 -10 -0.1 0.2
11 8 -10 1.14 0.32
-11 -8 -10 1.29 0.32
-11 -8 10 1.28 0.34
11 -8 -10 1.1 0.32
-12 -8 -10 0.38 0.27
12 8 -10 0.3 0.27
12 -8 -10 0.53 0.28
-12 -8 10 0.1 0.27
0 9 -10 77.29 2.93
0 9 -10 78.87 2.88
0 -9 -10 74.93 2.97
0 -9 -10 76.88 2.88
0 -9 10 77.51 2.94
1 9 -10 9.7 0.5
1 9 -10 9.83 0.47
-1 -9 -10 10.28 0.48
1 -9 10 10.29 0.47
-1 -9 -10 9.94 0.51
1 -9 -10 9.79 0.46
-1 -9 10 10.51 0.51
-1 9 -10 10.92 0.45
1 -9 -10 10.1 0.53
-2 -9 -10 0.95 0.16
2 -9 10 1.32 0.14
-2 -9 -10 1.21 0.16
2 9 -10 1.07 0.18
2 9 -10 1.02 0.16
2 -9 -10 0.92 0.13
-2 -9 10 0.87 0.18
2 -9 -10 0.79 0.16
-2 9 -10 1 0.12
-3 -9 -10 0.36 0.14
3 9 -10 0.16 0.15
-3 -9 -10 0.27 0.13
3 -9 10 0.27 0.08
3 -9 -10 0.06 0.09
3 -9 -10 0.23 0.15
-3 9 -10 0.26 0.08
-3 -9 10 0.41 0.14
-3 -9 10 0.39 0.16
4 9 -10 3.21 0.32
-4 -9 -10 3.13 0.25
-4 -9 -10 3.22 0.27
4 -9 -10 2.69 0.32
-4 -9 10 3.29 0.32
4 -9 -10 3.01 0.23
-5 -9 -10 12.6 0.62
-5 -9 -10 14.49 0.63
5 9 -10 12.81 0.68
-5 -9 10 12.26 0.68
5 -9 -10 12.59 0.6
5 -9 -10 13.08 0.71
-6 -9 -10 1.57 0.24
6 9 -10 1.55 0.28
-6 -9 -10 1.69 0.21
6 -9 -10 1.45 0.2
-6 -9 10 1.6 0.28
6 -9 -10 2.03 0.3
-7 -9 -10 0.51 0.2
-7 9 10 0.48 0.17
7 9 -10 0.25 0.22
7 -9 -10 0.45 0.22
-7 -9 10 0.22 0.2
8 9 -10 2.53 0.34
-8 -9 -10 2.53 0.32
8 -9 -10 2.34 0.37
-8 -9 10 2.45 0.38
-9 -9 -10 1.71 0.31
9 9 -10 1.79 0.34
9 -9 -10 1.94 0.36
-9 -9 10 1.59 0.31
-10 -9 -10 0.44 0.26
10 9 -10 1.13 0.27
10 -9 -10 1.02 0.3
-10 -9 10 0.94 0.32
11 9 -10 1.85 0.37
-11 -9 -10 1.61 0.35
11 -9 -10 0.98 0.31
-11 -9 10 1.27 0.36
-11 -9 10 1.53 0.34
12 9 -10 -0.08 0.24
12 -9 -10 0.23 0.28
-12 -9 10 0.1 0.25
0 -10 -10 0.52 0.16
0 -10 -10 0.71 0.12
0 -10 10 0.87 0.15
0 10 -10 0.65 0.13
0 10 -10 0.53 0.11
1 -10 10 6.35 0.34
1 10 -10 6.37 0.34
1 10 -10 5.85 0.35
-1 -10 -10 6.46 0.34
-1 -10 -10 6.58 0.39
-1 10 -10 6.5 0.31
-1 -10 10 5.95 0.36
1 -10 -10 6.51 0.4
1 -10 -10 6.11 0.32
2 10 -10 6.88 0.4
2 -10 10 6.49 0.34
-2 -10 -10 6.56 0.37
-2 -10 -10 6.86 0.39
-2 -10 10 6.7 0.41
2 -10 -10 6.4 0.4
-2 10 -10 7 0.32
2 -10 -10 5.52 0.33
-2 -10 10 6.6 0.38
-3 -10 -10 1.03 0.18
3 -10 10 1.27 0.14
-3 -10 -10 1.32 0.19
3 10 -10 0.67 0.19
-3 -10 10 1.33 0.2
3 -10 -10 1.12 0.15
3 -10 -10 1.04 0.22
-3 -10 10 0.86 0.21
4 10 -10 19.52 0.92
-4 -10 -10 19.27 0.86
-4 -10 -10 21.05 0.88
-4 -10 10 20.03 0.93
-4 -10 10 18.3 0.9
4 -10 -10 20.14 0.95
4 -10 -10 19.96 0.84
-5 -10 -10 0.54 0.16
5 10 -10 0.76 0.22
-5 -10 -10 0.44 0.17
-5 -10 10 0.95 0.23
5 -10 -10 0.39 0.13
5 -10 -10 0.49 0.21
-5 -10 10 0.46 0.2
-6 -10 -10 9.78 0.48
6 10 -10 8.12 0.53
-6 -10 -10 8.42 0.5
6 -10 -10 7.92 0.45
-6 -10 10 8.93 0.56
-6 -10 10 8.14 0.54
6 -10 -10 8.76 0.57
-7 -10 -10 0.24 0.15
7 10 -10 0.56 0.25
-7 -10 10 0.3 0.23
7 -10 -10 0.48 0.24
-8 -10 -10 0.03 0.19
8 10 -10 0.08 0.17
-8 -10 10 0.14 0.23
-8 -10 10 0.49 0.21
8 -10 -10 0.1 0.23
9 10 -10 -0.06 0.22
-9 -10 -10 -0.27 0.2
-9 -10 10 0.1 0.24
-9 -10 10 -0.05 0.24
9 -10 -10 0.15 0.23
-10 -10 -10 0.07 0.18
10 10 -10 -0.04 0.25
-10 -10 10 0.14 0.26
10 -10 -10 0.24 0.25
-10 -10 10 0.22 0.27
-11 -10 -10 0.17 0.26
11 10 -10 0.1 0.2
-11 -10 10 0.48 0.29
11 -10 -10 0.47 0.26
-11 -10 10 0.12 0.25
12 -10 -10 0.94 0.33
0 -11 -10 -0.04 0.08
0 -11 10 0.01 0.11
0 11 -10 -0.01 0.1
0 11 -10 -0.05 0.08
0 -11 -10 -0.03 0.13
1 -11 10 3.92 0.26
1 11 -10 3.82 0.29
-1 -11 -10 3.3 0.3
-1 -11 -10 3.5 0.25
-1 -11 10 3.8 0.29
1 -11 -10 4.16 0.33
-1 11 -10 3.85 0.23
1 -11 -10 3.87 0.24
-1 -11 10 4.04 0.27
2 -11 10 6.95 0.36
-2 -11 -10 6.85 0.38
-2 -11 -10 6.74 0.41
2 11 -10 6.28 0.41
2 -11 -10 6.22 0.44
-2 -11 10 7.07 0.39
2 -11 -10 6.58 0.35
-2 -11 10 6.97 0.42
3 -11 10 34 1.34
3 11 -10 32.03 1.41
-3 -11 -10 33.57 1.36
-3 -11 -10 35.95 1.4
-3 -11 10 32.53 1.42
3 -11 -10 32.89 1.45
-3 -11 10 33.75 1.39
3 -11 -10 34.88 1.34
-4 -11 -10 2.01 0.24
-4 -11 -10 1.91 0.23
4 11 -10 1.45 0.25
4 -11 -10 1.59 0.27
-4 -11 10 1.73 0.25
-4 -11 10 1.14 0.25
4 -11 -10 1.71 0.19
-5 -11 -10 3.52 0.29
-5 -11 -10 3.24 0.27
5 11 -10 3.42 0.37
5 -11 -10 3.59 0.38
-5 -11 10 3.15 0.32
5 -11 -10 3.28 0.24
-5 -11 10 2.83 0.33
6 11 -10 3.7 0.4
-6 -11 -10 2.99 0.32
-6 -11 -10 3.29 0.32
6 -11 -10 3.4 0.4
-6 -11 10 3.28 0.36
-6 -11 10 3.4 0.38
-7 -11 -10 5.22 0.42
7 11 -10 6.24 0.46
-7 -11 10 4.46 0.47
7 -11 -10 5.48 0.51
-7 -11 10 5.51 0.48
8 11 -10 1.48 0.29
-8 -11 -10 1.77 0.3
-8 -11 10 1.28 0.32
-8 -11 10 1.13 0.31
8 -11 -10 1.55 0.33
-9 -11 -10 0.41 0.24
9 11 -10 0.34 0.28
-9 -11 10 0.25 0.2
9 -11 -10 0.23 0.26
-9 -11 10 -0.12 0.23
-10 -11 -10 2.75 0.4
10 11 -10 2.59 0.43
10 -11 -10 3.42 0.46
-10 -11 10 2.79 0.39
-10 -11 10 2.06 0.37
11 11 -10 1.69 0.39
-11 -11 -10 1.76 0.37
-11 -11 10 1.62 0.36
-11 -11 10 1.95 0.4
11 -11 -10 3 0.44
12 -11 -10 0.26 0.32
0 -12 -10 5.25 0.39
0 -12 10 5.29 0.35
0 -12 10 6.2 0.33
0 -12 -10 5.64 0.31
-1 -12 -10 10.71 0.48
1 -12 10 9.8 0.49
1 12 -10 9.4 0.51
-1 -12 -10 9.53 0.54
1 -12 -10 9.89 0.46
1 -12 -10 10.01 0.54
-1 -12 10 10.41 0.49
-1 -12 10 9.11 0.51
2 -12 10 0.98 0.15
-2 -12 -10 1.11 0.17
-2 -12 -10 0.95 0.17
2 12 -10 1.1 0.18
2 -12 -10 0.92 0.19
-2 -12 10 0.89 0.19
2 -12 -10 1.14 0.16
-2 -12 10 0.97 0.18
-3 -12 -10 21.73 0.94
3 -12 10 21.18 0.88
3 12 -10 19.58 0.96
-3 -12 -10 21.93 0.91
3 -12 -10 22.03 0.87
-3 -12 10 20.35 0.96
3 -12 -10 19.97 0.97
-3 -12 10 19.89 0.92
-4 -12 -10 4.71 0.35
4 12 -10 4.9 0.37
-4 -12 -10 3.97 0.3
4 -12 -10 4.5 0.28
4 -12 -10 4.86 0.38
-4 -12 10 4.07 0.34
-4 -12 10 4.18 0.35
5 12 -10 0.96 0.25
-5 -12 -10 1.02 0.2
-5 -12 -10 1.09 0.21
-5 -12 10 0.99 0.25
5 -12 -10 0.99 0.23
-5 -12 10 1.06 0.23
-6 -12 -10 7.84 0.46
6 12 -10 7.89 0.56
-6 -12 -10 7.46 0.46
-6 -12 10 8.08 0.57
6 -12 -10 8.19 0.54
-6 -12 10 6.58 0.51
7 12 -10 1.64 0.3
-7 -12 -10 2.58 0.31
-7 -12 10 2.21 0.36
7 -12 -10 2.24 0.33
-7 -12 10 1.5 0.31
8 12 -10 1.85 0.35
-8 -12 -10 1.68 0.26
8 -12 -10 1.79 0.36
-8 -12 10 1.15 0.32
-8 -12 10 1.47 0.33
9 12 -10 4.66 0.53
-9 -12 -10 5.14 0.49
-9 -12 10 4.6 0.49
-9 -12 10 5.41 0.56
9 -12 -10 5.37 0.56
10 12 -10 1.41 0.35
-10 -12 -10 1.22 0.28
10 -12 -10 1.5 0.35
-10 -12 10 1 0.35
-10 -12 10 0.46 0.3
-11 -12 -10 0.98 0.32
11 12 -10 0.76 0.33
-11 -12 10 1.12 0.36
11 -12 -10 0.6 0.3
-11 -12 10 1.47 0.4
0 -13 -10 35.99 1.49
0 -13 10 33.9 1.43
0 -13 -10 35.49 1.38
-1 -13 -10 3.95 0.31
1 -13 10 3.88 0.3
-1 -13 -10 4.47 0.28
-1 -13 10 4.18 0.32
1 -13 -10 3.15 0.33
1 -13 -10 4.27 0.26
-1 -13 10 4.24 0.29
-2 -13 -10 5.09 0.33
-2 -13 -10 5.71 0.39
2 -13 10 5.46 0.33
2 13 -10 5.61 0.39
-2 -13 10 5.95 0.37
-2 -13 10 4.88 0.38
2 -13 -10 5.05 0.38
2 -13 -10 5.46 0.3
3 -13 10 1.83 0.19
-3 -13 -10 2.12 0.24
-3 -13 -10 1.6 0.24
3 13 -10 1.54 0.23
-3 -13 10 1.93 0.27
-3 -13 10 1.58 0.22
3 -13 -10 2.08 0.3
3 -13 -10 1.6 0.18
-4 -13 -10 2.52 0.26
4 13 -10 2.02 0.3
-4 -13 -10 2.25 0.27
-4 -13 10 1.89 0.29
-4 -13 10 1.97 0.26
4 -13 -10 2.11 0.31
-5 -13 -10 4.69 0.36
-5 -13 -10 4.47 0.36
5 13 -10 4.05 0.42
-5 -13 10 4.39 0.43
-5 -13 10 4.27 0.38
5 -13 -10 4.59 0.45
-6 -13 -10 4.6 0.39
-6 -13 -10 5.04 0.4
6 13 -10 4.98 0.48
6 -13 -10 5.26 0.51
-6 -13 10 5.34 0.44
-6 -13 10 4.72 0.47
-7 -13 -10 5.8 0.46
7 13 -10 6.98 0.55
7 -13 -10 6.26 0.55
-7 -13 10 6.13 0.52
-7 -13 10 6.23 0.55
-8 -13 -10 3.84 0.4
8 13 -10 3.66 0.45
8 -13 -10 3.6 0.46
-8 -13 10 3.35 0.46
-8 -13 10 3.36 0.44
-9 -13 -10 0.21 0.19
9 13 -10 0.44 0.28
-9 -13 10 0.6 0.3
-9 -13 10 0.16 0.27
9 -13 -10 0.57 0.24
10 13 -10 4.55 0.53
-10 -13 -10 3.42 0.44
10 -13 -10 3.81 0.5
-10 -13 10 3.4 0.47
-10 -13 10 3.09 0.45
11 -13 -10 1.36 0.37
0 -14 -10 0.9 0.14
0 -14 -10 1 0.19
0 -14 10 0.84 0.17
1 -14 10 9.45 0.5
-1 -14 -10 10.2 0.49
-1 -14 -10 9.58 0.56
-1 -14 10 10.33 0.55
1 -14 -10 10 0.47
1 -14 -10 9.81 0.58
2 14 -10 6.24 0.42
2 -14 10 5.6 0.36
-2 -14 -10 6.17 0.37
-2 -14 -10 5.81 0.42
-2 -14 10 6.47 0.39
2 -14 -10 6.23 0.34
2 -14 -10 6.73 0.44
-2 -14 10 5.79 0.42
-3 -14 -10 3.18 0.33
3 14 -10 3.23 0.33
-3 -14 -10 3.1 0.28
3 -14 10 3.45 0.26
-3 -14 10 3.69 0.3
-3 -14 10 3.68 0.32
3 -14 -10 3.58 0.38
-4 -14 -10 3.01 0.29
-4 -14 -10 2.99 0.32
4 14 -10 2.72 0.34
4 -14 -10 2.9 0.37
-4 -14 10 3.15 0.32
-4 -14 10 3.12 0.36
-5 -14 -10 1.79 0.27
5 14 -10 1.92 0.32
-5 -14 -10 1.89 0.26
5 -14 -10 1.38 0.31
-5 -14 10 1.29 0.29
-5 -14 10 1.04 0.23
6 14 -10 8.2 0.6
-6 -14 -10 7.65 0.5
-6 -14 -10 7.89 0.5
-6 -14 10 8.04 0.58
6 -14 -10 7.36 0.59
-6 -14 10 7.23 0.53
7 14 -10 1.05 0.31
-7 -14 -10 1.43 0.27
7 -14 -10 0.96 0.32
-7 -14 10 0.98 0.28
-7 -14 10 0.91 0.28
8 14 -10 3.25 0.45
-8 -14 -10 3.08 0.38
-8 -14 10 2.81 0.42
8 -14 -10 3.61 0.47
-8 -14 10 2.74 0.42
-9 -14 -10 1.38 0.31
9 14 -10 0.88 0.33
9 -14 -10 1.28 0.36
-9 -14 10 1.93 0.37
-9 -14 10 1.19 0.3
10 14 -10 0.55 0.26
-10 -14 -10 0.65 0.3
-10 -14 10 0.55 0.33
10 -14 -10 1.14 0.35
-10 -14 10 0.93 0.33
11 -14 -10 0.72 0.33
0 -15 -10 0.34 0.19
0 -15 -10 0.76 0.13
0 -15 10 0.39 0.15
1 -15 10 2.86 0.27
-1 -15 -10 2.58 0.22
-1 -15 -10 2.79 0.32
-1 -15 10 2.42 0.28
1 -15 -10 2.43 0.3
-2 -15 -10 3.93 0.38
2 -15 10 3.82 0.3
-2 -15 -10 4.87 0.31
-2 -15 10 4.22 0.37
2 -15 -10 4.87 0.41
-3 -15 -10 3.32 0.29
3 15 -10 3.53 0.35
-3 -15 -10 3.21 0.34
3 -15 -10 3.28 0.36
-3 -15 10 3.28 0.36
-3 -15 10 3.11 0.3
-4 -15 -10 2.53 0.28
-4 -15 -10 2.97 0.33
4 15 -10 2.35 0.33
-4 -15 10 2.41 0.33
4 -15 -10 2.26 0.35
-4 -15 10 2.07 0.27
5 15 -10 2.22 0.35
-5 -15 -10 1.72 0.26
-5 -15 -10 2.1 0.3
5 -15 -10 2.28 0.37
-5 -15 10 2.65 0.36
-5 -15 10 1.46 0.27
-6 -15 -10 2.96 0.35
6 15 -10 3.05 0.42
-6 -15 -10 3.4 0.36
-6 -15 10 4.57 0.45
6 -15 -10 4.03 0.47
-6 -15 10 2.84 0.36
-7 -15 -10 1.57 0.29
7 15 -10 2.49 0.39
7 -15 -10 2.18 0.35
-7 -15 10 1.33 0.29
-7 -15 10 2.01 0.36
8 15 -10 3.3 0.42
-8 -15 -10 3.24 0.39
-8 -15 10 3.15 0.43
-8 -15 10 3.35 0.46
8 -15 -10 3.26 0.46
9 15 -10 1.15 0.31
-9 -15 -10 1.45 0.32
9 -15 -10 1.5 0.37
-9 -15 10 1.3 0.36
-9 -15 10 1.06 0.32
-10 -15 -10 -0.14 0.25
10 15 -10 0.14 0.32
-10 -15 10 0.43 0.31
-10 -15 10 0.2 0.3
10 -15 -10 0.36 0.29
0 -16 10 2.26 0.26
0 -16 -10 2.23 0.32
-1 -16 -10 4.3 0.41
-1 -16 -10 4.8 0.31
1 -16 10 4.52 0.35
1 -16 -10 4.58 0.43
-1 -16 10 3.86 0.35
-2 -16 -10 1.31 0.19
-2 -16 -10 1.17 0.22
2 -16 10 1.25 0.21
-2 -16 10 1.06 0.21
2 -16 -10 1.11 0.24
-3 -16 -10 3.76 0.33
-3 -16 -10 3.51 0.37
3 -16 -10 3.34 0.41
-3 -16 10 3.23 0.37
-4 -16 -10 2.23 0.27
-4 -16 -10 2.88 0.34
4 16 -10 2.14 0.33
4 -16 -10 2.08 0.31
-4 -16 10 2.21 0.29
-4 -16 10 2.29 0.32
-5 -16 -10 0.95 0.24
5 16 -10 0.91 0.28
-5 -16 -10 0.67 0.21
-5 -16 10 0.66 0.27
5 -16 -10 0.79 0.29
-5 -16 10 0.57 0.21
-6 -16 -10 1.37 0.27
6 16 -10 1.7 0.31
-6 -16 -10 1.55 0.27
-6 -16 10 1.43 0.29
-6 -16 10 1.59 0.34
6 -16 -10 2.16 0.38
7 16 -10 1.12 0.29
-7 -16 -10 0.94 0.25
-7 -16 10 1.58 0.34
-7 -16 10 0.61 0.26
7 -16 -10 1.6 0.32
-8 -16 -10 0.41 0.24
8 16 -10 0.42 0.31
8 -16 -10 0.77 0.32
-8 -16 10 1.06 0.34
-8 -16 10 0.55 0.27
9 16 -10 0.8 0.37
-9 -16 -10 1.24 0.31
-9 -16 10 1.32 0.33
9 -16 -10 1.55 0.38
-9 -16 10 1.28 0.37
10 -16 -10 0.4 0.31
0 -17 -10 0.56 0.23
0 -17 10 0.64 0.19
-1 -17 -10 0.12 0.19
1 -17 10 0.16 0.15
1 -17 -10 0.22 0.21
-1 -17 10 0.5 0.2
-2 -17 -10 5.89 0.47
-2 -17 -10 5.84 0.37
2 -17 10 5.82 0.4
2 -17 -10 6.78 0.51
-2 -17 10 7.01 0.48
-3 -17 -10 -0.05 0.15
-3 -17 -10 0.12 0.19
-3 -17 10 -0.03 0.21
3 -17 -10 -0.03 0.2
-4 -17 -10 1.38 0.23
-4 -17 -10 1.42 0.28
-4 -17 10 1.47 0.32
4 -17 -10 1.84 0.35
-5 -17 -10 1.28 0.23
5 17 -10 1.17 0.26
-5 -17 -10 0.88 0.25
-5 -17 10 1.25 0.31
-5 -17 10 1.49 0.27
5 -17 -10 1.03 0.31
6 17 -10 0.53 0.29
-6 -17 -10 0.67 0.23
-6 -17 -10 1.12 0.27
6 -17 -10 0.8 0.31
-6 -17 10 0.85 0.25
-6 -17 10 1.13 0.32
-7 -17 -10 5.46 0.5
-7 -17 -10 4.23 0.43
7 17 -10 4.84 0.53
7 -17 -10 4.48 0.54
-7 -17 10 5.34 0.55
-7 -17 10 5.16 0.5
8 17 -10 -0.18 0.26
-8 -17 -10 -0.07 0.22
8 -17 -10 0.3 0.27
-8 -17 10 0.35 0.29
-8 -17 10 0.12 0.25
-9 -17 -10 0.59 0.29
9 17 -10 1.2 0.33
9 -17 -10 1.93 0.4
-9 -17 10 1.18 0.32
-9 -17 10 1.15 0.38
0 -18 -10 5.37 0.5
0 -18 10 5.13 0.4
-1 -18 -10 3.38 0.38
1 -18 10 3.17 0.33
1 -18 -10 3 0.4
-1 -18 10 3.33 0.35
-2 -18 -10 0.13 0.21
2 -18 10 0.32 0.17
2 -18 -10 0.52 0.24
-2 -18 10 1.07 0.26
-3 -18 -10 1.15 0.21
-3 -18 -10 0.85 0.26
-3 -18 10 1.1 0.25
3 -18 -10 1.25 0.31
-4 -18 -10 0.67 0.25
-4 -18 -10 0.75 0.22
-4 -18 10 0.84 0.29
4 -18 -10 0.66 0.29
-5 -18 -10 -0.13 0.17
-5 -18 -10 -0.02 0.21
-5 -18 10 0.06 0.27
5 -18 -10 -0.1 0.26
-6 -18 -10 0.95 0.27
-6 -18 -10 1.24 0.25
-6 -18 10 0.95 0.29
6 -18 -10 1.77 0.37
-7 -18 -10 0.38 0.23
-7 -18 -10 0.31 0.25
7 -18 -10 0.16 0.27
-7 -18 10 0.66 0.28
-7 -18 10 0.52 0.25
8 18 -10 0.27 0.31
-8 -18 -10 0.96 0.28
8 -18 -10 0.92 0.29
-8 -18 10 1.07 0.3
-8 -18 10 0.36 0.32
-9 -18 10 0.35 0.3
9 -18 -10 0.33 0.29
0 -19 -10 0.36 0.25
0 -19 10 0.03 0.17
1 -19 10 0 0.18
-1 -19 -10 -0.09 0.2
-1 -19 10 0.19 0.19
1 -19 -10 -0.29 0.2
2 -19 10 0.49 0.2
-2 -19 -10 0.89 0.27
2 -19 -10 1.17 0.31
-2 -19 10 0.73 0.25
-3 -19 -10 1.42 0.31
3 -19 -10 0.97 0.31
-3 -19 10 1.76 0.33
-4 -19 -10 0.54 0.2
-4 -19 -10 0.46 0.24
-4 -19 10 0.35 0.21
4 -19 -10 0.62 0.31
-5 -19 -10 2.17 0.32
-5 -19 -10 1.83 0.33
-5 -19 10 2.6 0.37
5 -19 -10 2.01 0.4
-6 -19 -10 1.71 0.35
-6 -19 -10 1.35 0.27
-6 -19 10 1.57 0.38
6 -19 -10 1.69 0.39
-7 -19 -10 -0.22 0.2
-7 -19 -10 0.76 0.27
-7 -19 10 0.67 0.33
7 -19 -10 0.3 0.29
-8 -19 -10 0.21 0.24
8 -19 -10 0.34 0.3
0 -20 -10 0.98 0.25
0 -20 10 1.06 0.25
-1 -20 -10 1.56 0.33
1 -20 10 1.48 0.29
1 -20 -10 1.71 0.34
-1 -20 10 1.44 0.28
-2 -20 -10 -0.32 0.21
-2 -20 10 0.11 0.21
2 -20 -10 0.11 0.23
-3 -20 -10 0.2 0.18
-3 -20 10 0.65 0.27
3 -20 -10 0.08 0.25
-4 -20 -10 0.82 0.28
-4 -20 10 0.8 0.3
4 -20 -10 0.92 0.32
-5 -20 -10 0.68 0.27
5 -20 -10 1.36 0.36
-5 -20 10 0.84 0.31
-6 -20 -10 0.33 0.28
-6 -20 -10 0.78 0.25
-6 -20 10 0.4 0.31
6 -20 -10 0.96 0.35
-7 -20 -10 0.85 0.27
-7 -20 -10 1.16 0.31
-7 -20 10 0.34 0.32
7 -20 -10 0.66 0.33
-8 -20 -10 -0.42 0.2
0 -21 -10 0.79 0.3
0 -21 10 0.86 0.28
-1 -21 -10 1.49 0.34
1 -21 10 1.39 0.27
-1 -21 10 1.76 0.31
1 -21 -10 1.56 0.34
-2 -21 -10 1.19 0.31
-2 -21 10 1.02 0.28
2 -21 -10 0.85 0.3
-3 -21 -10 2.74 0.41
3 -21 -10 2.73 0.43
-3 -21 10 3.05 0.41
-4 -21 -10 2.24 0.37
-4 -21 10 2.11 0.4
4 -21 -10 2.57 0.45
-5 -21 -10 1.78 0.35
5 -21 -10 2.04 0.41
-5 -21 10 1.68 0.38
-6 -21 -10 0.44 0.29
6 -21 -10 0.4 0.32
-6 -21 10 0.65 0.34
-7 -21 -10 0.13 0.27
0 -22 -10 0.13 0.2
0 -22 10 0.1 0.24
-1 -22 -10 -0.21 0.23
1 -22 10 0.39 0.21
1 -22 -10 0.35 0.28
-1 -22 10 0.47 0.26
-2 -22 -10 0.82 0.29
2 -22 -10 0.29 0.27
-2 -22 10 0.67 0.28
-3 -22 -10 3.22 0.44
-3 -22 10 3.08 0.44
3 -22 -10 3.98 0.51
-4 -22 -10 0.28 0.27
-4 -22 10 0.75 0.25
4 -22 -10 0.7 0.32
-5 -22 -10 -0.49 0.21
-5 -22 10 0.06 0.27
5 -22 -10 0.06 0.28
-6 -22 -10 0.29 0.25
0 -23 -10 1.98 0.4
0 -23 10 1.5 0.32
-1 -23 -10 0.43 0.28
1 -23 10 0.17 0.23
1 -23 -10 0.3 0.28
-1 -23 10 0.58 0.27
-2 -23 -10 0.99 0.31
2 -23 -10 0.51 0.25
-2 -23 10 0.47 0.29
-3 -23 -10 0.78 0.32
3 -23 -10 0.23 0.3
-3 -23 10 0.45 0.3
-4 -23 -10 1.11 0.33
-4 -23 10 1.36 0.37
0 -24 10 2.29 0.36
-1 -24 -10 1.13 0.36
-1 -24 10 1.36 0.35
-2 -24 10 0.42 0.28
0 -25 10 4.14 0.47
0 0 -11 0.18 0.08
0 0 -11 -0.03 0.07
-1 0 -11 13.04 0.54
1 0 -11 12.75 0.56
1 0 -11 13 0.58
-1 0 -11 12.5 0.55
2 0 -11 18.09 0.78
-2 0 -11 19.01 0.74
2 0 -11 18.15 0.81
-2 0 -11 18.74 0.76
3 0 -11 2.57 0.22
-3 0 -11 3.03 0.15
3 0 -11 2.64 0.23
-3 0 -11 2.99 0.21
4 0 -11 60.77 2.4
-4 0 -11 59.89 2.29
4 0 -11 61.07 2.34
5 0 -11 0.08 0.16
-5 0 -11 0.07 0.11
5 0 -11 0.07 0.13
6 0 -11 8.84 0.52
6 0 -11 8.91 0.55
-6 0 -11 9.06 0.46
-7 0 -11 1.5 0.2
-7 0 11 1.36 0.24
7 0 -11 1.65 0.26
-8 0 -11 1.86 0.23
-8 0 11 1.87 0.29
8 0 -11 1.89 0.28
9 0 -11 0.45 0.23
-9 0 11 0.73 0.23
-9 0 -11 0.52 0.17
10 0 -11 0.96 0.27
-10 0 11 1.16 0.28
-10 0 -11 0.97 0.22
-11 0 11 -0.3 0.2
11 0 -11 -0.26 0.19
-11 0 -11 0.23 0.2
-12 0 -11 -0.32 0.17
-12 0 11 -0.15 0.22
12 0 -11 0.02 0.23
-13 0 11 0.71 0.32
13 0 -11 0.84 0.3
0 1 -11 0.11 0.08
0 1 -11 0.03 0.06
0 -1 -11 0.17 0.08
0 -1 -11 0.07 0.08
1 1 -11 18.06 0.75
-1 -1 -11 17.46 0.71
1 1 -11 16.36 0.72
-1 -1 -11 16.32 0.71
1 -1 -11 17.98 0.75
1 -1 -11 17.02 0.72
-1 1 -11 17.56 0.71
-1 1 -11 17.67 0.7
2 1 -11 9.73 0.47
-2 -1 -11 10.27 0.47
-2 -1 -11 10.37 0.43
2 1 -11 10.22 0.5
2 -1 -11 10.17 0.48
-2 1 -11 10.05 0.42
-2 1 -11 9.93 0.46
2 -1 -11 9.98 0.5
-3 -1 -11 12.06 0.55
3 1 -11 11.92 0.6
3 1 -11 12.65 0.58
-3 -1 -11 12.72 0.5
3 -1 -11 11.93 0.61
3 -1 -11 12.73 0.58
-3 1 -11 12.75 0.48
-3 1 -11 11.94 0.54
4 1 -11 5.57 0.38
-4 -1 -11 6.28 0.35
4 1 -11 6.86 0.39
-4 1 -11 6.3 0.33
4 -1 -11 6.71 0.37
4 -1 -11 6.46 0.42
5 1 -11 34.82 1.43
-5 -1 -11 34.59 1.38
5 1 -11 34.42 1.47
5 -1 -11 34.79 1.43
5 -1 -11 35.03 1.48
-5 1 -11 34.61 1.37
6 1 -11 13.07 0.7
-6 -1 -11 13.06 0.61
6 -1 -11 12.7 0.66
-6 -1 11 13.23 0.66
-6 1 -11 12.51 0.59
6 -1 -11 13.01 0.7
7 1 -11 15.71 0.79
-7 1 11 13.68 0.73
-7 -1 -11 13.86 0.68
-7 -1 11 14.8 0.74
-7 1 -11 15.3 0.67
7 -1 -11 13.91 0.77
-8 1 11 8.8 0.56
-8 -1 -11 8.52 0.49
8 1 -11 8.72 0.56
-8 -1 11 8.99 0.57
-8 1 -11 9.03 0.48
8 -1 -11 9.17 0.59
9 1 -11 5.35 0.48
-9 1 11 5.47 0.45
-9 -1 -11 5.81 0.4
-9 -1 11 5.92 0.47
9 -1 -11 4.67 0.42
-9 1 -11 5.07 0.37
-10 1 11 2.55 0.37
10 1 -11 2.9 0.4
-10 -1 -11 3.4 0.35
-10 1 -11 3.1 0.32
-10 -1 11 3.38 0.41
10 -1 -11 3.25 0.39
11 1 -11 -0.01 0.22
-11 -1 -11 0.18 0.2
-11 1 11 0.11 0.23
11 -1 -11 0.12 0.24
-11 1 -11 -0.03 0.17
-11 -1 11 -0.32 0.19
-12 1 11 0.98 0.31
-12 -1 -11 0.63 0.24
12 1 -11 0.53 0.27
-12 1 -11 1.05 0.26
-12 -1 11 0.78 0.3
12 -1 -11 0.78 0.29
13 1 -11 0.37 0.28
-13 1 11 0.81 0.33
-13 -1 -11 0.33 0.26
13 -1 -11 0.52 0.26
0 2 -11 8.04 0.38
0 2 -11 8.43 0.4
0 -2 -11 8.76 0.41
0 -2 -11 8.21 0.39
1 2 -11 31.77 1.28
-1 -2 -11 33.03 1.26
-1 -2 -11 32.66 1.25
1 2 -11 32.04 1.26
1 -2 -11 33.07 1.29
-1 2 -11 31.89 1.24
-1 2 -11 30.85 1.24
1 -2 -11 30.94 1.25
-2 -2 -11 4.88 0.24
2 2 -11 4.62 0.28
-2 -2 -11 4.58 0.26
2 2 -11 4.63 0.3
2 -2 -11 4.44 0.31
2 -2 -11 4.56 0.28
-2 2 -11 4.52 0.22
-2 2 -11 4.72 0.26
-3 -2 -11 20.09 0.84
3 2 -11 20.24 0.9
3 2 -11 20.5 0.87
3 -2 11 21.33 0.76
-3 -2 -11 20.91 0.8
3 -2 -11 18.65 0.89
-3 2 -11 20.57 0.76
3 -2 -11 20.64 0.86
-3 2 -11 19.84 0.83
-4 -2 -11 8.08 0.42
4 2 -11 9.31 0.5
-4 -2 -11 9.12 0.36
4 2 -11 9.17 0.48
-4 2 -11 8.41 0.41
4 -2 -11 7.76 0.49
4 -2 -11 8.17 0.45
5 2 -11 3.96 0.34
5 2 -11 3.75 0.31
-5 -2 -11 3.87 0.27
5 -2 -11 3.4 0.29
-5 2 -11 3.11 0.24
5 -2 -11 3.25 0.33
6 2 -11 13.11 0.69
-6 -2 -11 12.4 0.62
-6 -2 11 13.87 0.69
6 -2 -11 13.15 0.66
-6 2 -11 13.62 0.6
6 -2 -11 12.41 0.68
-7 -2 -11 6.67 0.4
-7 2 11 6.8 0.44
7 2 -11 6.7 0.47
-7 -2 11 7.57 0.47
-7 2 -11 7.05 0.39
7 -2 -11 7.04 0.5
-8 2 11 1.3 0.25
-8 -2 -11 1.68 0.24
8 2 -11 1.99 0.32
-8 2 -11 1.25 0.19
8 -2 -11 1.73 0.3
-8 -2 11 1.43 0.27
-9 2 11 1.87 0.29
9 2 -11 2.08 0.33
-9 -2 -11 2.03 0.28
-9 -2 11 1.95 0.3
-9 2 -11 1.68 0.23
9 -2 -11 1.43 0.27
10 2 -11 3.29 0.41
-10 -2 -11 3.27 0.35
-10 2 11 3.07 0.4
10 -2 -11 3.22 0.42
-10 2 -11 2.77 0.3
-10 -2 11 3.46 0.43
11 2 -11 3.48 0.44
-11 2 11 2.34 0.37
-11 -2 -11 2.44 0.34
-11 2 -11 2.97 0.32
11 -2 -11 2.46 0.39
-11 -2 11 2.24 0.39
-12 -2 -11 0.28 0.23
-12 2 11 0.75 0.3
12 2 -11 0.35 0.27
-12 -2 11 0.65 0.29
12 -2 -11 1.02 0.3
-13 -2 -11 0.79 0.28
-13 2 11 1.41 0.34
13 -2 -11 1.14 0.33
0 3 -11 62.76 2.37
0 -3 -11 61.8 2.37
0 3 -11 65.86 2.41
0 -3 -11 62.47 2.42
-1 -3 -11 52.3 2
1 3 -11 53.13 2.04
-1 -3 -11 53.51 2.02
1 3 -11 52.91 2.01
1 -3 -11 53.41 2.06
-1 3 -11 53.42 2
-1 3 -11 52.01 1.99
1 -3 -11 51.96 2
-2 -3 -11 21.22 0.83
2 3 -11 20.03 0.86
2 3 -11 19.27 0.83
-2 -3 -11 20.17 0.8
2 -3 -11 19.83 0.87
-2 3 -11 19.48 0.77
2 -3 -11 19.05 0.82
-2 3 -11 19.42 0.8
-3 -3 -11 3.3 0.2
3 -3 11 3.63 0.15
-3 -3 -11 3.03 0.24
3 3 -11 3.53 0.28
3 3 -11 3.7 0.27
-3 3 -11 3.99 0.23
3 -3 -11 3.38 0.25
3 -3 -11 3.89 0.3
-4 -3 -11 1.41 0.12
4 3 -11 1.38 0.2
-4 -3 -11 1.36 0.16
4 3 -11 1.29 0.22
-4 3 -11 1.45 0.16
4 -3 -11 1.32 0.22
4 -3 -11 1.66 0.19
-5 -3 -11 15.45 0.7
5 3 -11 15.96 0.78
5 3 -11 15.29 0.75
5 -3 -11 16.17 0.77
-5 3 -11 16.13 0.68
5 -3 -11 15.36 0.73
-6 -3 -11 8.46 0.48
6 3 -11 9.67 0.57
6 -3 -11 9.4 0.56
-6 3 -11 9.05 0.45
-6 -3 11 9.53 0.53
6 -3 -11 9.59 0.52
-7 -3 -11 2.31 0.26
7 3 -11 2.18 0.32
-7 3 11 2.3 0.28
-7 3 -11 2.31 0.22
-7 -3 11 2.78 0.33
7 -3 -11 2.98 0.35
-8 -3 -11 8.67 0.5
8 3 -11 9.64 0.59
-8 3 11 8.13 0.52
8 -3 -11 7.38 0.54
-8 -3 11 7.7 0.55
-8 3 -11 7.84 0.43
-9 3 11 0.19 0.18
9 3 -11 -0.16 0.2
-9 -3 -11 0.02 0.17
-9 3 -11 0.31 0.14
-9 -3 11 0.3 0.17
9 -3 -11 0 0.2
10 3 -11 3.44 0.43
-10 3 11 3.27 0.39
-10 -3 -11 3.12 0.36
-10 3 -11 2.98 0.3
10 -3 -11 3.24 0.39
-10 -3 11 3.26 0.42
-11 -3 -11 2.36 0.35
11 3 -11 2.54 0.4
-11 3 11 2.45 0.37
11 -3 -11 3.74 0.45
-11 -3 11 2.59 0.42
-12 -3 -11 0.68 0.27
12 3 -11 1.07 0.32
-12 3 11 1.28 0.33
-12 -3 11 1.61 0.37
12 -3 -11 1.55 0.34
13 -3 -11 0.39 0.28
0 4 -11 5.4 0.29
0 -4 -11 5.75 0.31
0 -4 -11 4.99 0.28
0 4 -11 5.76 0.29
-1 -4 -11 5.29 0.27
1 4 -11 4.76 0.29
1 4 -11 5.15 0.27
-1 -4 -11 4.95 0.27
-1 4 -11 4.58 0.26
-1 4 -11 4.57 0.25
1 -4 -11 4.87 0.29
1 -4 -11 5.36 0.27
-2 -4 -11 22.79 0.9
2 4 -11 22.07 0.93
2 -4 11 22.66 0.87
2 4 -11 22.7 0.96
-2 -4 -11 23.02 0.91
-2 4 -11 22.29 0.87
-2 4 -11 22.25 0.89
2 -4 -11 22.45 0.97
2 -4 -11 21.26 0.91
-3 -4 -11 19.96 0.84
-3 -4 -11 19.48 0.81
3 4 -11 19.6 0.86
3 -4 11 21.68 0.76
3 4 -11 20.13 0.89
3 -4 -11 19.43 0.84
-3 4 -11 19.87 0.81
3 -4 -11 20.21 0.9
-4 -4 -11 1.77 0.2
4 4 -11 1.48 0.21
4 4 -11 1.61 0.2
-4 -4 -11 1.62 0.14
4 -4 -11 1.42 0.19
-4 4 -11 1.78 0.17
4 -4 -11 1.25 0.22
5 4 -11 6.12 0.39
-5 -4 -11 6.26 0.36
5 4 -11 6.22 0.44
-5 4 -11 6.59 0.34
-5 -4 11 6.7 0.41
5 -4 -11 5.64 0.42
5 -4 -11 6.26 0.38
6 4 -11 0.03 0.17
-6 -4 -11 -0.02 0.1
6 -4 -11 0.05 0.16
6 -4 -11 -0.03 0.12
-6 4 -11 0.03 0.1
-6 -4 11 0.04 0.14
-7 -4 -11 0.45 0.17
7 4 -11 0.25 0.16
-7 4 11 0.16 0.15
-7 -4 11 0.09 0.16
-7 4 -11 0.15 0.11
7 -4 -11 0.3 0.19
8 4 -11 8.2 0.57
-8 -4 -11 8.49 0.5
-8 4 11 7.75 0.51
-8 -4 11 7.97 0.55
8 -4 -11 7.39 0.52
-8 4 -11 7.68 0.42
-9 4 11 9.66 0.6
9 4 -11 10.12 0.66
-9 -4 -11 10.78 0.59
9 -4 -11 10.17 0.65
-9 -4 11 9.03 0.61
-9 4 -11 8.78 0.49
-10 -4 -11 3.81 0.4
10 4 -11 3.78 0.46
-10 4 11 3.41 0.4
-10 -4 11 3.76 0.46
10 -4 -11 4.6 0.48
11 4 -11 0.94 0.3
-11 -4 -11 1.41 0.29
-11 4 11 1.33 0.31
11 -4 -11 1.22 0.3
-11 -4 11 0.8 0.31
-12 -4 -11 0.31 0.25
12 4 -11 0.36 0.28
-12 4 11 0.51 0.27
-12 -4 11 0.15 0.21
12 -4 -11 0.3 0.24
0 -5 -11 31.53 1.23
0 5 -11 31.32 1.22
0 5 -11 31.31 1.24
0 -5 -11 30.71 1.26
1 5 -11 8.64 0.43
-1 -5 -11 8.92 0.42
1 5 -11 7.75 0.41
-1 -5 -11 7.78 0.41
1 -5 -11 9.05 0.45
-1 5 -11 8.72 0.39
-1 5 -11 8.94 0.39
1 -5 -11 8.69 0.41
2 5 -11 14.3 0.64
2 -5 11 14.64 0.58
2 5 -11 14.64 0.67
-2 -5 -11 14.8 0.62
-2 -5 -11 14.33 0.63
-2 5 -11 14.01 0.58
2 -5 -11 13.89 0.68
2 -5 -11 14.98 0.63
-2 5 -11 14.21 0.6
3 5 -11 13.85 0.66
3 5 -11 13.37 0.67
-3 -5 -11 13.82 0.64
-3 -5 -11 14.76 0.61
3 -5 11 15.08 0.56
3 -5 -11 14.08 0.69
-3 5 -11 14.82 0.61
3 -5 -11 14 0.64
4 5 -11 0.4 0.17
-4 -5 -11 0.57 0.14
-4 -5 -11 0.63 0.11
4 5 -11 0.72 0.17
4 -5 -11 0.47 0.17
-4 5 -11 0.6 0.11
4 -5 -11 0.45 0.13
5 5 -11 24.14 1.09
-5 -5 -11 22.85 1
-5 5 -11 24.95 0.96
-5 -5 11 24.56 1.06
5 -5 -11 23.94 1.02
5 -5 -11 22.17 1.06
6 5 -11 6.64 0.48
-6 -5 -11 6.75 0.41
6 -5 -11 7.99 0.5
-6 5 -11 7.31 0.37
6 -5 -11 6.1 0.4
-6 -5 11 6.38 0.46
-7 5 11 1.42 0.23
7 5 -11 0.74 0.23
-7 -5 -11 0.92 0.2
-7 5 -11 1.35 0.17
-7 -5 11 1.2 0.25
7 -5 -11 0.97 0.25
8 5 -11 3.29 0.38
-8 -5 -11 2.64 0.3
-8 5 11 3.26 0.34
-8 -5 11 2.97 0.37
-8 5 -11 3 0.24
8 -5 -11 3.49 0.4
-9 -5 -11 2.47 0.32
9 5 -11 1.73 0.33
-9 5 11 1.59 0.28
-9 -5 11 1.6 0.29
9 -5 -11 1.53 0.31
10 5 -11 0.4 0.26
-10 5 11 0.71 0.23
-10 -5 -11 0.35 0.18
-10 -5 11 0.49 0.22
10 -5 -11 0.73 0.26
-11 -5 -11 1.33 0.27
11 5 -11 1.64 0.35
-11 5 11 1.52 0.3
11 -5 -11 0.9 0.25
-11 -5 11 0.78 0.26
12 5 -11 3.77 0.48
-12 -5 -11 3.45 0.43
-12 -5 11 2.78 0.46
12 -5 -11 3.25 0.45
0 6 -11 1.18 0.14
0 6 -11 1.19 0.14
0 -6 -11 0.85 0.15
0 -6 -11 1.14 0.14
1 -6 11 2.14 0.16
-1 -6 -11 2.03 0.19
1 6 -11 2.12 0.19
-1 -6 -11 2.27 0.19
1 6 -11 2.37 0.2
1 -6 -11 1.75 0.21
1 -6 -11 2.04 0.17
-1 6 -11 1.86 0.16
-1 6 -11 1.72 0.15
-2 -6 -11 10.12 0.49
2 6 -11 10.19 0.52
-2 -6 -11 10.37 0.48
2 6 -11 10.09 0.5
2 -6 11 10.19 0.44
2 -6 -11 9.83 0.48
-2 6 -11 10.58 0.44
-2 6 -11 10.75 0.45
2 -6 -11 10.2 0.52
3 -6 11 2.18 0.13
-3 -6 -11 1.89 0.19
3 6 -11 2.21 0.24
-3 -6 -11 2.2 0.17
3 6 -11 1.8 0.22
-3 6 -11 2.04 0.16
3 -6 -11 1.93 0.2
3 -6 -11 1.94 0.25
-4 -6 -11 1.54 0.18
-4 -6 -11 2.09 0.18
4 6 -11 1.87 0.23
4 6 -11 1.67 0.23
4 -6 -11 2.23 0.27
-4 6 -11 2.3 0.17
4 -6 -11 1.89 0.21
-5 -6 -11 1.47 0.16
5 6 -11 1.42 0.25
-5 -6 -11 1.11 0.19
5 -6 -11 1.32 0.22
-5 -6 11 1.51 0.24
5 -6 -11 1.29 0.19
-5 6 -11 1.7 0.16
6 6 -11 6.14 0.43
-6 -6 -11 6.2 0.39
-6 6 -11 6.5 0.33
-6 -6 11 5.53 0.43
6 -6 -11 5.67 0.44
6 -6 -11 4.61 0.35
-7 6 11 3.6 0.34
7 6 -11 3.39 0.37
-7 -6 -11 3.82 0.33
-7 6 -11 3.53 0.25
-7 -6 11 4.15 0.41
7 -6 -11 3.81 0.4
8 6 -11 2.03 0.31
-8 -6 -11 2.01 0.26
-8 6 11 1.71 0.27
8 -6 -11 1.97 0.32
-8 -6 11 2.61 0.36
9 6 -11 3.04 0.4
-9 6 11 2.21 0.31
-9 -6 -11 2.32 0.32
9 -6 -11 2.35 0.36
-9 -6 11 2.55 0.39
-10 -6 -11 0.61 0.25
-10 6 11 0.55 0.22
10 6 -11 0.42 0.26
-10 -6 11 0.56 0.27
10 -6 -11 0.53 0.26
11 6 -11 1 0.26
-11 -6 -11 0.89 0.24
-11 -6 11 0.7 0.3
11 -6 -11 0.79 0.29
12 6 -11 0.3 0.27
-12 -6 -11 -0.11 0.24
-12 -6 11 0.06 0.27
12 -6 -11 -0.01 0.23
0 -7 -11 10.36 0.52
0 7 -11 10.89 0.48
0 -7 11 11.09 0.5
0 -7 -11 11.11 0.49
0 7 -11 10.28 0.49
1 7 -11 15.55 0.72
1 -7 11 15.84 0.69
-1 -7 -11 17.01 0.7
-1 -7 -11 17.07 0.72
1 7 -11 16.17 0.7
1 -7 -11 16.04 0.75
-1 7 -11 17.31 0.68
-1 7 -11 16.65 0.69
1 -7 -11 16.47 0.7
2 7 -11 13.35 0.61
2 7 -11 14.49 0.63
-2 -7 -11 12.96 0.6
-2 -7 -11 13.05 0.6
2 -7 11 13.72 0.56
2 -7 -11 12.5 0.58
2 -7 -11 12.39 0.64
-2 7 -11 13.66 0.56
-3 -7 -11 19.4 0.8
3 7 -11 17.98 0.82
3 7 -11 17.02 0.84
3 -7 11 19.53 0.74
-3 -7 -11 18.81 0.8
-3 7 -11 19.78 0.76
3 -7 -11 18.74 0.79
3 -7 -11 16.84 0.85
-4 -7 -11 6.18 0.34
-4 -7 -11 5.64 0.36
4 7 -11 6.6 0.43
-4 -7 11 6.34 0.41
-4 7 -11 6.98 0.33
4 -7 -11 5.85 0.36
4 -7 -11 6.27 0.43
5 7 -11 0.27 0.19
-5 -7 -11 0.35 0.11
-5 -7 -11 0.46 0.13
-5 7 -11 0.41 0.1
5 -7 -11 0.18 0.14
-5 -7 11 0.55 0.19
5 -7 -11 0.42 0.14
-6 -7 -11 1.75 0.24
6 7 -11 1.77 0.29
6 -7 -11 2.35 0.32
-6 7 -11 2.19 0.19
6 -7 -11 2.15 0.24
-6 -7 11 2.07 0.28
-7 -7 -11 3.59 0.34
7 7 -11 3.05 0.39
-7 7 11 3.19 0.32
-7 -7 11 3.61 0.4
7 -7 -11 3.74 0.38
-8 -7 -11 0.09 0.13
8 7 -11 -0.04 0.21
-8 7 11 0 0.15
-8 -7 11 0.19 0.22
8 -7 -11 0.05 0.19
-9 7 11 2.04 0.3
9 7 -11 2.77 0.39
-9 -7 -11 1.99 0.32
-9 -7 11 2.37 0.38
9 -7 -11 2.49 0.37
10 7 -11 0.1 0.23
-10 -7 -11 0.02 0.21
-10 -7 11 -0.01 0.24
10 -7 -11 -0.05 0.22
11 7 -11 0.87 0.32
-11 -7 -11 0.88 0.25
-11 -7 11 0.87 0.31
11 -7 -11 1.07 0.32
12 7 -11 2.32 0.41
-12 -7 -11 2.15 0.38
12 -7 -11 2.21 0.4
-12 -7 11 1.81 0.43
0 -8 -11 1.85 0.21
0 -8 11 1.75 0.18
0 8 -11 1.52 0.16
0 -8 -11 1.56 0.16
0 8 -11 1.83 0.18
-1 -8 -11 3.11 0.25
-1 -8 -11 3.56 0.24
1 -8 11 3.48 0.22
1 8 -11 3.01 0.25
1 8 -11 3.28 0.23
-1 8 -11 3.44 0.22
1 -8 -11 3.35 0.23
-1 8 -11 3.63 0.23
1 -8 -11 3.2 0.28
-1 -8 11 3.3 0.25
2 8 -11 2.66 0.27
-2 -8 -11 3.51 0.25
-2 -8 -11 3.87 0.27
2 -8 11 3.45 0.21
2 8 -11 2.92 0.25
2 -8 -11 3.2 0.23
2 -8 -11 3.13 0.26
-2 8 -11 3.51 0.21
-3 -8 -11 3.47 0.28
3 -8 11 3.75 0.21
-3 -8 -11 4.25 0.28
3 8 -11 3.72 0.3
3 8 -11 4.03 0.3
3 -8 -11 3.55 0.3
-3 8 -11 4.33 0.23
3 -8 -11 3.69 0.26
-4 -8 -11 3.99 0.27
-4 -8 -11 3.97 0.3
4 8 -11 3.96 0.35
4 -8 -11 4.04 0.28
-4 -8 11 4.59 0.35
4 -8 -11 3.64 0.37
-4 8 -11 4.9 0.25
-5 -8 -11 13.35 0.57
5 8 -11 11.43 0.66
-5 -8 -11 10.66 0.57
-5 -8 11 12.03 0.65
5 -8 -11 10.74 0.65
5 -8 -11 11.78 0.57
-5 8 -11 12.3 0.52
-6 -8 -11 11.16 0.59
6 8 -11 11.49 0.67
6 -8 -11 11.49 0.67
6 -8 -11 11.78 0.58
-6 -8 11 10.63 0.63
-7 8 11 4.47 0.36
-7 -8 -11 4.47 0.38
7 8 -11 4.64 0.46
7 -8 -11 5.27 0.46
-7 -8 11 5.39 0.45
8 8 -11 2.48 0.37
-8 8 11 2.22 0.28
-8 -8 -11 2.09 0.28
8 -8 -11 2.56 0.35
-8 -8 11 2.7 0.37
9 8 -11 -0.07 0.22
-9 -8 -11 0.11 0.2
9 -8 -11 -0.13 0.22
-9 -8 11 0.06 0.22
-10 -8 -11 0.95 0.24
10 8 -11 1.57 0.34
10 -8 -11 1.19 0.32
-10 -8 11 1.26 0.35
11 8 -11 -0.14 0.25
-11 -8 -11 0.1 0.19
11 -8 -11 -0.07 0.21
-11 -8 11 0.04 0.2
12 8 -11 0.06 0.21
12 -8 -11 0.28 0.28
0 -9 11 0.42 0.12
0 -9 -11 0.55 0.16
0 -9 -11 0.59 0.12
0 9 -11 0.58 0.12
0 9 -11 0.51 0.12
-1 -9 -11 2.86 0.24
-1 -9 -11 2.65 0.21
1 -9 11 2.44 0.19
1 9 -11 2.39 0.23
1 9 -11 2.57 0.22
-1 -9 11 2.66 0.25
1 -9 -11 2.32 0.19
-1 9 -11 2.37 0.19
-1 9 -11 2.53 0.19
1 -9 -11 2.53 0.27
2 9 -11 1.82 0.21
2 -9 11 1.93 0.16
-2 -9 -11 1.74 0.2
2 9 -11 1.46 0.21
-2 -9 -11 1.88 0.21
2 -9 -11 1.82 0.19
-2 9 -11 1.95 0.16
2 -9 -11 2.1 0.26
-2 -9 11 1.88 0.22
3 9 -11 7.36 0.46
-3 -9 -11 7.32 0.41
3 -9 11 8.19 0.37
-3 -9 -11 7.55 0.41
-3 9 -11 7.77 0.35
-3 -9 11 6.97 0.44
3 -9 -11 7.3 0.39
3 -9 -11 7.38 0.47
4 9 -11 6.9 0.46
-4 -9 -11 6.33 0.4
-4 -9 -11 7.32 0.39
4 -9 -11 6.85 0.47
-4 -9 11 6.61 0.44
4 -9 -11 6.32 0.37
-5 -9 -11 4.15 0.34
5 9 -11 4.57 0.4
-5 -9 -11 5.54 0.32
5 -9 -11 4.79 0.31
5 -9 -11 4.46 0.4
-5 -9 11 4.26 0.35
-6 -9 -11 2.99 0.31
6 9 -11 3.11 0.36
6 -9 -11 2.77 0.28
6 -9 -11 3.51 0.37
-6 -9 11 2.86 0.35
-7 -9 -11 7.67 0.5
7 9 -11 8.29 0.57
-7 -9 11 8.18 0.54
7 -9 -11 7.59 0.57
8 9 -11 6.45 0.53
-8 -9 -11 5.53 0.44
-8 -9 11 4.6 0.5
8 -9 -11 5 0.45
9 9 -11 0.95 0.29
-9 -9 -11 0.51 0.25
9 -9 -11 0.77 0.29
-9 -9 11 0.84 0.3
-10 -9 -11 0.18 0.23
10 9 -11 0.4 0.29
10 -9 -11 0.41 0.26
-10 -9 11 -0.05 0.26
11 9 -11 2.79 0.43
-11 -9 -11 2.72 0.41
-11 -9 11 2.91 0.43
11 -9 -11 2.38 0.4
12 -9 -11 0.94 0.34
0 10 -11 12.64 0.59
0 10 -11 13.16 0.57
0 -10 -11 12.63 0.63
0 -10 11 12.68 0.59
0 -10 -11 12.95 0.58
1 10 -11 3.14 0.25
-1 -10 -11 2.98 0.24
-1 -10 -11 3.31 0.28
1 10 -11 3.49 0.27
1 -10 11 3.2 0.24
1 -10 -11 3.06 0.22
-1 -10 11 2.93 0.26
1 -10 -11 3.42 0.3
-1 10 -11 3.47 0.22
2 -10 11 3.64 0.23
-2 -10 -11 3.49 0.26
2 10 -11 3.1 0.29
-2 -10 -11 3.64 0.27
2 10 -11 2.92 0.25
2 -10 -11 3.34 0.23
2 -10 -11 3.09 0.32
-2 10 -11 3.5 0.21
-2 -10 11 3.12 0.3
-3 -10 -11 1.53 0.21
3 10 -11 1.29 0.22
-3 -10 -11 1.4 0.2
3 -10 -11 1.69 0.19
3 -10 -11 1.42 0.25
-3 -10 11 1.46 0.21
-3 -10 11 1.49 0.22
-4 -10 -11 6.51 0.39
4 10 -11 6.86 0.44
-4 -10 -11 6.79 0.4
4 -10 -11 6.58 0.38
-4 -10 11 7.42 0.45
-4 -10 11 6.59 0.44
4 -10 -11 7.38 0.48
-5 -10 -11 0.79 0.18
-5 -10 -11 0.65 0.18
5 10 -11 0.64 0.21
-5 -10 11 0.84 0.22
5 -10 -11 0.89 0.21
5 -10 -11 0.5 0.13
6 10 -11 3.18 0.36
-6 -10 -11 2.66 0.3
-6 -10 11 3.05 0.36
6 -10 -11 3.2 0.38
6 -10 -11 3.15 0.27
-7 -10 -11 1.99 0.27
7 10 -11 2.46 0.34
7 -10 -11 2.09 0.35
-7 -10 11 1.87 0.33
8 10 -11 1.8 0.35
-8 -10 -11 1.93 0.31
8 -10 -11 2.11 0.33
-8 -10 11 1.73 0.34
9 10 -11 4.16 0.47
-9 -10 -11 4.14 0.43
-9 -10 11 4.55 0.52
9 -10 -11 4.45 0.51
-10 -10 -11 0.43 0.24
10 10 -11 0.26 0.22
-10 -10 11 0.83 0.31
-10 -10 11 0.42 0.25
10 -10 -11 0.91 0.3
-11 -10 -11 3.16 0.44
11 10 -11 4.41 0.51
11 -10 -11 3.62 0.49
-11 -10 11 3.06 0.43
-11 -10 11 3.38 0.5
12 -10 -11 0.47 0.3
0 -11 -11 4.54 0.35
0 11 -11 4.55 0.3
0 11 -11 5.1 0.29
0 -11 11 4.09 0.3
0 -11 -11 4.71 0.28
-1 -11 -11 3.24 0.24
1 11 -11 2.36 0.25
1 11 -11 2.46 0.23
1 -11 11 2.41 0.21
-1 -11 -11 2.86 0.3
-1 11 -11 2.87 0.2
1 -11 -11 2.6 0.21
1 -11 -11 2.81 0.29
-1 -11 11 3.05 0.26
-2 -11 -11 1.42 0.22
2 11 -11 1.4 0.22
-2 -11 -11 1.67 0.2
2 -11 11 1.7 0.18
-2 -11 11 1.63 0.21
-2 -11 11 1.47 0.2
2 -11 -11 1.6 0.18
2 -11 -11 1.46 0.25
-3 -11 -11 22.51 0.97
-3 -11 -11 23.18 1
3 11 -11 23 1.02
-3 -11 11 22.77 1.01
3 -11 -11 22.89 0.95
3 -11 -11 22.95 1.06
-3 -11 11 22.63 1.04
-4 -11 -11 13.17 0.65
-4 -11 -11 13.52 0.65
4 11 -11 12.28 0.7
4 -11 -11 14.05 0.73
-4 -11 11 12.83 0.67
4 -11 -11 13.56 0.62
-4 -11 11 13.32 0.71
5 11 -11 1.96 0.31
-5 -11 -11 2.23 0.26
-5 -11 -11 2.14 0.26
5 -11 -11 1.96 0.21
-5 -11 11 1.36 0.25
-5 -11 11 1.93 0.28
5 -11 -11 2.27 0.32
6 11 -11 2.52 0.36
-6 -11 -11 2.56 0.3
-6 -11 -11 3.38 0.33
6 -11 -11 2.74 0.35
-6 -11 11 2.72 0.36
-6 -11 11 3.01 0.37
7 11 -11 0.65 0.22
-7 -11 -11 0.44 0.21
-7 -11 11 0.46 0.2
7 -11 -11 1.04 0.28
-7 -11 11 0.66 0.26
8 11 -11 0.48 0.26
-8 -11 -11 0.17 0.16
8 -11 -11 0.18 0.25
-8 -11 11 0.49 0.22
-8 -11 11 0.36 0.26
9 11 -11 0.14 0.26
-9 -11 -11 0.05 0.22
-9 -11 11 0.12 0.25
9 -11 -11 0.48 0.28
-9 -11 11 -0.09 0.25
10 11 -11 3.58 0.49
-10 -11 -11 3.28 0.4
-10 -11 11 2.98 0.48
-10 -11 11 3.2 0.45
10 -11 -11 3.89 0.51
11 11 -11 0.05 0.28
-11 -11 -11 0.09 0.2
-11 -11 11 0.71 0.33
-11 -11 11 0.46 0.3
11 -11 -11 0.9 0.32
0 -12 -11 4.07 0.31
0 -12 -11 4.21 0.27
0 -12 11 3.88 0.29
0 12 -11 3.77 0.26
1 12 -11 3.3 0.28
-1 -12 -11 3.25 0.32
1 -12 11 2.94 0.24
-1 -12 -11 3.12 0.25
-1 -12 11 3.08 0.29
-1 -12 11 2.96 0.26
1 -12 -11 3.06 0.23
1 -12 -11 3.38 0.34
2 12 -11 3.09 0.31
-2 -12 -11 3.49 0.27
2 -12 11 3.16 0.24
-2 -12 -11 2.73 0.3
2 -12 -11 3.16 0.34
-2 -12 11 2.88 0.3
2 -12 -11 3.09 0.23
-2 -12 11 3.34 0.27
3 12 -11 4.32 0.37
-3 -12 -11 4.73 0.33
-3 -12 -11 5.01 0.36
-3 -12 11 4.32 0.38
3 -12 -11 5.14 0.31
3 -12 -11 4.85 0.37
-3 -12 11 4.52 0.34
-4 -12 -11 0.85 0.21
4 12 -11 1.08 0.21
-4 -12 -11 1.36 0.21
4 -12 -11 1.45 0.26
-4 -12 11 1.22 0.21
4 -12 -11 1.19 0.17
-4 -12 11 0.84 0.21
5 12 -11 2.39 0.34
-5 -12 -11 3 0.31
-5 -12 -11 2.69 0.29
-5 -12 11 2.57 0.34
-5 -12 11 2.5 0.31
5 -12 -11 2.93 0.38
6 12 -11 1.78 0.32
-6 -12 -11 1.13 0.24
-6 -12 -11 1.02 0.21
6 -12 -11 1.16 0.29
-6 -12 11 1.59 0.31
-6 -12 11 1.25 0.27
-7 -12 -11 0.46 0.22
7 12 -11 0.6 0.22
-7 -12 11 0.22 0.2
-7 -12 11 0.66 0.24
7 -12 -11 0.41 0.21
8 12 -11 3.56 0.43
-8 -12 -11 2.68 0.35
-8 -12 11 3.08 0.44
8 -12 -11 2.72 0.42
-8 -12 11 2.92 0.42
9 12 -11 1.5 0.38
-9 -12 -11 2.09 0.34
-9 -12 11 1.76 0.38
-9 -12 11 1.31 0.34
9 -12 -11 1.89 0.38
10 12 -11 1.06 0.35
-10 -12 -11 0.92 0.29
-10 -12 11 0.66 0.32
10 -12 -11 1.26 0.35
-10 -12 11 0.46 0.24
-11 -12 11 0.37 0.25
11 -12 -11 0.26 0.26
0 -13 -11 43.07 1.76
0 -13 11 42.55 1.7
0 -13 -11 41.2 1.64
1 -13 11 3.33 0.27
-1 -13 -11 4.1 0.31
1 13 -11 3.3 0.3
-1 -13 -11 3.98 0.28
-1 -13 11 3.58 0.33
1 -13 -11 3.49 0.36
-1 -13 11 3.91 0.29
1 -13 -11 3.53 0.26
-2 -13 -11 0.63 0.18
2 -13 11 0.5 0.14
2 13 -11 0.51 0.15
-2 -13 -11 0.47 0.14
-2 -13 11 0.68 0.16
-2 -13 11 0.44 0.14
2 -13 -11 0.56 0.13
2 -13 -11 0.56 0.21
-3 -13 -11 0.89 0.2
-3 -13 -11 1.03 0.19
3 13 -11 0.92 0.22
3 -13 -11 1.05 0.24
3 -13 -11 0.97 0.16
-3 -13 11 0.67 0.21
-3 -13 11 0.83 0.18
-4 -13 -11 5.47 0.4
4 13 -11 5.54 0.45
-4 -13 -11 6.77 0.41
-4 -13 11 6.92 0.47
4 -13 -11 6.42 0.49
-4 -13 11 5.34 0.4
-5 -13 -11 0.64 0.21
-5 -13 -11 0.68 0.17
5 13 -11 0.87 0.25
-5 -13 11 0.65 0.24
-5 -13 11 0.41 0.19
5 -13 -11 0.42 0.23
6 13 -11 3.08 0.4
-6 -13 -11 2.59 0.3
-6 -13 -11 2.43 0.3
-6 -13 11 1.78 0.33
-6 -13 11 2.2 0.32
6 -13 -11 2.85 0.4
-7 -13 -11 2.84 0.35
7 13 -11 3.14 0.4
7 -13 -11 3.09 0.43
-7 -13 11 2.54 0.39
-7 -13 11 2.95 0.4
8 13 -11 0.32 0.26
-8 -13 -11 0.6 0.25
8 -13 -11 0.27 0.27
-8 -13 11 0.49 0.29
-8 -13 11 0.22 0.26
-9 -13 -11 1.33 0.31
9 13 -11 1.21 0.31
9 -13 -11 1.92 0.4
-9 -13 11 1.3 0.36
-9 -13 11 1.54 0.36
-10 -13 -11 1.34 0.29
10 13 -11 2 0.41
10 -13 -11 1.87 0.4
-10 -13 11 1.43 0.39
-10 -13 11 1.72 0.39
11 -13 -11 0.53 0.31
0 -14 -11 0.05 0.17
0 -14 11 0.06 0.12
0 -14 -11 -0.05 0.09
-1 -14 -11 1.93 0.21
1 -14 11 1.94 0.22
-1 -14 -11 2.31 0.29
-1 -14 11 2.25 0.26
1 -14 -11 2.08 0.3
1 -14 -11 1.8 0.19
2 14 -11 0.6 0.19
2 -14 11 0.79 0.16
-2 -14 -11 0.71 0.2
-2 -14 -11 0.55 0.16
2 -14 -11 0.65 0.13
-2 -14 11 0.74 0.16
-2 -14 11 0.33 0.17
2 -14 -11 0.87 0.23
-3 -14 -11 2.25 0.28
-3 -14 -11 1.95 0.24
3 14 -11 1.96 0.27
3 -14 -11 2.62 0.34
-3 -14 11 2.36 0.27
-3 -14 11 2.42 0.31
-4 -14 -11 1.32 0.24
4 14 -11 1.06 0.26
-4 -14 -11 1.13 0.21
-4 -14 11 1.29 0.28
-4 -14 11 1.24 0.24
4 -14 -11 1.34 0.28
-5 -14 -11 0.93 0.22
5 14 -11 1.14 0.29
-5 -14 -11 1.57 0.25
5 -14 -11 1.31 0.27
-5 -14 11 0.63 0.21
-5 -14 11 1.14 0.29
-6 -14 -11 1.23 0.24
6 14 -11 0.99 0.31
-6 -14 -11 1.02 0.24
-6 -14 11 0.7 0.24
-6 -14 11 0.71 0.27
6 -14 -11 1.55 0.34
7 14 -11 -0.27 0.22
-7 -14 -11 0.27 0.21
-7 -14 11 0.22 0.23
-7 -14 11 0.5 0.28
7 -14 -11 0.26 0.24
-8 -14 -11 0.6 0.21
8 14 -11 1.14 0.34
-8 -14 11 0.72 0.3
8 -14 -11 1.4 0.34
-8 -14 11 0.34 0.28
-9 -14 -11 1.24 0.3
9 14 -11 1.45 0.35
-9 -14 11 1 0.34
9 -14 -11 1.24 0.36
-9 -14 11 0.45 0.3
-10 -14 -11 0.14 0.26
10 14 -11 0.22 0.3
10 -14 -11 0.67 0.31
-10 -14 11 0.52 0.31
-10 -14 11 0.04 0.2
0 -15 -11 0.34 0.12
0 -15 11 0.21 0.14
0 -15 -11 0.47 0.17
1 -15 11 0.42 0.15
-1 -15 -11 0.75 0.15
-1 -15 -11 0.13 0.18
1 -15 -11 0.7 0.14
-1 -15 11 0.45 0.17
1 -15 -11 0.68 0.22
2 -15 11 2.24 0.26
-2 -15 -11 2.97 0.33
-2 -15 -11 3.06 0.27
2 -15 -11 2.79 0.36
-2 -15 11 2.61 0.31
-3 -15 -11 11.55 0.63
-3 -15 -11 11.35 0.57
3 15 -11 10.31 0.6
-3 -15 11 11.13 0.64
-3 -15 11 10.61 0.58
3 -15 -11 10.62 0.64
-4 -15 -11 0.58 0.21
4 15 -11 0.68 0.25
-4 -15 -11 0.91 0.2
-4 -15 11 0.35 0.22
4 -15 -11 1.21 0.29
-4 -15 11 0.2 0.18
-5 -15 -11 0.37 0.2
-5 -15 -11 0.44 0.19
5 15 -11 0.2 0.24
5 -15 -11 -0.07 0.17
-5 -15 11 0.1 0.19
-5 -15 11 -0.07 0.21
-6 -15 -11 0.93 0.25
-6 -15 -11 0.81 0.23
6 15 -11 0.84 0.31
6 -15 -11 1.04 0.33
-6 -15 11 1.07 0.3
-6 -15 11 1.05 0.26
-7 -15 -11 2.03 0.31
7 15 -11 2.16 0.39
-7 -15 11 1.78 0.37
7 -15 -11 2.32 0.38
-7 -15 11 1.75 0.33
-8 -15 -11 0.41 0.24
8 15 -11 -0.13 0.25
-8 -15 11 0.03 0.23
-8 -15 11 0.37 0.23
8 -15 -11 0.34 0.27
9 15 -11 0.55 0.32
-9 -15 -11 0.62 0.27
-9 -15 11 0.45 0.24
9 -15 -11 0.53 0.32
-9 -15 11 0.26 0.28
-10 -15 11 0.88 0.34
10 -15 -11 0.99 0.35
0 -16 11 2.96 0.3
0 -16 -11 3.32 0.37
0 -16 -11 2.88 0.28
-1 -16 -11 0.05 0.11
-1 -16 -11 0.25 0.15
1 -16 11 0.38 0.16
-1 -16 11 0.13 0.15
1 -16 -11 0.11 0.19
2 -16 11 3.99 0.33
-2 -16 -11 4.35 0.32
-2 -16 -11 4.35 0.41
-2 -16 11 4.44 0.39
2 -16 -11 4.46 0.43
-3 -16 -11 1.58 0.23
-3 -16 -11 1.58 0.28
3 -16 -11 1.6 0.32
-3 -16 11 1.71 0.29
-4 -16 -11 0.45 0.21
4 16 -11 0.46 0.23
-4 -16 -11 0.5 0.19
4 -16 -11 0.39 0.25
-4 -16 11 0.43 0.21
-4 -16 11 0.56 0.24
5 16 -11 1.5 0.33
-5 -16 -11 1.26 0.25
-5 -16 -11 1.82 0.29
-5 -16 11 1.09 0.25
-5 -16 11 1.13 0.3
5 -16 -11 1.25 0.29
-6 -16 -11 0.38 0.2
6 16 -11 0.03 0.2
-6 -16 -11 0.26 0.21
-6 -16 11 0.35 0.26
6 -16 -11 0.37 0.28
-6 -16 11 0.63 0.23
7 16 -11 -0.39 0.23
-7 -16 -11 0.06 0.2
-7 -16 11 0.36 0.22
7 -16 -11 0.33 0.24
-7 -16 11 -0.08 0.21
-8 -16 -11 1.13 0.29
8 16 -11 2.43 0.43
-8 -16 11 1.93 0.4
-8 -16 11 1.73 0.35
8 -16 -11 1.64 0.38
9 16 -11 1.02 0.37
-9 -16 -11 1.49 0.33
9 -16 -11 2.51 0.46
-9 -16 11 1.21 0.38
-9 -16 11 1 0.33
0 -17 -11 3.62 0.41
0 -17 11 3.61 0.34
-1 -17 -11 0.06 0.2
1 -17 11 0.25 0.17
1 -17 -11 0.66 0.25
-1 -17 11 0.31 0.18
-2 -17 -11 0.73 0.24
-2 -17 -11 0.76 0.18
2 -17 11 0.9 0.19
2 -17 -11 0.78 0.27
-2 -17 11 0.49 0.22
-3 -17 -11 0.56 0.18
-3 -17 -11 0.28 0.21
3 -17 -11 -0.09 0.21
-3 -17 11 0.05 0.22
-4 -17 -11 0.12 0.17
-4 -17 -11 -0.16 0.19
-4 -17 11 0.65 0.25
4 -17 -11 -0.1 0.15
5 17 -11 7.38 0.58
-5 -17 -11 5.81 0.45
-5 -17 -11 7.27 0.51
5 -17 -11 6.87 0.6
-5 -17 11 6.84 0.52
-6 -17 -11 2.38 0.32
6 17 -11 2.84 0.42
-6 -17 -11 2.51 0.36
-6 -17 11 1.81 0.32
6 -17 -11 2.51 0.42
-6 -17 11 3.58 0.44
7 17 -11 0.39 0.3
-7 -17 -11 0.3 0.22
-7 -17 11 0.28 0.24
7 -17 -11 -0.25 0.25
-7 -17 11 0.01 0.25
-8 -17 -11 0.09 0.24
8 17 -11 0.14 0.29
-8 -17 11 0.58 0.28
8 -17 -11 0.52 0.31
-8 -17 11 0.7 0.27
-9 -17 -11 -0.08 0.23
-9 -17 11 -0.11 0.22
9 -17 -11 0.82 0.34
0 -18 11 -0.04 0.15
0 -18 -11 -0.02 0.21
1 -18 11 7.04 0.48
-1 -18 -11 7.98 0.56
1 -18 -11 8.51 0.6
-1 -18 11 7.93 0.51
-2 -18 -11 6.17 0.48
-2 -18 11 4.44 0.45
2 -18 -11 5.36 0.52
-3 -18 -11 2.02 0.32
-3 -18 -11 1.61 0.24
-3 -18 11 1.9 0.29
3 -18 -11 2.33 0.38
-4 -18 -11 0.19 0.17
-4 -18 -11 0.44 0.24
4 -18 -11 -0.05 0.24
-4 -18 11 0.5 0.26
-5 -18 -11 0.56 0.24
-5 -18 -11 0.78 0.25
5 -18 -11 0.74 0.31
-5 -18 11 0.79 0.3
-6 -18 -11 1.27 0.26
-6 -18 -11 1.29 0.29
6 -18 -11 1.29 0.35
-6 -18 11 1.15 0.33
-7 -18 -11 0.34 0.23
7 18 -11 0.58 0.33
7 -18 -11 0.38 0.31
-7 -18 11 0.46 0.25
-7 -18 11 0.2 0.28
8 18 -11 0.26 0.31
-8 -18 -11 0.24 0.23
-8 -18 11 0.26 0.25
-8 -18 11 0.26 0.3
8 -18 -11 -0.07 0.2
-9 -18 11 2.79 0.45
0 -19 -11 0.32 0.24
0 -19 11 0.24 0.18
1 -19 11 2.4 0.31
-1 -19 -11 3.28 0.41
-1 -19 11 3.58 0.38
1 -19 -11 3.99 0.46
-2 -19 -11 6.3 0.53
-2 -19 11 6.55 0.51
2 -19 -11 6.97 0.56
-3 -19 -11 0.79 0.26
3 -19 -11 0.04 0.18
-3 -19 11 0.62 0.26
-4 -19 -11 0.12 0.18
-4 -19 -11 -0.06 0.22
-4 -19 11 -0.06 0.18
4 -19 -11 -0.19 0.21
-5 -19 -11 2 0.35
-5 -19 -11 2.3 0.32
-5 -19 11 2.72 0.42
5 -19 -11 1.96 0.4
-6 -19 -11 0.46 0.24
-6 -19 -11 0.19 0.2
-6 -19 11 0.4 0.31
6 -19 -11 1.02 0.34
-7 -19 -11 4.12 0.42
-7 -19 11 3.11 0.5
7 -19 -11 4.57 0.56
-8 -19 -11 1.38 0.33
0 -20 11 1.49 0.28
0 -20 -11 2.43 0.35
-1 -20 -11 0.3 0.2
1 -20 11 0.23 0.19
-1 -20 11 0.3 0.2
1 -20 -11 0.24 0.27
-2 -20 -11 5.23 0.44
-2 -20 11 4.48 0.45
2 -20 -11 4.97 0.52
-3 -20 -11 0.5 0.27
3 -20 -11 1.09 0.28
-3 -20 11 0.83 0.24
-4 -20 -11 1.94 0.34
4 -20 -11 2.01 0.36
-4 -20 11 1.58 0.35
-5 -20 -11 0.01 0.22
5 -20 -11 0.18 0.23
-5 -20 11 -0.35 0.24
-6 -20 -11 6 0.52
-6 -20 -11 5 0.47
-6 -20 11 4.82 0.54
6 -20 -11 4.68 0.57
-7 -20 -11 0.98 0.27
7 -20 -11 0.76 0.34
0 -21 11 0.57 0.23
0 -21 -11 0.22 0.27
-1 -21 -11 -0.23 0.24
1 -21 11 -0.01 0.2
1 -21 -11 -0.28 0.22
-1 -21 11 -0.34 0.17
-2 -21 -11 1.12 0.32
2 -21 -11 0.98 0.31
-2 -21 11 1.44 0.3
-3 -21 -11 1.65 0.31
3 -21 -11 1.1 0.28
-3 -21 11 1.22 0.32
-4 -21 -11 1.63 0.34
-4 -21 11 1.61 0.36
4 -21 -11 1.37 0.37
-5 -21 -11 1.39 0.33
5 -21 -11 1.48 0.38
-5 -21 11 1.38 0.33
-6 -21 -11 0.37 0.27
6 -21 -11 1.07 0.36
0 -22 -11 -0.04 0.24
0 -22 11 0.23 0.21
-1 -22 -11 1.01 0.33
-1 -22 11 1.34 0.3
1 -22 -11 1.74 0.34
-2 -22 -11 0.37 0.28
-2 -22 11 0.48 0.25
2 -22 -11 0.18 0.28
-3 -22 -11 3.01 0.44
3 -22 -11 3.56 0.47
-3 -22 11 3.22 0.44
-4 -22 -11 3.77 0.46
4 -22 -11 2.23 0.44
-4 -22 11 2.83 0.44
-5 -22 -11 0.73 0.29
-6 -22 -11 1.65 0.36
0 -23 -11 3.34 0.48
0 -23 11 3.51 0.42
-1 -23 -11 0.5 0.31
1 -23 -11 0.78 0.34
-1 -23 11 1.01 0.3
-2 -23 -11 1.87 0.38
2 -23 -11 2.08 0.39
-2 -23 11 1.45 0.34
-3 -23 -11 -0.09 0.25
-3 -23 11 0.18 0.26
-4 -23 -11 1.51 0.37
0 -24 11 0.61 0.26
-1 -24 11 0.57 0.27
-2 -24 11 1.17 0.33
0 0 -12 25.28 1.03
0 0 -12 26.58 1.05
1 0 -12 1.1 0.15
1 0 -12 1.04 0.15
-1 0 -12 1.11 0.13
-1 0 -12 1.14 0.14
-2 0 -12 74.28 2.71
-2 0 -12 70.45 2.71
2 0 -12 72.61 2.79
2 0 -12 71.44 2.73
3 0 -12 6.36 0.4
-3 0 -12 7.04 0.29
-3 0 -12 6.36 0.35
3 0 -12 6.45 0.37
4 0 -12 18.86 0.88
-4 0 -12 18.28 0.79
4 0 -12 19.2 0.84
5 0 -12 3.72 0.31
-5 0 -12 3.44 0.26
5 0 -12 2.99 0.31
6 0 -12 27.41 1.19
6 0 -12 27.83 1.23
-6 0 -12 26.18 1.1
-7 0 -12 0.35 0.15
7 0 -12 0.32 0.19
-7 0 12 0.5 0.16
8 0 -12 15.93 0.85
-8 0 -12 16.23 0.76
-8 0 12 17.39 0.86
9 0 -12 0.06 0.21
-9 0 12 0.25 0.2
-9 0 -12 -0.08 0.14
10 0 -12 7.6 0.6
-10 0 -12 7.85 0.5
-10 0 12 8.52 0.6
11 0 -12 1.03 0.32
-11 0 12 0.58 0.26
-11 0 -12 0.63 0.22
12 0 -12 0.17 0.25
-12 0 -12 0.28 0.21
-12 0 12 -0.18 0.23
0 -1 -12 52.42 1.99
0 1 -12 50.54 1.96
0 1 -12 52.13 1.98
0 -1 -12 51.04 1.96
1 1 -12 29.55 1.18
-1 -1 -12 30.13 1.17
-1 -1 -12 29.46 1.17
1 1 -12 29.41 1.2
1 -1 -12 29.4 1.17
1 -1 -12 29.51 1.21
-1 1 -12 28.91 1.16
-1 1 -12 30.76 1.16
2 1 -12 0.33 0.13
-2 -1 -12 0.22 0.07
-2 -1 -12 0.17 0.1
2 1 -12 0.29 0.11
2 -1 -12 0.4 0.1
-2 1 -12 0.17 0.07
-2 1 -12 0.41 0.1
2 -1 -12 0.27 0.13
3 1 -12 5.93 0.36
-3 -1 -12 6.37 0.28
3 1 -12 5.87 0.38
-3 -1 -12 5.69 0.33
-3 1 -12 6.5 0.26
3 -1 -12 5.87 0.35
-3 1 -12 6.42 0.33
3 -1 -12 6.04 0.39
4 1 -12 4.35 0.35
4 1 -12 4.93 0.33
-4 -1 -12 4.75 0.29
4 -1 -12 3.95 0.3
4 -1 -12 3.96 0.34
-4 1 -12 4.29 0.28
5 1 -12 17.75 0.85
5 1 -12 18.01 0.83
-5 -1 -12 18.28 0.78
5 -1 -12 15.7 0.81
5 -1 -12 18.84 0.87
-5 1 -12 18.58 0.77
-6 -1 -12 0.32 0.15
6 1 -12 0.54 0.19
6 1 -12 0.36 0.19
-6 1 -12 0.05 0.12
6 -1 -12 0.29 0.13
6 -1 -12 0.37 0.16
-7 1 12 7.34 0.48
-7 -1 -12 8.03 0.45
7 1 -12 8.22 0.55
7 -1 -12 8.2 0.52
-7 1 -12 8.66 0.45
-7 -1 12 7.58 0.51
-8 -1 -12 3.22 0.31
-8 1 12 3.14 0.36
8 1 -12 3.63 0.4
-8 -1 12 3.66 0.39
-8 1 -12 3.54 0.29
8 -1 -12 3.65 0.39
9 1 -12 1.79 0.34
-9 1 12 1.85 0.28
-9 -1 -12 1.85 0.26
9 -1 -12 1.88 0.3
-9 1 -12 1.62 0.24
-9 -1 12 1.67 0.32
-10 1 12 1.17 0.25
10 1 -12 1.38 0.31
-10 -1 -12 0.87 0.23
10 -1 -12 1.34 0.28
-10 1 -12 0.68 0.2
-10 -1 12 0.71 0.27
-11 1 12 0.97 0.29
11 1 -12 0.64 0.24
-11 -1 -12 0.76 0.24
11 -1 -12 0.89 0.29
-11 1 -12 1.1 0.23
-11 -1 12 0.95 0.3
-12 1 12 2.67 0.43
12 1 -12 3.13 0.45
-12 -1 -12 2.78 0.36
-12 -1 12 2.67 0.42
12 -1 -12 2.73 0.42
-13 -1 -12 1.8 0.33
0 2 -12 1.32 0.15
0 -2 -12 1.38 0.16
0 2 -12 1.41 0.15
0 -2 -12 1.18 0.14
1 2 -12 1.55 0.17
-1 -2 -12 1.32 0.14
-1 -2 -12 1.71 0.17
1 2 -12 1.65 0.18
-1 2 -12 1.51 0.14
-1 2 -12 1.64 0.16
1 -2 -12 1.31 0.18
1 -2 -12 1.74 0.17
-2 -2 -12 0.24 0.1
2 2 -12 0.21 0.09
-2 -2 -12 0.42 0.09
2 2 -12 0.11 0.09
-2 2 -12 0.27 0.1
-2 2 -12 0.34 0.07
2 -2 -12 0.43 0.12
2 -2 -12 0.17 0.1
-3 -2 -12 0.82 0.1
-3 -2 -12 1.08 0.14
3 2 -12 0.57 0.12
3 2 -12 0.71 0.17
3 -2 -12 0.89 0.14
-3 2 -12 0.84 0.13
3 -2 -12 0.64 0.15
-4 -2 -12 28.02 1.15
4 2 -12 29.11 1.23
4 2 -12 27.72 1.18
-4 2 -12 28.06 1.13
4 -2 -12 28.49 1.18
4 -2 -12 28.52 1.23
5 2 -12 6.98 0.47
5 2 -12 7.65 0.45
-5 -2 -12 6.6 0.38
5 -2 -12 7.5 0.48
-5 2 -12 6.81 0.38
5 -2 -12 7.3 0.42
-6 -2 -12 5.39 0.35
6 2 -12 4.58 0.38
-6 -2 12 5.19 0.4
-6 2 -12 5.2 0.32
6 -2 -12 5.4 0.36
6 -2 -12 5.79 0.44
-7 -2 -12 3.05 0.3
7 2 -12 3.69 0.37
-7 2 12 3.08 0.33
-7 -2 12 3.57 0.37
-7 2 -12 3.01 0.26
7 -2 -12 4.25 0.41
8 2 -12 0.24 0.19
-8 -2 -12 0.5 0.18
-8 2 12 0.16 0.16
-8 2 -12 0.26 0.14
-8 -2 12 0.13 0.19
8 -2 -12 0.35 0.18
-9 2 12 0.78 0.24
9 2 -12 0.86 0.27
-9 -2 -12 0.79 0.22
-9 2 -12 0.73 0.18
-9 -2 12 0.7 0.25
9 -2 -12 0.44 0.24
-10 2 12 0.63 0.25
10 2 -12 0.33 0.24
-10 -2 -12 0.42 0.21
10 -2 -12 0.17 0.24
-10 -2 12 0.44 0.23
-10 2 -12 0.43 0.18
-11 2 12 -0.12 0.2
11 2 -12 -0.05 0.23
-11 -2 -12 0.06 0.2
-11 2 -12 0.08 0.18
-11 -2 12 0.06 0.23
11 -2 -12 0.15 0.23
-12 -2 -12 0.81 0.27
12 2 -12 0.92 0.32
-12 2 12 0.91 0.32
12 -2 -12 1.04 0.31
-12 -2 12 1.13 0.33
0 -3 -12 29.71 1.18
0 3 -12 28.38 1.17
0 -3 -12 31.2 1.2
0 3 -12 29.61 1.18
-1 -3 -12 3.55 0.23
-1 -3 -12 3.37 0.22
1 3 -12 3.02 0.22
1 3 -12 3.21 0.23
1 -3 -12 3.2 0.24
1 -3 -12 3.17 0.22
-1 3 -12 3.31 0.2
-1 3 -12 3.11 0.21
2 3 -12 27.94 1.15
-2 -3 -12 27.29 1.1
2 3 -12 27.61 1.12
-2 -3 -12 29.17 1.09
2 -3 -12 25.77 1.11
-2 3 -12 27.24 1.06
2 -3 -12 27.51 1.16
-2 3 -12 28.12 1.09
3 3 -12 2.16 0.23
3 3 -12 2.09 0.25
-3 -3 -12 1.91 0.2
-3 -3 -12 1.98 0.15
-3 3 -12 2.24 0.18
3 -3 -12 2.01 0.21
3 -3 -12 2.21 0.26
4 3 -12 21.82 0.96
-4 -3 -12 20.71 0.88
4 3 -12 20.58 0.93
4 -3 -12 19.66 0.95
-4 3 -12 22.03 0.87
4 -3 -12 20.59 0.9
5 3 -12 6.16 0.43
5 3 -12 5.59 0.4
-5 -3 -12 5.51 0.34
5 -3 -12 6.14 0.41
-5 3 -12 5.53 0.32
5 -3 -12 6.09 0.38
-6 -3 -12 7.58 0.44
6 3 -12 8.13 0.53
-6 3 -12 8.46 0.42
6 -3 -12 7.95 0.46
-6 -3 12 7.77 0.5
6 -3 -12 7.88 0.53
-7 3 12 1.81 0.27
-7 -3 -12 1.96 0.25
7 3 -12 1.78 0.3
-7 3 -12 1.86 0.21
-7 -3 12 2.3 0.3
7 -3 -12 1.91 0.31
-8 3 12 2.14 0.31
8 3 -12 2.91 0.38
-8 -3 -12 2.3 0.28
-8 3 -12 2.58 0.25
-8 -3 12 2.57 0.35
8 -3 -12 2.73 0.37
9 3 -12 1.37 0.31
-9 -3 -12 1.32 0.25
-9 3 12 1.35 0.28
-9 3 -12 1.32 0.22
9 -3 -12 1.56 0.32
-9 -3 12 1.56 0.32
-10 -3 -12 1.27 0.27
10 3 -12 1.51 0.33
-10 3 12 1.45 0.3
-10 -3 12 1.17 0.31
10 -3 -12 1.41 0.29
-10 3 -12 1.41 0.22
-11 -3 -12 0.15 0.22
-11 3 12 -0.12 0.19
11 3 -12 0.03 0.18
11 -3 -12 -0.03 0.24
-11 -3 12 -0.15 0.21
-12 -3 -12 1.44 0.31
-12 3 12 2.04 0.37
12 3 -12 1.9 0.4
-12 -3 12 1.21 0.35
12 -3 -12 1.57 0.35
0 4 -12 39.66 1.57
0 -4 -12 39.36 1.58
0 -4 -12 41.79 1.62
0 4 -12 42.86 1.6
-1 -4 -12 34.11 1.38
1 4 -12 35.21 1.39
1 4 -12 36.18 1.42
-1 -4 -12 35.44 1.4
1 -4 -12 36.08 1.43
1 -4 -12 35.11 1.39
-1 4 -12 36.91 1.38
-1 4 -12 34.3 1.37
-2 -4 -12 33.35 1.33
-2 -4 -12 33.66 1.34
2 4 -12 32.75 1.35
2 4 -12 33.1 1.38
2 -4 -12 35.16 1.34
-2 4 -12 34.6 1.32
2 -4 -12 33.5 1.39
-2 4 -12 34.8 1.29
-3 -4 -12 53.33 1.98
3 4 -12 50.44 2.02
-3 -4 -12 51.58 2
3 4 -12 50.93 2.07
-3 4 -12 53.7 1.98
3 -4 -12 53.04 2.01
3 -4 -12 50.47 2.08
4 4 -12 0.61 0.19
4 4 -12 0.23 0.14
-4 -4 -12 0.51 0.09
-4 -4 -12 0.64 0.15
-4 4 -12 0.83 0.13
4 -4 -12 0.81 0.2
4 -4 -12 0.6 0.15
5 4 -12 1.11 0.24
-5 -4 -12 0.98 0.18
5 4 -12 1.21 0.22
-5 4 -12 1.25 0.16
5 -4 -12 0.98 0.23
5 -4 -12 1.05 0.19
6 4 -12 5.86 0.45
-6 -4 -12 5.99 0.38
-6 4 -12 5.32 0.32
6 -4 -12 5.34 0.41
-6 -4 12 6.04 0.41
6 -4 -12 5.42 0.38
7 4 -12 1.98 0.31
-7 -4 -12 1.17 0.19
-7 4 12 1.45 0.24
7 -4 -12 1.7 0.29
-7 4 -12 1.53 0.2
-7 -4 12 1.23 0.23
8 4 -12 2.24 0.35
-8 4 12 1.4 0.23
-8 -4 -12 1.82 0.26
8 -4 -12 1.3 0.29
-8 -4 12 1.69 0.3
-8 4 -12 1.48 0.19
-9 -4 -12 0.32 0.2
9 4 -12 0.44 0.24
-9 4 12 0.37 0.2
-9 4 -12 0.26 0.14
-9 -4 12 0.41 0.24
9 -4 -12 0.57 0.21
-10 4 12 1.57 0.3
10 4 -12 1.43 0.34
-10 -4 -12 1.66 0.29
-10 -4 12 1.15 0.31
10 -4 -12 1.68 0.34
11 4 -12 2.47 0.42
-11 -4 -12 2.08 0.33
-11 4 12 1.97 0.35
11 -4 -12 2.22 0.39
-11 -4 12 1.82 0.39
-12 -4 -12 1.05 0.29
-12 4 12 0.69 0.28
12 4 -12 0.97 0.33
-12 -4 12 0.76 0.31
12 -4 -12 0.82 0.31
0 5 -12 0.23 0.09
0 -5 -12 0.04 0.1
0 -5 -12 0.19 0.1
0 5 -12 0.12 0.09
-1 -5 -12 3.34 0.23
1 5 -12 3.55 0.23
-1 -5 -12 3.32 0.23
1 5 -12 3.15 0.24
1 -5 -12 3.25 0.23
-1 5 -12 3.23 0.2
1 -5 -12 3.24 0.26
-1 5 -12 3.07 0.21
2 -5 12 27.1 1.05
2 5 -12 25.98 1.11
2 5 -12 27.55 1.14
-2 -5 -12 27.76 1.09
-2 -5 -12 25.95 1.09
2 -5 -12 27.83 1.1
-2 5 -12 28.05 1.07
-2 5 -12 27.99 1.05
2 -5 -12 25.79 1.15
3 5 -12 10.26 0.53
-3 -5 -12 9.97 0.5
3 5 -12 9.29 0.53
-3 -5 -12 10.86 0.47
3 -5 -12 10.2 0.54
3 -5 -12 10.12 0.5
-3 5 -12 10.96 0.47
-4 -5 -12 3.68 0.28
4 5 -12 3.56 0.3
4 5 -12 3.58 0.31
-4 -5 -12 3.88 0.23
-4 5 -12 3.77 0.25
4 -5 -12 3.77 0.28
4 -5 -12 3.7 0.36
5 5 -12 29.88 1.33
-5 -5 -12 29.32 1.24
5 -5 -12 28.22 1.32
-5 -5 12 31.02 1.31
-5 5 -12 32.19 1.2
5 -5 -12 30.12 1.26
6 5 -12 4.83 0.39
-6 -5 -12 4.97 0.36
-6 5 -12 5.46 0.31
6 -5 -12 4.94 0.39
-6 -5 12 5.38 0.42
6 -5 -12 5.21 0.37
7 5 -12 6.59 0.47
-7 -5 -12 6.42 0.43
-7 5 12 6.22 0.44
-7 -5 12 6.76 0.5
7 -5 -12 6.77 0.48
-7 5 -12 6.71 0.36
8 5 -12 -0.18 0.2
-8 5 12 0.36 0.19
-8 -5 -12 0.15 0.14
8 -5 -12 0.16 0.21
-8 -5 12 0.48 0.23
-8 5 -12 0.2 0.12
9 5 -12 -0.19 0.16
-9 -5 -12 0.08 0.14
-9 5 12 -0.08 0.17
9 -5 -12 -0.1 0.21
-9 -5 12 -0.11 0.2
-10 5 12 2.46 0.37
-10 -5 -12 3.43 0.39
10 5 -12 3.06 0.4
-10 -5 12 3.47 0.46
10 -5 -12 3.55 0.44
-11 5 12 1.11 0.29
-11 -5 -12 1.09 0.29
11 5 -12 0.82 0.27
11 -5 -12 1.02 0.3
-11 -5 12 0.85 0.33
12 5 -12 0.92 0.33
-12 -5 -12 1.48 0.31
12 -5 -12 1.07 0.32
-12 -5 12 1.22 0.36
0 -6 -12 0.46 0.12
0 6 -12 0.37 0.1
0 6 -12 0.68 0.13
0 -6 -12 0.3 0.12
-1 -6 -12 25.8 1.02
-1 -6 -12 24.2 1
1 6 -12 25.03 1.03
1 -6 12 24.06 0.98
1 6 -12 23.9 1
-1 6 -12 25.32 0.98
1 -6 -12 24.18 1.05
-1 6 -12 23.97 0.98
1 -6 -12 25.12 1
-2 -6 -12 3.66 0.25
2 6 -12 3.6 0.27
2 6 -12 3.65 0.27
2 -6 12 3.81 0.21
-2 -6 -12 3.72 0.25
-2 6 -12 3.74 0.21
-2 6 -12 4.08 0.23
2 -6 -12 3.78 0.26
2 -6 -12 3.02 0.3
-3 -6 -12 0.34 0.11
3 6 -12 0.45 0.16
3 6 -12 0.4 0.14
-3 -6 -12 0.29 0.11
-3 6 -12 0.55 0.11
3 -6 -12 0.39 0.12
3 -6 -12 0.72 0.18
4 6 -12 14.75 0.75
-4 -6 -12 16.02 0.65
4 6 -12 13.25 0.7
-4 -6 -12 15 0.69
4 -6 -12 14.1 0.73
-4 6 -12 16.49 0.65
4 -6 -12 14.59 0.69
5 6 -12 2.74 0.33
-5 -6 -12 2.61 0.26
-5 -6 12 2.46 0.3
5 -6 -12 2.48 0.26
-5 6 -12 2.92 0.21
5 -6 -12 3.06 0.34
-6 -6 -12 8.16 0.48
6 6 -12 8.97 0.57
6 -6 -12 7.97 0.48
-6 6 -12 8.95 0.42
6 -6 -12 8.34 0.56
-6 -6 12 9.38 0.56
-7 -6 -12 1.06 0.22
7 6 -12 0.74 0.25
-7 -6 12 1.31 0.27
7 -6 -12 1.01 0.26
-7 6 -12 0.8 0.14
-8 6 12 0.41 0.18
-8 -6 -12 0.38 0.2
8 6 -12 0.43 0.25
8 -6 -12 0.23 0.22
-8 -6 12 0.23 0.21
-9 6 12 1.93 0.3
9 6 -12 1.9 0.32
-9 -6 -12 1.68 0.29
-9 -6 12 2.05 0.35
9 -6 -12 2.35 0.38
10 6 -12 0.7 0.29
-10 -6 -12 1.34 0.29
-10 6 12 0.81 0.27
10 -6 -12 -0.04 0.22
-10 -6 12 0.89 0.3
11 6 -12 0.22 0.29
-11 -6 -12 0.23 0.25
-11 -6 12 0.34 0.29
11 -6 -12 0.7 0.24
12 6 -12 1.4 0.36
-12 -6 -12 1.61 0.34
12 -6 -12 1.42 0.35
0 -7 12 4.46 0.27
0 -7 -12 4.15 0.3
0 7 -12 4.5 0.27
0 -7 -12 4.44 0.27
0 7 -12 4.09 0.26
1 -7 12 8.69 0.43
1 7 -12 9.6 0.46
1 7 -12 9.18 0.47
-1 -7 -12 8.45 0.45
-1 -7 -12 9.65 0.47
-1 7 -12 10.07 0.44
1 -7 -12 9.51 0.45
1 -7 -12 9.16 0.5
-1 7 -12 9.94 0.44
2 -7 12 6.14 0.3
-2 -7 -12 6.28 0.35
-2 -7 -12 6.62 0.35
2 7 -12 5.85 0.36
2 7 -12 5.92 0.36
-2 7 -12 6.41 0.3
2 -7 -12 6.02 0.38
-2 7 -12 6.2 0.31
2 -7 -12 6.57 0.35
-3 -7 -12 2.35 0.22
-3 -7 -12 2.51 0.24
3 7 -12 2.62 0.28
3 7 -12 2.22 0.25
-3 7 -12 2.67 0.19
3 -7 -12 1.94 0.27
3 -7 -12 2.41 0.22
-4 -7 -12 6.37 0.37
-4 -7 -12 6.64 0.36
4 7 -12 6.21 0.41
4 7 -12 7.1 0.46
4 -7 -12 6.4 0.38
-4 7 -12 6.93 0.35
4 -7 -12 6.51 0.43
5 7 -12 4.57 0.37
-5 -7 -12 5.12 0.32
5 -7 -12 4.44 0.39
-5 7 -12 4.69 0.28
5 -7 -12 3.99 0.31
-5 -7 12 4.48 0.38
-6 -7 -12 0.59 0.18
6 7 -12 0.5 0.22
6 -7 -12 0.77 0.23
-6 -7 12 0.95 0.24
-6 7 -12 0.68 0.13
6 -7 -12 0.7 0.17
-7 -7 -12 2.44 0.29
7 7 -12 2.42 0.35
-7 -7 12 2.27 0.33
7 -7 -12 2.31 0.32
7 -7 -12 2.47 0.28
-8 7 12 4.74 0.4
8 7 -12 5.62 0.53
-8 -7 -12 5.48 0.43
8 -7 -12 5.42 0.45
-8 -7 12 5.63 0.46
-9 -7 -12 -0.13 0.19
-9 7 12 0.18 0.18
9 7 -12 -0.24 0.22
-9 -7 12 0.06 0.17
9 -7 -12 0.1 0.19
-10 -7 -12 1.01 0.29
10 7 -12 0.27 0.27
-10 -7 12 0.07 0.25
10 -7 -12 0.69 0.24
11 7 -12 1.43 0.37
-11 -7 -12 1.97 0.36
11 -7 -12 2.08 0.39
-11 -7 12 2 0.4
12 -7 -12 1.21 0.34
0 -8 -12 2.19 0.2
0 8 -12 1.68 0.18
0 -8 12 2.25 0.21
0 8 -12 1.89 0.2
0 -8 -12 1.91 0.23
1 -8 12 4.83 0.28
-1 -8 -12 4.47 0.28
1 8 -12 4.39 0.3
-1 -8 -12 4.66 0.31
1 8 -12 4.56 0.29
1 -8 -12 4.69 0.28
-1 -8 12 5 0.31
1 -8 -12 4.82 0.34
-1 8 -12 5.23 0.28
-1 8 -12 4.65 0.27
-2 -8 -12 8.32 0.41
-2 -8 -12 7.43 0.4
2 -8 12 8.45 0.37
2 8 -12 6.86 0.42
2 8 -12 7.21 0.41
-2 8 -12 7.94 0.36
2 -8 -12 6.7 0.38
2 -8 -12 6.84 0.45
3 8 -12 20.99 0.94
-3 -8 -12 20.6 0.88
-3 -8 -12 21.51 0.9
3 8 -12 19.53 0.91
3 -8 -12 19.74 0.94
-3 8 -12 21.95 0.84
3 -8 -12 20.46 0.88
-4 -8 -12 16.46 0.7
-4 -8 -12 14.85 0.72
4 8 -12 15.63 0.78
4 -8 -12 15.07 0.71
-4 8 -12 17.68 0.67
-4 -8 12 14.79 0.75
4 -8 -12 14.55 0.79
5 8 -12 6.55 0.44
-5 -8 -12 6.62 0.36
-5 -8 -12 5.84 0.38
5 -8 -12 6.46 0.39
-5 -8 12 7.12 0.46
5 -8 -12 6.19 0.44
6 8 -12 4 0.42
-6 -8 -12 4.23 0.34
6 -8 -12 4.03 0.42
6 -8 -12 3.79 0.3
-6 -8 12 3.86 0.4
-7 -8 -12 2.44 0.3
7 8 -12 2.5 0.33
7 -8 -12 2.11 0.34
7 -8 -12 2.27 0.27
-7 -8 12 2.33 0.34
-8 -8 -12 1.75 0.29
8 8 -12 2.5 0.38
-8 8 12 1.78 0.27
-8 -8 12 1.43 0.32
8 -8 -12 1.9 0.35
-9 -8 -12 6.94 0.49
9 8 -12 6.88 0.6
9 -8 -12 7.75 0.57
-9 -8 12 7.83 0.61
-10 -8 -12 0.33 0.25
10 8 -12 0.59 0.24
10 -8 -12 0.64 0.25
-10 -8 12 0.43 0.23
11 8 -12 1.57 0.37
-11 -8 -12 1.24 0.33
11 -8 -12 2.15 0.4
-11 -8 12 1.88 0.39
12 -8 -12 0.56 0.3
0 9 -12 6.07 0.34
0 -9 -12 5.83 0.34
0 9 -12 6.29 0.33
0 -9 -12 6.08 0.39
0 -9 12 5.69 0.34
1 9 -12 29.01 1.24
1 9 -12 30.59 1.22
-1 -9 -12 31.03 1.22
-1 -9 -12 31.29 1.26
1 -9 12 29.29 1.2
1 -9 -12 30.02 1.28
-1 9 -12 30.11 1.19
-1 9 -12 29.89 1.21
1 -9 -12 30.48 1.21
-1 -9 12 30.75 1.26
2 9 -12 14.9 0.71
-2 -9 -12 15.78 0.68
2 -9 12 15.67 0.65
2 9 -12 14.84 0.69
-2 -9 -12 15.81 0.7
2 -9 -12 14.69 0.67
-2 -9 12 15.03 0.71
2 -9 -12 14.49 0.73
-2 9 -12 15.64 0.64
3 9 -12 5.69 0.38
-3 -9 -12 6.28 0.38
-3 -9 -12 6.57 0.37
3 9 -12 6.69 0.43
3 -9 -12 6.01 0.43
-3 9 -12 6.23 0.32
3 -9 -12 6.26 0.36
-4 -9 -12 10.4 0.53
-4 -9 -12 10.91 0.53
4 9 -12 10.67 0.6
4 -9 -12 9.84 0.51
4 -9 -12 10.02 0.58
-4 -9 12 9.71 0.57
-5 -9 -12 1.1 0.18
5 9 -12 0.79 0.23
-5 -9 -12 0.79 0.19
5 -9 -12 0.67 0.16
5 -9 -12 0.78 0.23
-5 -9 12 0.72 0.21
6 9 -12 4.97 0.4
-6 -9 -12 3.94 0.36
-6 -9 12 5.06 0.43
6 -9 -12 4.66 0.33
6 -9 -12 4.65 0.4
7 9 -12 2.51 0.37
-7 -9 -12 2.07 0.28
-7 -9 12 2.2 0.34
7 -9 -12 1.37 0.32
-8 -9 -12 0.12 0.15
8 9 -12 0.21 0.24
-8 -9 12 0.21 0.19
8 -9 -12 0.34 0.24
-9 -9 -12 2.11 0.3
9 9 -12 2.4 0.39
9 -9 -12 1.69 0.32
-9 -9 12 1.47 0.36
10 9 -12 0.2 0.28
-10 -9 -12 0.55 0.27
-10 -9 12 0.98 0.33
10 -9 -12 0.53 0.28
11 9 -12 0.17 0.29
-11 -9 -12 0.13 0.26
11 -9 -12 0.35 0.27
-11 -9 12 0.16 0.28
0 10 -12 11.24 0.5
0 10 -12 10.97 0.52
0 -10 12 9.87 0.51
0 -10 -12 10.18 0.5
0 -10 -12 10.16 0.56
1 10 -12 22.45 0.93
-1 -10 -12 20.6 0.96
-1 -10 -12 22.61 0.93
1 -10 12 21.67 0.92
1 10 -12 22.62 0.96
-1 10 -12 23.47 0.9
1 -10 -12 21.67 1
1 -10 -12 22.33 0.92
-1 -10 12 21.87 0.96
2 10 -12 9.84 0.51
2 10 -12 9.86 0.54
-2 -10 -12 10.67 0.5
-2 -10 -12 10.14 0.53
2 -10 12 9.82 0.47
-2 10 -12 10.27 0.46
-2 -10 12 9.93 0.54
2 -10 -12 10.34 0.5
2 -10 -12 10.26 0.58
3 10 -12 0.14 0.16
-3 -10 -12 -0.07 0.12
-3 -10 -12 -0.16 0.13
-3 -10 12 0.01 0.13
-3 -10 12 0.04 0.15
3 -10 -12 0.06 0.17
3 -10 -12 0.06 0.1
-4 -10 -12 10.42 0.5
-4 -10 -12 9.03 0.48
4 10 -12 9.75 0.57
-4 -10 12 8.22 0.54
4 -10 -12 8.52 0.54
4 -10 -12 9.15 0.48
-4 -10 12 9.13 0.54
5 10 -12 9.15 0.56
-5 -10 -12 10.45 0.51
-5 -10 -12 8.96 0.52
-5 -10 12 9.79 0.58
5 -10 -12 9.2 0.6
5 -10 -12 8.72 0.49
6 10 -12 14.77 0.81
-6 -10 -12 15.39 0.74
-6 -10 12 14.82 0.8
6 -10 -12 13.75 0.69
6 -10 -12 14.53 0.8
7 10 -12 0.08 0.22
-7 -10 -12 0.07 0.18
7 -10 -12 0.51 0.25
-7 -10 12 -0.12 0.2
8 10 -12 1.67 0.33
-8 -10 -12 1.63 0.29
-8 -10 12 2.33 0.37
8 -10 -12 1.77 0.35
-9 -10 -12 0.29 0.23
9 10 -12 0.26 0.26
9 -10 -12 0.29 0.27
-9 -10 12 0.2 0.26
10 10 -12 0.51 0.31
-10 -10 -12 0.53 0.22
10 -10 -12 0.89 0.33
-10 -10 12 0.57 0.31
-10 -10 12 0.01 0.25
11 10 -12 0.4 0.29
-11 -10 -12 0.39 0.27
-11 -10 12 0.04 0.29
-11 -10 12 0.09 0.27
11 -10 -12 -0.02 0.25
0 -11 -12 16.47 0.71
0 -11 -12 16.57 0.77
0 11 -12 16.07 0.73
0 11 -12 16.52 0.7
0 -11 12 15.44 0.72
-1 -11 -12 6.79 0.42
1 11 -12 6.15 0.36
1 11 -12 6.27 0.39
1 -11 12 6.37 0.37
-1 -11 -12 6.41 0.37
1 -11 -12 6.17 0.35
1 -11 -12 6.46 0.44
-1 -11 12 6.32 0.39
-1 11 -12 6.99 0.34
-2 -11 -12 25.97 1.14
2 -11 12 27.48 1.09
-2 -11 -12 26.65 1.11
2 11 -12 26.62 1.15
2 -11 -12 24.88 1.17
2 -11 -12 27.42 1.1
-2 -11 12 27.35 1.13
-2 -11 12 26.81 1.16
3 11 -12 14.22 0.72
-3 -11 -12 15.66 0.7
-3 -11 -12 16.09 0.71
-3 -11 12 15.31 0.75
3 -11 -12 13.23 0.65
-3 -11 12 13.34 0.7
3 -11 -12 14.79 0.77
4 11 -12 0.25 0.18
-4 -11 -12 0.11 0.16
-4 -11 -12 -0.01 0.14
-4 -11 12 0.05 0.17
4 -11 -12 0.26 0.19
-4 -11 12 0.14 0.14
4 -11 -12 -0.05 0.1
-5 -11 -12 1.72 0.24
-5 -11 -12 1.39 0.23
5 11 -12 1.6 0.28
-5 -11 12 1.39 0.26
-5 -11 12 1.13 0.26
5 -11 -12 1.37 0.28
5 -11 -12 1.85 0.22
-6 -11 -12 5.26 0.37
6 11 -12 5.4 0.48
-6 -11 12 5.92 0.49
-6 -11 12 4.6 0.46
6 -11 -12 5.13 0.51
7 11 -12 0.32 0.25
-7 -11 -12 0.22 0.16
-7 -11 12 -0.14 0.19
7 -11 -12 0.63 0.27
-7 -11 12 0.03 0.22
-8 -11 -12 2 0.32
8 11 -12 2.68 0.4
8 -11 -12 2.17 0.38
-8 -11 12 1.59 0.36
-8 -11 12 1.99 0.37
-9 -11 -12 -0.04 0.22
9 11 -12 0.06 0.2
-9 -11 12 0.3 0.27
-9 -11 12 0.18 0.26
9 -11 -12 0.41 0.28
10 11 -12 1.73 0.37
-10 -11 -12 0.66 0.3
-10 -11 12 1.03 0.34
10 -11 -12 0.64 0.32
-10 -11 12 1.28 0.33
-11 -11 12 -0.1 0.27
11 -11 -12 0.17 0.28
0 12 -12 1.31 0.17
0 -12 12 1.22 0.19
0 -12 -12 1.47 0.24
0 -12 -12 1.1 0.16
-1 -12 -12 11.28 0.61
1 12 -12 11.32 0.58
1 -12 12 11.42 0.55
-1 -12 -12 12.22 0.56
1 -12 -12 11.57 0.54
-1 -12 12 12.19 0.57
-1 -12 12 10.49 0.58
1 -12 -12 11.64 0.64
-2 -12 -12 1.51 0.2
2 12 -12 1.41 0.23
2 -12 12 1.51 0.18
-2 -12 -12 1.48 0.23
-2 -12 12 1.48 0.24
2 -12 -12 1.57 0.19
-2 -12 12 1.38 0.21
2 -12 -12 1.53 0.27
3 12 -12 1.22 0.23
-3 -12 -12 1.16 0.18
-3 -12 -12 1.3 0.22
-3 -12 12 1.15 0.2
-3 -12 12 1.73 0.26
3 -12 -12 1.22 0.23
3 -12 -12 1.07 0.16
4 12 -12 2.01 0.29
-4 -12 -12 2.4 0.27
-4 -12 -12 2.33 0.26
-4 -12 12 1.98 0.27
-4 -12 12 2.42 0.29
4 -12 -12 2.67 0.35
4 -12 -12 2.22 0.24
-5 -12 -12 2.12 0.26
-5 -12 -12 1.71 0.26
5 12 -12 2.22 0.33
-5 -12 12 1.87 0.31
-5 -12 12 2.29 0.3
5 -12 -12 2.62 0.36
6 12 -12 3.56 0.41
-6 -12 -12 2.14 0.3
6 -12 -12 3.42 0.42
-6 -12 12 2.87 0.37
-6 -12 12 3.31 0.41
7 12 -12 2.07 0.37
-7 -12 -12 2.71 0.34
-7 -12 12 2.39 0.36
7 -12 -12 2.76 0.38
-7 -12 12 2.54 0.39
8 12 -12 1.09 0.33
-8 -12 -12 1.24 0.28
-8 -12 12 1.49 0.34
8 -12 -12 1.97 0.38
-8 -12 12 1.2 0.32
-9 -12 -12 3.23 0.4
9 12 -12 3.4 0.46
9 -12 -12 3.46 0.48
-9 -12 12 2.92 0.45
-9 -12 12 3.66 0.49
-10 -12 -12 0.58 0.27
10 12 -12 0.84 0.35
-10 -12 12 0.65 0.31
-10 -12 12 0.46 0.32
10 -12 -12 0.08 0.26
11 -12 -12 1.97 0.41
0 -13 -12 0.31 0.11
0 -13 -12 0.27 0.17
0 -13 12 0.2 0.13
1 13 -12 0.6 0.17
-1 -13 -12 0.59 0.2
-1 -13 -12 0.76 0.15
1 -13 12 0.73 0.16
-1 -13 12 0.78 0.18
1 -13 -12 1.02 0.16
-1 -13 12 0.87 0.17
1 -13 -12 0.7 0.19
2 13 -12 11.03 0.59
-2 -13 -12 11.83 0.61
-2 -13 -12 11.46 0.57
2 -13 12 11.73 0.55
2 -13 -12 11.18 0.54
-2 -13 12 12.21 0.6
-2 -13 12 11.43 0.61
2 -13 -12 11.55 0.66
3 13 -12 3.72 0.36
-3 -13 -12 4.14 0.32
-3 -13 -12 3.82 0.34
3 -13 -12 3.2 0.38
-3 -13 12 3.79 0.37
-3 -13 12 3.84 0.32
3 -13 -12 3.82 0.28
4 13 -12 0.19 0.19
-4 -13 -12 0.45 0.17
-4 -13 -12 0.45 0.18
-4 -13 12 0.38 0.17
-4 -13 12 0.37 0.21
4 -13 -12 0.23 0.2
5 13 -12 0.97 0.26
-5 -13 -12 0.71 0.2
-5 -13 -12 0.63 0.2
5 -13 -12 0.89 0.27
-5 -13 12 0.51 0.2
-5 -13 12 0.52 0.24
-6 -13 -12 5.3 0.42
6 13 -12 6.06 0.52
-6 -13 12 5.41 0.53
-6 -13 12 6.01 0.48
6 -13 -12 6.2 0.58
-7 -13 -12 -0.21 0.18
7 13 -12 0.26 0.26
7 -13 -12 0.61 0.29
-7 -13 12 0.38 0.21
-7 -13 12 0.04 0.22
8 13 -12 0.39 0.23
-8 -13 -12 0.05 0.21
-8 -13 12 -0.21 0.24
8 -13 -12 0.5 0.23
-8 -13 12 0.29 0.2
9 13 -12 2.36 0.42
-9 -13 -12 2 0.35
9 -13 -12 2.84 0.47
-9 -13 12 2.06 0.39
-9 -13 12 1.75 0.39
10 13 -12 0.87 0.29
-10 -13 -12 1.17 0.32
-10 -13 12 0.46 0.33
10 -13 -12 1.25 0.35
-10 -13 12 1.03 0.36
0 -14 -12 1.94 0.2
0 -14 12 1.66 0.22
0 -14 -12 1.56 0.27
1 -14 12 5.04 0.36
-1 -14 -12 6.64 0.44
-1 -14 -12 5.34 0.34
-1 -14 12 5.15 0.38
1 -14 -12 6.49 0.46
1 -14 -12 5.96 0.33
-2 -14 -12 4.67 0.33
2 14 -12 4.82 0.38
-2 -14 -12 4.84 0.39
2 -14 12 4.23 0.32
2 -14 -12 4.86 0.31
-2 -14 12 4.25 0.34
2 -14 -12 5.81 0.45
-2 -14 12 4.91 0.38
3 14 -12 4.47 0.36
-3 -14 -12 4.53 0.38
-3 -14 -12 4.72 0.35
-3 -14 12 4.59 0.36
-3 -14 12 4.94 0.41
3 -14 -12 5.38 0.45
4 14 -12 4.99 0.44
-4 -14 -12 5.13 0.38
-4 -14 -12 4.85 0.39
4 -14 -12 5.43 0.44
-4 -14 12 5.45 0.45
-4 -14 12 4.45 0.38
-5 -14 -12 5.28 0.41
5 14 -12 5.29 0.5
-5 -14 -12 4.59 0.4
-5 -14 12 6.13 0.49
5 -14 -12 5.23 0.53
-5 -14 12 5.25 0.43
-6 -14 -12 4.12 0.39
6 14 -12 4.98 0.5
6 -14 -12 4.23 0.48
-6 -14 12 4.11 0.44
-6 -14 12 4.16 0.47
7 14 -12 0.89 0.25
-7 -14 -12 0.36 0.23
7 -14 -12 1.02 0.32
-7 -14 12 0.99 0.28
-7 -14 12 0.89 0.3
-8 -14 -12 1.84 0.32
8 14 -12 2.18 0.4
-8 -14 12 1.72 0.35
8 -14 -12 2.53 0.44
-8 -14 12 1.83 0.38
-9 -14 -12 0.09 0.25
9 14 -12 0.73 0.27
9 -14 -12 -0.02 0.28
-9 -14 12 0.58 0.3
-9 -14 12 0.4 0.29
10 -14 -12 1.24 0.37
-10 -14 12 1.2 0.39
0 -15 -12 2.86 0.35
0 -15 -12 3.01 0.25
0 -15 12 2.48 0.28
1 -15 12 0.28 0.13
-1 -15 -12 0.13 0.12
-1 -15 -12 0.21 0.18
1 -15 -12 0.26 0.12
-1 -15 12 0.22 0.15
1 -15 -12 0.09 0.2
-2 -15 -12 1.89 0.23
-2 -15 -12 2.33 0.31
2 -15 -12 2.63 0.36
-2 -15 12 2.36 0.3
-3 -15 -12 1.49 0.22
-3 -15 -12 1.85 0.28
3 15 -12 1.42 0.24
-3 -15 12 1.37 0.27
3 -15 -12 1.31 0.29
-3 -15 12 1.37 0.23
4 15 -12 -0.28 0.18
-4 -15 -12 -0.11 0.14
-4 -15 -12 -0.2 0.17
-4 -15 12 0.15 0.21
-4 -15 12 0.28 0.16
4 -15 -12 -0.01 0.16
5 15 -12 11.07 0.67
-5 -15 -12 8.92 0.55
-5 -15 -12 9.19 0.59
-5 -15 12 9.78 0.64
5 -15 -12 10.14 0.68
-5 -15 12 7.97 0.57
6 15 -12 2.02 0.37
-6 -15 -12 1.72 0.28
6 -15 -12 2.03 0.39
-6 -15 12 1.36 0.34
-6 -15 12 0.96 0.29
-7 -15 -12 3.68 0.4
7 15 -12 3.55 0.47
-7 -15 12 3.4 0.43
-7 -15 12 4.4 0.49
7 -15 -12 4.5 0.52
8 15 -12 2.5 0.43
-8 -15 -12 2.1 0.34
8 -15 -12 3.27 0.47
-8 -15 12 2.69 0.43
-8 -15 12 2.28 0.39
-9 -15 -12 0.87 0.29
9 15 -12 0.82 0.36
9 -15 -12 1.73 0.41
-9 -15 12 1.58 0.39
-9 -15 12 0.69 0.32
0 -16 -12 3.55 0.27
0 -16 12 3.59 0.32
0 -16 -12 4.08 0.42
-1 -16 -12 7.27 0.4
1 -16 12 7.07 0.42
-1 -16 -12 6.63 0.5
1 -16 -12 6.01 0.47
-1 -16 12 7.01 0.46
-2 -16 -12 0.43 0.21
-2 -16 -12 0.51 0.17
2 -16 -12 0.81 0.22
-2 -16 12 0.98 0.23
3 16 -12 1.21 0.26
-3 -16 -12 1.31 0.22
-3 -16 -12 0.96 0.25
3 -16 -12 1.08 0.27
-3 -16 12 1.41 0.29
-4 -16 -12 0.11 0.16
4 16 -12 0.27 0.23
-4 -16 -12 0.3 0.2
4 -16 -12 0.37 0.26
-4 -16 12 0.13 0.24
-4 -16 12 0.47 0.22
5 16 -12 1.34 0.32
-5 -16 -12 1.1 0.26
-5 -16 -12 1.2 0.24
-5 -16 12 1.03 0.29
5 -16 -12 1.44 0.34
-5 -16 12 0.89 0.24
-6 -16 -12 3.46 0.43
6 16 -12 3.69 0.48
-6 -16 -12 4.26 0.4
6 -16 -12 4.82 0.55
-6 -16 12 3.11 0.4
-6 -16 12 4.06 0.45
7 16 -12 -0.05 0.25
-7 -16 -12 0 0.2
7 -16 -12 -0.01 0.26
-7 -16 12 0.03 0.27
-7 -16 12 -0.03 0.22
8 16 -12 1.08 0.31
-8 -16 -12 1.76 0.32
-8 -16 12 1.72 0.39
8 -16 -12 1.1 0.36
-8 -16 12 1.49 0.36
-9 -16 -12 0.58 0.27
9 -16 -12 0.75 0.34
-9 -16 12 0.02 0.27
-9 -16 12 0.64 0.34
0 -17 12 0.01 0.14
0 -17 -12 0.11 0.16
1 -17 12 0.23 0.17
-1 -17 -12 0.27 0.23
-1 -17 12 -0.08 0.15
1 -17 -12 0.38 0.24
-2 -17 -12 3.53 0.41
-2 -17 -12 4.48 0.35
2 -17 -12 4.83 0.49
-2 -17 12 4.24 0.41
-3 -17 -12 1.05 0.22
-3 -17 -12 1.09 0.27
3 -17 -12 1.04 0.31
-3 -17 12 0.98 0.28
-4 -17 -12 0.7 0.24
-4 -17 -12 0.91 0.21
-4 -17 12 0.98 0.24
4 -17 -12 0.91 0.3
-5 -17 -12 0 0.2
-5 -17 -12 0.13 0.17
5 17 -12 0.05 0.23
5 -17 -12 0.25 0.27
-5 -17 12 0.08 0.23
-6 -17 -12 0.53 0.23
-6 -17 -12 0.67 0.29
6 17 -12 0.53 0.24
-6 -17 12 0.21 0.26
-6 -17 12 0.34 0.24
6 -17 -12 0.59 0.25
7 17 -12 0.31 0.24
-7 -17 -12 0.19 0.22
-7 -17 12 0.07 0.27
7 -17 -12 -0.12 0.27
-7 -17 12 0.2 0.23
8 17 -12 0.65 0.34
-8 -17 -12 0.97 0.24
-8 -17 12 1.4 0.37
-8 -17 12 1.29 0.34
8 -17 -12 1.49 0.4
-9 -17 12 0.29 0.27
0 -18 12 0.11 0.16
0 -18 -12 -0.06 0.16
-1 -18 -12 0.49 0.26
1 -18 12 0.34 0.17
-1 -18 12 0.39 0.19
1 -18 -12 0.5 0.27
-2 -18 -12 0.19 0.22
2 -18 -12 0.08 0.23
-2 -18 12 0.19 0.2
-3 -18 -12 3.88 0.37
-3 -18 -12 4.12 0.44
3 -18 -12 3.88 0.44
-3 -18 12 3.88 0.43
-4 -18 -12 2.64 0.37
-4 -18 -12 3.11 0.33
4 -18 -12 3.37 0.43
-4 -18 12 2.25 0.37
-5 -18 -12 0.46 0.23
-5 -18 -12 0.28 0.2
5 -18 -12 0.71 0.33
-5 -18 12 0.39 0.27
-6 -18 -12 0.77 0.24
-6 -18 -12 0.35 0.24
6 18 -12 0.49 0.31
-6 -18 12 0.74 0.32
6 -18 -12 0.46 0.32
-7 -18 -12 2.89 0.37
7 18 -12 3.27 0.48
-7 -18 12 3.01 0.48
7 -18 -12 3.14 0.49
-8 -18 -12 -0.04 0.2
-8 -18 12 0.1 0.25
8 -18 -12 0.21 0.23
0 -19 12 1.11 0.26
0 -19 -12 0.52 0.22
1 -19 12 1.7 0.27
-1 -19 -12 1.95 0.35
-1 -19 12 1.9 0.3
1 -19 -12 2.57 0.38
-2 -19 -12 0.77 0.27
2 -19 -12 0.63 0.24
-2 -19 12 0.88 0.26
-3 -19 -12 0.17 0.25
-3 -19 12 0.14 0.23
3 -19 -12 0.41 0.27
-4 -19 -12 0.21 0.21
-4 -19 -12 -0.02 0.21
-4 -19 12 0.29 0.27
4 -19 -12 0.03 0.26
-5 -19 -12 2.04 0.34
-5 -19 -12 1.76 0.29
-5 -19 12 1.93 0.4
5 -19 -12 2.03 0.41
-6 -19 -12 0.84 0.25
-6 -19 -12 0.72 0.27
-6 -19 12 0.91 0.34
6 -19 -12 0.59 0.32
-7 -19 -12 0.33 0.23
-7 -19 12 -0.03 0.28
7 -19 -12 -0.01 0.27
0 -20 12 6.03 0.47
0 -20 -12 6.2 0.59
-1 -20 -12 0.77 0.24
1 -20 -12 0.16 0.27
-1 -20 12 0.85 0.24
-2 -20 -12 1.11 0.3
2 -20 -12 0.75 0.25
-2 -20 12 1.37 0.29
-3 -20 -12 2.18 0.37
-3 -20 12 2.07 0.36
3 -20 -12 2.36 0.41
-4 -20 -12 0.17 0.24
-4 -20 12 -0.01 0.26
4 -20 -12 -0.58 0.23
-5 -20 -12 0.63 0.27
-5 -20 12 0.72 0.32
5 -20 -12 0.18 0.3
-6 -20 -12 0.27 0.23
-6 -20 -12 0.79 0.32
-6 -20 12 0.42 0.31
6 -20 -12 0.5 0.31
-7 -20 -12 0.09 0.25
0 -21 -12 0.07 0.27
0 -21 12 -0.52 0.17
-1 -21 -12 0.25 0.26
1 -21 -12 0.56 0.3
-1 -21 12 0.41 0.24
-2 -21 -12 1.75 0.35
2 -21 -12 2.06 0.36
-2 -21 12 1.16 0.29
-3 -21 -12 1.47 0.33
3 -21 -12 1.37 0.36
-3 -21 12 1.54 0.33
-4 -21 -12 0.53 0.26
-4 -21 12 0.48 0.28
4 -21 -12 0.52 0.3
-5 -21 -12 0.09 0.23
-5 -21 12 -0.28 0.27
5 -21 -12 -0.12 0.27
-6 -21 -12 0.7 0.29
0 -22 12 0.84 0.26
0 -22 -12 0.47 0.31
-1 -22 -12 0.74 0.31
1 -22 -12 0.57 0.32
-1 -22 12 0.71 0.28
-2 -22 -12 1.58 0.36
2 -22 -12 1.48 0.36
-2 -22 12 1.49 0.32
-3 -22 -12 0.53 0.29
-3 -22 12 0.57 0.23
3 -22 -12 0.47 0.32
-4 -22 -12 1 0.31
-4 -22 12 1.56 0.36
-5 -22 -12 0.76 0.28
0 -23 -12 0.41 0.29
-1 -23 -12 0.61 0.3
-1 -23 12 0.94 0.31
1 -23 -12 0.72 0.34
-2 -23 -12 0.53 0.28
-2 -23 12 -0.02 0.24
-3 -23 -12 0.4 0.28
-3 -23 12 0.32 0.27
-1 -24 12 0.13 0.25
0 0 -13 0.07 0.09
0 0 -13 -0.06 0.07
1 0 -13 0.98 0.15
-1 0 -13 1.21 0.15
1 0 -13 1.1 0.16
-1 0 -13 1.17 0.13
2 0 -13 19.6 0.83
-2 0 -13 19.57 0.82
2 0 -13 19.31 0.87
-2 0 -13 20 0.79
3 0 -13 0.01 0.14
-3 0 -13 0.18 0.09
3 0 -13 0.06 0.09
4 0 -13 4.4 0.37
4 0 -13 5.38 0.35
-4 0 -13 4.76 0.3
-5 0 -13 2.12 0.22
5 0 -13 1.87 0.26
5 0 -13 2.05 0.29
-6 0 -13 27.11 1.14
6 0 -13 27.14 1.25
6 0 -13 28.79 1.23
-7 0 13 0.9 0.23
7 0 -13 1.29 0.27
-7 0 -13 1.05 0.19
8 0 -13 1.25 0.25
-8 0 13 0.82 0.2
-8 0 -13 0.91 0.19
9 0 -13 8.57 0.61
-9 0 -13 7.51 0.47
-9 0 13 7.48 0.56
-10 0 -13 0.24 0.19
10 0 -13 0.44 0.26
-10 0 13 0.19 0.18
11 0 -13 0.26 0.27
-11 0 -13 0.64 0.24
-11 0 13 0.24 0.25
12 0 -13 0.02 0.26
-12 0 -13 0.07 0.2
-12 0 13 0.21 0.26
0 1 -13 0.68 0.12
0 -1 -13 0.95 0.14
0 -1 -13 0.9 0.14
0 1 -13 0.73 0.13
-1 -1 -13 1.75 0.18
1 1 -13 1.72 0.19
-1 -1 -13 1.66 0.17
1 1 -13 1.68 0.17
1 -1 -13 1.59 0.19
-1 1 -13 2.01 0.16
-1 1 -13 1.88 0.18
1 -1 -13 1.92 0.19
-2 -1 -13 25.15 0.97
2 1 -13 23.97 1
2 1 -13 24.35 1.04
-2 -1 -13 23.12 0.99
-2 1 -13 23.36 0.98
2 -1 -13 23.65 1
2 -1 -13 24.29 1.04
-2 1 -13 25.79 0.96
3 1 -13 14.7 0.73
3 1 -13 15.7 0.71
-3 -1 -13 15.69 0.63
-3 -1 -13 16.41 0.69
3 -1 -13 15.94 0.71
3 -1 -13 15.95 0.75
-3 1 -13 15.02 0.68
4 1 -13 3.63 0.35
4 1 -13 3.58 0.28
-4 -1 -13 3.86 0.27
-4 1 -13 4.19 0.27
4 -1 -13 4.33 0.32
4 -1 -13 3.95 0.34
5 1 -13 9.34 0.55
5 1 -13 8.92 0.51
-5 -1 -13 8.38 0.45
-5 1 -13 8.47 0.44
5 -1 -13 8.66 0.52
5 -1 -13 8.27 0.48
6 1 -13 0.87 0.19
-6 -1 -13 0.75 0.17
6 1 -13 1.1 0.24
6 -1 -13 0.96 0.21
-6 1 -13 0.91 0.17
6 -1 -13 0.74 0.23
7 1 -13 1.55 0.29
-7 1 13 1.18 0.24
-7 -1 -13 1.15 0.2
-7 -1 13 1.2 0.25
-7 1 -13 1.08 0.18
7 -1 -13 1.73 0.3
8 1 -13 1.08 0.25
-8 1 13 1.46 0.27
-8 -1 -13 1.12 0.21
8 -1 -13 1.39 0.26
-8 1 -13 1.3 0.2
-8 -1 13 1.51 0.26
-9 1 13 0.52 0.24
-9 -1 -13 0.82 0.21
9 1 -13 0.84 0.28
9 -1 -13 0.75 0.24
-9 -1 13 1.35 0.27
-9 1 -13 1.16 0.21
-10 1 13 0.77 0.27
-10 -1 -13 0.56 0.21
10 1 -13 0.26 0.21
10 -1 -13 0.81 0.25
-10 1 -13 0.27 0.18
-10 -1 13 1 0.28
-11 -1 -13 1.35 0.28
11 1 -13 1.01 0.32
-11 1 13 1.47 0.33
11 -1 -13 1.55 0.33
-11 -1 13 1.56 0.33
-11 1 -13 1.53 0.28
12 1 -13 0.2 0.27
-12 1 13 0.07 0.23
-12 -1 -13 0.18 0.23
-12 -1 13 0.23 0.26
12 -1 -13 0.25 0.27
0 2 -13 0.79 0.13
0 2 -13 0.89 0.14
0 -2 -13 1.17 0.16
0 -2 -13 0.82 0.14
1 2 -13 31.49 1.28
1 2 -13 30.18 1.25
-1 -2 -13 31.29 1.25
-1 -2 -13 31.26 1.25
-1 2 -13 31.15 1.24
1 -2 -13 31.42 1.26
1 -2 -13 32.1 1.29
-1 2 -13 33.55 1.24
2 2 -13 15.78 0.73
-2 -2 -13 14.95 0.68
-2 -2 -13 16.77 0.67
2 2 -13 15.51 0.71
2 -2 -13 16 0.74
-2 2 -13 16.81 0.65
-2 2 -13 15.96 0.69
2 -2 -13 15.79 0.7
-3 -2 -13 9.27 0.39
-3 -2 -13 8.73 0.44
3 2 -13 7.91 0.46
3 2 -13 8.35 0.45
3 -2 -13 8.95 0.5
3 -2 -13 8.07 0.45
-3 2 -13 8.88 0.43
4 2 -13 0.28 0.12
4 2 -13 0.38 0.14
-4 -2 -13 0.1 0.12
4 -2 -13 0.17 0.16
-4 2 -13 0.15 0.11
4 -2 -13 0.37 0.15
5 2 -13 2.89 0.32
-5 -2 -13 2.95 0.26
5 2 -13 3.09 0.35
5 -2 -13 2.83 0.3
5 -2 -13 3.33 0.35
-5 2 -13 3.42 0.25
6 2 -13 1.45 0.25
6 2 -13 1.33 0.25
-6 -2 -13 1.45 0.21
-6 2 -13 1.39 0.19
6 -2 -13 1.88 0.26
6 -2 -13 1.67 0.28
-7 2 13 1.58 0.26
7 2 -13 1.38 0.25
-7 -2 -13 1.5 0.22
-7 -2 13 1.7 0.25
-7 2 -13 1.34 0.19
7 -2 -13 1.44 0.28
8 2 -13 1.4 0.28
-8 -2 -13 1.91 0.25
-8 2 13 1.18 0.25
-8 2 -13 1.13 0.19
-8 -2 13 1.5 0.27
8 -2 -13 1.01 0.28
9 2 -13 3.72 0.45
-9 -2 -13 2.82 0.32
-9 2 13 3.26 0.37
9 -2 -13 3.11 0.42
-9 2 -13 2.32 0.27
-9 -2 13 2.38 0.37
-10 -2 -13 -0.09 0.19
10 2 -13 0.31 0.26
-10 2 13 -0.02 0.19
10 -2 -13 0.42 0.25
-10 -2 13 0.26 0.24
-10 2 -13 0.15 0.17
-11 -2 -13 2.55 0.34
11 2 -13 2.35 0.41
-11 2 13 1.43 0.33
11 -2 -13 2.3 0.4
-11 -2 13 2.76 0.43
12 2 -13 1.79 0.4
-12 2 13 2.28 0.4
-12 -2 -13 1.66 0.31
-12 -2 13 2.28 0.39
12 -2 -13 2.58 0.4
0 -3 -13 0.42 0.11
0 3 -13 0.42 0.1
0 3 -13 0.59 0.12
0 -3 -13 0.42 0.12
-1 -3 -13 1.04 0.14
1 3 -13 1.1 0.16
1 3 -13 1.09 0.14
-1 -3 -13 1.05 0.15
-1 3 -13 0.96 0.12
1 -3 -13 0.93 0.13
-1 3 -13 0.91 0.12
1 -3 -13 0.95 0.16
2 3 -13 10.66 0.54
2 3 -13 11.1 0.53
-2 -3 -13 11.56 0.49
-2 -3 -13 10.67 0.51
2 -3 -13 10.21 0.51
-2 3 -13 10.6 0.5
2 -3 -13 10.53 0.54
-2 3 -13 11.14 0.46
3 3 -13 6.36 0.37
-3 -3 -13 6.42 0.37
3 3 -13 6.47 0.41
-3 -3 -13 6.91 0.32
-3 3 -13 6.95 0.35
3 -3 -13 5.65 0.4
3 -3 -13 5.98 0.36
4 3 -13 2.69 0.3
-4 -3 -13 2.53 0.24
4 3 -13 2.27 0.25
-4 3 -13 2.18 0.21
4 -3 -13 2.37 0.24
4 -3 -13 2.29 0.29
-5 -3 -13 30.02 1.26
5 3 -13 30.92 1.32
5 3 -13 33.1 1.37
5 -3 -13 28.94 1.35
-5 3 -13 31.9 1.24
5 -3 -13 30.34 1.3
6 3 -13 -0.03 0.18
-6 -3 -13 0.22 0.12
-6 -3 13 0.45 0.15
-6 3 -13 0.14 0.12
6 -3 -13 0.3 0.15
6 -3 -13 0.43 0.17
-7 3 13 1.11 0.21
7 3 -13 1.16 0.27
-7 -3 -13 0.99 0.2
7 -3 -13 0.91 0.26
-7 3 -13 1.24 0.18
-7 -3 13 0.84 0.24
7 -3 -13 0.97 0.2
-8 3 13 0.98 0.24
-8 -3 -13 1.35 0.24
8 3 -13 1.48 0.27
-8 -3 13 1.28 0.28
-8 3 -13 1.35 0.2
8 -3 -13 1.75 0.32
-9 -3 -13 1.55 0.27
-9 3 13 1.64 0.3
9 3 -13 2.06 0.32
9 -3 -13 1.59 0.34
-9 -3 13 2.1 0.35
-9 3 -13 1.43 0.23
10 3 -13 2.67 0.41
-10 3 13 2.46 0.37
-10 -3 -13 2.86 0.32
-10 -3 13 2.43 0.4
10 -3 -13 2.53 0.4
-10 3 -13 2.55 0.3
-11 3 13 0.06 0.22
-11 -3 -13 -0.13 0.21
11 3 -13 0.27 0.29
11 -3 -13 0.59 0.28
-11 -3 13 0.24 0.25
-12 3 13 0.02 0.23
12 3 -13 0.17 0.3
-12 -3 -13 -0.36 0.19
-12 -3 13 -0.16 0.25
12 -3 -13 0.18 0.26
0 -4 -13 14.49 0.63
0 -4 -13 14.77 0.65
0 4 -13 13.67 0.62
0 4 -13 14.46 0.63
1 4 -13 4.4 0.28
-1 -4 -13 4.06 0.27
1 4 -13 3.66 0.25
-1 -4 -13 3.75 0.26
1 -4 -13 4.17 0.28
1 -4 -13 4.54 0.28
-1 4 -13 4.63 0.25
-1 4 -13 4.46 0.25
2 4 -13 10.34 0.51
-2 -4 -13 9.5 0.44
2 4 -13 8.84 0.48
-2 -4 -13 9.22 0.47
-2 4 -13 9.69 0.45
2 -4 -13 9.35 0.51
-2 4 -13 9.71 0.41
2 -4 -13 9.73 0.48
3 4 -13 8.01 0.44
-3 -4 -13 8.07 0.38
3 4 -13 7.6 0.46
-3 -4 -13 7.75 0.42
3 -4 -13 7.34 0.47
3 -4 -13 7.47 0.42
-3 4 -13 8.48 0.41
4 4 -13 17.43 0.84
-4 -4 -13 18.15 0.81
4 4 -13 18.99 0.89
4 -4 -13 18.59 0.88
-4 4 -13 20.2 0.8
4 -4 -13 18.67 0.83
-5 -4 -13 1.34 0.2
5 4 -13 1.71 0.28
5 4 -13 1.28 0.22
5 -4 -13 1.4 0.22
5 -4 -13 1.64 0.28
-5 4 -13 1.45 0.17
6 4 -13 4.87 0.43
-6 -4 -13 5.17 0.36
-6 -4 13 5.72 0.43
6 -4 -13 5.69 0.42
-6 4 -13 5.65 0.33
6 -4 -13 5.86 0.4
7 4 -13 0.22 0.21
-7 -4 -13 0.49 0.14
-7 4 -13 0.4 0.14
-7 -4 13 0.55 0.21
7 -4 -13 0.39 0.17
7 -4 -13 0.58 0.23
8 4 -13 5.08 0.43
-8 -4 -13 5.07 0.39
-8 4 13 4.84 0.41
-8 -4 13 5.04 0.49
-8 4 -13 4.33 0.31
8 -4 -13 5.29 0.44
-9 -4 -13 0.7 0.22
-9 4 13 0.28 0.19
9 4 -13 0.5 0.22
-9 -4 13 0.16 0.22
-9 4 -13 0.12 0.15
9 -4 -13 0.58 0.27
-10 4 13 1 0.27
-10 -4 -13 1.28 0.28
10 4 -13 1.62 0.32
-10 -4 13 1.86 0.35
10 -4 -13 1.85 0.35
11 4 -13 0.75 0.33
-11 -4 -13 0.79 0.28
-11 4 13 1.01 0.28
-11 -4 13 1.17 0.34
11 -4 -13 0.91 0.31
-12 4 13 -0.03 0.24
-12 -4 -13 -0.17 0.22
12 4 -13 0.03 0.28
-12 -4 13 0.35 0.29
12 -4 -13 -0.16 0.24
0 -5 -13 0.51 0.13
0 -5 -13 0.24 0.09
0 5 -13 0.49 0.11
0 5 -13 0.15 0.1
-1 -5 -13 18.73 0.8
1 5 -13 17.06 0.78
-1 -5 -13 19.89 0.8
1 5 -13 18.6 0.81
1 -5 -13 17.67 0.79
-1 5 -13 18.6 0.77
-1 5 -13 19.25 0.77
1 -5 -13 18.57 0.83
-2 -5 -13 2.73 0.22
2 5 -13 2.33 0.24
2 -5 13 2.27 0.16
2 5 -13 1.96 0.22
-2 -5 -13 2.37 0.19
-2 5 -13 2.08 0.15
-2 5 -13 2.36 0.19
2 -5 -13 2.12 0.19
2 -5 -13 2.45 0.26
-3 -5 -13 1.47 0.16
-3 -5 -13 1.12 0.18
3 5 -13 1.3 0.18
3 5 -13 1.16 0.21
3 -5 -13 1.48 0.23
3 -5 -13 1.23 0.18
-3 5 -13 1.54 0.16
-4 -5 -13 9.15 0.47
4 5 -13 8.44 0.52
4 5 -13 8.07 0.47
-4 5 -13 8.84 0.42
4 -5 -13 8.6 0.53
4 -5 -13 8.32 0.47
5 5 -13 1.05 0.21
5 5 -13 1.01 0.22
-5 -5 -13 1.05 0.19
-5 5 -13 1.21 0.17
5 -5 -13 1.09 0.24
5 -5 -13 0.81 0.18
-6 -5 -13 14.07 0.69
6 5 -13 15.28 0.79
6 -5 -13 14.46 0.77
-6 -5 13 15.74 0.78
6 -5 -13 13.44 0.71
-6 5 -13 14.35 0.64
-7 -5 -13 12.15 0.63
7 5 -13 12.9 0.73
-7 5 -13 11.42 0.56
7 -5 -13 13.31 0.74
-7 -5 13 12.31 0.69
7 -5 -13 10.9 0.63
-8 5 13 9.2 0.58
8 5 -13 10.54 0.67
-8 -5 -13 10.45 0.58
-8 5 -13 8.58 0.49
8 -5 -13 10.73 0.68
-8 -5 13 10.86 0.67
-9 5 13 1.5 0.28
-9 -5 -13 1.57 0.28
9 5 -13 1.32 0.34
9 -5 -13 1.25 0.28
-9 -5 13 1.68 0.31
-10 5 13 1.17 0.27
10 5 -13 0.9 0.31
-10 -5 -13 1.46 0.29
10 -5 -13 0.81 0.31
-10 -5 13 1.1 0.32
-11 -5 -13 0.21 0.23
11 5 -13 0.29 0.29
-11 5 13 0.14 0.22
11 -5 -13 -0.09 0.23
-11 -5 13 0.16 0.26
-12 -5 -13 1.38 0.32
12 5 -13 0.99 0.36
12 -5 -13 1.39 0.36
0 6 -13 39.85 1.52
0 6 -13 38.25 1.5
0 -6 -13 38.34 1.55
0 -6 -13 37.37 1.5
-1 -6 -13 11.05 0.52
-1 -6 -13 10.39 0.51
1 6 -13 10.37 0.52
1 -6 13 10.58 0.48
1 6 -13 9.53 0.5
1 -6 -13 10.78 0.51
-1 6 -13 11.32 0.48
-1 6 -13 11.02 0.5
1 -6 -13 10.97 0.55
2 6 -13 14.65 0.69
2 -6 13 16.54 0.64
-2 -6 -13 14.53 0.69
-2 -6 -13 15.75 0.69
2 6 -13 15.74 0.73
2 -6 -13 15.26 0.68
-2 6 -13 16.04 0.64
2 -6 -13 15.2 0.74
-2 6 -13 15.8 0.66
-3 -6 -13 17.47 0.73
3 6 -13 16.44 0.8
-3 -6 -13 17.19 0.75
3 6 -13 15.85 0.77
-3 6 -13 17.67 0.72
3 -6 -13 16.55 0.81
3 -6 -13 16.79 0.75
4 6 -13 5.04 0.38
-4 -6 -13 5.63 0.31
-4 -6 -13 6.09 0.37
4 6 -13 5.38 0.39
-4 6 -13 5.83 0.33
4 -6 -13 5.91 0.43
4 -6 -13 6.19 0.37
5 6 -13 7.27 0.47
-5 -6 -13 7.14 0.42
-5 6 -13 7.97 0.39
5 -6 -13 6.61 0.42
5 -6 -13 6.91 0.5
-5 -6 13 7.13 0.46
6 6 -13 0.11 0.19
-6 -6 -13 0.61 0.18
6 -6 -13 0.44 0.21
-6 -6 13 0.31 0.15
6 -6 -13 0.35 0.16
-6 6 -13 0.55 0.13
7 6 -13 3.59 0.4
-7 -6 -13 5.56 0.38
7 -6 -13 4.07 0.45
7 -6 -13 4.25 0.35
-7 -6 13 4.63 0.45
-7 6 -13 4.05 0.28
-8 6 13 0.82 0.22
8 6 -13 0.99 0.29
-8 -6 -13 0.78 0.23
-8 -6 13 0.83 0.23
8 -6 -13 0.71 0.22
-9 6 13 0.2 0.18
9 6 -13 0.02 0.25
-9 -6 -13 -0.05 0.2
-9 -6 13 0.55 0.25
9 -6 -13 0.01 0.24
10 6 -13 1.17 0.34
-10 -6 -13 0.74 0.22
-10 6 13 1 0.27
10 -6 -13 1.2 0.34
-10 -6 13 1.31 0.34
11 6 -13 3.51 0.48
-11 -6 -13 3.89 0.44
11 -6 -13 3.35 0.47
-11 -6 13 3.99 0.52
12 -6 -13 0.27 0.28
0 -7 -13 24.66 1.07
0 7 -13 25.47 1.03
0 7 -13 25.32 1.02
0 -7 -13 25.06 1.03
-1 -7 -13 0.04 0.11
1 7 -13 -0.01 0.1
1 -7 13 0.26 0.1
-1 -7 -13 0.24 0.12
1 7 -13 -0.13 0.1
1 -7 -13 0.18 0.11
-1 7 -13 0.28 0.1
1 -7 -13 0.49 0.13
-1 7 -13 0.3 0.1
2 7 -13 5.45 0.36
2 7 -13 5.34 0.35
2 -7 13 5.39 0.29
-2 -7 -13 5.46 0.33
-2 -7 -13 5.58 0.33
2 -7 -13 5.53 0.33
2 -7 -13 5.82 0.4
-2 7 -13 6.13 0.29
-2 7 -13 6.29 0.31
-3 -7 -13 10.08 0.53
3 7 -13 10.58 0.55
3 7 -13 10.36 0.57
-3 -7 -13 10.65 0.5
-3 7 -13 11.56 0.5
3 -7 -13 10.62 0.53
3 -7 -13 10.46 0.59
-4 -7 -13 13.38 0.64
-4 -7 -13 14.37 0.6
4 7 -13 12.84 0.68
4 7 -13 12.66 0.67
-4 7 -13 14.01 0.6
4 -7 -13 13.24 0.64
4 -7 -13 12.51 0.7
5 7 -13 5.86 0.46
-5 -7 -13 5.51 0.36
5 -7 -13 5.49 0.44
-5 7 -13 6.26 0.34
5 -7 -13 5.79 0.38
-5 -7 13 5.92 0.41
6 7 -13 3.37 0.39
-6 -7 -13 3.7 0.32
-6 -7 13 3.77 0.4
-6 7 -13 3.99 0.27
6 -7 -13 4.2 0.43
6 -7 -13 3.93 0.32
-7 -7 -13 8.71 0.5
7 7 -13 8.1 0.6
-7 -7 13 8.83 0.6
7 -7 -13 7.46 0.49
7 -7 -13 9.95 0.63
8 7 -13 0.08 0.23
-8 7 13 0.05 0.15
-8 -7 -13 0.02 0.19
-8 -7 13 0.26 0.23
8 -7 -13 0.24 0.24
-9 7 13 0.31 0.2
9 7 -13 0.18 0.27
-9 -7 -13 0.74 0.25
-9 -7 13 0.7 0.29
9 -7 -13 0.67 0.28
10 7 -13 2.98 0.41
-10 -7 -13 3.16 0.37
10 -7 -13 3.18 0.46
-10 -7 13 2.94 0.44
-11 -7 -13 0.93 0.29
11 7 -13 0.95 0.34
-11 -7 13 0.8 0.32
11 -7 -13 0.82 0.33
0 -8 -13 3.03 0.24
0 8 -13 3.09 0.23
0 8 -13 3.15 0.23
0 -8 13 2.71 0.23
0 -8 -13 2.86 0.28
-1 -8 -13 2.77 0.23
1 8 -13 2.63 0.24
-1 -8 -13 2.14 0.24
1 8 -13 2.54 0.23
1 -8 13 2.68 0.2
1 -8 -13 2.39 0.27
-1 8 -13 2.6 0.21
-1 8 -13 2.36 0.2
1 -8 -13 2.71 0.24
-2 -8 -13 11.85 0.55
-2 -8 -13 10.97 0.54
2 8 -13 11.21 0.57
2 -8 13 11.95 0.5
2 8 -13 11.45 0.56
2 -8 -13 10.73 0.6
2 -8 -13 10.5 0.53
-2 8 -13 11.17 0.5
3 8 -13 8.46 0.48
-3 -8 -13 9.53 0.49
-3 -8 -13 10.03 0.48
3 8 -13 9.03 0.53
-3 8 -13 10.12 0.45
3 -8 -13 8.49 0.47
3 -8 -13 8.83 0.53
-4 -8 -13 20.28 0.91
4 8 -13 18.77 0.95
-4 -8 -13 21.03 0.89
4 -8 -13 19.1 0.98
4 -8 -13 21.68 0.91
-4 8 -13 23.07 0.87
-4 -8 13 21.34 0.97
-5 -8 -13 1.69 0.22
5 8 -13 2 0.3
5 -8 -13 2.11 0.31
5 -8 -13 2.05 0.24
-5 -8 13 1.98 0.29
-6 -8 -13 4.91 0.37
6 8 -13 4.84 0.46
-6 -8 13 4.45 0.44
6 -8 -13 4.47 0.34
6 -8 -13 4.4 0.46
7 8 -13 1.18 0.29
-7 -8 -13 0.95 0.2
-7 -8 13 1.16 0.25
7 -8 -13 0.93 0.28
7 -8 -13 1.2 0.22
-8 8 13 5.48 0.43
8 8 -13 6.12 0.54
-8 -8 -13 5.89 0.46
-8 -8 13 5.51 0.48
8 -8 -13 6.34 0.55
-9 -8 -13 1.42 0.3
9 8 -13 1.7 0.37
9 -8 -13 1.84 0.36
-9 -8 13 1.69 0.36
-10 -8 -13 0.32 0.21
10 8 -13 0.66 0.32
-10 -8 13 0.65 0.31
10 -8 -13 0.26 0.26
-11 -8 -13 0.96 0.29
11 8 -13 0.32 0.3
-11 -8 13 0.74 0.32
11 -8 -13 0.15 0.28
0 9 -13 27.94 1.12
0 -9 -13 27.45 1.19
0 -9 -13 29.36 1.14
0 9 -13 27.95 1.14
0 -9 13 26.9 1.14
1 9 -13 42.3 1.72
1 -9 13 42.53 1.68
-1 -9 -13 45.54 1.74
-1 -9 -13 41.36 1.69
1 9 -13 44.79 1.69
-1 -9 13 42.14 1.73
-1 9 -13 43.18 1.66
1 -9 -13 43.23 1.77
-1 9 -13 45.53 1.69
1 -9 -13 41.11 1.68
-2 -9 -13 13.38 0.62
2 -9 13 13.96 0.58
2 9 -13 13.45 0.63
2 9 -13 13.12 0.65
-2 -9 -13 13.79 0.64
-2 9 -13 13.22 0.57
2 -9 -13 11.48 0.59
2 -9 -13 12.46 0.67
-2 -9 13 11.96 0.64
3 9 -13 7.11 0.45
3 9 -13 6.3 0.41
-3 -9 -13 6.61 0.38
-3 -9 -13 6.39 0.39
-3 9 -13 7.5 0.35
3 -9 -13 6.6 0.46
3 -9 -13 6.13 0.38
-4 -9 -13 5.97 0.37
-4 -9 -13 5.13 0.32
4 9 -13 5.02 0.4
4 -9 -13 4.85 0.39
4 -9 -13 4.46 0.32
-4 -9 13 5.2 0.39
5 9 -13 7.27 0.48
-5 -9 -13 7.66 0.43
-5 -9 13 6.67 0.48
5 -9 -13 6.85 0.41
5 -9 -13 7.23 0.49
6 9 -13 1.82 0.32
-6 -9 -13 1.94 0.26
-6 -9 13 1.44 0.28
6 -9 -13 1.36 0.21
6 -9 -13 1.99 0.33
-7 -9 -13 4.17 0.35
7 9 -13 5.31 0.5
7 -9 -13 3.72 0.33
7 -9 -13 5.88 0.55
-7 -9 13 4.59 0.48
-8 -9 -13 0.27 0.2
8 9 -13 0.36 0.24
8 -9 -13 -0.07 0.23
-8 -9 13 0 0.24
-9 -9 -13 2.84 0.38
9 9 -13 3.74 0.45
-9 -9 13 3.42 0.46
9 -9 -13 3.21 0.46
10 9 -13 1.18 0.35
-10 -9 -13 1.23 0.31
-10 -9 13 0.92 0.33
10 -9 -13 1.7 0.36
-11 -9 -13 0.97 0.26
11 9 -13 0.27 0.3
11 -9 -13 0.41 0.3
-11 -9 13 0.87 0.34
0 10 -13 12.94 0.6
0 -10 -13 12.41 0.65
0 -10 13 12.82 0.6
0 -10 -13 12.94 0.59
0 10 -13 13.17 0.59
1 -10 13 8.72 0.45
-1 -10 -13 9.1 0.47
-1 -10 -13 9.99 0.51
1 10 -13 9.71 0.47
1 10 -13 9.04 0.48
1 -10 -13 8.58 0.45
-1 -10 13 8.12 0.48
-1 10 -13 8.86 0.45
-1 10 -13 9.35 0.44
1 -10 -13 8.91 0.53
-2 -10 -13 18.79 0.81
2 10 -13 17.6 0.8
2 10 -13 17.85 0.83
2 -10 13 19.08 0.77
-2 -10 -13 18.59 0.83
-2 -10 13 17.27 0.84
2 -10 -13 17.79 0.87
-2 10 -13 18.22 0.75
2 -10 -13 17.06 0.78
-3 -10 -13 1.78 0.22
3 10 -13 1.32 0.23
-3 -10 -13 1.34 0.19
3 -10 -13 1.03 0.24
3 -10 -13 1.45 0.19
-3 -10 13 1.59 0.23
-3 -10 13 1.21 0.23
-4 -10 -13 8.31 0.45
-4 -10 -13 7.89 0.46
4 10 -13 8.35 0.52
4 -10 -13 8.46 0.54
-4 -10 13 7.89 0.49
4 -10 -13 6.21 0.41
-5 -10 -13 1.11 0.21
5 10 -13 0.74 0.24
-5 -10 13 0.68 0.22
5 -10 -13 0.94 0.17
5 -10 -13 1.06 0.23
6 10 -13 1.54 0.31
-6 -10 -13 1.53 0.25
-6 -10 13 1.7 0.31
6 -10 -13 1.45 0.23
6 -10 -13 2.75 0.37
7 10 -13 4.31 0.47
-7 -10 -13 3.88 0.38
-7 -10 13 4.88 0.48
7 -10 -13 4.42 0.49
7 -10 -13 3.75 0.33
-8 -10 -13 1.19 0.26
8 10 -13 1.02 0.28
-8 -10 13 0.96 0.3
8 -10 -13 1.13 0.32
-9 -10 -13 4.24 0.45
9 10 -13 4.5 0.53
-9 -10 13 5.44 0.57
9 -10 -13 5.05 0.57
-10 -10 -13 1.09 0.31
10 10 -13 1.46 0.37
10 -10 -13 1.3 0.32
-10 -10 13 0.93 0.35
11 -10 -13 1.17 0.36
-11 -10 13 1.37 0.38
0 11 -13 5.85 0.34
0 -11 -13 6.12 0.35
0 -11 13 6.46 0.36
0 -11 -13 5.38 0.4
0 11 -13 5.88 0.36
-1 -11 -13 11.91 0.61
1 11 -13 11.57 0.58
-1 -11 -13 11.42 0.56
1 11 -13 11.33 0.55
1 -11 13 11.74 0.55
1 -11 -13 11.57 0.55
-1 -11 13 12.02 0.6
1 -11 -13 10.12 0.6
-1 11 -13 11.97 0.53
-2 -11 -13 11.73 0.6
2 11 -13 10.85 0.57
2 11 -13 11.24 0.58
-2 -11 -13 12 0.57
2 -11 -13 11.72 0.65
-2 -11 13 10.58 0.58
2 -11 -13 12.02 0.55
-3 -11 -13 7.9 0.45
3 11 -13 7.89 0.49
-3 -11 -13 8.34 0.45
-3 -11 13 7.4 0.47
3 -11 -13 7.12 0.51
3 -11 -13 7.2 0.41
-3 -11 13 7.81 0.48
-4 -11 -13 3.93 0.3
-4 -11 -13 4.64 0.35
4 11 -13 3.9 0.35
-4 -11 13 4.42 0.36
4 -11 -13 4.24 0.37
-4 -11 13 4.05 0.36
4 -11 -13 4.62 0.31
5 11 -13 2.35 0.33
-5 -11 -13 2.62 0.29
-5 -11 -13 2.66 0.29
5 -11 -13 2.34 0.35
5 -11 -13 2.25 0.25
-5 -11 13 1.79 0.31
-5 -11 13 2.59 0.33
-6 -11 -13 0.83 0.22
6 11 -13 0.63 0.21
6 -11 -13 0.47 0.17
6 -11 -13 0.3 0.24
-6 -11 13 0.55 0.2
-6 -11 13 0.74 0.26
7 11 -13 2.07 0.37
-7 -11 -13 1.68 0.28
-7 -11 13 1.58 0.33
-7 -11 13 1.43 0.32
7 -11 -13 1.6 0.35
-8 -11 -13 1.34 0.28
8 11 -13 0.83 0.27
-8 -11 13 1.69 0.34
8 -11 -13 0.75 0.26
-8 -11 13 1.2 0.29
-9 -11 -13 2.39 0.36
9 11 -13 3.1 0.45
-9 -11 13 1.77 0.39
-9 -11 13 1.98 0.39
9 -11 -13 2.41 0.42
10 11 -13 1.3 0.38
-10 -11 -13 0.9 0.31
10 -11 -13 1.55 0.39
-10 -11 13 1.81 0.42
-10 -11 13 1.17 0.35
11 -11 -13 0.79 0.34
0 12 -13 0.67 0.13
0 12 -13 0.32 0.15
0 -12 -13 0.47 0.13
0 -12 -13 0.15 0.17
0 -12 13 0.6 0.17
-1 -12 -13 6.04 0.41
1 12 -13 5.64 0.34
-1 -12 -13 5.75 0.35
1 -12 13 5.69 0.35
1 12 -13 5.62 0.37
1 -12 -13 5.92 0.43
-1 -12 13 5 0.36
1 -12 -13 5.67 0.34
-2 -12 -13 0.35 0.17
2 12 -13 0.65 0.19
-2 -12 -13 0.53 0.15
2 -12 -13 0.57 0.18
2 -12 -13 0.73 0.15
-2 -12 13 0.38 0.17
-2 -12 13 0.62 0.17
3 12 -13 3.26 0.34
-3 -12 -13 3.63 0.3
-3 -12 -13 3.57 0.31
-3 -12 13 3.32 0.32
3 -12 -13 3.05 0.25
3 -12 -13 2.7 0.33
-3 -12 13 3.32 0.35
-4 -12 -13 2.77 0.29
4 12 -13 2.56 0.33
-4 -12 -13 2.16 0.27
4 -12 -13 2.22 0.24
-4 -12 13 2.66 0.34
-4 -12 13 2.11 0.29
4 -12 -13 2.66 0.36
5 12 -13 0.11 0.16
-5 -12 -13 0.12 0.15
-5 -12 -13 0.31 0.18
-5 -12 13 0.19 0.18
5 -12 -13 0.01 0.21
-5 -12 13 0.07 0.21
-6 -12 -13 1.61 0.26
6 12 -13 1.54 0.29
-6 -12 13 1.39 0.28
-6 -12 13 1.51 0.29
6 -12 -13 1.44 0.29
7 12 -13 1.16 0.32
-7 -12 -13 1.3 0.24
-7 -12 13 1.58 0.33
-7 -12 13 1.54 0.33
7 -12 -13 1.47 0.35
-8 -12 -13 2.71 0.36
8 12 -13 3.27 0.44
-8 -12 13 2.68 0.43
-8 -12 13 2.18 0.39
8 -12 -13 2.73 0.45
9 12 -13 2.42 0.43
-9 -12 -13 2.1 0.35
9 -12 -13 2.43 0.44
-9 -12 13 1.69 0.34
-9 -12 13 1.9 0.36
-10 -12 -13 0.47 0.27
10 12 -13 -0.03 0.28
10 -12 -13 0.36 0.25
-10 -12 13 0.45 0.32
-10 -12 13 1.01 0.35
0 -13 13 0.33 0.14
0 -13 -13 0.32 0.18
0 -13 -13 0.39 0.13
-1 -13 -13 7.1 0.4
-1 -13 -13 8.55 0.49
1 13 -13 6.26 0.41
1 -13 13 6.76 0.4
1 -13 -13 6.5 0.48
1 -13 -13 6.65 0.38
-1 -13 13 6.51 0.42
-1 -13 13 6.81 0.41
-2 -13 -13 2.89 0.32
2 13 -13 2.19 0.27
-2 -13 -13 2.16 0.24
-2 -13 13 2.04 0.24
2 -13 -13 3.1 0.36
-2 -13 13 2.48 0.28
2 -13 -13 2.74 0.25
3 13 -13 2.42 0.3
-3 -13 -13 2.06 0.28
-3 -13 -13 2.12 0.26
-3 -13 13 1.91 0.26
-3 -13 13 2.31 0.3
3 -13 -13 2.05 0.32
3 -13 -13 2.37 0.24
-4 -13 -13 1.12 0.22
4 13 -13 1.12 0.26
-4 -13 -13 1.56 0.24
4 -13 -13 1.35 0.26
-4 -13 13 1.35 0.28
-4 -13 13 1.5 0.25
-5 -13 -13 2.22 0.29
-5 -13 -13 2.86 0.31
5 13 -13 2.75 0.34
-5 -13 13 2.31 0.32
5 -13 -13 3.19 0.42
-5 -13 13 2.69 0.34
-6 -13 -13 0.35 0.2
6 13 -13 0.05 0.19
6 -13 -13 0.22 0.26
-6 -13 13 0.1 0.18
-6 -13 13 0.12 0.21
-7 -13 -13 0.81 0.24
7 13 -13 1.68 0.37
-7 -13 13 0.73 0.27
-7 -13 13 1.14 0.31
7 -13 -13 1.2 0.33
-8 -13 -13 0.74 0.26
8 13 -13 -0.04 0.27
8 -13 -13 0.7 0.27
-8 -13 13 0.39 0.29
-8 -13 13 0.63 0.29
9 13 -13 2.69 0.45
-9 -13 -13 2.64 0.38
-9 -13 13 2.5 0.43
9 -13 -13 2.92 0.49
-9 -13 13 2.45 0.42
-10 -13 13 1.98 0.43
10 -13 -13 1.38 0.4
0 -14 -13 0.13 0.11
0 -14 13 -0.19 0.11
0 -14 -13 -0.07 0.17
1 -14 13 4.4 0.33
-1 -14 -13 4.32 0.31
-1 -14 -13 4.06 0.35
1 -14 -13 5.05 0.43
-1 -14 13 5.57 0.37
1 -14 -13 4.37 0.3
-2 -14 -13 -0.18 0.16
2 14 -13 0.2 0.17
-2 -14 -13 -0.12 0.12
-2 -14 13 0.22 0.16
2 -14 -13 0.17 0.11
2 -14 -13 -0.04 0.19
-2 -14 13 0.04 0.13
-3 -14 -13 3.52 0.35
3 14 -13 3.41 0.37
-3 -14 -13 3.16 0.31
3 -14 -13 3.55 0.41
-3 -14 13 3.39 0.33
-3 -14 13 3.69 0.36
-4 -14 -13 0.2 0.18
4 14 -13 0.5 0.23
-4 -14 -13 0.08 0.17
4 -14 -13 -0.14 0.2
-4 -14 13 -0.03 0.15
-4 -14 13 0.15 0.21
-5 -14 -13 3.16 0.34
-5 -14 -13 3.04 0.31
5 14 -13 3.14 0.37
-5 -14 13 3.28 0.37
-5 -14 13 3.52 0.39
5 -14 -13 3.84 0.44
6 14 -13 0.25 0.2
-6 -14 -13 0.4 0.21
6 -14 -13 0.24 0.27
-6 -14 13 0.2 0.21
-6 -14 13 0.24 0.25
7 14 -13 -0.1 0.25
-7 -14 -13 -0.15 0.19
7 -14 -13 0.59 0.29
-7 -14 13 -0.24 0.2
-7 -14 13 0.21 0.28
-8 -14 -13 0.5 0.25
8 14 -13 1.64 0.37
-8 -14 13 1.26 0.3
-8 -14 13 1.31 0.33
8 -14 -13 1.69 0.39
9 14 -13 1.3 0.37
-9 -14 -13 0.33 0.27
9 -14 -13 0.75 0.33
-9 -14 13 0.71 0.32
-9 -14 13 0.56 0.32
0 -15 -13 0.31 0.17
0 -15 -13 0.5 0.14
0 -15 13 0.48 0.16
-1 -15 -13 2.36 0.33
-1 -15 -13 2.49 0.25
1 -15 13 2.48 0.26
1 -15 -13 2.16 0.34
1 -15 -13 2.54 0.24
-1 -15 13 2.33 0.28
2 15 -13 0.91 0.23
-2 -15 -13 0.94 0.19
-2 -15 -13 1.13 0.25
-2 -15 13 1.18 0.24
2 -15 -13 1.06 0.27
3 15 -13 0.4 0.22
-3 -15 -13 0.94 0.2
-3 -15 -13 0.87 0.23
-3 -15 13 0.75 0.2
-3 -15 13 0.7 0.23
3 -15 -13 0.76 0.27
-4 -15 -13 3.34 0.37
-4 -15 -13 3.5 0.34
4 15 -13 4.26 0.43
-4 -15 13 3.5 0.4
4 -15 -13 3.43 0.44
-4 -15 13 3.41 0.37
5 15 -13 0.63 0.23
-5 -15 -13 1 0.23
-5 -15 -13 0.75 0.23
-5 -15 13 1.24 0.31
5 -15 -13 0.84 0.25
-5 -15 13 1.04 0.26
6 15 -13 2.27 0.39
-6 -15 -13 2.04 0.3
-6 -15 13 1.48 0.3
-6 -15 13 2.59 0.4
6 -15 -13 1.9 0.39
7 15 -13 0.16 0.27
-7 -15 -13 0.1 0.16
7 -15 -13 -0.06 0.26
-7 -15 13 -0.49 0.18
-7 -15 13 0.33 0.21
8 15 -13 2.06 0.41
-8 -15 -13 2.25 0.35
-8 -15 13 2.62 0.44
-8 -15 13 2.19 0.38
8 -15 -13 2.29 0.44
-9 -15 -13 -0.07 0.23
9 15 -13 0.84 0.33
-9 -15 13 -0.15 0.26
-9 -15 13 -0.11 0.26
9 -15 -13 0.37 0.27
0 -16 -13 2.5 0.24
0 -16 13 1.93 0.27
0 -16 -13 2.19 0.33
-1 -16 -13 3.64 0.29
-1 -16 -13 3.7 0.41
1 -16 13 3.09 0.31
1 -16 -13 3.77 0.43
-1 -16 13 3.36 0.34
-2 -16 -13 2.04 0.29
-2 -16 -13 1.56 0.22
-2 -16 13 2.02 0.29
2 -16 -13 1.51 0.29
3 16 -13 0.87 0.25
-3 -16 -13 1.08 0.26
-3 -16 -13 1.15 0.21
3 -16 -13 0.9 0.25
-3 -16 13 0.87 0.22
4 16 -13 1.48 0.3
-4 -16 -13 1.85 0.28
-4 -16 -13 1.76 0.3
4 -16 -13 1.53 0.31
-4 -16 13 2.03 0.33
5 16 -13 0.55 0.28
-5 -16 -13 0.18 0.19
-5 -16 -13 0.38 0.21
5 -16 -13 0.31 0.21
-5 -16 13 0.81 0.29
-5 -16 13 0.52 0.22
-6 -16 -13 1.24 0.26
6 16 -13 1.23 0.33
6 -16 -13 1.59 0.38
-6 -16 13 1.59 0.35
-6 -16 13 1.17 0.29
7 16 -13 1 0.34
-7 -16 -13 1.08 0.27
7 -16 -13 0.38 0.31
-7 -16 13 1.04 0.34
-7 -16 13 0.45 0.26
8 16 -13 -0.08 0.29
-8 -16 -13 0.04 0.24
-8 -16 13 0.1 0.29
-8 -16 13 -0.17 0.23
8 -16 -13 -0.04 0.29
-9 -16 13 -0.16 0.26
0 -17 13 2.01 0.27
0 -17 -13 1.75 0.33
-1 -17 -13 0.5 0.2
-1 -17 -13 0.29 0.15
1 -17 -13 0.37 0.24
-1 -17 13 0.29 0.18
-2 -17 -13 1.36 0.22
-2 -17 -13 1.09 0.25
2 -17 -13 1.4 0.32
-2 -17 13 1.35 0.27
-3 -17 -13 0.19 0.16
-3 -17 -13 0.34 0.23
3 -17 -13 0.46 0.27
-3 -17 13 0.63 0.25
-4 -17 -13 0.11 0.19
4 17 -13 -0.09 0.21
-4 -17 -13 0.22 0.22
4 -17 -13 0.01 0.24
-4 -17 13 0.67 0.27
-5 -17 -13 0.87 0.23
5 17 -13 0.66 0.29
-5 -17 -13 0.68 0.25
5 -17 -13 0.78 0.3
-5 -17 13 0.39 0.27
6 17 -13 1.97 0.39
-6 -17 -13 1.62 0.3
-6 -17 13 1.6 0.32
6 -17 -13 3.03 0.46
-6 -17 13 2.11 0.38
-7 -17 -13 2.51 0.34
7 17 -13 1.58 0.39
-7 -17 13 1.91 0.4
7 -17 -13 2.98 0.48
-7 -17 13 2.32 0.38
8 17 -13 -0.2 0.2
-8 -17 -13 0.21 0.24
-8 -17 13 -0.09 0.28
8 -17 -13 0.25 0.3
-8 -17 13 -0.01 0.25
0 -18 13 0.16 0.19
0 -18 -13 -0.06 0.22
-1 -18 -13 3.93 0.42
1 -18 -13 3.8 0.45
-1 -18 13 3.32 0.37
-2 -18 -13 2.65 0.38
-2 -18 13 3.3 0.38
2 -18 -13 2.72 0.42
-3 -18 -13 1.07 0.29
-3 -18 -13 1.65 0.25
3 -18 -13 1.79 0.33
-3 -18 13 2.1 0.34
-4 -18 -13 0.24 0.2
-4 -18 -13 0.27 0.22
-4 -18 13 0.18 0.2
4 -18 -13 0.31 0.27
-5 -18 -13 0.67 0.25
-5 -18 -13 1.11 0.25
-5 -18 13 0.94 0.3
5 -18 -13 0.95 0.32
-6 -18 -13 0.87 0.25
6 18 -13 1.09 0.35
-6 -18 13 1.22 0.34
6 -18 -13 0.65 0.35
7 18 -13 1.41 0.34
-7 -18 -13 2.57 0.35
-7 -18 13 2.21 0.42
7 -18 -13 2.05 0.45
-8 -18 -13 0.04 0.24
-8 -18 13 0.01 0.24
0 -19 13 0.23 0.19
0 -19 -13 0.43 0.26
-1 -19 -13 2.44 0.37
1 -19 -13 2.75 0.41
-1 -19 13 2.33 0.33
-2 -19 -13 1.17 0.3
2 -19 -13 0.82 0.26
-2 -19 13 0.74 0.25
-3 -19 -13 2.33 0.37
3 -19 -13 2.68 0.43
-3 -19 13 2.32 0.36
-4 -19 -13 0.11 0.23
-4 -19 -13 0.37 0.2
4 -19 -13 0.67 0.32
-4 -19 13 0.12 0.26
-5 -19 -13 1.27 0.27
-5 -19 -13 1.58 0.32
5 -19 -13 1.16 0.36
-5 -19 13 1.67 0.37
-6 -19 -13 0.41 0.23
-6 -19 13 1.33 0.36
6 -19 -13 0.31 0.31
-7 -19 -13 0.39 0.24
0 -20 13 0.19 0.2
0 -20 -13 0.31 0.27
-1 -20 -13 0.47 0.27
-1 -20 13 -0.02 0.19
1 -20 -13 0.07 0.26
-2 -20 -13 0.5 0.27
-2 -20 13 0.2 0.22
2 -20 -13 0.82 0.31
-3 -20 -13 1.47 0.33
-3 -20 13 1.09 0.3
3 -20 -13 1.26 0.36
-4 -20 -13 3.31 0.43
-4 -20 13 3.1 0.44
4 -20 -13 3.53 0.48
-5 -20 -13 1.68 0.34
5 -20 -13 1.54 0.41
-5 -20 13 1.44 0.37
-6 -20 -13 -0.02 0.21
-6 -20 13 0.73 0.35
-7 -20 -13 0.31 0.24
0 -21 -13 0.14 0.26
-1 -21 -13 0.32 0.29
1 -21 -13 0.42 0.28
-1 -21 13 0.23 0.22
-2 -21 -13 0.33 0.26
2 -21 -13 0.47 0.31
-2 -21 13 0.58 0.24
-3 -21 -13 0.55 0.29
3 -21 -13 0.11 0.28
-3 -21 13 0.38 0.27
-4 -21 -13 1.56 0.34
-4 -21 13 1.3 0.34
4 -21 -13 1.14 0.36
-5 -21 -13 1.62 0.35
-5 -21 13 1.44 0.38
0 -22 -13 0.31 0.28
-1 -22 -13 1.85 0.38
-1 -22 13 1.53 0.32
1 -22 -13 1.09 0.35
-2 -22 -13 -0.19 0.25
2 -22 -13 -0.15 0.26
-2 -22 13 -0.09 0.22
-3 -22 -13 0.42 0.28
3 -22 -13 -0.02 0.28
-3 -22 13 0.9 0.3
-4 -22 -13 0.07 0.25
-4 -22 13 -0.08 0.24
-5 -22 -13 0.99 0.31
-1 -23 -13 -0.25 0.25
-1 -23 13 -0.02 0.26
-2 -23 13 0.94 0.31
0 0 -14 62.55 2.38
0 0 -14 62.83 2.41
-1 0 -14 8.01 0.38
1 0 -14 7.82 0.41
-1 0 -14 7.14 0.38
1 0 -14 7.68 0.42
2 0 -14 2.91 0.23
-2 0 -14 3.11 0.22
2 0 -14 2.67 0.27
-2 0 -14 3.44 0.2
3 0 -14 7.1 0.42
-3 0 -14 7.43 0.4
3 0 -14 7.61 0.46
-4 0 -14 0.02 0.11
4 0 -14 0.04 0.13
4 0 -14 0.34 0.15
5 0 -14 7.13 0.46
5 0 -14 6.28 0.43
-5 0 -14 6.5 0.38
-6 0 -14 7.17 0.41
6 0 -14 7.24 0.48
6 0 -14 7.23 0.52
-7 0 14 9.73 0.6
-7 0 -14 9.64 0.51
7 0 -14 9.84 0.63
-8 0 -14 0.12 0.16
-8 0 14 0.23 0.2
8 0 -14 0.14 0.22
-9 0 -14 2.2 0.28
-9 0 14 2.24 0.35
9 0 -14 1.92 0.37
-10 0 14 -0.07 0.19
10 0 -14 0.23 0.25
-10 0 -14 -0.05 0.16
-11 0 14 0.3 0.23
11 0 -14 0.13 0.27
-11 0 -14 0.12 0.18
12 0 -14 0.26 0.29
-12 0 14 -0.05 0.25
-12 0 -14 0.01 0.2
0 -1 -14 46.49 1.8
0 -1 -14 47.3 1.82
0 1 -14 46.37 1.81
0 1 -14 45.33 1.79
-1 -1 -14 38.42 1.53
1 1 -14 39.26 1.54
1 1 -14 37.99 1.56
-1 -1 -14 40.72 1.53
1 -1 -14 37.48 1.53
1 -1 -14 39.39 1.57
-1 1 -14 41.06 1.53
-1 1 -14 38.31 1.52
2 1 -14 10.05 0.5
-2 -1 -14 9.66 0.48
-2 -1 -14 10.5 0.46
2 1 -14 10.02 0.52
-2 1 -14 10.15 0.44
2 -1 -14 10.32 0.5
2 -1 -14 9.93 0.53
-2 1 -14 9.96 0.48
3 1 -14 19.56 0.95
3 1 -14 22.04 0.93
-3 -1 -14 20.3 0.88
3 -1 -14 21.02 0.96
3 -1 -14 22.29 0.93
-3 1 -14 21.59 0.89
4 1 -14 2.54 0.28
-4 -1 -14 2.38 0.23
4 1 -14 2.86 0.3
4 -1 -14 2.08 0.27
4 -1 -14 2.86 0.25
-4 1 -14 2.54 0.21
-5 -1 -14 12.22 0.61
5 1 -14 13.65 0.68
5 1 -14 13.06 0.71
5 -1 -14 13.16 0.71
5 -1 -14 13.01 0.66
-5 1 -14 12.95 0.61
6 1 -14 6.6 0.49
6 1 -14 6.43 0.46
-6 -1 -14 5.56 0.38
6 -1 -14 7.26 0.48
-6 1 -14 5.96 0.37
6 -1 -14 6.73 0.45
-7 1 14 3.61 0.39
-7 -1 -14 3.47 0.3
7 1 -14 4.18 0.43
-7 -1 14 3.69 0.4
7 -1 -14 4.09 0.43
-7 1 -14 3.65 0.29
-8 -1 -14 5.69 0.4
8 1 -14 6.54 0.49
-8 1 14 6.6 0.45
-8 1 -14 4.78 0.36
-8 -1 14 5.36 0.47
8 -1 -14 5.83 0.51
-9 -1 -14 0.7 0.21
9 1 -14 0.65 0.28
-9 1 14 1.35 0.28
-9 -1 14 0.61 0.25
-9 1 -14 0.83 0.2
9 -1 -14 0.68 0.28
-10 -1 -14 0.63 0.22
10 1 -14 0.55 0.24
-10 1 14 0.65 0.25
-10 1 -14 0.49 0.2
10 -1 -14 0.49 0.23
-10 -1 14 0.7 0.27
-11 -1 -14 1.98 0.31
11 1 -14 2.01 0.4
-11 1 14 2.22 0.38
-11 -1 14 1.98 0.38
11 -1 -14 2.45 0.42
-11 1 -14 2.12 0.3
-12 1 14 0.06 0.26
-12 -1 -14 -0.31 0.19
12 1 -14 0.09 0.29
-12 -1 14 0.11 0.26
12 -1 -14 0.23 0.28
0 2 -14 1.19 0.15
0 2 -14 0.98 0.14
0 -2 -14 1.02 0.16
0 -2 -14 0.84 0.15
1 2 -14 3.43 0.25
-1 -2 -14 3.74 0.23
-1 -2 -14 3.51 0.25
1 2 -14 3.12 0.25
1 -2 -14 2.81 0.24
1 -2 -14 3.15 0.26
-1 2 -14 2.7 0.22
-1 2 -14 2.93 0.21
-2 -2 -14 22.37 0.86
2 2 -14 20.04 0.89
-2 -2 -14 20.98 0.89
2 2 -14 20.12 0.92
2 -2 -14 19.96 0.89
2 -2 -14 21.18 0.93
-2 2 -14 21.96 0.84
-2 2 -14 20.76 0.88
3 2 -14 6.81 0.44
-3 -2 -14 7.71 0.41
3 2 -14 7.68 0.43
-3 2 -14 7.11 0.39
3 -2 -14 7.4 0.42
3 -2 -14 6.99 0.46
4 2 -14 7.63 0.5
-4 -2 -14 8.37 0.44
4 2 -14 7.69 0.46
-4 2 -14 8.73 0.43
4 -2 -14 8.81 0.48
4 -2 -14 8.02 0.51
5 2 -14 0.92 0.21
5 2 -14 1.28 0.25
-5 -2 -14 0.93 0.18
-5 2 -14 1.09 0.17
5 -2 -14 1.46 0.23
5 -2 -14 0.79 0.2
6 2 -14 1.9 0.3
6 2 -14 1.92 0.27
-6 -2 -14 1.85 0.23
6 -2 -14 1.79 0.27
-6 2 -14 1.48 0.2
6 -2 -14 1.65 0.26
7 2 -14 0.69 0.21
-7 -2 -14 0.67 0.19
7 -2 -14 0.9 0.23
-7 2 -14 1.01 0.18
-7 -2 14 0.85 0.24
7 -2 -14 1.26 0.29
8 2 -14 1.44 0.28
-8 -2 -14 1.16 0.22
-8 2 14 1.53 0.27
8 -2 -14 1.08 0.3
-8 -2 14 1.47 0.29
-8 2 -14 1.36 0.2
-9 2 14 0.52 0.24
-9 -2 -14 1.12 0.23
9 2 -14 1.52 0.35
-9 2 -14 1.02 0.2
-9 -2 14 0.94 0.29
9 -2 -14 0.45 0.27
-10 -2 -14 1.5 0.27
-10 2 14 1.35 0.3
10 2 -14 1.67 0.35
-10 2 -14 1.63 0.25
10 -2 -14 2.46 0.4
-10 -2 14 1.93 0.36
-11 -2 -14 -0.09 0.19
-11 2 14 0.56 0.26
11 2 -14 0.08 0.27
-11 -2 14 0.75 0.3
11 -2 -14 0.22 0.28
-12 -2 -14 0.25 0.23
12 2 -14 0.62 0.32
-12 2 14 0.57 0.29
-12 -2 14 0.42 0.29
12 -2 -14 0.2 0.28
0 -3 -14 4.83 0.31
0 3 -14 4.21 0.28
0 3 -14 4.58 0.28
0 -3 -14 4.33 0.27
-1 -3 -14 1.73 0.19
1 3 -14 2.18 0.18
-1 -3 -14 1.87 0.2
1 3 -14 2.18 0.23
-1 3 -14 1.96 0.18
1 -3 -14 1.6 0.21
1 -3 -14 2.07 0.2
-1 3 -14 1.85 0.18
-2 -3 -14 4.43 0.26
2 3 -14 3.98 0.28
-2 -3 -14 3.95 0.26
2 3 -14 4.31 0.29
-2 3 -14 3.68 0.26
2 -3 -14 3.84 0.31
2 -3 -14 4.15 0.27
-2 3 -14 4.14 0.22
-3 -3 -14 61.97 2.23
3 3 -14 54.05 2.31
3 3 -14 55.85 2.27
-3 -3 -14 56.91 2.24
3 -3 -14 61.52 2.27
-3 3 -14 59.71 2.23
3 -3 -14 59.09 2.34
4 3 -14 5.04 0.39
-4 -3 -14 4.23 0.31
4 3 -14 4.85 0.36
-4 3 -14 5.27 0.31
4 -3 -14 4.35 0.38
4 -3 -14 4.58 0.34
5 3 -14 1.58 0.23
5 3 -14 1.54 0.26
-5 -3 -14 1.76 0.22
5 -3 -14 1.83 0.28
5 -3 -14 1.2 0.22
-5 3 -14 1.38 0.18
6 3 -14 0 0.17
-6 -3 -14 0.31 0.13
6 3 -14 0.05 0.19
6 -3 -14 0.02 0.18
6 -3 -14 0.25 0.16
-6 3 -14 -0.02 0.12
7 3 -14 5.94 0.49
-7 -3 -14 5.76 0.39
7 -3 -14 5.57 0.44
7 -3 -14 5.81 0.43
-7 -3 14 5.66 0.43
-7 3 -14 5.07 0.34
8 3 -14 8.03 0.55
-8 -3 -14 7.03 0.47
-8 3 14 7.5 0.52
8 -3 -14 8.24 0.56
-8 -3 14 7.21 0.55
-8 3 -14 6.48 0.41
-9 -3 -14 0.92 0.24
-9 3 14 0.81 0.24
9 3 -14 0.71 0.24
9 -3 -14 0.98 0.3
-9 3 -14 0.83 0.2
-9 -3 14 0.53 0.27
-10 3 14 0.78 0.26
-10 -3 -14 1.86 0.3
10 3 -14 1.56 0.36
10 -3 -14 1.39 0.34
-10 -3 14 1.23 0.28
-11 3 14 0.96 0.3
-11 -3 -14 1.75 0.32
11 3 -14 1.67 0.38
-11 -3 14 1.51 0.36
11 -3 -14 1.24 0.36
-12 3 14 1.42 0.35
-12 -3 -14 0.96 0.28
12 -3 -14 1.55 0.34
0 4 -14 0.05 0.1
0 -4 -14 -0.03 0.12
0 -4 -14 0.23 0.11
0 4 -14 0.08 0.11
1 4 -14 41.21 1.66
-1 -4 -14 42.33 1.67
-1 -4 -14 42.48 1.66
1 4 -14 42.75 1.69
-1 4 -14 45.85 1.65
1 -4 -14 42.03 1.71
-1 4 -14 42.36 1.65
1 -4 -14 41.18 1.66
2 4 -14 21.21 0.93
2 4 -14 20.46 0.9
-2 -4 -14 20.94 0.89
-2 -4 -14 21.75 0.87
-2 4 -14 21.29 0.85
-2 4 -14 21.56 0.88
2 -4 -14 20.56 0.94
2 -4 -14 20.07 0.89
3 4 -14 0.27 0.14
-3 -4 -14 0.58 0.11
3 4 -14 0.55 0.17
-3 -4 -14 0.67 0.15
-3 4 -14 0.7 0.14
3 -4 -14 0.78 0.16
3 -4 -14 0.45 0.16
-4 -4 -14 2.13 0.24
4 4 -14 2.04 0.28
4 4 -14 2.38 0.28
4 -4 -14 2.59 0.27
4 -4 -14 2.11 0.3
-4 4 -14 2.29 0.23
-5 -4 -14 0.63 0.16
5 4 -14 0.31 0.2
5 4 -14 0.19 0.16
-5 4 -14 0.27 0.12
5 -4 -14 0.56 0.17
5 -4 -14 0.25 0.19
-6 -4 -14 1.04 0.2
6 4 -14 1.25 0.24
6 -4 -14 0.85 0.2
-6 -4 14 1.15 0.22
-6 4 -14 1.04 0.17
6 -4 -14 1.35 0.27
7 4 -14 0.25 0.23
-7 -4 -14 0.27 0.17
-7 -4 14 0.37 0.2
7 -4 -14 0.11 0.16
7 -4 -14 0.14 0.17
-7 4 -14 0.11 0.12
-8 -4 -14 2.48 0.28
8 4 -14 2.74 0.36
-8 4 14 2.39 0.32
8 -4 -14 2.24 0.37
-8 4 -14 2.27 0.24
-8 -4 14 2.43 0.34
-9 -4 -14 1.61 0.28
9 4 -14 1.93 0.37
-9 4 14 1.46 0.29
-9 4 -14 1.95 0.26
9 -4 -14 2.07 0.38
-9 -4 14 1.39 0.32
10 4 -14 0.35 0.27
-10 4 14 0.13 0.2
-10 -4 -14 0.38 0.22
-10 -4 14 0.34 0.26
10 -4 -14 0.13 0.24
-11 -4 -14 5.56 0.49
11 4 -14 6.19 0.61
-11 4 14 7.01 0.56
-11 -4 14 5.87 0.6
11 -4 -14 5.77 0.61
-12 -4 -14 0.28 0.26
-12 4 14 0.33 0.29
0 5 -14 84.33 3.27
0 -5 -14 83.11 3.27
0 -5 -14 88.91 3.34
0 5 -14 92.97 3.32
1 5 -14 17.77 0.78
-1 -5 -14 17.65 0.78
1 5 -14 18.56 0.8
-1 -5 -14 17.99 0.78
1 -5 -14 16.47 0.81
-1 5 -14 18.57 0.75
-1 5 -14 18.34 0.76
1 -5 -14 17.66 0.78
-2 -5 -14 6.36 0.34
2 5 -14 6.22 0.37
-2 -5 -14 5.44 0.34
2 -5 14 6.32 0.3
2 5 -14 6.81 0.39
2 -5 -14 5.66 0.39
-2 5 -14 6.36 0.34
2 -5 -14 6.02 0.36
3 5 -14 6.99 0.41
-3 -5 -14 7.01 0.4
3 5 -14 6.66 0.42
-3 -5 -14 7.42 0.37
3 -5 -14 6.79 0.46
3 -5 -14 6.45 0.4
-3 5 -14 7.48 0.37
-4 -5 -14 10.09 0.52
4 5 -14 9.96 0.55
4 5 -14 10.18 0.59
-4 5 -14 11.03 0.5
4 -5 -14 10.46 0.54
4 -5 -14 9.6 0.57
5 5 -14 1.29 0.23
5 5 -14 1.46 0.25
-5 -5 -14 1.22 0.2
-5 5 -14 1.23 0.17
5 -5 -14 1.37 0.27
5 -5 -14 1.31 0.21
6 5 -14 1.05 0.26
-6 -5 -14 0.44 0.17
-6 -5 14 1.03 0.24
-6 5 -14 0.72 0.14
6 -5 -14 0.76 0.19
6 -5 -14 0.73 0.21
7 5 -14 2.95 0.38
-7 -5 -14 2.49 0.3
7 -5 -14 3.5 0.41
-7 5 -14 2.78 0.24
-7 -5 14 3.28 0.39
7 -5 -14 2.6 0.31
-8 -5 -14 1.31 0.26
-8 5 14 1.18 0.25
8 5 -14 2.04 0.32
8 -5 -14 1.35 0.29
-8 -5 14 1.5 0.31
9 5 -14 0.17 0.25
-9 -5 -14 -0.14 0.18
-9 5 14 0.08 0.2
9 -5 -14 0.1 0.25
-9 -5 14 -0.03 0.22
-10 -5 -14 3.1 0.38
10 5 -14 3.54 0.48
-10 5 14 4.07 0.46
-10 -5 14 2.96 0.43
10 -5 -14 2.7 0.4
11 5 -14 0.92 0.35
-11 5 14 0.71 0.26
-11 -5 -14 0.23 0.24
-11 -5 14 0.92 0.31
11 -5 -14 0.89 0.32
0 -6 -14 1.69 0.21
0 6 -14 1.6 0.18
0 6 -14 1.7 0.19
0 -6 -14 1.59 0.19
1 6 -14 14.8 0.65
-1 -6 -14 14.27 0.65
1 6 -14 13.32 0.63
-1 -6 -14 13.72 0.63
1 -6 -14 13.81 0.67
-1 6 -14 13.74 0.6
1 -6 -14 12.71 0.62
-1 6 -14 13.41 0.61
-2 -6 -14 15.93 0.68
-2 -6 -14 15.23 0.69
2 6 -14 14.77 0.7
2 6 -14 14.67 0.71
2 -6 -14 14.46 0.74
2 -6 -14 14.98 0.69
-2 6 -14 15.94 0.66
3 6 -14 15.56 0.76
3 6 -14 14.76 0.73
-3 -6 -14 15.97 0.72
-3 -6 -14 16.35 0.68
-3 6 -14 17.41 0.69
3 -6 -14 13.2 0.7
3 -6 -14 15.57 0.78
4 6 -14 6.62 0.43
-4 -6 -14 7.28 0.41
4 6 -14 7.08 0.48
4 -6 -14 7.02 0.43
-4 6 -14 8.54 0.4
4 -6 -14 6.83 0.46
-5 -6 -14 11.49 0.59
5 6 -14 11.82 0.67
5 6 -14 10.97 0.64
5 -6 -14 11.52 0.68
-5 6 -14 12.76 0.55
5 -6 -14 11.39 0.6
6 6 -14 3.02 0.35
-6 -6 -14 2.28 0.28
6 -6 -14 2.94 0.31
-6 -6 14 3.02 0.36
-6 6 -14 2.89 0.25
6 -6 -14 3 0.37
-7 -6 -14 1.73 0.24
7 6 -14 1.93 0.31
7 -6 -14 1.84 0.27
-7 -6 14 0.95 0.27
7 -6 -14 1.87 0.3
-8 6 14 2.37 0.32
-8 -6 -14 1.79 0.29
8 6 -14 2.48 0.35
-8 -6 14 2.08 0.36
8 -6 -14 1.83 0.36
-9 -6 -14 2.24 0.31
9 6 -14 2.66 0.42
-9 6 14 1.88 0.32
-9 -6 14 1.97 0.34
9 -6 -14 2.31 0.4
10 6 -14 0.53 0.25
-10 6 14 0.56 0.26
-10 -6 -14 0.62 0.26
-10 -6 14 0.68 0.25
10 -6 -14 0.99 0.33
-11 -6 -14 0.18 0.25
11 6 -14 -0.17 0.26
11 -6 -14 0.05 0.28
-11 -6 14 0.5 0.3
0 7 -14 0.26 0.11
0 7 -14 0.43 0.12
0 -7 -14 0.4 0.11
0 -7 -14 0.05 0.13
1 7 -14 11.51 0.56
1 -7 14 11.87 0.52
-1 -7 -14 11.31 0.56
-1 -7 -14 11.85 0.55
1 7 -14 10.12 0.54
1 -7 -14 11.14 0.59
1 -7 -14 11.59 0.55
-1 7 -14 11.99 0.52
-1 7 -14 11.68 0.53
2 7 -14 2.85 0.29
2 7 -14 2.69 0.24
-2 -7 -14 3.53 0.27
-2 -7 -14 3.15 0.25
-2 7 -14 3.86 0.25
2 -7 -14 3.12 0.32
2 -7 -14 3.05 0.26
3 7 -14 5.07 0.39
3 7 -14 5.25 0.35
-3 -7 -14 5.42 0.36
-3 -7 -14 5.24 0.33
3 -7 -14 5.4 0.42
3 -7 -14 5.86 0.36
-3 7 -14 6.15 0.33
4 7 -14 0.47 0.2
4 7 -14 0.32 0.17
-4 -7 -14 0.48 0.16
4 -7 -14 0.82 0.22
-4 7 -14 0.39 0.14
4 -7 -14 0.55 0.15
5 7 -14 1.02 0.26
-5 -7 -14 1.16 0.19
5 -7 -14 1.43 0.22
-5 7 -14 1.61 0.19
5 -7 -14 1.72 0.27
-5 -7 14 1.41 0.26
-6 -7 -14 0.63 0.16
6 7 -14 0.41 0.24
-6 -7 14 0.62 0.22
6 -7 -14 0.79 0.2
6 -7 -14 0.53 0.2
7 7 -14 1.77 0.3
-7 -7 -14 1.55 0.26
-7 -7 14 1.7 0.32
7 -7 -14 1.64 0.25
7 -7 -14 1.58 0.33
-8 -7 -14 2.54 0.33
8 7 -14 2.71 0.38
-8 7 14 1.96 0.3
-8 -7 14 2.61 0.39
8 -7 -14 2.72 0.42
-9 -7 -14 4.61 0.39
-9 7 14 3.84 0.43
9 7 -14 4.28 0.51
-9 -7 14 4.36 0.51
9 -7 -14 4.25 0.51
-10 -7 -14 0.37 0.25
10 7 -14 0.89 0.33
-10 -7 14 0.67 0.3
10 -7 -14 0.48 0.3
-11 -7 -14 1.42 0.33
11 7 -14 1.45 0.38
11 -7 -14 2.24 0.44
-11 -7 14 0.93 0.34
0 8 -14 5.57 0.31
0 -8 14 4.53 0.3
0 -8 -14 5.01 0.32
0 8 -14 4.7 0.3
0 -8 -14 4.72 0.35
-1 -8 -14 6.5 0.39
1 8 -14 6.43 0.38
1 -8 14 6.54 0.35
-1 -8 -14 6.56 0.38
1 8 -14 6.55 0.37
1 -8 -14 6.01 0.41
-1 8 -14 5.93 0.34
-1 8 -14 6.92 0.35
1 -8 -14 5.81 0.35
2 8 -14 3.42 0.31
-2 -8 -14 3.31 0.28
2 8 -14 3.49 0.26
-2 -8 -14 3.81 0.29
2 -8 -14 2.95 0.24
2 -8 -14 3.89 0.34
-2 8 -14 4.11 0.26
-3 -8 -14 8.33 0.47
3 8 -14 8.32 0.49
-3 -8 -14 9.24 0.46
3 8 -14 8.11 0.49
3 -8 -14 8.1 0.53
3 -8 -14 9.02 0.47
-3 8 -14 9.61 0.44
-4 -8 -14 5.55 0.33
-4 -8 -14 4.79 0.36
4 8 -14 4.56 0.37
4 8 -14 5.26 0.41
-4 8 -14 5.69 0.31
4 -8 -14 5.03 0.42
4 -8 -14 4.94 0.35
-5 -8 -14 4.37 0.35
5 8 -14 4.94 0.39
5 -8 -14 5.21 0.44
5 -8 -14 4.33 0.33
-5 -8 14 4.79 0.41
-6 -8 -14 2.51 0.28
6 8 -14 3 0.38
6 -8 -14 2.67 0.3
-6 -8 14 2.9 0.36
6 -8 -14 3.34 0.4
7 8 -14 0.45 0.26
-7 -8 -14 0.77 0.21
7 -8 -14 0.58 0.26
7 -8 -14 0.45 0.17
-7 -8 14 0.55 0.25
-8 -8 -14 3.78 0.39
-8 8 14 3.82 0.4
8 8 -14 4.25 0.45
8 -8 -14 3.07 0.46
-8 -8 14 5.09 0.51
-9 -8 -14 2.82 0.34
9 8 -14 2.9 0.41
9 -8 -14 3.07 0.44
-9 -8 14 3.04 0.44
10 8 -14 2.07 0.41
-10 -8 -14 2.04 0.36
-10 -8 14 1.77 0.38
10 -8 -14 2.7 0.4
-11 -8 -14 1.31 0.33
11 8 -14 1.64 0.4
-11 -8 14 1.44 0.35
11 -8 -14 1.85 0.41
0 -9 -14 22.98 1
0 9 -14 24.89 1.01
0 -9 14 23.89 1.01
0 9 -14 23.62 0.99
0 -9 -14 24.07 1.05
1 -9 14 19.31 0.78
-1 -9 -14 18.22 0.83
1 9 -14 18.03 0.82
1 9 -14 17.9 0.8
-1 -9 -14 18.39 0.8
1 -9 -14 18.38 0.8
-1 9 -14 18.53 0.78
-1 -9 14 17.46 0.82
1 -9 -14 17.64 0.86
-1 9 -14 18.22 0.77
-2 -9 -14 4.64 0.31
2 9 -14 4.51 0.35
2 9 -14 4.51 0.33
-2 -9 -14 4.86 0.33
2 -9 -14 4.96 0.32
2 -9 -14 4.37 0.38
-2 9 -14 5.13 0.29
-3 -9 -14 8.91 0.49
3 9 -14 8.63 0.52
-3 -9 -14 8.93 0.48
3 9 -14 8.87 0.51
3 -9 -14 8.83 0.48
-3 9 -14 9.98 0.44
3 -9 -14 8.48 0.55
-4 -9 -14 1.26 0.18
-4 -9 -14 1.2 0.21
4 9 -14 1.63 0.27
4 -9 -14 1.19 0.2
4 -9 -14 0.99 0.25
-4 -9 14 1.57 0.25
-5 -9 -14 4.09 0.36
5 9 -14 5.65 0.45
5 -9 -14 5.57 0.37
-5 -9 14 5.16 0.39
5 -9 -14 5.15 0.45
6 9 -14 7.29 0.52
-6 -9 -14 6.87 0.44
6 -9 -14 7.27 0.45
6 -9 -14 7.21 0.56
-6 -9 14 7.88 0.55
7 9 -14 1.34 0.32
-7 -9 -14 1.52 0.27
7 -9 -14 1.51 0.24
7 -9 -14 2.05 0.37
-7 -9 14 1.41 0.31
8 9 -14 1.94 0.36
-8 -9 -14 1.73 0.29
-8 -9 14 1.49 0.34
8 -9 -14 1.63 0.37
-9 -9 -14 0.47 0.23
9 9 -14 0.7 0.3
-9 -9 14 0.47 0.23
9 -9 -14 0.59 0.3
-10 -9 -14 1.21 0.31
10 9 -14 1.74 0.4
-10 -9 14 1.75 0.4
10 -9 -14 2.4 0.43
11 -9 -14 0.73 0.33
0 -10 14 2.22 0.23
0 -10 -14 2.17 0.23
0 10 -14 2.06 0.21
0 -10 -14 2.39 0.28
0 10 -14 1.96 0.22
-1 -10 -14 3.46 0.28
1 -10 14 3.34 0.25
1 10 -14 3.36 0.28
-1 -10 -14 3.54 0.32
1 10 -14 3.28 0.28
1 -10 -14 3.24 0.26
-1 -10 14 3.19 0.28
-1 10 -14 3.19 0.25
-1 10 -14 3.52 0.25
1 -10 -14 3.37 0.34
2 10 -14 14.53 0.71
2 10 -14 13.47 0.67
-2 -10 -14 13.39 0.68
-2 -10 -14 14.76 0.68
2 -10 -14 14.67 0.75
-2 10 -14 16.12 0.64
-2 -10 14 12.9 0.69
2 -10 -14 13.96 0.66
3 10 -14 0.15 0.14
3 10 -14 -0.09 0.15
-3 -10 -14 0.07 0.13
-3 -10 -14 0.24 0.15
3 -10 -14 -0.05 0.17
-3 -10 14 0.01 0.16
3 -10 -14 -0.12 0.09
4 10 -14 0.77 0.2
-4 -10 -14 0.91 0.19
-4 -10 -14 0.76 0.19
4 -10 -14 1.02 0.18
4 -10 -14 0.96 0.26
-4 -10 14 0.82 0.18
5 10 -14 2.35 0.34
-5 -10 -14 2.33 0.28
-5 -10 14 2.09 0.3
5 -10 -14 2.3 0.34
5 -10 -14 2.15 0.26
6 10 -14 0.17 0.22
-6 -10 -14 0.09 0.14
6 -10 -14 -0.07 0.12
-6 -10 14 0.03 0.21
6 -10 -14 0.1 0.22
7 10 -14 0.59 0.28
-7 -10 -14 0.39 0.17
7 -10 -14 0.46 0.19
7 -10 -14 0.38 0.27
-7 -10 14 0.47 0.26
8 10 -14 2.19 0.4
-8 -10 -14 1.72 0.31
-8 -10 14 2.07 0.37
8 -10 -14 2.41 0.41
-9 -10 -14 1.41 0.3
9 10 -14 1.74 0.38
-9 -10 14 1.53 0.37
9 -10 -14 1.73 0.39
10 10 -14 0.3 0.32
-10 -10 -14 0.58 0.27
10 -10 -14 0.18 0.29
-10 -10 14 0.57 0.25
0 11 -14 0.68 0.15
0 11 -14 0.68 0.14
0 -11 -14 0.64 0.15
0 -11 -14 0.77 0.2
0 -11 14 0.53 0.15
1 11 -14 4.68 0.32
1 -11 14 5.08 0.31
1 11 -14 4.58 0.34
-1 -11 -14 4.87 0.33
-1 -11 -14 5.04 0.37
-1 -11 14 5.17 0.35
-1 11 -14 5.04 0.31
1 -11 -14 5.18 0.4
1 -11 -14 5.35 0.32
-2 -11 -14 3.61 0.29
2 11 -14 2.73 0.28
-2 -11 -14 3.73 0.32
2 11 -14 3.3 0.32
-2 -11 14 3.84 0.32
2 -11 -14 3.86 0.27
2 -11 -14 3.73 0.38
-3 -11 -14 0.82 0.2
3 11 -14 0.65 0.2
-3 -11 -14 1.15 0.2
-3 -11 14 0.86 0.21
3 -11 -14 0.95 0.17
3 -11 -14 0.86 0.24
-3 -11 14 0.57 0.18
-4 -11 -14 7.41 0.43
-4 -11 -14 5.83 0.41
4 11 -14 6.79 0.48
-4 -11 14 6.3 0.47
4 -11 -14 6.07 0.4
-4 -11 14 6.24 0.45
4 -11 -14 6.54 0.51
5 11 -14 0.67 0.24
-5 -11 -14 0.27 0.15
-5 -11 14 0.46 0.19
5 -11 -14 0.59 0.17
-5 -11 14 0.55 0.21
5 -11 -14 0.81 0.26
6 11 -14 -0.11 0.23
-6 -11 -14 0.1 0.18
6 -11 -14 0.13 0.15
-6 -11 14 0.17 0.21
-6 -11 14 -0.19 0.22
6 -11 -14 0.01 0.18
-7 -11 -14 1.37 0.27
7 11 -14 1.92 0.37
-7 -11 14 2.04 0.35
-7 -11 14 2.28 0.38
7 -11 -14 2.53 0.38
8 11 -14 0.83 0.32
-8 -11 -14 0.86 0.25
-8 -11 14 0.87 0.31
8 -11 -14 0.87 0.26
-8 -11 14 0.69 0.3
-9 -11 -14 2.07 0.35
9 11 -14 1.46 0.32
9 -11 -14 2.32 0.39
-9 -11 14 1.23 0.34
-9 -11 14 1.51 0.36
-10 -11 -14 1.41 0.29
10 11 -14 1.2 0.32
10 -11 -14 2.43 0.45
-10 -11 14 2 0.44
-10 -11 14 2.8 0.46
0 -12 -14 3.91 0.38
0 12 -14 4.1 0.32
0 -12 14 4.2 0.32
0 -12 -14 4.06 0.29
0 12 -14 4.21 0.29
1 12 -14 2.17 0.23
1 -12 14 2.37 0.24
-1 -12 -14 2.6 0.25
1 12 -14 1.97 0.25
-1 -12 -14 2.06 0.28
1 -12 -14 1.91 0.29
-1 -12 14 2.22 0.26
1 -12 -14 2.38 0.23
-2 -12 -14 0.77 0.17
-2 -12 -14 1.18 0.22
2 12 -14 0.75 0.2
-2 -12 14 0.79 0.2
2 -12 -14 0.77 0.15
2 -12 -14 0.95 0.21
-2 -12 14 0.73 0.18
-3 -12 -14 5.12 0.38
3 12 -14 5.06 0.41
-3 -12 -14 5.12 0.37
3 -12 -14 4.83 0.34
-3 -12 14 5.98 0.43
3 -12 -14 5.93 0.44
-3 -12 14 5.81 0.39
4 12 -14 2.41 0.33
-4 -12 -14 2.41 0.29
-4 -12 -14 2.97 0.32
-4 -12 14 2.92 0.36
4 -12 -14 2.84 0.39
-4 -12 14 3.14 0.34
4 -12 -14 3.1 0.29
5 12 -14 -0.06 0.21
-5 -12 -14 -0.12 0.16
-5 -12 14 0.03 0.18
5 -12 -14 -0.01 0.22
-5 -12 14 0.04 0.2
5 -12 -14 0.03 0.12
-6 -12 -14 0.56 0.22
6 12 -14 0.57 0.27
-6 -12 14 0.41 0.23
-6 -12 14 0.2 0.25
6 -12 -14 0.48 0.28
-7 -12 -14 0.34 0.22
7 12 -14 0.74 0.31
7 -12 -14 0.56 0.29
-7 -12 14 0.14 0.22
-7 -12 14 0.32 0.2
-8 -12 -14 0.64 0.21
8 12 -14 0.56 0.3
-8 -12 14 1.19 0.33
8 -12 -14 0.64 0.33
-8 -12 14 0.98 0.27
-9 -12 -14 1.46 0.29
9 12 -14 1.04 0.36
-9 -12 14 1.8 0.4
-9 -12 14 1.14 0.36
9 -12 -14 2 0.43
-10 -12 -14 -0.21 0.25
10 12 -14 0.39 0.31
-10 -12 14 0.24 0.31
10 -12 -14 0.09 0.31
-10 -12 14 -0.1 0.28
0 -13 -14 -0.05 0.17
0 -13 14 0.08 0.12
0 -13 -14 0.12 0.13
1 -13 14 18.89 0.86
-1 -13 -14 19.92 0.94
1 13 -14 19.3 0.89
-1 -13 -14 20.65 0.87
1 -13 -14 19.41 0.95
-1 -13 14 19.81 0.9
-1 -13 14 20.13 0.89
1 -13 -14 19.1 0.85
-2 -13 -14 2.25 0.29
2 13 -14 1.93 0.27
-2 -13 -14 2.38 0.26
-2 -13 14 2.15 0.27
-2 -13 14 1.89 0.26
2 -13 -14 2.13 0.23
2 -13 -14 2.37 0.34
3 13 -14 0.95 0.24
-3 -13 -14 1.05 0.2
-3 -13 -14 0.95 0.21
-3 -13 14 0.89 0.21
-3 -13 14 0.53 0.2
3 -13 -14 0.96 0.18
3 -13 -14 1.1 0.28
4 13 -14 5.79 0.44
-4 -13 -14 6.22 0.42
-4 -13 -14 5.89 0.42
4 -13 -14 6.89 0.53
-4 -13 14 5.61 0.43
-4 -13 14 5.53 0.43
5 13 -14 3.43 0.4
-5 -13 -14 3.12 0.33
-5 -13 14 2 0.32
5 -13 -14 3.58 0.44
-5 -13 14 3.32 0.4
6 13 -14 2.9 0.4
-6 -13 -14 2.7 0.33
-6 -13 14 2.85 0.41
6 -13 -14 3.29 0.43
-6 -13 14 2.4 0.35
-7 -13 -14 2.13 0.32
7 13 -14 1.92 0.35
7 -13 -14 2.68 0.4
-7 -13 14 2.32 0.37
-7 -13 14 2.52 0.37
8 13 -14 1.11 0.31
-8 -13 -14 0.6 0.26
-8 -13 14 1.45 0.37
-8 -13 14 1.32 0.34
8 -13 -14 1.55 0.37
-9 -13 -14 0.66 0.28
9 13 -14 0.56 0.32
-9 -13 14 0.66 0.32
9 -13 -14 0.46 0.33
-9 -13 14 1.18 0.37
0 -14 -14 3.77 0.29
0 -14 14 4.09 0.32
0 -14 -14 4.1 0.41
1 14 -14 0.53 0.17
-1 -14 -14 0.66 0.22
-1 -14 -14 0.52 0.15
1 -14 -14 0.63 0.2
-1 -14 14 0.59 0.18
1 -14 -14 0.69 0.15
2 14 -14 2.97 0.32
-2 -14 -14 3.26 0.35
-2 -14 -14 2.68 0.28
-2 -14 14 2.92 0.29
-2 -14 14 2.6 0.31
2 -14 -14 3.05 0.28
2 -14 -14 2.69 0.37
-3 -14 -14 1.22 0.2
-3 -14 -14 1.77 0.27
3 14 -14 1.71 0.28
-3 -14 14 1.61 0.27
-3 -14 14 1.85 0.27
3 -14 -14 2.13 0.35
-4 -14 -14 4.19 0.37
-4 -14 -14 4.37 0.38
4 14 -14 4.58 0.44
4 -14 -14 5.39 0.53
-4 -14 14 4.13 0.4
-4 -14 14 4.48 0.39
5 14 -14 7.29 0.57
-5 -14 -14 7.8 0.51
-5 -14 14 8.02 0.58
5 -14 -14 7.85 0.62
-5 -14 14 7.39 0.53
-6 -14 -14 3.35 0.37
6 14 -14 3.46 0.45
6 -14 -14 3.16 0.46
-6 -14 14 3.56 0.41
-6 -14 14 3.49 0.45
7 14 -14 0.41 0.29
-7 -14 -14 0.34 0.23
7 -14 -14 0.62 0.31
-7 -14 14 0.07 0.23
-7 -14 14 0.66 0.3
-8 -14 -14 0.24 0.23
8 14 -14 0.49 0.3
-8 -14 14 0.97 0.32
-8 -14 14 0.16 0.28
8 -14 -14 0.85 0.34
9 14 -14 1 0.35
-9 -14 -14 1.19 0.3
9 -14 -14 0.72 0.31
-9 -14 14 0.86 0.34
-9 -14 14 0.91 0.32
0 -15 14 0.05 0.13
0 -15 -14 0.2 0.14
0 -15 -14 0.43 0.22
-1 -15 -14 2.34 0.26
-1 -15 -14 2.76 0.35
1 -15 -14 1.98 0.34
-1 -15 14 2.22 0.28
1 -15 -14 2.45 0.25
-2 -15 -14 4.69 0.43
2 15 -14 3.69 0.37
-2 -15 -14 4.04 0.32
2 -15 -14 3.46 0.43
-2 -15 14 4.25 0.37
-3 -15 -14 2.54 0.28
-3 -15 -14 2.98 0.35
3 15 -14 2.12 0.31
3 -15 -14 2.27 0.38
-3 -15 14 2.01 0.32
-4 -15 -14 0.67 0.22
-4 -15 -14 0.57 0.2
4 15 -14 0.42 0.23
4 -15 -14 0.49 0.28
-4 -15 14 0.6 0.21
-4 -15 14 0.37 0.22
-5 -15 -14 0.27 0.2
5 15 -14 0.52 0.26
5 -15 -14 0.35 0.29
-5 -15 14 0.23 0.25
-5 -15 14 0.68 0.26
-6 -15 -14 0.96 0.26
6 15 -14 1.54 0.34
6 -15 -14 1.62 0.37
-6 -15 14 0.79 0.26
-6 -15 14 0.98 0.3
-7 -15 -14 2.61 0.35
7 15 -14 2.41 0.43
7 -15 -14 3.24 0.48
-7 -15 14 2.37 0.39
-7 -15 14 2.37 0.41
-8 -15 -14 3.25 0.39
8 15 -14 3.12 0.49
-8 -15 14 2.79 0.44
-8 -15 14 2.03 0.39
8 -15 -14 3.2 0.51
-9 -15 14 1.66 0.37
9 -15 -14 1.69 0.43
0 -16 -14 0.57 0.15
0 -16 14 0.37 0.16
0 -16 -14 0.07 0.16
-1 -16 -14 3.9 0.33
-1 -16 -14 3.6 0.41
-1 -16 14 3.85 0.37
1 -16 -14 4.1 0.45
-2 -16 -14 1.11 0.27
-2 -16 -14 0.9 0.2
-2 -16 14 0.74 0.23
2 -16 -14 1.13 0.26
-3 -16 -14 3.58 0.34
3 16 -14 3.95 0.41
-3 -16 -14 3.83 0.43
-3 -16 14 3.68 0.4
3 -16 -14 4 0.48
4 16 -14 0.33 0.19
-4 -16 -14 0.86 0.22
-4 -16 -14 0.47 0.23
4 -16 -14 0.58 0.29
-4 -16 14 0.57 0.26
-5 -16 -14 2.67 0.33
5 16 -14 2.9 0.41
-5 -16 14 2.72 0.4
5 -16 -14 2.32 0.41
-5 -16 14 1.98 0.32
6 16 -14 0.46 0.24
-6 -16 -14 0.28 0.21
-6 -16 14 0.61 0.26
-6 -16 14 0.28 0.27
6 -16 -14 0.59 0.31
-7 -16 -14 0.8 0.26
7 16 -14 0.82 0.34
-7 -16 14 0.76 0.27
7 -16 -14 1.08 0.35
-7 -16 14 0.91 0.31
-8 -16 -14 1.69 0.33
8 16 -14 1.61 0.41
-8 -16 14 2.35 0.45
8 -16 -14 1.53 0.41
-8 -16 14 1.58 0.36
0 -17 -14 5.01 0.49
0 -17 14 4.72 0.38
-1 -17 -14 0.4 0.17
-1 -17 -14 0.29 0.25
1 -17 -14 0.39 0.21
-1 -17 14 0.27 0.2
-2 -17 -14 0.51 0.26
-2 -17 -14 0.63 0.19
-2 -17 14 0.69 0.23
2 -17 -14 0.81 0.29
-3 -17 -14 2.77 0.37
-3 -17 -14 2.51 0.3
-3 -17 14 1.82 0.32
3 -17 -14 3.49 0.45
-4 -17 -14 3.8 0.42
-4 -17 -14 3.92 0.36
4 17 -14 2.57 0.38
4 -17 -14 3.86 0.47
-4 -17 14 3.55 0.42
-5 -17 -14 1.86 0.33
5 17 -14 1.52 0.3
-5 -17 -14 2.31 0.31
5 -17 -14 2.41 0.43
-5 -17 14 2.07 0.37
6 17 -14 3.26 0.46
-6 -17 -14 3.12 0.36
6 -17 -14 3.01 0.49
-6 -17 14 3.31 0.45
-6 -17 14 2.91 0.42
-7 -17 -14 0.55 0.24
7 17 -14 0.2 0.3
-7 -17 14 0.95 0.34
-7 -17 14 0.41 0.27
7 -17 -14 0.66 0.33
-8 -17 -14 -0.11 0.22
-8 -17 14 0.14 0.27
0 -18 14 0.43 0.19
0 -18 -14 0.8 0.29
-1 -18 -14 1.48 0.34
-1 -18 14 1.98 0.29
1 -18 -14 1.34 0.34
-2 -18 -14 0 0.23
2 -18 -14 0.38 0.27
-2 -18 14 0.23 0.2
-3 -18 -14 0.37 0.18
-3 -18 -14 0.26 0.24
3 -18 -14 0.39 0.27
-3 -18 14 0.16 0.22
-4 -18 -14 1.67 0.27
-4 -18 -14 1.5 0.31
4 -18 -14 1.81 0.39
-4 -18 14 1.54 0.34
-5 -18 -14 1.36 0.27
-5 -18 -14 1.44 0.31
5 18 -14 0.9 0.3
-5 -18 14 1.2 0.34
5 -18 -14 1.13 0.35
6 18 -14 1.09 0.34
-6 -18 -14 1.37 0.28
6 -18 -14 1.32 0.39
-6 -18 14 1.01 0.34
7 18 -14 1.1 0.37
-7 -18 -14 1.16 0.28
-7 -18 14 1.49 0.39
7 -18 -14 1.19 0.39
-8 -18 14 0.71 0.33
0 -19 -14 -0.21 0.23
-1 -19 -14 0.29 0.27
-1 -19 14 0.48 0.21
1 -19 -14 0.75 0.3
-2 -19 -14 2.44 0.38
2 -19 -14 2.26 0.41
-2 -19 14 2.05 0.33
-3 -19 -14 2.32 0.37
-3 -19 14 2.02 0.35
3 -19 -14 2.31 0.42
-4 -19 -14 2.74 0.39
-4 -19 -14 2.76 0.34
4 -19 -14 3.17 0.44
-4 -19 14 2.41 0.36
-5 -19 -14 1.7 0.32
-5 -19 -14 1.88 0.36
5 -19 -14 2.21 0.43
-5 -19 14 1.78 0.38
-6 -19 -14 0.87 0.26
-6 -19 14 0.73 0.34
6 -19 -14 0.96 0.38
-7 -19 -14 0.73 0.25
0 -20 -14 -0.03 0.24
-1 -20 -14 0.06 0.26
1 -20 -14 0.28 0.28
-1 -20 14 0.26 0.21
-2 -20 -14 1.56 0.34
-2 -20 14 1.61 0.3
2 -20 -14 1.16 0.35
-3 -20 -14 1.73 0.35
3 -20 -14 1.7 0.35
-3 -20 14 1.47 0.32
-4 -20 -14 0.08 0.23
4 -20 -14 -0.07 0.26
-4 -20 14 -0.07 0.26
-5 -20 -14 -0.19 0.22
5 -20 -14 0.14 0.29
-5 -20 14 0.32 0.3
-6 -20 -14 0.66 0.26
0 -21 -14 1.59 0.37
-1 -21 -14 0.61 0.28
-1 -21 14 0.49 0.27
1 -21 -14 0.13 0.29
-2 -21 -14 1.95 0.38
-2 -21 14 2.89 0.4
2 -21 -14 2.4 0.43
-3 -21 -14 0.89 0.31
3 -21 -14 1.28 0.33
-3 -21 14 1.39 0.32
-4 -21 -14 1.6 0.35
-4 -21 14 1.28 0.3
-5 -21 -14 0.3 0.28
0 -22 -14 0.1 0.27
-1 -22 -14 -0.14 0.2
-1 -22 14 0.19 0.23
1 -22 -14 0.17 0.28
-2 -22 -14 0.42 0.29
-2 -22 14 0.04 0.24
2 -22 -14 -0.12 0.27
-3 -22 -14 0.43 0.29
-3 -22 14 0.58 0.28
-4 -22 -14 0.45 0.28
-2 -23 14 0.4 0.26
0 0 -15 -0.01 0.1
0 0 -15 0.09 0.1
1 0 -15 3.36 0.25
-1 0 -15 3.26 0.23
1 0 -15 2.81 0.25
-1 0 -15 3.05 0.24
2 0 -15 3.93 0.3
-2 0 -15 4.01 0.22
2 0 -15 3.18 0.25
-2 0 -15 3.17 0.24
-3 0 -15 1.65 0.19
3 0 -15 1.52 0.23
3 0 -15 1.54 0.2
-4 0 -15 0.5 0.15
4 0 -15 0.71 0.21
4 0 -15 0.92 0.17
5 0 -15 16.11 0.77
5 0 -15 14.62 0.79
-5 0 -15 14.79 0.69
6 0 -15 3.42 0.38
6 0 -15 4.01 0.4
-6 0 -15 3.98 0.28
7 0 -15 4.03 0.43
-7 0 -15 2.46 0.28
-7 0 15 2.95 0.37
-8 0 -15 0.29 0.16
8 0 -15 0.11 0.23
-8 0 15 0.03 0.2
9 0 -15 0.22 0.2
-9 0 -15 0.07 0.17
-9 0 15 -0.03 0.19
-10 0 -15 0.02 0.17
-10 0 15 0 0.2
10 0 -15 0.23 0.27
11 0 -15 1.3 0.36
-11 0 -15 1.24 0.26
-11 0 15 1.25 0.32
-12 0 -15 -0.08 0.22
0 -1 -15 -0.03 0.1
0 1 -15 0.28 0.11
0 1 -15 0.14 0.11
0 -1 -15 0.16 0.11
-1 -1 -15 0.81 0.14
1 1 -15 0.8 0.16
1 1 -15 0.91 0.15
-1 -1 -15 0.65 0.14
1 -1 -15 0.81 0.14
-1 1 -15 1.08 0.14
-1 1 -15 0.57 0.14
1 -1 -15 0.71 0.16
-2 -1 -15 0.5 0.14
2 1 -15 0.54 0.16
-2 -1 -15 0.75 0.12
2 1 -15 0.46 0.12
-2 1 -15 0.49 0.11
-2 1 -15 0.38 0.11
2 -1 -15 0.25 0.13
2 -1 -15 0.42 0.15
-3 -1 -15 4.6 0.31
3 1 -15 4.5 0.36
3 1 -15 5 0.34
3 -1 -15 4.54 0.34
-3 1 -15 5.07 0.3
3 -1 -15 4.3 0.33
4 1 -15 13.85 0.68
4 1 -15 13.06 0.7
-4 -1 -15 12.49 0.62
4 -1 -15 13.41 0.67
4 -1 -15 12.72 0.68
-4 1 -15 13.5 0.62
-5 -1 -15 2.28 0.24
5 1 -15 2.87 0.31
5 1 -15 2.17 0.31
5 -1 -15 2.12 0.31
5 -1 -15 2.29 0.27
-5 1 -15 2 0.23
6 1 -15 1.76 0.28
6 1 -15 1.82 0.3
-6 -1 -15 1.82 0.23
-6 1 -15 2 0.23
6 -1 -15 1.43 0.26
6 -1 -15 2.02 0.31
7 1 -15 4.11 0.43
-7 -1 -15 3.82 0.31
7 -1 -15 4.31 0.46
7 -1 -15 3.92 0.41
-7 -1 15 3.9 0.41
-7 1 -15 3.53 0.3
-8 1 15 0.2 0.2
8 1 -15 -0.08 0.22
-8 -1 -15 0.02 0.15
-8 -1 15 0.27 0.22
-8 1 -15 0.01 0.15
8 -1 -15 0.1 0.23
9 1 -15 -0.08 0.23
-9 -1 -15 0.05 0.18
-9 1 15 -0.3 0.11
9 -1 -15 -0.22 0.22
-9 -1 15 -0.06 0.21
-9 1 -15 0.07 0.15
10 1 -15 1.12 0.34
-10 1 15 1.32 0.29
-10 -1 -15 1.64 0.28
-10 -1 15 1.98 0.37
10 -1 -15 1.62 0.36
-10 1 -15 1.7 0.26
-11 1 15 -0.01 0.22
-11 -1 -15 -0.25 0.18
11 1 -15 -0.24 0.24
-11 -1 15 0.07 0.23
11 -1 -15 0.11 0.27
-11 1 -15 -0.32 0.16
-12 1 15 0.42 0.28
-12 -1 -15 0.69 0.25
0 -2 -15 1.26 0.16
0 2 -15 0.8 0.15
0 -2 -15 0.57 0.14
0 2 -15 1.1 0.16
-1 -2 -15 15.47 0.7
-1 -2 -15 16.17 0.7
1 2 -15 15.63 0.7
1 2 -15 16.37 0.72
1 -2 -15 15.74 0.73
-1 2 -15 15.73 0.7
-1 2 -15 16.31 0.68
1 -2 -15 15.99 0.71
2 2 -15 8 0.44
-2 -2 -15 6.91 0.41
-2 -2 -15 7.91 0.38
2 2 -15 7.31 0.41
-2 2 -15 7.83 0.41
2 -2 -15 8.13 0.46
2 -2 -15 7.59 0.42
3 2 -15 3.95 0.34
-3 -2 -15 4.53 0.29
3 2 -15 4.3 0.33
3 -2 -15 4.62 0.34
3 -2 -15 4.92 0.32
-3 2 -15 4.87 0.29
-4 -2 -15 17.05 0.78
4 2 -15 17.38 0.83
4 2 -15 17.17 0.86
4 -2 -15 17.74 0.87
-4 2 -15 18.59 0.78
4 -2 -15 17.97 0.83
5 2 -15 2.52 0.31
5 2 -15 2.61 0.32
-5 -2 -15 2.54 0.25
5 -2 -15 3.35 0.32
5 -2 -15 3.28 0.35
-5 2 -15 3.07 0.23
-6 -2 -15 2.72 0.28
6 2 -15 3.14 0.37
6 2 -15 3.11 0.34
6 -2 -15 2.07 0.33
6 -2 -15 2.76 0.33
-6 2 -15 3.14 0.26
-7 -2 -15 0.19 0.12
7 2 -15 0.27 0.22
-7 -2 15 0.83 0.24
7 -2 -15 0.22 0.23
7 -2 -15 0.54 0.21
-7 2 -15 0.47 0.16
-8 -2 -15 0.39 0.18
-8 2 15 -0.03 0.14
8 2 -15 0.67 0.27
8 -2 -15 0.83 0.27
-8 2 -15 0.4 0.16
-8 -2 15 0.05 0.22
-9 2 15 0.18 0.22
-9 -2 -15 0.48 0.2
9 2 -15 0.5 0.27
9 -2 -15 0.39 0.22
-9 -2 15 0.72 0.28
-9 2 -15 0.65 0.18
-10 -2 -15 0.05 0.19
10 2 -15 0.95 0.31
-10 2 15 0.29 0.24
10 -2 -15 0.48 0.24
-10 -2 15 0.62 0.23
-10 2 -15 0.71 0.19
-11 -2 -15 0.95 0.26
-11 2 15 1.11 0.3
11 2 -15 0.86 0.32
-11 -2 15 1.21 0.34
11 -2 -15 1.01 0.29
-12 -2 -15 0.37 0.25
-12 2 15 0.48 0.29
0 3 -15 2.61 0.21
0 3 -15 2.9 0.23
0 -3 -15 2.67 0.24
0 -3 -15 2.62 0.24
1 3 -15 13.06 0.61
-1 -3 -15 13.09 0.6
-1 -3 -15 13.18 0.61
1 3 -15 12.82 0.62
-1 3 -15 12.37 0.59
1 -3 -15 13.23 0.61
-1 3 -15 13.86 0.58
1 -3 -15 13.43 0.64
-2 -3 -15 0.02 0.12
-2 -3 -15 0.2 0.1
2 3 -15 0.23 0.13
2 3 -15 0.2 0.1
2 -3 -15 -0.11 0.13
-2 3 -15 0.04 0.11
2 -3 -15 0.13 0.12
-3 -3 -15 21.22 0.92
3 3 -15 22.13 0.97
3 3 -15 20.45 0.94
-3 3 -15 22.3 0.9
3 -3 -15 20.39 0.97
3 -3 -15 21.03 0.93
-4 -3 -15 1.11 0.17
4 3 -15 1.26 0.21
4 3 -15 1.44 0.25
4 -3 -15 1.13 0.19
4 -3 -15 1.4 0.23
-4 3 -15 1.26 0.18
-5 -3 -15 7.56 0.45
5 3 -15 8.49 0.51
5 3 -15 8.34 0.55
-5 3 -15 8.77 0.45
5 -3 -15 8.31 0.5
5 -3 -15 9.99 0.58
6 3 -15 0.57 0.21
6 3 -15 0.95 0.26
-6 -3 -15 0.4 0.17
-6 3 -15 0.56 0.15
6 -3 -15 0.8 0.22
6 -3 -15 0.57 0.23
7 3 -15 0.47 0.24
-7 -3 -15 1.02 0.21
7 -3 -15 0.4 0.2
-7 3 -15 0.75 0.17
-7 -3 15 0.87 0.24
7 -3 -15 0.41 0.24
8 3 -15 2.86 0.37
-8 -3 -15 2.23 0.29
-8 3 15 2.75 0.36
-8 -3 15 2.81 0.38
-8 3 -15 1.89 0.24
8 -3 -15 2.69 0.4
-9 3 15 0.3 0.22
-9 -3 -15 0.78 0.22
9 3 -15 0.79 0.26
9 -3 -15 0.72 0.29
-9 3 -15 0.28 0.16
-9 -3 15 0.82 0.29
10 3 -15 0.24 0.27
-10 -3 -15 0.06 0.2
-10 3 15 0 0.2
-10 -3 15 0.03 0.23
10 -3 -15 0.56 0.28
-11 3 15 0.23 0.25
11 3 -15 0.78 0.34
-11 -3 -15 0.62 0.26
-11 -3 15 0.95 0.31
11 -3 -15 0.13 0.27
-12 3 15 1.95 0.38
0 -4 -15 11.83 0.56
0 4 -15 11.54 0.54
0 -4 -15 9.54 0.53
0 4 -15 12.17 0.54
-1 -4 -15 4.7 0.32
1 4 -15 4.99 0.32
1 4 -15 4.9 0.32
-1 -4 -15 5.26 0.33
1 -4 -15 3.95 0.31
-1 4 -15 5.9 0.3
-1 4 -15 5.2 0.31
1 -4 -15 5.16 0.35
-2 -4 -15 8.35 0.45
2 4 -15 8.41 0.46
-2 -4 -15 8.18 0.42
2 4 -15 8.4 0.47
-2 4 -15 9.38 0.44
2 -4 -15 8.63 0.5
2 -4 -15 8.63 0.45
3 4 -15 1.2 0.2
3 4 -15 0.96 0.21
-3 -4 -15 0.91 0.17
3 -4 -15 1.12 0.2
3 -4 -15 1.36 0.24
-3 4 -15 1.11 0.17
4 4 -15 4.07 0.37
4 4 -15 4.63 0.34
-4 -4 -15 4.51 0.3
4 -4 -15 4.04 0.4
4 -4 -15 4.5 0.32
-4 4 -15 4.17 0.29
5 4 -15 0.25 0.18
5 4 -15 0.28 0.21
-5 -4 -15 0.06 0.14
-5 4 -15 0.13 0.12
5 -4 -15 0.08 0.19
5 -4 -15 0.08 0.11
-6 -4 -15 1.7 0.22
6 4 -15 1.22 0.27
6 4 -15 1.92 0.28
6 -4 -15 1.47 0.3
-6 4 -15 2.06 0.22
6 -4 -15 2 0.28
-6 -4 15 1.56 0.26
7 4 -15 0.9 0.28
-7 -4 -15 0.78 0.21
-7 4 -15 1 0.19
-7 -4 15 1.31 0.24
7 -4 -15 0.94 0.24
7 -4 -15 1.14 0.22
-8 4 15 0.14 0.19
8 4 -15 0.33 0.21
-8 -4 -15 0.22 0.18
8 -4 -15 0.2 0.18
-8 4 -15 0.2 0.14
-8 -4 15 0.81 0.26
9 4 -15 0.45 0.28
-9 -4 -15 0.34 0.21
-9 4 15 0.5 0.23
9 -4 -15 0.03 0.25
-9 -4 15 0.57 0.26
10 4 -15 1.05 0.34
-10 4 15 0.58 0.26
-10 -4 -15 0.26 0.22
10 -4 -15 0.71 0.3
-10 -4 15 0.73 0.3
11 4 -15 0.52 0.32
-11 4 15 0.26 0.24
-11 -4 -15 0.39 0.25
-11 -4 15 0.5 0.29
11 -4 -15 1.05 0.32
-12 4 15 0.33 0.26
0 -5 -15 20.41 0.92
0 5 -15 20.41 0.89
0 5 -15 21.3 0.9
0 -5 -15 22.34 0.91
1 5 -15 4.67 0.31
1 5 -15 4.79 0.3
-1 -5 -15 4.11 0.29
-1 -5 -15 4.15 0.3
1 -5 -15 4.37 0.3
-1 5 -15 4.01 0.28
1 -5 -15 3.77 0.31
-1 5 -15 4.1 0.26
-2 -5 -15 5.05 0.34
2 5 -15 4.97 0.35
2 5 -15 4.57 0.33
-2 -5 -15 5.28 0.31
-2 5 -15 5.93 0.33
2 -5 -15 5.28 0.32
2 -5 -15 5.37 0.36
3 5 -15 4.21 0.31
3 5 -15 3.83 0.31
-3 -5 -15 3.9 0.28
-3 -5 -15 3.99 0.27
-3 5 -15 4.4 0.28
3 -5 -15 4.04 0.31
3 -5 -15 3.73 0.37
-4 -5 -15 5.5 0.37
4 5 -15 5.32 0.38
4 5 -15 5.53 0.42
-4 5 -15 6.17 0.35
4 -5 -15 6.32 0.38
4 -5 -15 6.39 0.46
5 5 -15 -0.32 0.14
5 5 -15 0.39 0.17
-5 -5 -15 0.13 0.15
5 -5 -15 0.24 0.16
5 -5 -15 0.21 0.2
-5 5 -15 0.17 0.14
6 5 -15 5.46 0.47
-6 -5 -15 5.06 0.38
-6 5 -15 5.44 0.33
6 -5 -15 5.03 0.38
6 -5 -15 5.64 0.44
-6 -5 15 6.35 0.47
7 5 -15 0.18 0.23
-7 -5 -15 0.01 0.12
-7 5 -15 0.01 0.12
7 -5 -15 -0.04 0.2
7 -5 -15 -0.16 0.15
-7 -5 15 0.31 0.2
8 5 -15 4.08 0.46
-8 -5 -15 4.23 0.4
-8 5 15 4.61 0.45
-8 -5 15 3.74 0.43
8 -5 -15 4.26 0.48
-9 -5 -15 4 0.4
9 5 -15 4.37 0.52
-9 5 15 3.76 0.43
-9 -5 15 5.47 0.55
9 -5 -15 4.31 0.49
-10 5 15 3.57 0.44
10 5 -15 4.25 0.54
-10 -5 -15 4.04 0.42
-10 -5 15 2.96 0.46
10 -5 -15 3.61 0.5
-11 5 15 -0.18 0.19
11 5 -15 -0.12 0.27
-11 -5 -15 0.01 0.22
-11 -5 15 0.08 0.26
11 -5 -15 -0.02 0.26
0 -6 -15 25.39 1.11
0 6 -15 26.19 1.08
0 -6 -15 26.46 1.09
0 6 -15 26.58 1.08
-1 -6 -15 12.85 0.62
1 6 -15 12.91 0.63
1 6 -15 13.12 0.62
-1 -6 -15 12.95 0.62
1 -6 -15 13.49 0.66
-1 6 -15 13.81 0.6
1 -6 -15 12.77 0.62
-1 6 -15 13.2 0.58
2 6 -15 12.04 0.64
-2 -6 -15 14.58 0.66
-2 -6 -15 14.44 0.64
2 6 -15 14.03 0.67
-2 6 -15 13.86 0.62
2 -6 -15 13.07 0.69
2 -6 -15 13.94 0.64
3 6 -15 11.48 0.61
3 6 -15 12.17 0.64
-3 -6 -15 12.34 0.56
-3 -6 -15 11.7 0.59
3 -6 -15 10.81 0.63
3 -6 -15 12.22 0.6
-3 6 -15 13.32 0.57
4 6 -15 3.01 0.31
-4 -6 -15 2.6 0.28
4 6 -15 2.69 0.32
4 -6 -15 2.94 0.35
4 -6 -15 3.44 0.29
-4 6 -15 3.91 0.26
5 6 -15 2.71 0.33
-5 -6 -15 2.86 0.28
5 6 -15 2.78 0.35
5 -6 -15 2.46 0.29
5 -6 -15 3.28 0.36
-5 6 -15 3.41 0.27
6 6 -15 5.05 0.41
-6 -6 -15 4.14 0.32
6 -6 -15 4.27 0.36
-6 6 -15 4.27 0.29
-6 -6 15 4.98 0.46
6 -6 -15 4.05 0.45
-7 -6 -15 3.72 0.36
7 6 -15 3.35 0.43
7 -6 -15 3.4 0.37
7 -6 -15 3.85 0.43
-7 -6 15 3.32 0.39
-8 -6 -15 1.54 0.25
8 6 -15 1.64 0.35
-8 6 15 1.22 0.27
8 -6 -15 1.95 0.36
-8 -6 15 1.54 0.33
-9 -6 -15 3.42 0.38
9 6 -15 4.56 0.52
-9 6 15 2.53 0.36
-9 -6 15 3.14 0.44
9 -6 -15 3.19 0.42
-10 -6 -15 0.58 0.26
10 6 -15 0.85 0.34
-10 6 15 0.77 0.26
-10 -6 15 1.51 0.35
10 -6 -15 1.11 0.35
11 6 -15 1.07 0.38
-11 -6 -15 1.18 0.31
-11 -6 15 1.59 0.39
11 -6 -15 1.33 0.37
0 7 -15 40.28 1.56
0 -7 -15 38.24 1.59
0 -7 -15 38.42 1.55
0 7 -15 39.21 1.54
-1 -7 -15 1.55 0.21
-1 -7 -15 1.48 0.2
1 7 -15 1.42 0.2
1 -7 15 1.33 0.16
1 7 -15 1.41 0.19
1 -7 -15 1.36 0.22
1 -7 -15 1.54 0.2
-1 7 -15 1.6 0.17
-1 7 -15 1.3 0.17
-2 -7 -15 0.54 0.13
-2 -7 -15 0.41 0.13
2 7 -15 0.28 0.16
2 7 -15 0.47 0.15
2 -7 -15 0.55 0.15
2 -7 -15 0.62 0.19
-2 7 -15 0.59 0.13
-3 -7 -15 18.6 0.83
3 7 -15 17.09 0.84
-3 -7 -15 18.52 0.8
3 7 -15 18.72 0.88
3 -7 -15 17.23 0.89
-3 7 -15 20.27 0.79
3 -7 -15 17.77 0.82
-4 -7 -15 6.41 0.4
4 7 -15 5.96 0.42
4 7 -15 5.8 0.44
-4 7 -15 5.98 0.34
4 -7 -15 5.63 0.43
4 -7 -15 5.82 0.39
-5 -7 -15 8.89 0.51
5 7 -15 9.24 0.59
-5 -7 15 9.2 0.58
5 -7 -15 8.61 0.5
-5 7 -15 9.28 0.46
5 -7 -15 9.12 0.6
-6 -7 -15 0.74 0.2
6 7 -15 0.72 0.25
6 -7 -15 0.76 0.2
6 -7 -15 0.79 0.23
-6 -7 15 1.14 0.26
-7 -7 -15 1.97 0.29
7 7 -15 2.2 0.37
-7 -7 15 2.38 0.37
7 -7 -15 2.36 0.3
7 -7 -15 2.48 0.39
8 7 -15 1.99 0.38
-8 -7 -15 2.65 0.33
-8 7 15 2.28 0.34
-8 -7 15 2.42 0.36
8 -7 -15 2.56 0.41
9 7 -15 3.24 0.43
-9 -7 -15 2.91 0.37
-9 7 15 3.54 0.42
-9 -7 15 2.9 0.4
9 -7 -15 2.86 0.44
10 7 -15 -0.09 0.27
-10 -7 -15 0.22 0.19
-10 -7 15 0.27 0.22
10 -7 -15 0.43 0.29
-11 -7 -15 0.12 0.24
11 -7 -15 0.7 0.33
0 -8 15 10.35 0.51
0 8 -15 10.46 0.51
0 -8 -15 9.43 0.49
0 -8 -15 9.84 0.54
0 8 -15 9.86 0.49
1 8 -15 0.08 0.14
-1 -8 -15 -0.1 0.11
1 8 -15 -0.07 0.11
1 -8 15 0.02 0.1
-1 -8 -15 -0.06 0.12
1 -8 -15 -0.24 0.12
-1 8 -15 -0.05 0.1
-1 8 -15 0.13 0.1
1 -8 -15 -0.08 0.11
2 8 -15 6.19 0.38
-2 -8 -15 6.62 0.39
-2 -8 -15 5.76 0.36
2 8 -15 6.2 0.4
2 -8 -15 4.8 0.35
2 -8 -15 5.29 0.39
-2 8 -15 6.63 0.34
-3 -8 -15 0.15 0.11
3 8 -15 0.06 0.13
-3 -8 -15 0.07 0.14
3 8 -15 0 0.16
-3 8 -15 0.1 0.1
3 -8 -15 -0.09 0.16
3 -8 -15 0.03 0.12
4 8 -15 9.85 0.58
4 8 -15 10.41 0.61
-4 -8 -15 10.05 0.53
-4 8 -15 11.13 0.5
4 -8 -15 9.99 0.63
4 -8 -15 10.17 0.55
5 8 -15 3.24 0.37
-5 -8 -15 2.72 0.3
5 -8 -15 2.35 0.28
-5 -8 15 2.98 0.35
5 -8 -15 2.84 0.37
6 8 -15 7.38 0.54
-6 -8 -15 5.94 0.43
6 -8 -15 5.94 0.42
6 -8 -15 6.24 0.49
-6 -8 15 5.33 0.44
-7 -8 -15 1.63 0.27
7 8 -15 1.76 0.31
-7 -8 15 1.53 0.31
7 -8 -15 1.63 0.36
7 -8 -15 1.32 0.24
8 8 -15 5.03 0.54
-8 -8 -15 4.96 0.43
-8 8 15 4.76 0.46
8 -8 -15 5.06 0.56
-8 -8 15 4.62 0.51
9 8 -15 0.98 0.33
-9 -8 -15 0.8 0.26
9 -8 -15 0.35 0.21
-9 -8 15 0.42 0.29
-10 -8 -15 0.05 0.23
10 8 -15 0.83 0.29
10 -8 -15 0.45 0.31
-10 -8 15 0.31 0.27
0 -9 -15 9.21 0.51
0 9 -15 8.72 0.45
0 -9 -15 8.72 0.47
0 9 -15 8.36 0.45
0 -9 15 8.68 0.46
1 -9 15 1.24 0.16
1 9 -15 1.36 0.19
-1 -9 -15 1.17 0.2
-1 -9 -15 1.22 0.18
1 9 -15 1.12 0.18
1 -9 -15 1.28 0.18
-1 9 -15 1.24 0.17
1 -9 -15 1.35 0.21
-1 -9 15 1.39 0.21
2 9 -15 1.21 0.2
2 9 -15 1.01 0.2
-2 -9 -15 1.3 0.2
-2 -9 -15 1.01 0.19
-2 9 -15 1.68 0.18
2 -9 -15 1.18 0.23
2 -9 -15 1.49 0.2
3 9 -15 4.74 0.35
-3 -9 -15 4.45 0.33
3 9 -15 4.3 0.37
-3 -9 -15 4.57 0.34
-3 9 -15 4.95 0.29
3 -9 -15 4.88 0.41
3 -9 -15 3.97 0.31
4 9 -15 3.51 0.31
4 9 -15 3.87 0.34
-4 -9 -15 4.05 0.3
-4 -9 15 3.48 0.36
4 -9 -15 4.06 0.41
4 -9 -15 3.46 0.3
-5 -9 -15 8.65 0.51
5 9 -15 8.76 0.58
5 -9 -15 8.02 0.49
5 -9 -15 8.22 0.56
-5 -9 15 8.59 0.56
6 9 -15 6.78 0.54
-6 -9 -15 7.08 0.47
6 -9 -15 5.91 0.43
6 -9 -15 7.78 0.57
-6 -9 15 6.9 0.49
7 9 -15 2.69 0.38
-7 -9 -15 2.37 0.32
-7 -9 15 2.3 0.35
7 -9 -15 2.88 0.32
7 -9 -15 2.86 0.42
8 9 -15 2.86 0.44
-8 -9 -15 2.7 0.35
8 -9 -15 3.21 0.45
-8 -9 15 1.82 0.32
-9 -9 -15 2.26 0.35
9 9 -15 2.54 0.43
-9 -9 15 2.64 0.44
9 -9 -15 2.89 0.46
10 9 -15 0.16 0.3
-10 -9 -15 0.79 0.25
-10 -9 15 0.47 0.32
10 -9 -15 0.12 0.23
0 10 -15 20.8 0.88
0 -10 -15 20.66 0.94
0 -10 -15 19.44 0.88
0 10 -15 20.53 0.87
0 -10 15 20.07 0.88
1 10 -15 8.35 0.47
-1 -10 -15 8.09 0.49
1 10 -15 7.67 0.46
1 -10 15 8.49 0.44
-1 -10 -15 7.87 0.46
-1 10 -15 8.93 0.44
-1 -10 15 8.79 0.48
1 -10 -15 8.54 0.45
1 -10 -15 9.34 0.53
2 10 -15 2.43 0.28
-2 -10 -15 2.73 0.28
2 10 -15 3.01 0.29
-2 -10 -15 3.03 0.25
-2 10 -15 3.22 0.24
-2 -10 15 2.75 0.3
2 -10 -15 2.94 0.27
2 -10 -15 2.95 0.34
-3 -10 -15 7.07 0.43
3 10 -15 6.18 0.46
3 10 -15 6.49 0.43
-3 -10 -15 7.64 0.42
-3 -10 15 8.02 0.48
3 -10 -15 6.85 0.41
3 -10 -15 6.99 0.51
4 10 -15 0.83 0.23
-4 -10 -15 0.94 0.18
4 -10 -15 0.79 0.17
4 -10 -15 1.08 0.27
-4 -10 15 0.84 0.22
-5 -10 -15 4.8 0.38
5 10 -15 4.72 0.46
-5 -10 15 5.18 0.4
5 -10 -15 4.88 0.36
5 -10 -15 4.26 0.45
-6 -10 -15 2.19 0.29
6 10 -15 1.97 0.32
6 -10 -15 2.06 0.34
-6 -10 15 1.94 0.31
6 -10 -15 2.11 0.27
-7 -10 -15 4.98 0.42
7 10 -15 4.97 0.5
-7 -10 15 4.03 0.45
7 -10 -15 4.87 0.54
7 -10 -15 4.32 0.41
-8 -10 -15 0.27 0.21
8 10 -15 0.39 0.28
8 -10 -15 0.39 0.29
-8 -10 15 0.72 0.29
9 10 -15 3.56 0.47
-9 -10 -15 3.05 0.4
-9 -10 15 3.72 0.49
9 -10 -15 3.61 0.52
10 10 -15 0.99 0.3
-10 -10 -15 0.97 0.29
-10 -10 15 1.09 0.36
10 -10 -15 1.02 0.36
0 -11 -15 9.38 0.51
0 11 -15 10.6 0.51
0 11 -15 10.49 0.52
0 -11 -15 9.97 0.58
0 -11 15 10.26 0.52
1 11 -15 -0.08 0.11
-1 -11 -15 0.25 0.14
1 11 -15 0.23 0.14
-1 -11 -15 0.26 0.16
-1 11 -15 0.15 0.12
1 -11 -15 0.22 0.12
1 -11 -15 0.16 0.17
-1 -11 15 0.14 0.12
2 11 -15 5.87 0.38
2 11 -15 6.2 0.41
-2 -11 -15 5.57 0.39
-2 -11 -15 5.9 0.38
2 -11 -15 5.52 0.36
-2 -11 15 5.47 0.4
2 -11 -15 5.68 0.45
-3 -11 -15 10.79 0.58
-3 -11 -15 12.12 0.59
3 11 -15 10.46 0.61
-3 -11 15 10.23 0.6
3 -11 -15 11.64 0.67
-3 -11 15 10.7 0.62
3 -11 -15 10.59 0.55
-4 -11 -15 -0.01 0.11
-4 -11 -15 0.11 0.15
4 11 -15 0.1 0.14
4 -11 -15 0.09 0.12
-4 -11 15 -0.19 0.13
4 -11 -15 0.19 0.23
-4 -11 15 -0.02 0.18
-5 -11 -15 1.15 0.23
5 11 -15 1.12 0.27
5 -11 -15 0.95 0.28
-5 -11 15 0.9 0.26
-5 -11 15 0.86 0.23
5 -11 -15 0.86 0.19
-6 -11 -15 0.3 0.19
6 11 -15 0.48 0.21
6 -11 -15 0.63 0.28
-6 -11 15 0.36 0.22
6 -11 -15 0.45 0.18
-6 -11 15 0.21 0.2
-7 -11 -15 0.02 0.19
7 11 -15 0.38 0.23
7 -11 -15 -0.03 0.19
-7 -11 15 -0.12 0.2
8 11 -15 2.62 0.43
-8 -11 -15 2.54 0.35
-8 -11 15 2.46 0.38
8 -11 -15 2.13 0.38
-8 -11 15 2.67 0.43
9 11 -15 2.36 0.42
-9 -11 -15 1.81 0.3
9 -11 -15 1.76 0.4
-9 -11 15 1.82 0.38
-9 -11 15 1.55 0.37
10 11 -15 2.53 0.49
-10 -11 15 2.09 0.43
10 -11 -15 2.78 0.49
0 12 -15 0.27 0.13
0 -12 15 0.21 0.13
0 -12 -15 0.12 0.13
0 -12 -15 0.18 0.13
1 12 -15 7 0.42
-1 -12 -15 8.23 0.44
-1 -12 -15 7.79 0.49
1 12 -15 7.3 0.45
1 -12 -15 7.7 0.51
-1 -12 15 6.97 0.45
1 -12 -15 6.65 0.41
2 12 -15 0.91 0.21
-2 -12 -15 1.07 0.2
-2 -12 -15 1.23 0.23
2 12 -15 0.74 0.18
-2 -12 15 0.86 0.2
2 -12 -15 1.1 0.26
2 -12 -15 0.96 0.18
3 12 -15 2.19 0.3
-3 -12 -15 2.29 0.27
-3 -12 -15 2.26 0.28
3 -12 -15 2.46 0.26
3 -12 -15 2.84 0.34
-3 -12 15 2.18 0.3
-3 -12 15 2.36 0.3
-4 -12 -15 5.07 0.39
4 12 -15 5.29 0.45
-4 -12 -15 5.23 0.38
4 -12 -15 5.11 0.35
-4 -12 15 4.93 0.4
-4 -12 15 5.05 0.44
4 -12 -15 5.01 0.44
-5 -12 -15 3.33 0.33
5 12 -15 2.46 0.34
-5 -12 15 2.85 0.36
5 -12 -15 3.16 0.31
5 -12 -15 2.79 0.4
-5 -12 15 3.34 0.4
6 12 -15 2.12 0.36
-6 -12 -15 2.2 0.3
-6 -12 15 2.49 0.36
-6 -12 15 2.23 0.34
6 -12 -15 2.29 0.39
-7 -12 -15 3.42 0.36
7 12 -15 3.82 0.48
-7 -12 15 3.21 0.42
7 -12 -15 4.07 0.5
-7 -12 15 3.22 0.44
-8 -12 -15 1.09 0.28
8 12 -15 0.7 0.31
-8 -12 15 0.77 0.31
8 -12 -15 0.88 0.35
-8 -12 15 1.2 0.34
9 12 -15 0.38 0.31
-9 -12 -15 0.06 0.24
-9 -12 15 0.5 0.31
-9 -12 15 -0.02 0.28
9 -12 -15 0.57 0.34
0 -13 -15 2.11 0.31
0 -13 -15 1.7 0.22
0 -13 15 1.99 0.24
-1 -13 -15 1.82 0.29
1 13 -15 1.69 0.23
-1 -13 -15 2.06 0.24
-1 -13 15 1.84 0.25
1 -13 -15 2.16 0.32
1 -13 -15 1.82 0.22
2 13 -15 0.48 0.19
-2 -13 -15 0.41 0.17
-2 -13 -15 0.61 0.2
2 -13 -15 0.65 0.21
2 -13 -15 0.51 0.14
-2 -13 15 0.36 0.16
-2 -13 15 0.61 0.19
-3 -13 -15 1.96 0.28
3 13 -15 2 0.3
-3 -13 -15 2.09 0.27
3 -13 -15 1.86 0.24
-3 -13 15 1.79 0.27
3 -13 -15 1.77 0.32
-3 -13 15 2.06 0.29
4 13 -15 1.2 0.27
-4 -13 -15 0.86 0.21
-4 -13 -15 0.77 0.22
-4 -13 15 1.16 0.28
4 -13 -15 1.39 0.32
-4 -13 15 0.9 0.21
-5 -13 -15 3.32 0.36
5 13 -15 3.93 0.41
-5 -13 15 3.83 0.41
5 -13 -15 4.24 0.49
-5 -13 15 3.65 0.43
6 13 -15 0.49 0.21
-6 -13 -15 0.79 0.23
6 -13 -15 1.36 0.34
-6 -13 15 0.51 0.24
-6 -13 15 0.51 0.23
-7 -13 -15 0.85 0.25
7 13 -15 0.72 0.32
-7 -13 15 1.26 0.31
7 -13 -15 1.89 0.4
-7 -13 15 1.04 0.32
8 13 -15 0.64 0.31
-8 -13 -15 -0.04 0.16
-8 -13 15 -0.12 0.23
8 -13 -15 0.23 0.31
-8 -13 15 0.24 0.3
-9 -13 -15 0.54 0.27
9 13 -15 1.52 0.35
9 -13 -15 1.76 0.41
-9 -13 15 1.18 0.37
-9 -13 15 0.96 0.34
0 -14 15 0.24 0.15
0 -14 -15 0.3 0.2
0 -14 -15 0.33 0.15
-1 -14 -15 2.05 0.24
1 14 -15 1.47 0.23
-1 -14 -15 1.75 0.29
1 -14 -15 1.86 0.23
-1 -14 15 1.87 0.26
1 -14 -15 1.99 0.33
-2 -14 -15 1.23 0.26
-2 -14 -15 1.36 0.22
2 14 -15 1.35 0.24
2 -14 -15 1.19 0.19
2 -14 -15 1.53 0.3
-2 -14 15 1.39 0.24
-3 -14 -15 0.77 0.22
-3 -14 -15 1.47 0.24
3 14 -15 0.86 0.24
-3 -14 15 1.01 0.23
-3 -14 15 0.88 0.24
3 -14 -15 0.71 0.28
4 14 -15 1.23 0.29
-4 -14 -15 1.31 0.25
-4 -14 -15 0.97 0.23
4 -14 -15 1.27 0.32
-4 -14 15 1.14 0.28
-4 -14 15 1.01 0.24
-5 -14 -15 4.9 0.42
5 14 -15 5.12 0.44
-5 -14 15 4.7 0.45
5 -14 -15 5.79 0.58
-5 -14 15 5.07 0.5
-6 -14 -15 0.09 0.2
6 14 -15 0.32 0.21
6 -14 -15 0.29 0.22
-6 -14 15 -0.13 0.22
-6 -14 15 0.3 0.21
7 14 -15 2.21 0.4
-7 -14 -15 1.54 0.29
-7 -14 15 1.09 0.34
7 -14 -15 1.39 0.34
-7 -14 15 1.08 0.3
8 14 -15 0.94 0.35
-8 -14 -15 0.42 0.26
8 -14 -15 0.53 0.28
-8 -14 15 0.68 0.32
-8 -14 15 0.96 0.31
-9 -14 15 0.45 0.3
9 -14 -15 0.66 0.36
0 -15 15 3.5 0.32
0 -15 -15 4.41 0.38
0 -15 -15 3.71 0.3
-1 -15 -15 2.67 0.28
-1 -15 -15 2.81 0.36
1 -15 -15 2.87 0.39
1 -15 -15 2.93 0.28
-1 -15 15 2.87 0.32
-2 -15 -15 2.08 0.26
2 15 -15 1.89 0.28
-2 -15 -15 2.03 0.31
-2 -15 15 2.74 0.32
2 -15 -15 1.75 0.3
3 15 -15 0.42 0.22
-3 -15 -15 0.73 0.24
-3 -15 -15 0.56 0.19
-3 -15 15 0.88 0.24
3 -15 -15 0.52 0.28
4 15 -15 -0.16 0.2
-4 -15 -15 -0.1 0.17
-4 -15 -15 0.25 0.18
-4 -15 15 0.13 0.17
-4 -15 15 -0.02 0.22
4 -15 -15 0 0.25
-5 -15 -15 1.45 0.27
5 15 -15 1.47 0.32
5 -15 -15 1.09 0.28
-5 -15 15 1.34 0.28
-5 -15 15 1.27 0.31
6 15 -15 0.23 0.27
-6 -15 -15 0.27 0.21
-6 -15 15 0.5 0.25
-6 -15 15 0.08 0.26
6 -15 -15 0.44 0.23
7 15 -15 1.8 0.38
-7 -15 -15 1.12 0.28
-7 -15 15 0.82 0.28
7 -15 -15 1.38 0.39
-7 -15 15 0.54 0.27
-8 -15 -15 0.26 0.23
8 15 -15 0.33 0.32
-8 -15 15 0.47 0.28
8 -15 -15 0.36 0.33
-8 -15 15 0.04 0.3
0 -16 15 2.59 0.3
0 -16 -15 2.21 0.26
0 -16 -15 3.15 0.39
-1 -16 -15 3.22 0.32
-1 -16 -15 3.06 0.4
1 -16 -15 3.37 0.43
-1 -16 15 3.03 0.33
-2 -16 -15 1.73 0.25
-2 -16 -15 1.28 0.3
2 -16 -15 1.21 0.32
-2 -16 15 1.36 0.26
-3 -16 -15 0.14 0.21
3 16 -15 0.85 0.25
-3 -16 -15 0.83 0.21
-3 -16 15 0.75 0.24
3 -16 -15 1 0.31
4 16 -15 0.2 0.23
-4 -16 -15 0.05 0.21
-4 -16 -15 0.37 0.2
-4 -16 15 0.43 0.24
4 -16 -15 0.68 0.3
5 16 -15 0.95 0.3
-5 -16 -15 0.94 0.24
-5 -16 15 1.17 0.31
5 -16 -15 0.97 0.34
-5 -16 15 1.15 0.27
-6 -16 -15 1.08 0.27
6 16 -15 0.94 0.32
6 -16 -15 1.87 0.37
-6 -16 15 1.69 0.33
-6 -16 15 1.18 0.35
7 16 -15 0.38 0.31
-7 -16 -15 0.44 0.23
-7 -16 15 0.23 0.26
7 -16 -15 0.56 0.27
-7 -16 15 0.39 0.3
-8 -16 -15 0.44 0.25
-8 -16 15 0.01 0.25
0 -17 -15 3.17 0.39
-1 -17 -15 1.68 0.3
-1 -17 -15 1.53 0.23
1 -17 -15 1.93 0.36
-1 -17 15 1.48 0.26
-2 -17 -15 0.73 0.28
-2 -17 -15 0.88 0.21
2 -17 -15 1.15 0.34
-2 -17 15 0.71 0.24
-3 -17 -15 0.65 0.26
-3 -17 -15 0.59 0.2
3 -17 -15 0.24 0.21
-3 -17 15 0.56 0.25
-4 -17 -15 0.77 0.22
-4 -17 -15 0.98 0.28
4 17 -15 1.08 0.3
-4 -17 15 1.28 0.31
4 -17 -15 0.78 0.32
5 17 -15 1.01 0.31
-5 -17 -15 0.82 0.24
5 -17 -15 0.43 0.32
-5 -17 15 0.2 0.26
-6 -17 -15 0.42 0.23
6 17 -15 0.49 0.3
6 -17 -15 1.09 0.35
-6 -17 15 0.23 0.21
-7 -17 -15 2.2 0.35
7 17 -15 0.83 0.37
7 -17 -15 2.16 0.44
-7 -17 15 1.75 0.35
-7 -17 15 2.13 0.4
-8 -17 15 -0.35 0.24
0 -18 -15 4.8 0.5
-1 -18 -15 1.62 0.33
-1 -18 15 1.17 0.26
1 -18 -15 1.14 0.33
-2 -18 -15 3.69 0.44
2 -18 -15 2.82 0.41
-2 -18 15 3.51 0.4
-3 -18 -15 0.7 0.22
-3 -18 -15 1.01 0.29
-3 -18 15 0.74 0.27
3 -18 -15 0.7 0.32
-4 -18 -15 2.27 0.31
-4 -18 -15 1.77 0.33
-4 -18 15 1.01 0.31
4 -18 -15 1.53 0.34
-5 -18 -15 0.76 0.25
5 18 -15 0.73 0.3
5 -18 -15 0.74 0.33
-5 -18 15 0.34 0.23
-6 -18 -15 0.54 0.24
6 18 -15 0.26 0.29
6 -18 -15 0.42 0.31
-6 -18 15 0.22 0.28
-7 -18 -15 0.13 0.23
0 -19 -15 0.26 0.26
-1 -19 -15 0.31 0.26
-1 -19 15 0.21 0.2
1 -19 -15 0.61 0.3
-2 -19 -15 0.54 0.27
2 -19 -15 0.84 0.32
-2 -19 15 0.03 0.21
-3 -19 -15 2.6 0.39
3 -19 -15 3.11 0.48
-3 -19 15 3.06 0.4
-4 -19 -15 4.23 0.47
-4 -19 -15 3.87 0.4
4 -19 -15 4.04 0.53
-4 -19 15 4.3 0.49
-5 -19 -15 0.27 0.22
5 -19 -15 0.49 0.33
-5 -19 15 0.46 0.3
-6 -19 -15 0.38 0.24
0 -20 -15 0.93 0.32
-1 -20 -15 -0.08 0.25
1 -20 -15 -0.18 0.25
-1 -20 15 0.18 0.21
-2 -20 -15 0.61 0.29
-2 -20 15 0.95 0.29
2 -20 -15 0.41 0.32
-3 -20 -15 0.47 0.26
-3 -20 15 0.43 0.27
3 -20 -15 1.04 0.35
-4 -20 -15 0.61 0.3
4 -20 -15 -0.02 0.29
-4 -20 15 0.41 0.28
-5 -20 15 2.8 0.44
-6 -20 -15 1.39 0.31
0 -21 -15 0.19 0.27
-1 -21 -15 1.39 0.34
1 -21 -15 2.05 0.41
-2 -21 -15 0.07 0.26
2 -21 -15 -0.07 0.27
-2 -21 15 -0.21 0.22
-3 -21 -15 0.51 0.29
3 -21 -15 0.48 0.32
-3 -21 15 -0.03 0.24
-4 -21 -15 0.48 0.28
-4 -21 15 0.4 0.29
0 -22 -15 -0.27 0.24
-1 -22 -15 2.47 0.42
-2 -22 -15 0.14 0.29
-2 -22 15 1.13 0.3
-3 -22 -15 0.81 0.33
-3 -22 15 0.85 0.32
0 0 -16 8.49 0.44
0 0 -16 8.32 0.44
-1 0 -16 12.57 0.56
1 0 -16 11.74 0.58
-1 0 -16 12.29 0.57
1 0 -16 11.83 0.6
2 0 -16 9.66 0.53
-2 0 -16 9.97 0.5
2 0 -16 10.25 0.52
3 0 -16 13.89 0.66
-3 0 -16 13.59 0.64
3 0 -16 13.2 0.69
4 0 -16 2.86 0.34
4 0 -16 3.67 0.34
-4 0 -16 2.8 0.27
5 0 -16 0.69 0.21
-5 0 -16 1.02 0.18
5 0 -16 0.63 0.23
6 0 -16 -0.02 0.2
-6 0 -16 -0.05 0.13
6 0 -16 0.25 0.18
7 0 -16 0.22 0.2
-7 0 -16 0.27 0.13
7 0 -16 0.24 0.23
-8 0 -16 0.46 0.18
8 0 -16 0.34 0.21
-8 0 16 0.46 0.23
-9 0 16 0.39 0.24
9 0 -16 0.42 0.27
-9 0 -16 -0.29 0.15
-10 0 16 -0.08 0.22
10 0 -16 -0.16 0.17
-10 0 -16 0.3 0.19
-11 0 -16 0.12 0.19
-11 0 16 0.31 0.26
11 0 -16 0.33 0.3
0 -1 -16 13.25 0.63
0 1 -16 13.91 0.63
0 1 -16 13.61 0.64
0 -1 -16 14.06 0.64
1 1 -16 8.17 0.44
-1 -1 -16 8.31 0.42
1 1 -16 8.35 0.45
-1 -1 -16 8.42 0.44
1 -1 -16 7.88 0.45
-1 1 -16 8.03 0.42
-1 1 -16 8.14 0.41
1 -1 -16 7.63 0.44
2 1 -16 4.28 0.34
2 1 -16 4.37 0.31
-2 -1 -16 4.6 0.32
2 -1 -16 4.74 0.33
-2 1 -16 4.88 0.32
2 -1 -16 5.44 0.37
-3 -1 -16 12.75 0.61
3 1 -16 12.25 0.63
3 1 -16 13.15 0.66
3 -1 -16 11.92 0.64
3 -1 -16 13.05 0.64
-3 1 -16 12.1 0.59
4 1 -16 5.28 0.41
4 1 -16 5.49 0.37
-4 -1 -16 4.85 0.32
4 -1 -16 4.3 0.36
4 -1 -16 4.62 0.35
-4 1 -16 5.29 0.32
5 1 -16 6.66 0.43
5 1 -16 5.91 0.44
-5 -1 -16 5.59 0.38
5 -1 -16 5.44 0.43
-5 1 -16 6.43 0.38
5 -1 -16 6.65 0.45
6 1 -16 7.6 0.56
-6 -1 -16 7.3 0.45
6 1 -16 8.62 0.54
-6 1 -16 7.59 0.44
6 -1 -16 8.06 0.53
6 -1 -16 7.61 0.56
-7 -1 -16 5.12 0.38
7 1 -16 6.18 0.52
7 -1 -16 6.11 0.51
-7 1 -16 5.75 0.38
-7 -1 16 4.8 0.48
7 -1 -16 5.47 0.46
-8 -1 -16 2.32 0.29
8 1 -16 2.64 0.41
-8 1 16 2.52 0.37
8 -1 -16 2.66 0.4
-8 -1 16 2.57 0.37
-8 1 -16 2.26 0.27
-9 1 16 0.77 0.26
9 1 -16 0.2 0.21
-9 -1 -16 -0.09 0.17
-9 -1 16 0.14 0.24
9 -1 -16 0.03 0.23
-9 1 -16 0.27 0.18
10 1 -16 1.48 0.37
-10 1 16 1.14 0.31
-10 -1 -16 0.88 0.24
-10 -1 16 1.23 0.33
10 -1 -16 1.32 0.35
-10 1 -16 1.3 0.25
-11 1 16 0.18 0.26
11 1 -16 0.83 0.34
-11 -1 -16 0.81 0.24
-11 -1 16 0.14 0.26
11 -1 -16 0.55 0.31
-11 1 -16 0.74 0.27
-12 -1 -16 1.27 0.3
0 -2 -16 0.44 0.14
0 2 -16 0.33 0.13
0 2 -16 0.27 0.13
0 -2 -16 0.24 0.12
1 2 -16 6.1 0.37
1 2 -16 6.04 0.37
-1 -2 -16 5.96 0.35
-1 -2 -16 5.81 0.36
1 -2 -16 6.67 0.37
-1 2 -16 6.72 0.34
1 -2 -16 5.75 0.38
-1 2 -16 5.82 0.34
-2 -2 -16 13.43 0.57
2 2 -16 12.65 0.63
-2 -2 -16 11.85 0.59
2 2 -16 11.95 0.6
2 -2 -16 11.99 0.59
-2 2 -16 12.25 0.59
2 -2 -16 12.48 0.64
3 2 -16 0.34 0.17
3 2 -16 0.5 0.17
-3 -2 -16 0.55 0.16
-3 2 -16 0.38 0.14
3 -2 -16 0.42 0.13
3 -2 -16 0.51 0.18
4 2 -16 18.5 0.88
4 2 -16 18.25 0.9
-4 -2 -16 18.52 0.83
4 -2 -16 17.88 0.91
4 -2 -16 19.84 0.88
-4 2 -16 18.17 0.81
-5 -2 -16 1.08 0.2
5 2 -16 0.77 0.24
5 2 -16 1.19 0.24
5 -2 -16 1.54 0.25
5 -2 -16 1.19 0.26
-5 2 -16 0.99 0.18
6 2 -16 3.54 0.38
6 2 -16 4.16 0.44
-6 -2 -16 3.91 0.32
6 -2 -16 3.83 0.39
-6 2 -16 3.73 0.29
6 -2 -16 3.81 0.43
-7 -2 -16 1.6 0.24
7 2 -16 1.1 0.3
7 -2 -16 2.22 0.34
-7 2 -16 1.52 0.21
7 -2 -16 1.73 0.3
-7 -2 16 1.69 0.31
8 2 -16 1.45 0.33
-8 2 16 1.87 0.3
-8 -2 -16 1.7 0.26
-8 -2 16 2.51 0.37
-8 2 -16 1.62 0.23
8 -2 -16 2 0.36
-9 2 16 0.09 0.22
-9 -2 -16 0.44 0.21
9 2 -16 0.74 0.3
-9 2 -16 0.47 0.2
9 -2 -16 0.8 0.29
-9 -2 16 0.43 0.26
10 2 -16 0.49 0.3
-10 2 16 0.83 0.3
-10 -2 -16 0.41 0.22
-10 2 -16 0.5 0.2
10 -2 -16 0.49 0.3
-10 -2 16 0.32 0.25
-11 2 16 -0.12 0.23
-11 -2 -16 0.34 0.22
11 2 -16 -0.25 0.27
-11 -2 16 0.32 0.28
11 -2 -16 0.15 0.28
0 3 -16 13.69 0.62
0 3 -16 12.74 0.62
0 -3 -16 13.76 0.63
0 -3 -16 13.58 0.64
1 3 -16 2.45 0.25
1 3 -16 3.12 0.26
-1 -3 -16 3.36 0.27
-1 -3 -16 2.88 0.25
1 -3 -16 3.25 0.26
-1 3 -16 2.84 0.24
-1 3 -16 3.09 0.22
1 -3 -16 3.02 0.29
2 3 -16 0.39 0.13
2 3 -16 0.01 0.14
-2 -3 -16 0.24 0.12
-2 -3 -16 0.31 0.15
-2 3 -16 0.29 0.13
2 -3 -16 0.47 0.15
2 -3 -16 0.01 0.14
-3 -3 -16 2.93 0.25
3 3 -16 2.77 0.3
3 3 -16 2.99 0.31
3 -3 -16 3.02 0.33
-3 3 -16 3.42 0.27
3 -3 -16 3.4 0.29
4 3 -16 15.26 0.75
-4 -3 -16 14.56 0.7
4 3 -16 14.49 0.75
4 -3 -16 14.6 0.76
4 -3 -16 14.86 0.73
-4 3 -16 15.29 0.68
5 3 -16 26.88 1.22
-5 -3 -16 26.13 1.13
5 3 -16 27.52 1.2
5 -3 -16 25.13 1.17
5 -3 -16 27.22 1.24
-5 3 -16 26.66 1.11
6 3 -16 0.15 0.17
-6 -3 -16 0.17 0.16
6 3 -16 0.31 0.19
-6 3 -16 0.33 0.14
6 -3 -16 0.21 0.22
6 -3 -16 0.14 0.17
-7 -3 -16 0.21 0.14
7 3 -16 0.24 0.24
7 -3 -16 0.1 0.22
-7 3 -16 -0.05 0.12
-7 -3 16 0.26 0.21
7 -3 -16 0.31 0.2
8 3 -16 1.34 0.33
-8 3 16 0.79 0.26
-8 -3 -16 1.02 0.21
8 -3 -16 1.08 0.31
-8 -3 16 0.82 0.28
-8 3 -16 0.77 0.18
-9 3 16 0.37 0.23
-9 -3 -16 0.32 0.21
9 3 -16 0.19 0.26
-9 -3 16 -0.04 0.23
9 -3 -16 0.4 0.21
-9 3 -16 0.3 0.16
-10 3 16 5.42 0.47
10 3 -16 6.04 0.61
-10 -3 -16 5.44 0.45
-10 -3 16 4.44 0.54
10 -3 -16 5.25 0.58
-11 -3 -16 1.21 0.29
-11 3 16 1.17 0.32
11 3 -16 0.84 0.36
-11 -3 16 0.87 0.28
11 -3 -16 0.49 0.3
0 -4 -16 15.62 0.73
0 4 -16 16.57 0.73
0 4 -16 16.79 0.73
0 -4 -16 16.27 0.75
-1 -4 -16 2.1 0.23
1 4 -16 1.83 0.22
1 4 -16 2.03 0.23
-1 -4 -16 2.1 0.22
-1 4 -16 1.84 0.19
1 -4 -16 1.96 0.23
1 -4 -16 2.09 0.25
-1 4 -16 1.62 0.2
-2 -4 -16 12.45 0.55
2 4 -16 10.51 0.58
2 4 -16 10.83 0.57
-2 -4 -16 11.28 0.57
-2 4 -16 12.02 0.55
2 -4 -16 10.87 0.61
2 -4 -16 11.48 0.57
3 4 -16 15.55 0.77
3 4 -16 15.62 0.77
-3 -4 -16 15.89 0.73
3 -4 -16 15.79 0.76
-3 4 -16 18.34 0.74
3 -4 -16 15.82 0.79
4 4 -16 6.23 0.43
4 4 -16 7.08 0.46
-4 -4 -16 6.72 0.41
4 -4 -16 5.76 0.44
4 -4 -16 7.03 0.44
-4 4 -16 6.93 0.39
-5 -4 -16 0.68 0.18
5 4 -16 0.86 0.21
5 4 -16 0.53 0.23
5 -4 -16 0.68 0.24
-5 4 -16 1.12 0.18
5 -4 -16 0.58 0.19
6 4 -16 -0.2 0.11
6 4 -16 0.33 0.22
-6 -4 -16 -0.04 0.15
-6 4 -16 0.34 0.15
6 -4 -16 0.38 0.19
6 -4 -16 0.47 0.23
7 4 -16 4.82 0.49
-7 -4 -16 4.27 0.37
7 -4 -16 4.46 0.43
-7 4 -16 3.84 0.3
-7 -4 16 4 0.42
7 -4 -16 5.17 0.51
-8 4 16 0.18 0.21
8 4 -16 0.4 0.22
-8 -4 -16 0.34 0.21
-8 4 -16 0.16 0.14
-8 -4 16 0.54 0.25
8 -4 -16 0.27 0.27
9 4 -16 3.88 0.48
-9 -4 -16 3.52 0.37
-9 4 16 2.49 0.38
-9 -4 16 2.85 0.43
9 -4 -16 2.75 0.44
-10 4 16 0.3 0.24
-10 -4 -16 0.6 0.25
10 4 -16 0.11 0.28
10 -4 -16 0.41 0.25
-10 -4 16 0.57 0.29
-11 -4 -16 0.65 0.26
11 4 -16 1.1 0.37
-11 4 16 0.72 0.28
11 -4 -16 0.88 0.34
-11 -4 16 1.48 0.36
0 -5 -16 2.15 0.23
0 5 -16 2.26 0.22
0 5 -16 2 0.21
0 -5 -16 2.21 0.24
1 5 -16 4.71 0.32
-1 -5 -16 4.57 0.31
-1 -5 -16 4.55 0.32
1 5 -16 4.19 0.31
1 -5 -16 5.02 0.33
1 -5 -16 4.77 0.33
-1 5 -16 4.81 0.31
-1 5 -16 4.55 0.28
-2 -5 -16 30.68 1.22
2 5 -16 29.32 1.23
-2 -5 -16 29.68 1.2
2 5 -16 27.48 1.24
2 -5 -16 29.77 1.22
2 -5 -16 28.59 1.27
-2 5 -16 29.77 1.19
3 5 -16 1.23 0.22
-3 -5 -16 1.69 0.22
3 5 -16 1.53 0.24
3 -5 -16 1.13 0.24
3 -5 -16 1.15 0.2
-3 5 -16 1.46 0.19
4 5 -16 0.22 0.18
-4 -5 -16 0.3 0.15
4 5 -16 0.47 0.15
-4 5 -16 0.38 0.13
4 -5 -16 0.06 0.14
4 -5 -16 0.07 0.14
5 5 -16 2.01 0.29
-5 -5 -16 2.02 0.24
5 5 -16 2.39 0.31
5 -5 -16 2.21 0.28
-5 5 -16 2.17 0.23
5 -5 -16 1.99 0.3
6 5 -16 4.91 0.47
-6 -5 -16 4.29 0.33
-6 -5 16 4.52 0.45
6 -5 -16 4.3 0.45
6 -5 -16 4.57 0.39
-6 5 -16 4.51 0.31
-7 -5 -16 3.07 0.33
7 5 -16 3.32 0.43
7 -5 -16 2.92 0.35
-7 5 -16 2.73 0.27
-7 -5 16 3.08 0.39
7 -5 -16 3.51 0.44
-8 -5 -16 2.75 0.31
8 5 -16 3.58 0.43
-8 5 16 2.55 0.37
8 -5 -16 2.94 0.43
-8 -5 16 2.18 0.35
-9 5 16 1.58 0.31
9 5 -16 1.85 0.39
-9 -5 -16 1.51 0.29
-9 -5 16 1.5 0.35
9 -5 -16 1.28 0.35
10 5 -16 0.24 0.3
-10 5 16 0.36 0.23
-10 -5 -16 0.25 0.23
-10 -5 16 0.42 0.28
10 -5 -16 0.25 0.23
-11 5 16 0.65 0.26
-11 -5 -16 0.23 0.23
11 -5 -16 0.04 0.3
0 -6 -16 7.55 0.43
0 -6 -16 7.67 0.45
0 6 -16 8.22 0.43
0 6 -16 8.1 0.43
1 6 -16 2.7 0.23
1 6 -16 3.03 0.28
-1 -6 -16 3.09 0.28
-1 -6 -16 3.04 0.26
-1 6 -16 3.19 0.25
1 -6 -16 2.55 0.29
1 -6 -16 2.86 0.27
-2 -6 -16 1.3 0.19
-2 -6 -16 1.1 0.19
2 6 -16 1.06 0.2
2 6 -16 1.02 0.18
2 -6 -16 0.98 0.21
-2 6 -16 1.15 0.17
2 -6 -16 1.17 0.19
3 6 -16 26.85 1.2
3 6 -16 27.49 1.18
-3 -6 -16 26.96 1.15
3 -6 -16 27.54 1.16
3 -6 -16 25.52 1.21
-3 6 -16 29.2 1.13
4 6 -16 12.27 0.7
-4 -6 -16 13.99 0.66
4 6 -16 13.19 0.7
4 -6 -16 12.78 0.66
4 -6 -16 12.45 0.71
-4 6 -16 14.99 0.64
-5 -6 -16 0.36 0.17
5 6 -16 0.2 0.18
5 6 -16 -0.1 0.18
5 -6 -16 -0.07 0.19
-5 6 -16 -0.09 0.12
5 -6 -16 0.14 0.12
6 6 -16 16.55 0.85
-6 -6 -16 14.59 0.75
-6 6 -16 15.42 0.71
6 -6 -16 15.99 0.88
6 -6 -16 14.94 0.78
-6 -6 16 15.66 0.84
7 6 -16 3.86 0.46
-7 -6 -16 3.98 0.38
-7 -6 16 4.4 0.45
7 -6 -16 3.87 0.44
7 -6 -16 3.63 0.39
8 6 -16 1.45 0.35
-8 -6 -16 1.97 0.31
-8 6 16 1.33 0.3
8 -6 -16 2.38 0.39
-8 -6 16 2.07 0.36
-9 6 16 0.65 0.26
9 6 -16 0.64 0.32
-9 -6 -16 0.91 0.27
-9 -6 16 0.9 0.3
9 -6 -16 1.44 0.35
10 6 -16 0.65 0.33
-10 -6 -16 0.93 0.27
-10 6 16 0.45 0.24
10 -6 -16 0.22 0.23
-10 -6 16 0.85 0.31
0 7 -16 0.06 0.11
0 7 -16 -0.14 0.1
0 -7 -16 -0.02 0.14
0 -7 -16 0.15 0.1
1 7 -16 0.87 0.19
-1 -7 -16 0.95 0.18
1 -7 16 1.13 0.16
-1 -7 -16 1.07 0.19
1 7 -16 0.92 0.17
-1 7 -16 0.79 0.16
1 -7 -16 0.88 0.2
1 -7 -16 1.06 0.18
2 7 -16 5.33 0.37
-2 -7 -16 5.57 0.35
2 7 -16 5.1 0.38
-2 -7 -16 5.89 0.36
-2 7 -16 6.01 0.34
2 -7 -16 5.27 0.34
2 -7 -16 6.31 0.43
-3 -7 -16 3.17 0.28
3 7 -16 3.38 0.33
3 7 -16 3.95 0.35
3 -7 -16 3.7 0.3
3 -7 -16 3.42 0.37
-3 7 -16 4.6 0.29
4 7 -16 1.19 0.25
-4 -7 -16 1.58 0.22
4 7 -16 1.36 0.25
4 -7 -16 1.12 0.26
4 -7 -16 1.43 0.22
-4 7 -16 1.27 0.18
5 7 -16 7.16 0.5
-5 -7 -16 7.97 0.48
5 7 -16 7.37 0.51
5 -7 -16 7.66 0.48
5 -7 -16 7.7 0.53
-5 7 -16 7.42 0.41
6 7 -16 10.16 0.63
-6 -7 -16 8.54 0.51
6 -7 -16 7.95 0.61
-6 -7 16 7.02 0.52
6 -7 -16 8.57 0.53
-7 -7 -16 0.45 0.17
7 7 -16 0.69 0.28
7 -7 -16 1.16 0.31
-7 -7 16 1.03 0.28
7 -7 -16 0.81 0.21
-8 -7 -16 1.38 0.28
8 7 -16 1.56 0.35
-8 7 16 0.72 0.27
8 -7 -16 1.2 0.34
-8 -7 16 1.1 0.31
-9 7 16 1.62 0.31
-9 -7 -16 1.55 0.31
9 7 -16 2.68 0.43
9 -7 -16 2.38 0.43
-9 -7 16 1.95 0.35
10 7 -16 0.3 0.31
-10 -7 -16 0.03 0.23
10 -7 -16 -0.11 0.18
-10 -7 16 0.14 0.26
0 8 -16 6.33 0.37
0 -8 -16 5.99 0.38
0 -8 -16 5.41 0.4
0 8 -16 6.25 0.38
0 -8 16 6.93 0.37
1 8 -16 4.23 0.31
-1 -8 -16 3.89 0.32
-1 -8 -16 4.26 0.32
1 8 -16 4.11 0.31
1 -8 -16 3.89 0.35
1 -8 -16 4.5 0.32
-1 8 -16 4.56 0.31
-2 -8 -16 5.76 0.36
2 8 -16 5.21 0.38
-2 -8 -16 5.74 0.38
2 8 -16 5.79 0.38
-2 8 -16 6.2 0.36
2 -8 -16 5.96 0.37
2 -8 -16 5.4 0.42
-3 -8 -16 5.63 0.35
-3 -8 -16 4.76 0.37
3 8 -16 4.94 0.38
3 8 -16 5.31 0.41
3 -8 -16 5.71 0.44
3 -8 -16 6.05 0.38
-3 8 -16 6.08 0.34
4 8 -16 -0.08 0.16
-4 -8 -16 0.38 0.17
4 8 -16 -0.05 0.15
4 -8 -16 0.24 0.14
4 -8 -16 0.17 0.2
-4 8 -16 0.26 0.14
5 8 -16 8 0.56
-5 -8 -16 7.81 0.46
5 -8 -16 7.44 0.48
-5 -8 16 7.66 0.54
5 -8 -16 8.28 0.59
6 8 -16 2.96 0.4
-6 -8 -16 2.79 0.31
6 -8 -16 2.3 0.3
-6 -8 16 2.7 0.34
6 -8 -16 2.44 0.35
-7 -8 -16 0.82 0.2
7 8 -16 0.64 0.29
7 -8 -16 0.76 0.29
-7 -8 16 0.67 0.27
7 -8 -16 0.57 0.2
-8 -8 -16 0.99 0.26
8 8 -16 0.83 0.32
-8 8 16 0.58 0.25
-8 -8 16 1.15 0.33
8 -8 -16 1.15 0.33
9 8 -16 1.62 0.38
-9 -8 -16 1.2 0.25
-9 -8 16 1.06 0.34
9 -8 -16 1.27 0.36
10 8 -16 0.09 0.29
-10 -8 -16 0.51 0.26
10 -8 -16 0.25 0.3
-10 -8 16 -0.08 0.26
0 9 -16 1.38 0.19
0 9 -16 0.87 0.17
0 -9 -16 1.12 0.19
0 -9 -16 1.03 0.21
0 -9 16 1.53 0.2
1 9 -16 16.44 0.76
1 9 -16 16.85 0.78
-1 -9 -16 15.83 0.78
-1 -9 -16 16.22 0.75
1 -9 -16 16.64 0.76
1 -9 -16 16.01 0.81
-1 9 -16 17.36 0.74
-1 -9 16 18.06 0.79
-2 -9 -16 0.95 0.18
2 9 -16 0.49 0.17
2 9 -16 0.26 0.16
-2 -9 -16 0.85 0.19
2 -9 -16 0.5 0.13
2 -9 -16 0.51 0.17
-2 9 -16 0.43 0.14
3 9 -16 1.57 0.25
-3 -9 -16 1.69 0.24
-3 -9 -16 1.64 0.22
3 9 -16 1.47 0.24
-3 9 -16 1.79 0.21
3 -9 -16 1.71 0.29
3 -9 -16 1.82 0.23
4 9 -16 3.32 0.34
-4 -9 -16 4.41 0.35
4 9 -16 4.11 0.4
4 -9 -16 3.77 0.4
4 -9 -16 3.03 0.32
5 9 -16 1.3 0.29
-5 -9 -16 1.61 0.23
-5 -9 16 1.08 0.26
5 -9 -16 1.61 0.24
5 -9 -16 1.86 0.34
-6 -9 -16 1.41 0.24
6 9 -16 1.53 0.33
6 -9 -16 1.61 0.3
6 -9 -16 1.8 0.28
-6 -9 16 1.62 0.31
-7 -9 -16 0.07 0.15
7 9 -16 0.34 0.26
7 -9 -16 0.45 0.27
7 -9 -16 0.06 0.15
-7 -9 16 -0.01 0.16
-8 -9 -16 -0.26 0.18
8 9 -16 0.55 0.29
8 -9 -16 0.14 0.27
-8 -9 16 -0.03 0.16
9 9 -16 1.84 0.39
-9 -9 -16 1.89 0.3
-9 -9 16 2.43 0.42
9 -9 -16 1.93 0.37
-10 -9 -16 0.43 0.27
10 9 -16 0.05 0.29
-10 -9 16 0.2 0.28
10 -9 -16 0.02 0.29
0 -10 16 0.17 0.14
0 -10 -16 0.21 0.13
0 -10 -16 0 0.11
0 10 -16 0.09 0.14
0 10 -16 0.29 0.14
-1 -10 -16 5.8 0.39
1 10 -16 5.71 0.39
-1 -10 -16 5.6 0.37
1 10 -16 5.21 0.35
-1 -10 16 5.41 0.39
1 -10 -16 5.12 0.41
-1 10 -16 5.87 0.34
1 -10 -16 5.3 0.35
-2 -10 -16 3.74 0.32
2 10 -16 4.38 0.34
-2 -10 -16 4.19 0.33
2 10 -16 3.32 0.32
-2 10 -16 3.92 0.29
-2 -10 16 4.48 0.34
2 -10 -16 3.81 0.3
2 -10 -16 3.93 0.4
3 10 -16 1.9 0.28
-3 -10 -16 2.21 0.25
-3 -10 -16 2.24 0.27
3 10 -16 2.62 0.3
3 -10 -16 2.48 0.34
3 -10 -16 2.43 0.27
-4 -10 -16 3.3 0.32
4 10 -16 2.45 0.33
4 -10 -16 2.82 0.35
-4 -10 16 3.15 0.35
4 -10 -16 2.56 0.29
5 10 -16 0.61 0.24
-5 -10 -16 0.32 0.15
5 -10 -16 0.34 0.16
-5 -10 16 0.7 0.23
5 -10 -16 0.96 0.29
6 10 -16 2.71 0.4
-6 -10 -16 2.87 0.34
6 -10 -16 2.66 0.32
6 -10 -16 2.63 0.41
-6 -10 16 2.85 0.38
-7 -10 -16 0.47 0.19
7 10 -16 0.79 0.3
7 -10 -16 0.81 0.23
7 -10 -16 0.52 0.23
-7 -10 16 0.42 0.27
-8 -10 -16 0.09 0.22
8 10 -16 0.22 0.23
8 -10 -16 -0.09 0.28
-8 -10 16 0.35 0.26
9 10 -16 0.88 0.32
-9 -10 -16 0.42 0.25
-9 -10 16 0.51 0.3
9 -10 -16 0.4 0.32
-10 -10 16 0.26 0.29
10 -10 -16 0.75 0.3
0 -11 -16 4.24 0.32
0 -11 -16 5.04 0.39
0 11 -16 4.7 0.32
0 -11 16 4.54 0.33
0 11 -16 4.84 0.34
-1 -11 -16 4.48 0.35
1 11 -16 4.05 0.31
1 11 -16 3.38 0.3
-1 -11 -16 4.07 0.32
-1 -11 16 3.77 0.31
1 -11 -16 4.51 0.41
1 -11 -16 3.66 0.3
2 11 -16 3.09 0.31
2 11 -16 2.09 0.26
-2 -11 -16 2.86 0.31
-2 -11 -16 2.66 0.28
-2 -11 16 2.67 0.29
2 -11 -16 3.15 0.34
2 -11 -16 2.51 0.26
-3 -11 -16 1.9 0.26
-3 -11 -16 1.62 0.25
3 11 -16 1.46 0.26
3 11 -16 1.89 0.26
3 -11 -16 1.49 0.31
3 -11 -16 1.32 0.22
-3 -11 16 1.91 0.28
4 11 -16 4.14 0.42
-4 -11 -16 4.49 0.37
4 -11 -16 4.6 0.47
4 -11 -16 3.63 0.32
-4 -11 16 3.98 0.39
-4 -11 16 4.19 0.43
5 11 -16 1.33 0.29
-5 -11 -16 1.04 0.21
-5 -11 16 1.17 0.29
5 -11 -16 1.03 0.27
5 -11 -16 0.88 0.21
-5 -11 16 0.76 0.23
6 11 -16 1.86 0.34
-6 -11 -16 1.52 0.27
-6 -11 16 1.4 0.27
6 -11 -16 1.97 0.28
6 -11 -16 1.9 0.36
7 11 -16 0.14 0.25
-7 -11 -16 0.25 0.21
-7 -11 16 0.46 0.25
7 -11 -16 -0.12 0.25
8 11 -16 1.88 0.4
-8 -11 -16 1.59 0.31
-8 -11 16 1.71 0.37
8 -11 -16 2.08 0.38
-9 -11 -16 2.08 0.35
9 11 -16 3.26 0.5
-9 -11 16 2.76 0.45
9 -11 -16 2.94 0.49
-9 -11 16 1.81 0.4
0 12 -16 15.75 0.75
0 -12 -16 15.02 0.74
0 -12 -16 17.28 0.83
0 -12 16 16.44 0.75
1 12 -16 -0.08 0.13
-1 -12 -16 0.44 0.2
-1 -12 -16 0.33 0.15
1 12 -16 -0.05 0.13
-1 -12 16 0.39 0.16
1 -12 -16 0.3 0.14
1 -12 -16 0.3 0.16
2 12 -16 1.66 0.25
-2 -12 -16 2.35 0.29
2 12 -16 2.06 0.26
-2 -12 -16 2.3 0.27
2 -12 -16 2.11 0.25
-2 -12 16 2.1 0.27
2 -12 -16 1.88 0.31
-3 -12 -16 4.53 0.37
-3 -12 -16 4.86 0.37
3 12 -16 4.89 0.41
-3 -12 16 4.72 0.41
3 -12 -16 4.96 0.42
-3 -12 16 4.68 0.38
3 -12 -16 4.75 0.35
4 12 -16 1.31 0.27
-4 -12 -16 1.68 0.26
4 -12 -16 1.49 0.23
-4 -12 16 1.66 0.28
4 -12 -16 1.74 0.34
-4 -12 16 1.3 0.28
5 12 -16 1.07 0.28
-5 -12 -16 1.39 0.26
5 -12 -16 1.32 0.33
-5 -12 16 1.47 0.31
-5 -12 16 1.32 0.27
5 -12 -16 0.96 0.21
-6 -12 -16 0.14 0.2
6 12 -16 -0.23 0.21
6 -12 -16 0.17 0.2
-6 -12 16 -0.11 0.18
-6 -12 16 -0.14 0.21
7 12 -16 2.48 0.42
-7 -12 -16 3.12 0.37
-7 -12 16 2.48 0.41
-7 -12 16 2.75 0.4
7 -12 -16 3.07 0.46
8 12 -16 0.27 0.3
-8 -12 -16 -0.02 0.22
8 -12 -16 0.15 0.3
-8 -12 16 0.3 0.29
-8 -12 16 0.11 0.25
-9 -12 -16 2.57 0.38
9 12 -16 2.56 0.42
-9 -12 16 2.54 0.46
-9 -12 16 2.83 0.46
9 -12 -16 3.75 0.54
0 -13 -16 0.34 0.21
0 -13 -16 0.21 0.14
0 -13 16 0 0.15
-1 -13 -16 5.89 0.46
-1 -13 -16 5.97 0.4
1 13 -16 6.54 0.43
1 -13 -16 6.24 0.39
1 -13 -16 7.07 0.5
-1 -13 16 5.9 0.43
2 13 -16 0.75 0.21
-2 -13 -16 1.24 0.24
-2 -13 -16 1 0.21
-2 -13 16 0.89 0.22
2 -13 -16 1.23 0.2
-2 -13 16 0.88 0.23
2 -13 -16 1.02 0.28
-3 -13 -16 10.18 0.55
-3 -13 -16 9.87 0.58
3 13 -16 9.87 0.6
-3 -13 16 8.99 0.56
3 -13 -16 10.07 0.67
-3 -13 16 11.14 0.62
3 -13 -16 9.62 0.53
4 13 -16 1.88 0.31
-4 -13 -16 2.13 0.27
4 -13 -16 2.05 0.37
-4 -13 16 2.32 0.32
-4 -13 16 2.05 0.3
4 -13 -16 1.83 0.27
5 13 -16 1.25 0.31
-5 -13 -16 1.21 0.26
-5 -13 16 1.46 0.31
5 -13 -16 1.34 0.31
-5 -13 16 1.26 0.27
6 13 -16 0.64 0.29
-6 -13 -16 0.81 0.2
-6 -13 16 1.01 0.31
6 -13 -16 1.35 0.34
-6 -13 16 1.01 0.27
7 13 -16 1 0.34
-7 -13 -16 0.99 0.27
7 -13 -16 1.11 0.35
-7 -13 16 0.59 0.27
-7 -13 16 1.18 0.33
-8 -13 -16 0.72 0.27
8 13 -16 0.47 0.33
-8 -13 16 0.52 0.31
-8 -13 16 0.43 0.28
8 -13 -16 0.67 0.36
-9 -13 16 2.62 0.45
0 -14 -16 1.04 0.19
0 -14 -16 1.13 0.27
1 14 -16 0.93 0.21
-1 -14 -16 1.49 0.28
-1 -14 -16 1.65 0.23
-1 -14 16 1.33 0.23
1 -14 -16 1.65 0.31
1 -14 -16 1.37 0.21
-2 -14 -16 3.69 0.34
2 14 -16 2.47 0.32
-2 -14 -16 2.66 0.34
-2 -14 16 3.35 0.35
2 -14 -16 3.39 0.39
2 -14 -16 3.69 0.3
-3 -14 -16 4.94 0.41
3 14 -16 4.02 0.41
-3 -14 -16 5.23 0.39
3 -14 -16 4.51 0.5
-3 -14 16 4.33 0.41
-3 -14 16 4.3 0.43
4 14 -16 0.18 0.22
-4 -14 -16 0.48 0.21
4 -14 -16 0.29 0.21
-4 -14 16 0.09 0.21
-4 -14 16 0.3 0.19
5 14 -16 0.77 0.28
-5 -14 -16 1.14 0.25
5 -14 -16 0.41 0.27
-5 -14 16 0.97 0.26
-5 -14 16 1.39 0.31
-6 -14 -16 5.09 0.45
6 14 -16 5.51 0.55
-6 -14 16 5 0.5
-6 -14 16 6.51 0.59
6 -14 -16 6.2 0.62
7 14 -16 3.87 0.46
-7 -14 -16 4.54 0.44
-7 -14 16 3.92 0.47
7 -14 -16 4.76 0.58
-7 -14 16 4.2 0.49
-8 -14 -16 0.79 0.28
8 14 -16 0.94 0.3
-8 -14 16 0.73 0.34
8 -14 -16 1.13 0.33
-8 -14 16 0.81 0.29
0 -15 -16 9.88 0.63
0 -15 -16 8.53 0.51
-1 -15 -16 1.22 0.29
-1 -15 -16 1.25 0.23
1 -15 -16 1.2 0.2
1 -15 -16 1.65 0.32
-1 -15 16 1.33 0.24
-2 -15 -16 1.42 0.29
-2 -15 -16 1.72 0.25
2 15 -16 1.76 0.27
2 -15 -16 1.6 0.3
-2 -15 16 1.54 0.27
-3 -15 -16 0.01 0.18
-3 -15 -16 0.28 0.18
3 15 -16 0.1 0.2
3 -15 -16 0.36 0.27
-3 -15 16 0.64 0.23
4 15 -16 0.59 0.25
-4 -15 -16 0.8 0.22
-4 -15 16 1.08 0.26
-4 -15 16 0.57 0.25
4 -15 -16 0.59 0.26
-5 -15 -16 3.58 0.38
5 15 -16 3.8 0.46
5 -15 -16 5.09 0.56
-5 -15 16 3.98 0.42
-5 -15 16 4.19 0.46
6 15 -16 3.4 0.47
-6 -15 -16 2.7 0.35
-6 -15 16 2.7 0.38
6 -15 -16 3.51 0.51
-6 -15 16 2.86 0.42
7 15 -16 1.25 0.35
-7 -15 -16 0.83 0.23
7 -15 -16 1.63 0.4
-7 -15 16 1.58 0.37
-7 -15 16 0.86 0.32
-8 -15 -16 0.68 0.28
8 15 -16 0.16 0.33
8 -15 -16 0.88 0.33
-8 -15 16 0.83 0.32
-8 -15 16 0.65 0.37
0 -16 -16 1.27 0.3
0 -16 -16 1.11 0.2
-1 -16 -16 1.22 0.3
-1 -16 -16 1.14 0.21
1 -16 -16 0.81 0.25
-1 -16 16 1.04 0.23
-2 -16 -16 1.21 0.28
-2 -16 -16 1.2 0.23
2 -16 -16 1.37 0.34
-2 -16 16 0.97 0.25
3 16 -16 1.67 0.31
-3 -16 -16 1.7 0.32
-3 -16 -16 2.25 0.3
-3 -16 16 2.34 0.33
3 -16 -16 2.39 0.4
4 16 -16 1.11 0.26
-4 -16 -16 1.22 0.25
4 -16 -16 1.37 0.35
-4 -16 16 1.26 0.3
5 16 -16 1.5 0.35
-5 -16 -16 1.66 0.29
5 -16 -16 1.64 0.39
-5 -16 16 2.23 0.38
-6 -16 -16 0.02 0.2
6 16 -16 -0.28 0.23
6 -16 -16 0.15 0.31
-6 -16 16 0.25 0.22
-6 -16 16 0.31 0.24
7 16 -16 0.27 0.32
-7 -16 -16 0.42 0.25
-7 -16 16 -0.21 0.22
-7 -16 16 0.15 0.28
7 -16 -16 -0.12 0.29
-8 -16 16 0.15 0.3
0 -17 -16 -0.18 0.23
-1 -17 -16 0.9 0.21
-1 -17 -16 1.33 0.31
-1 -17 16 0.69 0.24
1 -17 -16 1.3 0.34
-2 -17 -16 5.49 0.41
-2 -17 -16 5.45 0.52
-2 -17 16 5.91 0.47
2 -17 -16 5.87 0.58
-3 -17 -16 5.63 0.44
-3 -17 -16 6.61 0.52
3 -17 -16 5.38 0.56
-3 -17 16 5.5 0.48
-4 -17 -16 0.98 0.24
4 17 -16 1.09 0.3
4 -17 -16 1.11 0.34
-4 -17 16 1.68 0.34
5 17 -16 0.09 0.26
-5 -17 -16 0.06 0.21
-5 -17 16 0.19 0.25
5 -17 -16 0.08 0.21
-6 -17 -16 0.54 0.24
6 17 -16 0.26 0.29
-6 -17 16 0.51 0.31
6 -17 -16 0.37 0.31
-7 -17 -16 1.22 0.3
-7 -17 16 0.94 0.33
0 -18 -16 1.76 0.36
-1 -18 -16 0.55 0.26
-1 -18 16 0.26 0.2
1 -18 -16 0.22 0.27
-2 -18 -16 3.64 0.45
2 -18 -16 3.54 0.46
-2 -18 16 3.47 0.4
-3 -18 -16 1.09 0.25
-3 -18 -16 1 0.3
-3 -18 16 1.25 0.29
3 -18 -16 1.18 0.37
-4 -18 -16 0.19 0.2
-4 -18 16 0.53 0.27
4 -18 -16 0.59 0.32
-5 -18 -16 1.72 0.3
5 18 -16 2.18 0.38
5 -18 -16 1.41 0.4
-5 -18 16 1.76 0.38
-6 -18 -16 0.1 0.22
6 18 -16 0.51 0.31
-6 -18 16 0.75 0.32
0 -19 -16 2.8 0.43
-1 -19 -16 0.71 0.25
1 -19 -16 0.87 0.34
-2 -19 -16 0.35 0.27
-2 -19 16 0.31 0.22
2 -19 -16 -0.08 0.26
-3 -19 -16 1.71 0.35
-3 -19 16 0.81 0.29
3 -19 -16 0.63 0.33
-4 -19 -16 2.5 0.34
4 -19 -16 2.15 0.45
-4 -19 16 1.85 0.36
-5 -19 -16 0.52 0.24
-5 -19 16 0.49 0.31
-6 -19 -16 1.63 0.32
0 -20 -16 0.09 0.27
-1 -20 -16 2.54 0.42
1 -20 -16 3.18 0.49
-2 -20 -16 0.06 0.26
2 -20 -16 0.35 0.31
-2 -20 16 0.37 0.28
-3 -20 -16 0.14 0.26
-3 -20 16 0.18 0.25
3 -20 -16 0.49 0.31
-4 -20 -16 0.38 0.3
-4 -20 16 -0.03 0.27
0 -21 -16 0.15 0.28
-1 -21 -16 0.07 0.25
1 -21 -16 0.2 0.31
-2 -21 -16 1.08 0.33
-2 -21 16 0.77 0.27
-3 -21 -16 2.14 0.4
-3 -21 16 2.01 0.37
0 0 -17 -0.13 0.1
0 0 -17 -0.07 0.12
1 0 -17 0.22 0.14
-1 0 -17 0.59 0.14
1 0 -17 0.35 0.12
-1 0 -17 0.5 0.15
2 0 -17 26.98 1.17
2 0 -17 27.65 1.15
-2 0 -17 26.4 1.13
3 0 -17 11.29 0.62
3 0 -17 10.78 0.57
-3 0 -17 11.24 0.57
4 0 -17 0.17 0.19
-4 0 -17 0.53 0.16
4 0 -17 0.23 0.14
5 0 -17 2.64 0.34
5 0 -17 2.17 0.31
-5 0 -17 2.1 0.25
-6 0 -17 0.99 0.2
6 0 -17 1.11 0.23
6 0 -17 1.4 0.27
7 0 -17 3.58 0.42
7 0 -17 3.71 0.45
-7 0 -17 3.95 0.33
-8 0 -17 1.32 0.23
8 0 -17 1.64 0.36
-8 0 17 0.8 0.28
9 0 -17 2.51 0.43
-9 0 17 1.62 0.33
-9 0 -17 1.71 0.27
-10 0 -17 0.01 0.17
10 0 -17 0.16 0.27
-10 0 17 -0.04 0.25
-11 0 17 0.28 0.26
-11 0 -17 -0.14 0.19
0 -1 -17 11 0.55
0 -1 -17 11.6 0.57
0 1 -17 11.5 0.57
0 1 -17 11.75 0.56
1 1 -17 4.88 0.35
1 1 -17 5.03 0.35
-1 -1 -17 5.64 0.36
-1 -1 -17 6.11 0.34
1 -1 -17 5.18 0.36
1 -1 -17 6.1 0.37
-1 1 -17 4.89 0.34
-1 1 -17 5.77 0.33
2 1 -17 27.2 1.14
-2 -1 -17 26.3 1.11
2 1 -17 26.47 1.15
2 -1 -17 25.73 1.12
2 -1 -17 26.79 1.16
-2 1 -17 27 1.12
3 1 -17 2.88 0.31
-3 -1 -17 2.41 0.26
3 1 -17 2.77 0.3
3 -1 -17 2.85 0.3
-3 1 -17 3.14 0.27
3 -1 -17 2.91 0.32
4 1 -17 15.1 0.77
-4 -1 -17 14.64 0.72
4 1 -17 15.43 0.79
-4 1 -17 14.88 0.71
4 -1 -17 17.01 0.78
4 -1 -17 15.26 0.78
5 1 -17 0.63 0.21
-5 -1 -17 0.8 0.19
5 1 -17 0.74 0.25
-5 1 -17 1.08 0.19
5 -1 -17 1.19 0.22
5 -1 -17 1.01 0.23
6 1 -17 4.25 0.37
6 1 -17 3.83 0.43
-6 -1 -17 3.6 0.31
-6 1 -17 3.43 0.3
6 -1 -17 4.27 0.44
6 -1 -17 3.88 0.41
7 1 -17 3.43 0.41
7 1 -17 2.74 0.37
-7 -1 -17 2.33 0.28
7 -1 -17 3.32 0.4
-7 1 -17 2.31 0.25
7 -1 -17 3.48 0.43
8 1 -17 1.17 0.29
-8 -1 -17 1.55 0.26
-8 1 17 1.58 0.32
-8 -1 17 1.45 0.31
8 -1 -17 1.17 0.32
-8 1 -17 1.33 0.22
9 1 -17 1.46 0.36
-9 -1 -17 1.41 0.26
-9 1 17 1.28 0.28
-9 -1 17 1.4 0.33
-9 1 -17 1.77 0.26
9 -1 -17 2.06 0.4
10 1 -17 4.2 0.53
-10 -1 -17 3.01 0.35
-10 1 17 3.44 0.45
-10 1 -17 3.34 0.35
-10 -1 17 2.91 0.45
10 -1 -17 4.51 0.53
-11 1 17 1.72 0.36
-11 -1 -17 0.98 0.27
-11 -1 17 1.21 0.33
0 2 -17 12.54 0.64
0 -2 -17 14.12 0.65
0 2 -17 14.08 0.64
0 -2 -17 13.81 0.65
1 2 -17 23.79 1.01
1 2 -17 22.42 1.01
-1 -2 -17 24.5 1
-1 -2 -17 23.98 1.01
-1 2 -17 23.43 0.99
1 -2 -17 23.49 1.03
-1 2 -17 23.95 1
1 -2 -17 23.32 1.01
2 2 -17 18.33 0.83
2 2 -17 17.56 0.85
-2 -2 -17 18.75 0.83
2 -2 -17 17.92 0.86
-2 2 -17 19.35 0.82
2 -2 -17 18.62 0.84
3 2 -17 2.61 0.29
-3 -2 -17 2.57 0.28
3 2 -17 3.25 0.33
3 -2 -17 3.19 0.27
-3 2 -17 3.11 0.25
3 -2 -17 3.05 0.33
4 2 -17 8.71 0.54
-4 -2 -17 8.55 0.47
4 2 -17 8.2 0.5
-4 2 -17 8.7 0.47
4 -2 -17 8.91 0.56
4 -2 -17 8.62 0.52
5 2 -17 0.57 0.18
-5 -2 -17 0.52 0.17
5 2 -17 0.49 0.19
5 -2 -17 0.59 0.2
-5 2 -17 1.06 0.17
5 -2 -17 0.63 0.23
-6 -2 -17 0.5 0.15
6 2 -17 0.61 0.25
6 2 -17 0.49 0.22
-6 2 -17 0.55 0.17
6 -2 -17 0.59 0.18
6 -2 -17 0.21 0.23
7 2 -17 0.99 0.25
-7 -2 -17 0.75 0.21
-7 -2 17 0.77 0.25
7 -2 -17 1.06 0.31
-7 2 -17 0.62 0.18
7 -2 -17 1 0.26
-8 -2 -17 0.33 0.19
-8 2 17 0.43 0.24
8 2 -17 0.78 0.31
8 -2 -17 0.16 0.25
-8 2 -17 0.56 0.17
-8 -2 17 0.61 0.26
-9 -2 -17 1.05 0.21
-9 2 17 0.83 0.28
9 2 -17 1 0.33
9 -2 -17 1.05 0.27
-9 2 -17 0.58 0.19
-9 -2 17 0.03 0.25
-10 -2 -17 1.75 0.28
10 2 -17 1.87 0.37
-10 2 17 1.68 0.35
-10 -2 17 1.9 0.35
10 -2 -17 1.61 0.39
-10 2 -17 1.19 0.25
-11 2 17 1.47 0.35
-11 -2 -17 1.58 0.3
-11 -2 17 2.03 0.41
0 3 -17 6.97 0.41
0 -3 -17 7.09 0.41
0 3 -17 6.93 0.39
0 -3 -17 7.43 0.42
1 3 -17 39.41 1.6
1 3 -17 39.73 1.59
-1 -3 -17 40.55 1.59
-1 -3 -17 38.57 1.58
1 -3 -17 39.91 1.63
1 -3 -17 39.23 1.59
-1 3 -17 40.2 1.58
2 3 -17 2.38 0.27
2 3 -17 2.75 0.27
-2 -3 -17 2.64 0.27
2 -3 -17 2.83 0.29
2 -3 -17 2.47 0.29
-2 3 -17 3.01 0.26
3 3 -17 9.34 0.53
3 3 -17 9.88 0.56
-3 -3 -17 9.81 0.53
-3 3 -17 10.6 0.52
3 -3 -17 9.51 0.56
3 -3 -17 10.01 0.53
4 3 -17 1.15 0.24
4 3 -17 1.3 0.24
-4 -3 -17 1.2 0.19
4 -3 -17 1.04 0.22
-4 3 -17 1.41 0.2
4 -3 -17 1.02 0.24
5 3 -17 8.31 0.55
5 3 -17 8.36 0.57
-5 -3 -17 8.25 0.48
-5 3 -17 8.55 0.46
5 -3 -17 8.52 0.58
5 -3 -17 8.79 0.53
6 3 -17 2.7 0.35
-6 -3 -17 2.56 0.27
6 3 -17 2.66 0.38
-6 3 -17 2.41 0.26
6 -3 -17 2.05 0.29
6 -3 -17 2.58 0.38
-7 -3 -17 5.54 0.4
7 3 -17 5.37 0.54
-7 3 -17 4.69 0.34
7 -3 -17 4.69 0.49
-7 -3 17 5.04 0.5
7 -3 -17 5.34 0.42
-8 3 17 0.28 0.22
-8 -3 -17 -0.07 0.18
8 3 -17 0.34 0.28
-8 3 -17 0.37 0.17
8 -3 -17 0.81 0.29
-8 -3 17 0.33 0.23
-9 -3 -17 1.59 0.28
9 3 -17 1.64 0.38
-9 3 17 1.73 0.34
9 -3 -17 2.14 0.41
-9 3 -17 1.72 0.24
-9 -3 17 1.69 0.35
-10 3 17 0.87 0.28
-10 -3 -17 0.36 0.24
10 3 -17 1.15 0.35
-10 -3 17 0.54 0.29
10 -3 -17 0.83 0.33
-11 3 17 1.82 0.37
-11 -3 -17 1.41 0.3
0 -4 -17 6.1 0.39
0 4 -17 6.2 0.38
0 -4 -17 6.38 0.38
0 4 -17 7.23 0.39
-1 -4 -17 16.03 0.7
1 4 -17 14.5 0.68
-1 -4 -17 14.07 0.68
1 4 -17 14.87 0.69
-1 4 -17 13.89 0.67
1 -4 -17 14.55 0.72
1 -4 -17 14.87 0.7
-2 -4 -17 3.31 0.28
2 4 -17 2.5 0.29
2 4 -17 3.06 0.29
-2 4 -17 2.62 0.23
2 -4 -17 2.6 0.28
2 -4 -17 2.86 0.31
3 4 -17 7.62 0.49
3 4 -17 7.41 0.45
-3 -4 -17 7.66 0.45
-3 4 -17 7.99 0.44
3 -4 -17 7.9 0.51
3 -4 -17 7.94 0.47
4 4 -17 10.75 0.62
4 4 -17 10.74 0.63
-4 -4 -17 11.34 0.57
-4 4 -17 11.84 0.56
4 -4 -17 11.89 0.62
4 -4 -17 10.2 0.64
5 4 -17 1.62 0.28
5 4 -17 1.5 0.25
-5 -4 -17 1.47 0.23
5 -4 -17 1.52 0.27
5 -4 -17 1.54 0.24
-5 4 -17 1.43 0.21
-6 -4 -17 3.12 0.31
6 4 -17 2.63 0.36
6 4 -17 2.73 0.38
6 -4 -17 2.82 0.34
6 -4 -17 2.54 0.37
-6 4 -17 2.49 0.26
-7 -4 -17 3.34 0.34
7 4 -17 3.53 0.43
-7 4 -17 2.69 0.27
7 -4 -17 2.66 0.41
-7 -4 17 2.42 0.37
7 -4 -17 2.51 0.34
8 4 -17 1.79 0.36
-8 -4 -17 1.49 0.24
-8 4 17 1.52 0.29
8 -4 -17 1.46 0.34
-8 -4 17 1.39 0.31
-8 4 -17 1.17 0.21
-9 -4 -17 1.64 0.29
9 4 -17 1.31 0.31
-9 4 17 2.02 0.35
9 -4 -17 2.17 0.41
-9 -4 17 1.57 0.36
-10 4 17 0.33 0.25
10 4 -17 0.88 0.35
-10 -4 -17 0.44 0.23
-10 -4 17 0.91 0.33
10 -4 -17 1.06 0.35
-11 4 17 0.03 0.22
-11 -4 -17 0.18 0.24
0 5 -17 4.69 0.31
0 -5 -17 4.5 0.33
0 -5 -17 4.14 0.3
0 5 -17 4.2 0.31
-1 -5 -17 6.66 0.38
1 5 -17 5.85 0.38
1 5 -17 6.28 0.39
-1 -5 -17 6.45 0.38
-1 5 -17 6.32 0.37
1 -5 -17 5.7 0.4
1 -5 -17 5.96 0.38
-2 -5 -17 7.03 0.39
-2 -5 -17 7.22 0.42
2 5 -17 6.86 0.42
2 5 -17 6.53 0.42
-2 5 -17 6.94 0.39
2 -5 -17 5.94 0.4
2 -5 -17 5.71 0.43
3 5 -17 1.29 0.21
3 5 -17 1.8 0.26
-3 -5 -17 1.43 0.22
3 -5 -17 1.64 0.22
-3 5 -17 1.5 0.2
3 -5 -17 1.65 0.27
-4 -5 -17 1.54 0.23
4 5 -17 1.36 0.25
4 5 -17 1.61 0.26
4 -5 -17 1.79 0.26
-4 5 -17 1.37 0.2
4 -5 -17 1.84 0.3
5 5 -17 3.54 0.38
5 5 -17 3.77 0.4
-5 -5 -17 3.65 0.34
5 -5 -17 3.42 0.41
-5 5 -17 3.47 0.28
5 -5 -17 3.23 0.35
6 5 -17 0.72 0.24
-6 -5 -17 0.54 0.2
6 5 -17 0.41 0.23
6 -5 -17 0.85 0.27
-6 5 -17 0.51 0.15
6 -5 -17 0.63 0.21
7 5 -17 2.07 0.37
-7 -5 -17 2.43 0.31
-7 5 -17 2.35 0.24
-7 -5 17 2.08 0.35
7 -5 -17 2.11 0.37
7 -5 -17 2.23 0.32
-8 5 17 2.06 0.34
8 5 -17 2.66 0.39
-8 -5 -17 1.7 0.28
8 -5 -17 2.15 0.39
-8 -5 17 2.44 0.39
9 5 -17 0.54 0.32
-9 5 17 0.53 0.24
-9 -5 -17 0.38 0.23
-9 -5 17 0.41 0.28
9 -5 -17 0.58 0.31
-10 5 17 1.51 0.34
10 5 -17 1.49 0.41
-10 -5 -17 1.51 0.3
-10 -5 17 1.21 0.34
10 -5 -17 1.81 0.4
-11 5 17 0.27 0.24
0 6 -17 0.1 0.12
0 -6 -17 0.39 0.15
0 -6 -17 0.15 0.14
0 6 -17 0.25 0.14
-1 -6 -17 2.42 0.26
-1 -6 -17 1.88 0.23
1 6 -17 1.99 0.24
1 6 -17 1.83 0.23
-1 6 -17 2.05 0.23
1 -6 -17 2.71 0.29
1 -6 -17 2.1 0.24
2 6 -17 8.35 0.48
2 6 -17 8.4 0.49
-2 -6 -17 9.13 0.49
-2 -6 -17 8.99 0.46
2 -6 -17 7.87 0.47
2 -6 -17 7.21 0.5
-2 6 -17 8.5 0.45
3 6 -17 10.49 0.58
3 6 -17 10.77 0.59
-3 -6 -17 9.69 0.53
3 -6 -17 10.24 0.61
3 -6 -17 9.96 0.55
-3 6 -17 10.66 0.53
4 6 -17 3.82 0.39
4 6 -17 3.92 0.38
-4 -6 -17 3.62 0.34
4 -6 -17 3.75 0.31
-4 6 -17 4.24 0.3
4 -6 -17 4.44 0.43
5 6 -17 1.25 0.28
-5 -6 -17 1.38 0.21
5 6 -17 1.66 0.28
5 -6 -17 1.84 0.32
5 -6 -17 1.78 0.26
-5 6 -17 1.65 0.21
6 6 -17 4.15 0.43
-6 -6 -17 4.14 0.36
-6 -6 17 4.09 0.45
6 -6 -17 4.3 0.48
-6 6 -17 3.43 0.29
6 -6 -17 4.2 0.41
-7 -6 -17 5.21 0.42
7 6 -17 3.91 0.48
7 -6 -17 4.96 0.51
7 -6 -17 4.59 0.45
-7 -6 17 5.53 0.45
8 6 -17 0.21 0.27
-8 -6 -17 0.57 0.22
-8 6 17 0.65 0.25
8 -6 -17 0.12 0.21
-8 -6 17 0.32 0.25
-9 -6 -17 1.77 0.31
9 6 -17 2.11 0.41
-9 6 17 2.19 0.36
-9 -6 17 2.02 0.38
9 -6 -17 1.57 0.39
-10 6 17 0.6 0.25
10 6 -17 0.31 0.3
-10 -6 -17 0.26 0.19
-10 -6 17 0.61 0.31
10 -6 -17 0.42 0.32
0 7 -17 2.68 0.25
0 -7 -17 2.14 0.26
0 -7 -17 2.73 0.27
0 7 -17 2.87 0.26
-1 -7 -17 17.31 0.85
-1 -7 -17 19 0.85
1 7 -17 18.11 0.84
1 7 -17 19.22 0.86
1 -7 -17 19.61 0.9
1 -7 -17 19.49 0.85
-1 7 -17 19.76 0.83
-2 -7 -17 19.66 0.85
-2 -7 -17 19.13 0.83
2 7 -17 16.93 0.83
2 7 -17 18.89 0.86
-2 7 -17 18.21 0.8
2 -7 -17 16.62 0.86
2 -7 -17 18.61 0.84
3 7 -17 0.46 0.18
3 7 -17 0.17 0.17
-3 -7 -17 0.48 0.17
3 -7 -17 0.27 0.15
3 -7 -17 0.31 0.15
-3 7 -17 0.38 0.15
4 7 -17 1.33 0.27
-4 -7 -17 2 0.26
4 7 -17 1.98 0.28
4 -7 -17 1.69 0.25
-4 7 -17 1.86 0.23
4 -7 -17 2.23 0.33
-5 -7 -17 1.54 0.25
5 7 -17 1.88 0.3
5 7 -17 2.14 0.32
-5 7 -17 1.81 0.22
5 -7 -17 2.12 0.35
5 -7 -17 1.94 0.27
6 7 -17 1.3 0.31
-6 -7 -17 1.31 0.25
6 -7 -17 1.52 0.26
6 -7 -17 1.55 0.34
-6 -7 17 1.31 0.3
7 7 -17 1.61 0.35
-7 -7 -17 1.41 0.28
-7 -7 17 1.98 0.34
7 -7 -17 1.56 0.35
7 -7 -17 1.66 0.29
8 7 -17 1.23 0.34
-8 7 17 0.96 0.26
-8 -7 -17 1.07 0.27
8 -7 -17 1.7 0.32
-8 -7 17 1.79 0.36
-9 7 17 0.96 0.26
-9 -7 -17 0.53 0.25
9 7 -17 0.82 0.33
9 -7 -17 0.63 0.33
-9 -7 17 0.46 0.23
10 7 -17 2.83 0.47
-10 -7 -17 1.96 0.34
10 -7 -17 1.53 0.41
-10 -7 17 1.73 0.35
0 -8 17 2.04 0.23
0 -8 -17 2.45 0.24
0 8 -17 1.79 0.23
0 8 -17 2.55 0.25
0 -8 -17 2.36 0.28
-1 -8 -17 4.57 0.32
1 8 -17 4.34 0.33
1 8 -17 5.58 0.35
-1 -8 -17 4.23 0.33
1 -8 -17 4.85 0.34
-1 8 -17 4.3 0.31
1 -8 -17 5.13 0.39
-2 -8 -17 -0.12 0.13
2 8 -17 0 0.14
2 8 -17 0.03 0.14
-2 -8 -17 0.22 0.14
2 -8 -17 0.17 0.13
2 -8 -17 0.04 0.16
-2 8 -17 -0.09 0.11
3 8 -17 0.01 0.16
-3 -8 -17 0.2 0.13
3 8 -17 0.24 0.16
3 -8 -17 -0.02 0.09
3 -8 -17 0.12 0.18
-3 8 -17 0.15 0.13
4 8 -17 4.02 0.39
-4 -8 -17 3.47 0.3
4 8 -17 4.13 0.39
-4 8 -17 4.06 0.29
4 -8 -17 4.46 0.44
4 -8 -17 3.4 0.3
5 8 -17 2.74 0.37
-5 -8 -17 2.84 0.32
5 -8 -17 2.77 0.36
5 -8 -17 3.03 0.33
-5 -8 17 2.98 0.37
-6 -8 -17 5.4 0.44
6 8 -17 6.87 0.55
6 -8 -17 6.41 0.6
-6 -8 17 6.01 0.47
6 -8 -17 5.58 0.44
7 8 -17 1.81 0.36
-7 -8 -17 1.6 0.29
7 -8 -17 1.3 0.34
7 -8 -17 2.05 0.31
-7 -8 17 2.25 0.38
-8 -8 -17 0.84 0.26
8 8 -17 0.25 0.3
-8 -8 17 0.55 0.28
8 -8 -17 0.79 0.31
-9 -8 -17 1.12 0.29
9 8 -17 1.92 0.42
9 -8 -17 0.77 0.35
-9 -8 17 2.14 0.41
-10 -8 -17 -0.03 0.23
10 8 -17 -0.2 0.29
-10 -8 17 -0.04 0.26
10 -8 -17 -0.07 0.21
0 -9 -17 3.55 0.34
0 9 -17 3.22 0.28
0 9 -17 3.07 0.28
0 -9 -17 3.07 0.3
0 -9 17 2.93 0.27
-1 -9 -17 0.16 0.15
1 9 -17 0.46 0.15
1 9 -17 0.36 0.15
-1 -9 -17 0.25 0.15
1 -9 -17 0.19 0.17
-1 -9 17 0.2 0.14
-1 9 -17 0.21 0.13
1 -9 -17 0.23 0.12
-2 -9 -17 3.79 0.32
2 9 -17 3.48 0.33
-2 -9 -17 3.64 0.32
2 9 -17 3.59 0.33
2 -9 -17 3.34 0.29
-2 9 -17 3.68 0.27
2 -9 -17 2.77 0.34
3 9 -17 1.91 0.28
3 9 -17 1.84 0.26
-3 -9 -17 2.06 0.26
3 -9 -17 2.14 0.26
3 -9 -17 2.86 0.35
-3 9 -17 2.65 0.27
4 9 -17 0.28 0.21
-4 -9 -17 0.04 0.17
4 9 -17 0.44 0.19
4 -9 -17 0.2 0.21
4 -9 -17 0.09 0.14
5 9 -17 2.79 0.37
-5 -9 -17 2.33 0.3
5 -9 -17 2.49 0.35
5 -9 -17 2.05 0.28
-5 -9 17 1.95 0.32
-6 -9 -17 0.59 0.22
6 9 -17 0.25 0.26
6 -9 -17 0.73 0.29
-6 -9 17 0.43 0.24
6 -9 -17 0.53 0.19
7 9 -17 1.08 0.33
-7 -9 -17 1.02 0.26
-7 -9 17 0.71 0.23
7 -9 -17 1.12 0.25
7 -9 -17 0.94 0.28
-8 -9 -17 3 0.38
8 9 -17 3.4 0.48
8 -9 -17 4.09 0.53
-8 -9 17 3.28 0.43
9 9 -17 2.17 0.39
-9 -9 -17 2.03 0.34
-9 -9 17 1.31 0.36
9 -9 -17 1.94 0.42
0 -10 -17 0.78 0.18
0 -10 -17 0.85 0.21
0 -10 17 0.77 0.16
0 10 -17 0.93 0.17
1 10 -17 2.97 0.29
1 10 -17 2.89 0.29
-1 -10 -17 2.95 0.3
-1 -10 -17 3.43 0.33
-1 -10 17 2.81 0.29
-1 10 -17 2.85 0.27
1 -10 -17 3.25 0.35
1 -10 -17 3.61 0.29
2 10 -17 0.56 0.19
-2 -10 -17 0.89 0.2
-2 -10 -17 0.99 0.22
2 10 -17 0.61 0.19
2 -10 -17 0.83 0.21
-2 -10 17 0.82 0.2
2 -10 -17 1.03 0.19
3 10 -17 2.54 0.31
3 10 -17 2.82 0.33
-3 -10 -17 3.09 0.32
3 -10 -17 2.82 0.3
3 -10 -17 2.56 0.36
-4 -10 -17 4.15 0.37
4 10 -17 3.82 0.38
-4 -10 17 3.26 0.37
4 -10 -17 3.78 0.44
4 -10 -17 3.24 0.33
5 10 -17 0.51 0.2
-5 -10 -17 0.17 0.19
5 -10 -17 0.5 0.18
-5 -10 17 0.12 0.2
5 -10 -17 0.52 0.27
-6 -10 -17 2.51 0.33
6 10 -17 2.15 0.37
6 -10 -17 2.38 0.41
6 -10 -17 2.45 0.32
-6 -10 17 2.37 0.35
-7 -10 -17 1.19 0.27
7 10 -17 1.01 0.33
7 -10 -17 0.88 0.24
-7 -10 17 1.19 0.31
7 -10 -17 0.86 0.32
8 10 -17 0.67 0.27
-8 -10 -17 0.71 0.26
8 -10 -17 0.65 0.32
-8 -10 17 0.13 0.28
9 10 -17 1.07 0.37
-9 -10 -17 1.12 0.29
-9 -10 17 0.82 0.34
9 -10 -17 1.22 0.39
0 11 -17 2.98 0.29
0 -11 -17 3.38 0.36
0 -11 -17 3.2 0.3
-1 -11 -17 0.76 0.19
-1 -11 -17 1.15 0.23
1 11 -17 0.71 0.18
1 11 -17 0.83 0.18
-1 -11 17 0.68 0.18
1 -11 -17 0.81 0.18
1 -11 -17 0.72 0.19
-2 -11 -17 0.09 0.15
2 11 -17 -0.03 0.13
-2 -11 -17 0.04 0.17
2 11 -17 0.05 0.15
2 -11 -17 0.26 0.14
2 -11 -17 -0.16 0.18
-2 -11 17 0 0.15
3 11 -17 4.06 0.35
-3 -11 -17 3.88 0.36
3 11 -17 4.24 0.4
3 -11 -17 4.25 0.45
-3 -11 17 3.7 0.37
3 -11 -17 3.99 0.32
4 11 -17 2.54 0.34
-4 -11 -17 2.58 0.31
4 -11 -17 2.14 0.34
4 -11 -17 2.45 0.29
-4 -11 17 2.02 0.32
-4 -11 17 2.69 0.34
5 11 -17 3.05 0.39
-5 -11 -17 2.59 0.32
5 -11 -17 3.11 0.44
-5 -11 17 2.89 0.38
-5 -11 17 2.55 0.35
5 -11 -17 2.24 0.29
-6 -11 -17 2.42 0.32
6 11 -17 2.87 0.4
6 -11 -17 2.34 0.31
-6 -11 17 3.15 0.39
6 -11 -17 2.32 0.39
7 11 -17 0.14 0.28
-7 -11 -17 0.07 0.22
-7 -11 17 0.46 0.27
7 -11 -17 0.33 0.3
8 11 -17 -0.06 0.26
-8 -11 -17 0.39 0.23
8 -11 -17 -0.04 0.26
-8 -11 17 0.51 0.3
-9 -11 -17 0.02 0.23
9 11 -17 0.56 0.33
-9 -11 17 0.32 0.29
-9 -11 17 0.38 0.3
9 -11 -17 0.3 0.32
0 -12 -17 0.11 0.19
0 -12 -17 -0.19 0.12
-1 -12 -17 0.94 0.23
1 12 -17 0.56 0.19
-1 -12 -17 0.89 0.2
1 12 -17 0.54 0.18
-1 -12 17 0.67 0.19
1 -12 -17 1.15 0.19
1 -12 -17 0.8 0.25
-2 -12 -17 1 0.22
-2 -12 -17 0.73 0.21
2 12 -17 0.55 0.19
2 12 -17 0.9 0.2
2 -12 -17 1.33 0.21
2 -12 -17 0.83 0.26
-2 -12 17 1.52 0.24
-3 -12 -17 0.24 0.17
3 12 -17 0.21 0.19
-3 -12 -17 0.58 0.21
3 -12 -17 0.32 0.19
-3 -12 17 0.12 0.19
3 -12 -17 0.24 0.15
-3 -12 17 0.07 0.17
-4 -12 -17 6.4 0.42
4 12 -17 6.22 0.5
-4 -12 17 6.16 0.47
4 -12 -17 7.5 0.58
4 -12 -17 5.88 0.42
-4 -12 17 6.12 0.5
-5 -12 -17 0.34 0.21
5 12 -17 0.32 0.24
5 -12 -17 0.25 0.22
-5 -12 17 0.26 0.23
5 -12 -17 0.42 0.19
-5 -12 17 0.22 0.2
-6 -12 -17 0.63 0.2
6 12 -17 0.53 0.28
-6 -12 17 0.75 0.29
6 -12 -17 0.86 0.34
-6 -12 17 0.68 0.26
-7 -12 -17 0.32 0.23
7 12 -17 -0.01 0.27
-7 -12 17 0.63 0.26
-7 -12 17 0.7 0.3
7 -12 -17 0.74 0.29
-8 -12 -17 1.94 0.34
8 12 -17 1.77 0.41
-8 -12 17 1.51 0.35
8 -12 -17 2.1 0.45
-8 -12 17 1.37 0.37
-9 -12 17 0.53 0.33
0 -13 -17 7.64 0.53
0 -13 -17 7.21 0.44
-1 -13 -17 0.25 0.16
1 13 -17 0.29 0.16
-1 -13 -17 0.21 0.19
1 -13 -17 0.47 0.19
1 -13 -17 0.67 0.17
-1 -13 17 0.21 0.16
-2 -13 -17 0.56 0.2
2 13 -17 0.38 0.19
-2 -13 -17 0.49 0.2
2 -13 -17 0.76 0.18
2 -13 -17 0.44 0.24
-2 -13 17 0.55 0.2
-2 -13 17 0.55 0.2
-3 -13 -17 0.67 0.21
-3 -13 -17 1.31 0.25
3 13 -17 1.39 0.27
3 -13 -17 1.2 0.21
-3 -13 17 1.03 0.23
-3 -13 17 0.75 0.23
3 -13 -17 0.51 0.28
4 13 -17 4.41 0.44
-4 -13 -17 4.32 0.4
4 -13 -17 3.27 0.42
4 -13 -17 4.03 0.37
-4 -13 17 4 0.42
-4 -13 17 3.22 0.36
5 13 -17 0.23 0.25
-5 -13 -17 0.26 0.16
-5 -13 17 0.87 0.24
-5 -13 17 -0.19 0.22
5 -13 -17 0.66 0.29
6 13 -17 0.62 0.29
-6 -13 -17 0.65 0.24
-6 -13 17 0.28 0.27
-6 -13 17 0.15 0.22
6 -13 -17 0.3 0.29
-7 -13 -17 0 0.22
7 13 -17 -0.1 0.19
-7 -13 17 0.04 0.2
7 -13 -17 0.42 0.3
-7 -13 17 0.43 0.26
8 13 -17 0.83 0.3
-8 -13 -17 0.87 0.28
-8 -13 17 1.1 0.33
8 -13 -17 1.22 0.41
-8 -13 17 1.4 0.33
0 -14 -17 1.5 0.24
0 -14 -17 1.27 0.28
1 14 -17 1.99 0.27
-1 -14 -17 2.4 0.34
-1 -14 -17 2.36 0.27
1 -14 -17 2.21 0.35
1 -14 -17 2.47 0.28
-1 -14 17 2.18 0.28
2 14 -17 -0.06 0.17
-2 -14 -17 0.01 0.16
-2 -14 -17 0.22 0.2
2 -14 -17 0.32 0.24
2 -14 -17 0.22 0.16
-2 -14 17 0.43 0.19
-3 -14 -17 1.52 0.26
-3 -14 -17 0.74 0.22
3 14 -17 1.83 0.31
3 -14 -17 1.42 0.35
-3 -14 17 1.42 0.27
-3 -14 17 0.87 0.21
-4 -14 -17 0.85 0.23
4 14 -17 0.86 0.27
-4 -14 17 0.42 0.24
4 -14 -17 0.46 0.28
-4 -14 17 0.55 0.23
-5 -14 -17 0.92 0.25
5 14 -17 0.97 0.29
5 -14 -17 0.84 0.31
-5 -14 17 0.93 0.25
-5 -14 17 0.54 0.27
6 14 -17 0.65 0.29
-6 -14 -17 0.83 0.25
-6 -14 17 0.49 0.29
6 -14 -17 0.58 0.26
-6 -14 17 0.41 0.24
7 14 -17 2.54 0.43
-7 -14 -17 2.03 0.34
7 -14 -17 2.7 0.48
-7 -14 17 3.1 0.46
-7 -14 17 2.85 0.41
8 14 -17 0.08 0.3
-8 -14 -17 0.31 0.2
-8 -14 17 0.22 0.32
-8 -14 17 0.04 0.25
0 -15 -17 0.44 0.16
0 -15 -17 0.28 0.23
-1 -15 -17 0.31 0.17
-1 -15 -17 0.31 0.23
1 -15 -17 0.52 0.16
-1 -15 17 0.37 0.19
1 -15 -17 0.21 0.19
-2 -15 -17 4.54 0.44
2 15 -17 3.41 0.38
-2 -15 -17 4.05 0.37
2 -15 -17 4.44 0.5
-2 -15 17 3.52 0.4
-3 -15 -17 2.68 0.32
-3 -15 -17 1.99 0.32
3 15 -17 2.17 0.33
-3 -15 17 2.48 0.33
3 -15 -17 3.2 0.44
4 15 -17 3.02 0.39
-4 -15 -17 3.67 0.37
-4 -15 17 2.8 0.38
-4 -15 17 2.3 0.38
4 -15 -17 3.48 0.47
5 15 -17 0.88 0.3
-5 -15 -17 0.85 0.21
-5 -15 17 0.56 0.27
-5 -15 17 0.37 0.25
5 -15 -17 0.63 0.3
-6 -15 -17 1.38 0.29
6 15 -17 1.39 0.34
6 -15 -17 1.38 0.38
-6 -15 17 1.08 0.28
-6 -15 17 1 0.3
7 15 -17 0.06 0.27
-7 -15 -17 0.12 0.23
-7 -15 17 -0.01 0.24
7 -15 -17 0.46 0.33
-7 -15 17 0.33 0.32
-8 -15 17 0.01 0.26
0 -16 -17 -0.06 0.23
0 -16 -17 0.23 0.17
-1 -16 -17 0.45 0.24
-1 -16 -17 0.72 0.19
1 -16 -17 0.7 0.29
-2 -16 -17 2.7 0.32
-2 -16 -17 2.38 0.36
2 -16 -17 3.28 0.45
-2 -16 17 2.5 0.34
-3 -16 -17 3.69 0.37
3 16 -17 3.39 0.4
-3 -16 -17 3.11 0.39
-3 -16 17 3.32 0.4
3 -16 -17 4.01 0.5
-4 -16 -17 0.7 0.23
4 16 -17 0.93 0.3
-4 -16 17 0.77 0.27
4 -16 -17 0.33 0.28
5 16 -17 0.04 0.18
-5 -16 -17 0.3 0.21
-5 -16 17 -0.27 0.22
5 -16 -17 -0.11 0.26
-6 -16 -17 2.33 0.33
6 16 -17 2.14 0.4
-6 -16 17 2.73 0.43
-6 -16 17 2.48 0.39
6 -16 -17 2.49 0.46
-7 -16 -17 0.41 0.25
7 16 -17 0.19 0.32
-7 -16 17 0.24 0.24
-7 -16 17 0.26 0.28
0 -17 -17 1.79 0.36
-1 -17 -17 4.34 0.49
-1 -17 -17 4.51 0.39
1 -17 -17 5.41 0.55
-2 -17 -17 0.67 0.26
-2 -17 -17 0.33 0.21
2 -17 -17 0.47 0.3
-2 -17 17 0.48 0.23
-3 -17 -17 1.12 0.28
3 17 -17 0.36 0.24
-3 -17 -17 0.75 0.23
-3 -17 17 0.88 0.27
3 -17 -17 1.45 0.36
4 17 -17 0.92 0.3
-4 -17 -17 1.06 0.25
-4 -17 17 0.79 0.29
4 -17 -17 1.23 0.37
-5 -17 -17 0.58 0.23
5 17 -17 0.19 0.28
5 -17 -17 0.75 0.34
-5 -17 17 0.39 0.28
-6 -17 -17 0.76 0.26
6 17 -17 0.23 0.3
6 -17 -17 0.24 0.23
-6 -17 17 0.42 0.31
0 -18 -17 7.08 0.61
-1 -18 -17 5.18 0.54
1 -18 -17 5.04 0.52
-2 -18 -17 1 0.28
2 -18 -17 0.72 0.27
-2 -18 17 0.61 0.24
-3 -18 -17 0.55 0.28
-3 -18 -17 0.14 0.2
-3 -18 17 0.66 0.27
3 -18 -17 0.2 0.28
-4 -18 -17 0.09 0.2
-4 -18 17 0.36 0.26
4 -18 -17 -0.14 0.26
5 18 -17 0.13 0.28
-5 -18 -17 0.34 0.23
-5 -18 17 -0.06 0.26
5 -18 -17 0.47 0.31
-6 -18 -17 0.07 0.21
0 -19 -17 0.62 0.31
-1 -19 -17 3.27 0.46
1 -19 -17 3.5 0.48
-2 -19 -17 3.1 0.43
2 -19 -17 3.95 0.52
-2 -19 17 3.08 0.4
-3 -19 -17 0.41 0.25
-3 -19 17 -0.02 0.24
3 -19 -17 0.13 0.28
-4 -19 -17 0.64 0.25
-4 -19 17 1.23 0.32
4 -19 -17 0.51 0.27
-5 -19 -17 0.28 0.24
-5 -19 17 0.38 0.28
0 -20 -17 0.27 0.28
-1 -20 -17 0.79 0.32
1 -20 -17 0.62 0.31
-2 -20 -17 1.34 0.34
2 -20 -17 1.65 0.39
-3 -20 -17 0.7 0.31
-3 -20 17 1.08 0.3
-4 -20 17 0.17 0.26
0 -21 -17 0.05 0.29
-1 -21 -17 -0.23 0.25
-2 -21 -17 1.39 0.37
-3 -21 -17 0.68 0.33
-3 -21 17 0.24 0.27
0 0 -18 16.68 0.78
0 0 -18 17.31 0.77
1 0 -18 11.43 0.59
1 0 -18 11.96 0.6
-1 0 -18 11.46 0.57
2 0 -18 22.72 1.04
-2 0 -18 23.27 1.01
2 0 -18 24.22 1.03
3 0 -18 10.62 0.57
3 0 -18 10.1 0.6
-3 0 -18 10.98 0.56
-4 0 -18 0.19 0.11
4 0 -18 -0.04 0.12
4 0 -18 -0.06 0.17
5 0 -18 8.06 0.52
5 0 -18 7.22 0.51
-5 0 -18 7.23 0.44
6 0 -18 0.04 0.22
6 0 -18 0.25 0.21
-6 0 -18 0.07 0.15
7 0 -18 0.41 0.26
7 0 -18 0.57 0.24
-7 0 -18 0 0.16
-8 0 -18 0.28 0.18
8 0 -18 0.24 0.19
-8 0 18 -0.05 0.16
9 0 -18 0.16 0.26
-9 0 -18 0.01 0.18
-9 0 18 -0.14 0.22
-10 0 18 0.05 0.25
-10 0 -18 0.11 0.19
10 0 -18 0.02 0.28
-11 0 -18 1.97 0.31
0 1 -18 0.26 0.12
0 1 -18 0.34 0.15
0 -1 -18 0.2 0.11
0 -1 -18 0.27 0.15
-1 -1 -18 3.66 0.28
1 1 -18 3.67 0.29
1 1 -18 3.18 0.31
-1 -1 -18 3.84 0.3
1 -1 -18 3.64 0.3
1 -1 -18 3.22 0.31
-1 1 -18 3.32 0.29
2 1 -18 0.3 0.16
2 1 -18 0.31 0.16
-2 -1 -18 0.26 0.12
2 -1 -18 0.27 0.15
2 -1 -18 0.4 0.17
-2 1 -18 0.61 0.17
3 1 -18 6.86 0.44
-3 -1 -18 5.96 0.38
3 1 -18 6.92 0.45
3 -1 -18 6.71 0.44
-3 1 -18 6.47 0.39
3 -1 -18 6.64 0.46
-4 -1 -18 4.31 0.34
4 1 -18 4.36 0.36
4 1 -18 3.62 0.38
-4 1 -18 4.82 0.34
4 -1 -18 3.67 0.39
4 -1 -18 4.61 0.38
-5 -1 -18 8.27 0.48
5 1 -18 8.77 0.53
5 1 -18 8.65 0.58
5 -1 -18 8.73 0.55
5 -1 -18 8.25 0.55
-5 1 -18 8.01 0.47
6 1 -18 3.74 0.44
-6 -1 -18 3.49 0.33
6 1 -18 4.32 0.44
6 -1 -18 3.86 0.42
6 -1 -18 3.51 0.41
-6 1 -18 3.64 0.32
7 1 -18 2 0.34
7 1 -18 1.71 0.35
-7 -1 -18 1.12 0.2
-7 1 -18 0.83 0.2
7 -1 -18 1.4 0.3
7 -1 -18 1.31 0.29
-8 -1 -18 1.85 0.27
8 1 -18 1.93 0.38
-8 1 18 2.25 0.37
-8 -1 18 1.96 0.35
8 -1 -18 2.78 0.42
-8 1 -18 2.48 0.29
-9 -1 -18 0.16 0.2
-9 1 18 0.5 0.26
9 1 -18 0.28 0.29
-9 -1 18 0.52 0.27
-9 1 -18 0.57 0.19
9 -1 -18 0.7 0.3
-10 -1 -18 -0.23 0.19
-10 1 18 0.33 0.26
10 1 -18 0.05 0.28
-10 -1 18 0.19 0.26
-10 1 -18 0.5 0.2
10 -1 -18 0.16 0.29
-11 -1 -18 1.22 0.29
0 2 -18 -0.02 0.13
0 2 -18 -0.15 0.12
0 -2 -18 -0.07 0.12
0 -2 -18 0.06 0.14
1 2 -18 8.89 0.5
1 2 -18 9.13 0.5
-1 -2 -18 9.91 0.5
-1 -2 -18 9.88 0.49
-1 2 -18 9.27 0.5
1 -2 -18 8.81 0.5
1 -2 -18 9.18 0.53
-2 -2 -18 7.99 0.44
2 2 -18 6.61 0.44
2 2 -18 7.31 0.44
-2 2 -18 6.73 0.4
2 -2 -18 7.4 0.46
2 -2 -18 6.98 0.42
3 2 -18 1.3 0.21
-3 -2 -18 1.06 0.2
3 2 -18 1.22 0.24
-3 2 -18 1 0.17
3 -2 -18 1.55 0.26
3 -2 -18 1.04 0.21
-4 -2 -18 2.3 0.27
4 2 -18 1.73 0.28
4 2 -18 2.09 0.29
4 -2 -18 2.23 0.32
4 -2 -18 2.36 0.3
-4 2 -18 2.35 0.25
-5 -2 -18 5.76 0.4
5 2 -18 5.52 0.48
5 2 -18 6.3 0.47
5 -2 -18 5.5 0.48
-5 2 -18 6.01 0.39
5 -2 -18 6.96 0.47
-6 -2 -18 0.35 0.18
6 2 -18 0.55 0.22
6 2 -18 0.5 0.25
6 -2 -18 0.51 0.22
6 -2 -18 0.68 0.23
-6 2 -18 0.47 0.17
7 2 -18 0.97 0.31
7 2 -18 0.23 0.18
-7 -2 -18 0.75 0.18
-7 2 -18 0.56 0.18
7 -2 -18 0.55 0.21
7 -2 -18 0.48 0.29
8 2 -18 2.94 0.45
-8 2 18 2.62 0.39
-8 -2 -18 3.13 0.32
8 -2 -18 3.77 0.45
-8 -2 18 2.89 0.42
-8 2 -18 2.88 0.3
-9 2 18 3.9 0.47
-9 -2 -18 4.53 0.42
9 2 -18 5.29 0.55
9 -2 -18 4.31 0.53
-9 -2 18 3.99 0.5
-9 2 -18 4.29 0.35
-10 2 18 0.71 0.29
-10 -2 -18 0.02 0.2
10 2 -18 0.69 0.33
-10 -2 18 0.32 0.28
10 -2 -18 0.45 0.31
-11 -2 -18 0.19 0.26
0 -3 -18 0.09 0.13
0 -3 -18 0.06 0.13
0 3 -18 0.02 0.13
0 3 -18 0.12 0.12
1 3 -18 4.18 0.31
-1 -3 -18 4.34 0.32
1 3 -18 3.59 0.31
-1 -3 -18 3.63 0.28
-1 3 -18 4.16 0.31
1 -3 -18 4.17 0.33
1 -3 -18 4.25 0.33
2 3 -18 9.84 0.55
-2 -3 -18 11.52 0.57
2 3 -18 10.08 0.57
2 -3 -18 10.8 0.57
2 -3 -18 10.73 0.6
-2 3 -18 10.96 0.55
3 3 -18 4.14 0.37
-3 -3 -18 5 0.36
3 3 -18 5.39 0.4
3 -3 -18 4.96 0.41
-3 3 -18 4.74 0.32
3 -3 -18 5.45 0.38
4 3 -18 3.42 0.37
-4 -3 -18 3.34 0.32
4 3 -18 3.23 0.35
4 -3 -18 3.29 0.34
-4 3 -18 3.07 0.29
4 -3 -18 2.68 0.35
5 3 -18 4.8 0.47
-5 -3 -18 5.53 0.39
5 3 -18 5.68 0.42
5 -3 -18 6.25 0.45
-5 3 -18 4.92 0.35
5 -3 -18 4.63 0.42
6 3 -18 0.61 0.2
6 3 -18 0.32 0.19
-6 -3 -18 0.39 0.19
6 -3 -18 0.64 0.23
-6 3 -18 0.35 0.16
6 -3 -18 0.22 0.24
7 3 -18 0.28 0.26
-7 -3 -18 0 0.16
-7 3 -18 0.29 0.16
7 -3 -18 -0.15 0.16
-7 -3 18 -0.06 0.15
7 -3 -18 0.12 0.2
-8 3 18 0.28 0.24
-8 -3 -18 0.39 0.21
8 3 -18 0.9 0.32
8 -3 -18 0.8 0.3
-8 -3 18 0.47 0.2
-8 3 -18 0.56 0.18
-9 -3 -18 0.1 0.2
-9 3 18 0.55 0.25
9 3 -18 0.73 0.31
-9 -3 18 0.49 0.27
9 -3 -18 0.47 0.3
-9 3 -18 0.43 0.19
10 3 -18 4.26 0.54
-10 -3 -18 3.98 0.42
-10 3 18 4.18 0.5
10 -3 -18 2.98 0.49
-10 -3 18 3.07 0.45
0 4 -18 13.16 0.61
0 -4 -18 11.67 0.62
0 4 -18 12.47 0.62
0 -4 -18 12.93 0.63
1 4 -18 8.17 0.47
-1 -4 -18 8.61 0.47
-1 -4 -18 7.48 0.46
1 4 -18 7.93 0.47
1 -4 -18 8.73 0.51
1 -4 -18 8.98 0.49
-1 4 -18 8.52 0.46
2 4 -18 10.74 0.57
-2 -4 -18 11.56 0.58
2 4 -18 10.62 0.59
2 -4 -18 11.29 0.62
-2 4 -18 11.53 0.57
2 -4 -18 11.14 0.59
3 4 -18 2.76 0.31
-3 -4 -18 2.57 0.28
3 4 -18 2.12 0.28
3 -4 -18 2.76 0.3
-3 4 -18 2.6 0.26
3 -4 -18 2.42 0.32
4 4 -18 7.18 0.48
-4 -4 -18 6.95 0.44
4 4 -18 6.53 0.48
4 -4 -18 6.33 0.45
4 -4 -18 6.72 0.51
-4 4 -18 6.87 0.41
-5 -4 -18 2.04 0.27
5 4 -18 2.76 0.35
5 4 -18 2.21 0.33
5 -4 -18 2.07 0.34
-5 4 -18 1.92 0.24
5 -4 -18 2.59 0.32
6 4 -18 1.6 0.31
6 4 -18 1.84 0.31
-6 -4 -18 1.92 0.27
-6 4 -18 1.7 0.23
6 -4 -18 2.66 0.39
6 -4 -18 1.76 0.3
7 4 -18 3.53 0.45
-7 -4 -18 3.37 0.35
7 -4 -18 4.01 0.43
-7 4 -18 3.35 0.31
-7 -4 18 3.24 0.42
7 -4 -18 3.32 0.45
-8 4 18 0.02 0.21
8 4 -18 -0.27 0.24
-8 -4 -18 0.01 0.19
-8 4 -18 -0.11 0.13
8 -4 -18 -0.3 0.24
-8 -4 18 0.16 0.17
-9 -4 -18 2.88 0.36
9 4 -18 2.35 0.43
-9 4 18 2.18 0.37
9 -4 -18 3.36 0.48
-9 -4 18 2.57 0.42
10 4 -18 0.39 0.25
-10 -4 -18 0.85 0.26
-10 4 18 0.49 0.28
-10 -4 18 0.72 0.3
10 -4 -18 0.63 0.27
-11 4 18 1.15 0.33
0 5 -18 18.46 0.83
0 5 -18 18.95 0.83
0 -5 -18 18.36 0.85
0 -5 -18 18.58 0.85
-1 -5 -18 3.96 0.3
1 5 -18 3.24 0.29
-1 -5 -18 3.79 0.31
1 5 -18 3.85 0.31
-1 5 -18 3.94 0.3
1 -5 -18 4.25 0.32
1 -5 -18 3.8 0.33
2 5 -18 1.29 0.22
2 5 -18 1.39 0.22
-2 -5 -18 1.47 0.23
2 -5 -18 1.5 0.26
2 -5 -18 1.49 0.23
-2 5 -18 1.79 0.22
-3 -5 -18 9.26 0.5
3 5 -18 8.59 0.51
3 5 -18 7.84 0.51
3 -5 -18 7.71 0.53
-3 5 -18 8.24 0.46
3 -5 -18 8.73 0.51
4 5 -18 9.6 0.61
-4 -5 -18 11.14 0.58
4 5 -18 9.49 0.57
4 -5 -18 10.1 0.64
-4 5 -18 10.76 0.54
4 -5 -18 10.85 0.6
5 5 -18 1.75 0.3
-5 -5 -18 2.14 0.26
5 5 -18 2.2 0.32
-5 5 -18 1.91 0.23
5 -5 -18 1.94 0.34
5 -5 -18 2.03 0.28
-6 -5 -18 2.28 0.3
6 5 -18 2.29 0.33
6 5 -18 2.11 0.36
6 -5 -18 2.55 0.34
6 -5 -18 2.15 0.37
-6 5 -18 2.35 0.27
-7 -5 -18 0.5 0.21
7 5 -18 0.83 0.25
7 -5 -18 0.98 0.26
-7 -5 18 1.01 0.29
-7 5 -18 0.56 0.19
7 -5 -18 1.51 0.35
8 5 -18 0.79 0.33
-8 -5 -18 1.38 0.25
8 -5 -18 1.75 0.31
8 -5 -18 1.76 0.33
-8 -5 18 1.3 0.33
-9 5 18 0.07 0.21
-9 -5 -18 0.23 0.22
9 5 -18 0.5 0.31
-9 -5 18 0.1 0.25
9 -5 -18 0.44 0.24
10 5 -18 -0.87 0.23
-10 -5 -18 0.56 0.25
-10 5 18 -0.05 0.21
-10 -5 18 0.06 0.23
10 -5 -18 0.2 0.31
-11 5 18 0.68 0.31
0 6 -18 9.64 0.5
0 -6 -18 9.17 0.52
0 -6 -18 8.99 0.51
1 6 -18 -0.05 0.12
-1 -6 -18 0.36 0.14
-1 -6 -18 0.05 0.11
1 6 -18 0.07 0.11
1 -6 -18 0.19 0.16
1 -6 -18 0.08 0.14
-1 6 -18 0.26 0.14
2 6 -18 12.99 0.67
2 6 -18 12.52 0.67
-2 -6 -18 14.21 0.67
-2 6 -18 12.94 0.64
2 -6 -18 13.84 0.66
2 -6 -18 13.72 0.71
3 6 -18 1.18 0.23
3 6 -18 1.24 0.24
-3 -6 -18 1.35 0.2
3 -6 -18 1.07 0.26
-3 6 -18 1.19 0.2
3 -6 -18 1.48 0.23
4 6 -18 9.79 0.59
-4 -6 -18 10.05 0.55
4 6 -18 9.55 0.57
4 -6 -18 9.78 0.56
-4 6 -18 11.25 0.54
4 -6 -18 10.56 0.65
5 6 -18 2.78 0.34
5 6 -18 2.69 0.33
-5 -6 -18 2.29 0.29
5 -6 -18 2.61 0.32
-5 6 -18 1.97 0.24
5 -6 -18 2.5 0.35
-6 -6 -18 0.6 0.21
6 6 -18 0.35 0.25
6 -6 -18 0.51 0.23
-6 -6 18 0.63 0.26
6 -6 -18 0.63 0.21
-6 6 -18 0.5 0.16
-7 -6 -18 3.36 0.37
7 6 -18 2.67 0.38
7 -6 -18 2.74 0.4
-7 -6 18 3.79 0.44
7 -6 -18 2.93 0.37
-8 -6 -18 -0.31 0.19
8 6 -18 -0.06 0.2
8 -6 -18 0.1 0.18
-8 -6 18 -0.11 0.22
8 -6 -18 0.21 0.22
9 6 -18 0.32 0.31
-9 -6 -18 0.95 0.27
-9 6 18 0.29 0.23
-9 -6 18 0.53 0.29
9 -6 -18 0.09 0.22
10 6 -18 0.38 0.32
-10 -6 -18 0.4 0.25
-10 6 18 0.35 0.24
10 -6 -18 0.09 0.3
-10 -6 18 0.5 0.25
0 -7 -18 5.6 0.4
0 7 -18 6.22 0.38
0 -7 -18 5.97 0.37
1 7 -18 2.4 0.26
1 7 -18 2.29 0.26
-1 -7 -18 2.24 0.26
-1 -7 -18 1.97 0.25
1 -7 -18 2.24 0.28
-1 7 -18 1.87 0.23
1 -7 -18 2.49 0.26
2 7 -18 1.41 0.23
-2 -7 -18 1.36 0.22
2 7 -18 1.58 0.23
2 -7 -18 1.34 0.23
2 -7 -18 1.37 0.22
-2 7 -18 1.3 0.2
3 7 -18 6.38 0.42
-3 -7 -18 6.17 0.43
3 7 -18 7.35 0.47
3 -7 -18 6.26 0.41
3 -7 -18 6.37 0.48
-3 7 -18 7.35 0.41
4 7 -18 7.44 0.48
-4 -7 -18 8.32 0.49
4 7 -18 7.39 0.52
4 -7 -18 7.01 0.48
-4 7 -18 7.43 0.43
4 -7 -18 7.58 0.55
5 7 -18 0.38 0.2
5 7 -18 0.34 0.23
-5 -7 -18 0.42 0.19
5 -7 -18 0.29 0.25
-5 7 -18 0.21 0.16
5 -7 -18 0.18 0.14
-6 -7 -18 0.68 0.22
6 7 -18 0.4 0.27
-6 -7 18 0.87 0.28
6 -7 -18 0.59 0.28
6 -7 -18 0.64 0.22
7 7 -18 0.54 0.24
-7 -7 -18 0.68 0.2
7 -7 -18 0.45 0.21
7 -7 -18 0.24 0.27
-7 -7 18 0.15 0.21
-8 -7 -18 1.42 0.3
8 7 -18 1.18 0.34
8 -7 -18 1.06 0.29
8 -7 -18 0.92 0.25
-8 -7 18 0.8 0.25
-9 -7 -18 0.27 0.18
-9 7 18 0.17 0.21
9 7 -18 0.5 0.32
-9 -7 18 -0.19 0.24
9 -7 -18 0.54 0.3
0 -8 -18 0.72 0.18
0 8 -18 0.37 0.17
0 -8 -18 0.68 0.2
-1 -8 -18 5.02 0.35
-1 -8 -18 3.75 0.33
1 8 -18 4.74 0.35
1 8 -18 4.53 0.34
-1 8 -18 4.29 0.32
1 -8 -18 4.42 0.34
1 -8 -18 4.48 0.38
2 8 -18 2.04 0.26
2 8 -18 1.74 0.25
-2 -8 -18 1.6 0.23
-2 -8 -18 1.81 0.25
2 -8 -18 2.06 0.29
2 -8 -18 1.97 0.25
-2 8 -18 1.95 0.23
3 8 -18 12.45 0.71
-3 -8 -18 15.07 0.71
3 8 -18 13.53 0.71
3 -8 -18 12.58 0.75
3 -8 -18 13.81 0.69
-3 8 -18 14.11 0.65
-4 -8 -18 7.58 0.49
4 8 -18 8 0.53
4 8 -18 8.26 0.55
4 -8 -18 7.65 0.5
4 -8 -18 8.64 0.59
-4 8 -18 8.13 0.47
5 8 -18 1.66 0.29
5 8 -18 1.44 0.3
-5 -8 -18 1.49 0.26
5 -8 -18 1.6 0.26
5 -8 -18 1.78 0.34
-6 -8 -18 0.62 0.19
6 8 -18 1.24 0.31
-6 -8 18 1.56 0.31
6 -8 -18 1 0.23
6 -8 -18 1.39 0.34
7 8 -18 2.65 0.42
-7 -8 -18 2.37 0.32
-7 -8 18 2.15 0.38
7 -8 -18 1.97 0.36
7 -8 -18 2.07 0.32
-8 -8 -18 0.49 0.25
8 8 -18 0.8 0.34
8 -8 -18 1.16 0.27
8 -8 -18 0.88 0.34
-8 -8 18 0.95 0.32
-9 -8 -18 1.74 0.33
9 8 -18 1.3 0.38
9 -8 -18 1.77 0.42
-9 -8 18 1.59 0.38
0 -9 -18 2.25 0.29
0 9 -18 2.33 0.27
0 -9 -18 2.27 0.27
1 9 -18 5.21 0.36
1 9 -18 4.24 0.34
-1 -9 -18 5.29 0.37
-1 -9 -18 4.76 0.36
-1 9 -18 5.12 0.35
1 -9 -18 4.82 0.4
-1 -9 18 5.02 0.36
1 -9 -18 4.99 0.36
2 9 -18 5.07 0.38
-2 -9 -18 4.89 0.37
-2 -9 -18 5.5 0.39
2 9 -18 5.01 0.36
2 -9 -18 5.37 0.38
-2 9 -18 5.62 0.37
2 -9 -18 5.8 0.45
-3 -9 -18 0.89 0.19
3 9 -18 0.93 0.22
3 9 -18 0.9 0.23
3 -9 -18 1.08 0.21
3 -9 -18 0.38 0.22
4 9 -18 1.12 0.25
4 9 -18 1.36 0.27
-4 -9 -18 0.72 0.19
4 -9 -18 0.66 0.26
4 -9 -18 1.2 0.22
-5 -9 -18 0.54 0.21
5 9 -18 0.46 0.25
5 -9 -18 0.65 0.28
-5 -9 18 0.21 0.22
5 -9 -18 0.96 0.22
6 9 -18 0.77 0.28
-6 -9 -18 1.1 0.22
-6 -9 18 1.33 0.26
6 -9 -18 1.21 0.34
6 -9 -18 1.46 0.27
7 9 -18 1.69 0.36
-7 -9 -18 1.98 0.31
-7 -9 18 1.98 0.36
7 -9 -18 1.81 0.3
7 -9 -18 1.82 0.35
8 9 -18 2.76 0.44
-8 -9 -18 1.88 0.3
-8 -9 18 2.79 0.41
8 -9 -18 1.95 0.32
8 -9 -18 2.7 0.48
-9 -9 -18 0.02 0.23
9 9 -18 0.27 0.24
9 -9 -18 -0.46 0.26
-9 -9 18 0.61 0.3
0 -10 -18 0.76 0.21
0 10 -18 0.72 0.17
0 -10 -18 1.29 0.21
1 10 -18 0.91 0.2
-1 -10 -18 0.98 0.21
-1 -10 -18 1.44 0.23
1 10 -18 0.96 0.21
-1 10 -18 0.86 0.18
-1 -10 18 1.4 0.22
1 -10 -18 1.25 0.21
1 -10 -18 1.24 0.25
-2 -10 -18 1.32 0.24
-2 -10 -18 1.33 0.23
2 10 -18 1.47 0.25
2 10 -18 1.46 0.24
-2 -10 18 1.3 0.24
2 -10 -18 1.2 0.27
2 -10 -18 1.22 0.22
-3 -10 -18 2.63 0.31
3 10 -18 2.28 0.29
3 10 -18 2.69 0.32
3 -10 -18 2.87 0.3
3 -10 -18 2.22 0.34
-4 -10 -18 4.36 0.35
4 10 -18 4.24 0.38
4 10 -18 4.44 0.42
4 -10 -18 4.69 0.49
4 -10 -18 3.94 0.38
-5 -10 -18 5.57 0.43
5 10 -18 4.91 0.43
5 -10 -18 5.1 0.4
5 -10 -18 5.28 0.54
-5 -10 18 4.52 0.46
-6 -10 -18 1.28 0.24
6 10 -18 1.17 0.32
6 -10 -18 0.67 0.26
-6 -10 18 0.88 0.24
6 -10 -18 1.07 0.26
7 10 -18 4.18 0.5
-7 -10 -18 3.07 0.38
7 -10 -18 2.74 0.45
-7 -10 18 3.57 0.45
7 -10 -18 3.38 0.38
8 10 -18 0.55 0.26
-8 -10 -18 0.61 0.22
8 -10 -18 0.37 0.31
-8 -10 18 0.8 0.32
-9 -10 -18 0.32 0.25
9 10 -18 -0.53 0.27
9 -10 -18 0.02 0.3
-9 -10 18 -0.08 0.28
0 11 -18 2.49 0.26
0 -11 -18 2.05 0.26
0 -11 -18 2.29 0.31
-1 -11 -18 4.36 0.4
1 11 -18 4.04 0.35
1 11 -18 3.51 0.34
-1 -11 -18 4.48 0.35
1 -11 -18 4.11 0.41
-1 -11 18 4.15 0.34
1 -11 -18 3.53 0.32
-2 -11 -18 2.37 0.29
-2 -11 -18 1.93 0.27
2 11 -18 2.24 0.28
2 11 -18 2.34 0.29
2 -11 -18 2.76 0.29
2 -11 -18 2.75 0.37
-2 -11 18 2.26 0.29
3 11 -18 1.68 0.28
-3 -11 -18 2.22 0.29
3 11 -18 1.85 0.27
3 -11 -18 1.92 0.33
-3 -11 18 1.29 0.28
3 -11 -18 2.04 0.26
-4 -11 -18 5.35 0.39
4 11 -18 4.88 0.47
4 -11 -18 5.21 0.53
4 -11 -18 5.3 0.4
-4 -11 18 5.44 0.46
-4 -11 18 5.44 0.44
-5 -11 -18 0.87 0.24
5 11 -18 0.9 0.28
5 -11 -18 0.48 0.24
-5 -11 18 0.55 0.23
-5 -11 18 0.6 0.26
5 -11 -18 0.66 0.2
-6 -11 -18 1.15 0.24
6 11 -18 0.66 0.28
6 -11 -18 1.42 0.26
-6 -11 18 1.17 0.26
6 -11 -18 1.93 0.39
-7 -11 -18 1.94 0.32
7 11 -18 2.25 0.41
7 -11 -18 1.95 0.41
-7 -11 18 2.07 0.37
8 11 -18 0.01 0.29
-8 -11 -18 0.03 0.23
-8 -11 18 0.25 0.27
8 -11 -18 0.52 0.32
0 -12 -18 0.14 0.15
0 -12 -18 0.28 0.2
-1 -12 -18 1.15 0.22
-1 -12 -18 0.77 0.23
1 12 -18 0.72 0.19
1 -12 -18 1.28 0.22
-1 -12 18 1.01 0.21
1 -12 -18 1.58 0.3
-2 -12 -18 5.99 0.42
2 12 -18 4.81 0.41
-2 -12 -18 5.02 0.41
2 12 -18 5.21 0.39
2 -12 -18 5.63 0.48
-2 -12 18 5.98 0.44
2 -12 -18 4.65 0.36
3 12 -18 1.96 0.3
-3 -12 -18 2.24 0.28
3 -12 -18 1.69 0.31
3 -12 -18 2.06 0.28
-3 -12 18 1.97 0.29
-3 -12 18 2.11 0.31
4 12 -18 0.6 0.24
-4 -12 -18 0.56 0.22
4 -12 -18 0.76 0.29
-4 -12 18 0.03 0.18
-4 -12 18 0.2 0.22
4 -12 -18 0.53 0.18
-5 -12 -18 0.52 0.18
5 12 -18 0.43 0.26
-5 -12 18 0.65 0.25
5 -12 -18 0.74 0.2
-5 -12 18 0.54 0.25
5 -12 -18 0.61 0.3
6 12 -18 0.45 0.27
-6 -12 -18 0.23 0.21
6 -12 -18 0.09 0.22
-6 -12 18 0.43 0.25
-6 -12 18 0.25 0.26
7 12 -18 1.05 0.34
-7 -12 -18 0.86 0.26
7 -12 -18 1.56 0.4
-7 -12 18 0.89 0.32
-7 -12 18 0.92 0.31
-8 -12 -18 2.4 0.38
8 12 -18 2.94 0.48
-8 -12 18 3.25 0.47
-8 -12 18 2.48 0.42
8 -12 -18 3.27 0.53
0 -13 -18 1.68 0.24
0 -13 -18 0.97 0.26
-1 -13 -18 4.41 0.35
-1 -13 -18 3.89 0.41
1 -13 -18 3.84 0.43
1 -13 -18 3.88 0.32
-1 -13 18 3.8 0.38
-2 -13 -18 1.18 0.25
2 13 -18 0.98 0.21
2 13 -18 0.87 0.23
-2 -13 -18 1.75 0.26
2 -13 -18 1.13 0.29
2 -13 -18 1.33 0.22
-2 -13 18 1.83 0.27
-3 -13 -18 1.15 0.24
3 13 -18 0.99 0.25
-3 -13 18 0.95 0.24
-3 -13 18 0.61 0.22
3 -13 -18 1.16 0.22
3 -13 -18 1.03 0.31
-4 -13 -18 0.3 0.21
4 13 -18 0.25 0.22
4 -13 -18 0.08 0.17
-4 -13 18 0.1 0.19
-4 -13 18 0.51 0.23
4 -13 -18 0.08 0.26
5 13 -18 1.03 0.29
-5 -13 -18 1.23 0.27
-5 -13 18 1.06 0.29
-5 -13 18 0.6 0.24
5 -13 -18 0.63 0.3
-6 -13 -18 2.38 0.35
6 13 -18 2.84 0.42
6 -13 -18 2.89 0.47
-6 -13 18 2.33 0.4
-6 -13 18 2.05 0.36
7 13 -18 2.71 0.41
-7 -13 -18 2.66 0.37
7 -13 -18 2.42 0.42
-7 -13 18 2.91 0.44
-7 -13 18 2.19 0.38
8 13 -18 0.58 0.28
-8 -13 -18 0.79 0.3
-8 -13 18 0.88 0.35
-8 -13 18 0.69 0.3
0 -14 -18 0.59 0.25
0 -14 -18 0.36 0.16
-1 -14 -18 3.15 0.33
-1 -14 -18 3.8 0.41
1 -14 -18 3.39 0.42
1 -14 -18 2.93 0.31
-2 -14 -18 0.66 0.23
2 14 -18 0.77 0.22
-2 -14 -18 0.84 0.21
2 -14 -18 0.96 0.3
-2 -14 18 0.86 0.23
2 -14 -18 0.77 0.19
-3 -14 -18 0.54 0.21
3 14 -18 0.4 0.22
3 -14 -18 0.32 0.16
-3 -14 18 0.12 0.19
3 -14 -18 0.48 0.28
-3 -14 18 0.7 0.21
4 14 -18 1.86 0.33
-4 -14 -18 2.27 0.32
-4 -14 18 1.64 0.32
4 -14 -18 2.06 0.4
-4 -14 18 1.48 0.31
5 14 -18 4.87 0.5
-5 -14 -18 4.16 0.43
-5 -14 18 4.73 0.48
5 -14 -18 5.04 0.55
-5 -14 18 4.22 0.48
-6 -14 -18 2.65 0.34
6 14 -18 2.6 0.41
-6 -14 18 3.51 0.45
-6 -14 18 3.25 0.41
6 -14 -18 2.95 0.48
-7 -14 -18 0.14 0.23
7 14 -18 0.03 0.29
7 -14 -18 0.17 0.29
-7 -14 18 0.73 0.29
-7 -14 18 0.71 0.31
-8 -14 18 -0.01 0.25
0 -15 -18 0.45 0.25
0 -15 -18 0.72 0.19
-1 -15 -18 1.35 0.24
-1 -15 -18 0.87 0.29
1 -15 -18 1.04 0.22
1 -15 -18 1.05 0.3
-2 -15 -18 0.53 0.24
2 15 -18 -0.03 0.18
-2 -15 -18 0.24 0.19
2 -15 -18 0.11 0.25
-2 -15 18 0.14 0.2
3 15 -18 0.47 0.23
-3 -15 -18 0.37 0.2
3 -15 -18 0.57 0.31
-3 -15 18 1.13 0.27
4 15 -18 0.9 0.28
-4 -15 -18 1.2 0.26
4 -15 -18 0.94 0.34
-4 -15 18 0.76 0.28
-5 -15 -18 0.68 0.25
5 15 -18 1.01 0.27
-5 -15 18 0.83 0.3
5 -15 -18 1.34 0.38
-5 -15 18 1.11 0.27
6 15 -18 1.24 0.33
-6 -15 -18 1.38 0.3
-6 -15 18 1.15 0.33
-6 -15 18 1.35 0.32
6 -15 -18 1.81 0.41
7 15 -18 1.63 0.38
-7 -15 -18 1.01 0.3
-7 -15 18 1.06 0.35
-7 -15 18 1.08 0.32
0 -16 -18 2.09 0.27
0 -16 -18 2.59 0.4
-1 -16 -18 1.29 0.26
-1 -16 -18 1.09 0.3
1 -16 -18 1.69 0.36
-2 -16 -18 2.99 0.35
2 16 -18 2.09 0.32
-2 -16 -18 2.68 0.38
2 -16 -18 2.35 0.4
-2 -16 18 2.21 0.32
3 16 -18 0.65 0.25
-3 -16 -18 1.5 0.27
-3 -16 18 1.36 0.3
3 -16 -18 1.78 0.38
-4 -16 -18 1.19 0.26
4 16 -18 0.58 0.28
4 -16 -18 1.66 0.39
-4 -16 18 1.68 0.32
-5 -16 -18 3.52 0.39
5 16 -18 3.17 0.44
-5 -16 18 2.98 0.42
5 -16 -18 2.71 0.44
-6 -16 -18 0.16 0.22
6 16 -18 0.28 0.3
-6 -16 18 0.4 0.26
-6 -16 18 0.49 0.31
6 -16 -18 1.03 0.36
-7 -16 18 0.41 0.28
0 -17 -18 0.35 0.26
-1 -17 -18 0.4 0.19
-1 -17 -18 0.07 0.25
1 -17 -18 0.32 0.28
-2 -17 -18 -0.12 0.16
-2 -17 -18 0.03 0.22
-2 -17 18 -0.26 0.19
2 -17 -18 0.3 0.29
3 17 -18 -0.21 0.19
-3 -17 -18 -0.02 0.18
3 -17 -18 0.34 0.28
-3 -17 18 0.03 0.22
-4 -17 -18 3.76 0.4
4 17 -18 3.45 0.42
4 -17 -18 3.9 0.53
-4 -17 18 3.05 0.43
5 17 -18 0.31 0.29
-5 -17 -18 0.49 0.23
-5 -17 18 0.51 0.29
5 -17 -18 0.75 0.34
-6 -17 -18 -0.02 0.22
6 17 -18 -0.64 0.25
0 -18 -18 0.02 0.27
-1 -18 -18 0.05 0.24
1 -18 -18 0.39 0.28
-2 -18 -18 0.92 0.3
2 -18 -18 0.61 0.27
-3 -18 -18 1.64 0.29
3 -18 -18 2 0.37
-3 -18 18 1.4 0.33
-4 -18 -18 0.19 0.22
4 -18 -18 0.65 0.33
-4 -18 18 0.07 0.25
-5 -18 -18 0.51 0.25
5 18 -18 0.34 0.28
-5 -18 18 0.72 0.3
0 -19 -18 0.89 0.32
-1 -19 -18 0.57 0.3
1 -19 -18 0.43 0.31
-2 -19 -18 0.22 0.27
2 -19 -18 0.49 0.32
3 -19 -18 0.6 0.34
-3 -19 18 0.42 0.27
-4 -19 -18 1.01 0.27
-4 -19 18 0.5 0.3
-5 -19 -18 1.49 0.32
0 -20 -18 1.52 0.38
-1 -20 -18 0.81 0.32
1 -20 -18 0.62 0.33
-2 -20 -18 0.66 0.31
-3 -20 18 0.58 0.29
0 0 -19 0.06 0.12
0 0 -19 0.28 0.15
1 0 -19 -0.1 0.12
1 0 -19 0.19 0.15
-1 0 -19 -0.05 0.13
2 0 -19 0.63 0.18
2 0 -19 0.78 0.19
-2 0 -19 0.43 0.14
3 0 -19 0.07 0.12
-3 0 -19 -0.09 0.14
3 0 -19 -0.03 0.16
4 0 -19 2.45 0.33
-4 0 -19 2.67 0.28
4 0 -19 2.83 0.32
5 0 -19 3.9 0.41
5 0 -19 4.34 0.43
-5 0 -19 3.57 0.34
6 0 -19 0.33 0.25
-6 0 -19 0.51 0.19
6 0 -19 0.58 0.21
7 0 -19 0.43 0.28
7 0 -19 -0.22 0.2
-7 0 -19 -0.04 0.16
-8 0 -19 0.94 0.23
8 0 -19 1.2 0.35
-8 0 19 0.98 0.3
9 0 -19 0.55 0.3
-9 0 -19 0.78 0.22
-9 0 19 0.84 0.29
-10 0 -19 0.42 0.22
10 0 -19 0.29 0.25
-10 0 19 0.3 0.26
0 1 -19 4.32 0.33
0 -1 -19 4.04 0.3
0 1 -19 4.38 0.31
0 -1 -19 3.68 0.32
-1 -1 -19 2.66 0.28
1 1 -19 2.27 0.26
1 1 -19 2.53 0.27
-1 1 -19 2.84 0.27
1 -1 -19 2.46 0.28
1 -1 -19 2.7 0.27
-2 -1 -19 0.29 0.16
2 1 -19 -0.09 0.13
2 1 -19 0.45 0.16
2 -1 -19 0.08 0.15
-2 1 -19 0.16 0.15
2 -1 -19 0.31 0.13
3 1 -19 8.06 0.5
3 1 -19 7.4 0.49
-3 -1 -19 7.46 0.44
-3 1 -19 8.04 0.45
3 -1 -19 8.39 0.5
3 -1 -19 7.13 0.5
4 1 -19 5.8 0.43
-4 -1 -19 5.12 0.38
4 1 -19 5.39 0.44
4 -1 -19 5.39 0.42
4 -1 -19 4.73 0.45
-4 1 -19 6.03 0.39
-5 -1 -19 1.24 0.21
5 1 -19 1.33 0.26
5 1 -19 1.49 0.28
5 -1 -19 0.93 0.27
-5 1 -19 1.27 0.22
5 -1 -19 1.49 0.29
6 1 -19 6.77 0.49
6 1 -19 7.05 0.55
-6 -1 -19 5.67 0.39
6 -1 -19 6.74 0.55
-6 1 -19 5.72 0.41
6 -1 -19 5.94 0.47
7 1 -19 0.82 0.3
-7 -1 -19 0.78 0.21
7 1 -19 0.96 0.29
-7 1 -19 0.59 0.19
7 -1 -19 0.74 0.3
7 -1 -19 1.01 0.28
-8 1 19 3.16 0.43
-8 -1 -19 3.56 0.36
8 1 -19 4.6 0.5
-8 1 -19 3.33 0.34
8 -1 -19 4.48 0.5
-8 -1 19 3.5 0.46
-9 1 19 0.74 0.29
9 1 -19 0.98 0.29
-9 -1 -19 0.79 0.23
-9 -1 19 1 0.28
9 -1 -19 0.97 0.33
-9 1 -19 0.85 0.22
-10 -1 -19 0.9 0.25
10 1 -19 1.13 0.37
-10 1 19 0.5 0.29
-10 1 -19 0.9 0.25
10 -1 -19 1.07 0.36
-10 -1 19 0.87 0.31
0 -2 -19 5.87 0.39
0 -2 -19 5.55 0.37
0 2 -19 6.29 0.4
0 2 -19 5.71 0.37
1 2 -19 7.55 0.46
-1 -2 -19 7.62 0.46
1 2 -19 7.19 0.44
1 -2 -19 8.04 0.47
1 -2 -19 8.03 0.47
-1 2 -19 8.11 0.46
2 2 -19 15.25 0.76
-2 -2 -19 15.85 0.75
2 2 -19 15.11 0.76
2 -2 -19 15 0.77
2 -2 -19 16.2 0.77
-2 2 -19 15.89 0.74
3 2 -19 0.78 0.21
-3 -2 -19 0.69 0.19
3 2 -19 0.69 0.2
3 -2 -19 0.65 0.2
3 -2 -19 1.14 0.24
-3 2 -19 1.19 0.21
4 2 -19 1.92 0.29
-4 -2 -19 2.09 0.27
4 2 -19 1.81 0.29
4 -2 -19 2.51 0.31
-4 2 -19 2.15 0.26
4 -2 -19 2.16 0.3
-5 -2 -19 1.34 0.21
5 2 -19 0.9 0.22
5 2 -19 0.72 0.24
-5 2 -19 1.04 0.21
5 -2 -19 1.51 0.28
5 -2 -19 1.31 0.26
6 2 -19 0.63 0.27
6 2 -19 0.83 0.26
-6 -2 -19 0.97 0.22
-6 2 -19 0.75 0.19
6 -2 -19 0.89 0.25
6 -2 -19 0.83 0.21
-7 -2 -19 1.1 0.23
7 2 -19 1.83 0.35
7 2 -19 1.24 0.29
7 -2 -19 1.43 0.32
-7 2 -19 1.61 0.24
7 -2 -19 1.85 0.36
-8 -2 -19 0.75 0.22
8 2 -19 0.31 0.3
-8 2 19 0.66 0.26
8 -2 -19 0.98 0.33
-8 -2 19 0.78 0.28
-8 2 -19 0.37 0.18
-9 2 19 0.65 0.25
-9 -2 -19 0.56 0.19
9 2 -19 1.33 0.37
-9 -2 19 1.22 0.32
-9 2 -19 0.84 0.21
9 -2 -19 0.65 0.31
-10 -2 -19 1.43 0.29
-10 2 19 1.23 0.33
10 2 -19 1.08 0.37
-10 -2 19 0.96 0.33
10 -2 -19 1.77 0.41
0 -3 -19 5.37 0.36
0 3 -19 5.09 0.36
0 -3 -19 4.59 0.35
1 3 -19 4.75 0.35
-1 -3 -19 4.37 0.34
1 3 -19 4.11 0.34
-1 3 -19 4.38 0.33
1 -3 -19 4.12 0.34
1 -3 -19 3.97 0.34
2 3 -19 6.38 0.42
-2 -3 -19 6.36 0.41
2 3 -19 6.22 0.43
-2 3 -19 6.42 0.4
2 -3 -19 5.73 0.41
2 -3 -19 5.77 0.43
3 3 -19 3.18 0.34
-3 -3 -19 3.42 0.33
3 3 -19 2.99 0.33
3 -3 -19 3.18 0.33
-3 3 -19 3.34 0.31
3 -3 -19 2.96 0.33
-4 -3 -19 -0.06 0.16
4 3 -19 0.25 0.19
4 3 -19 0.26 0.19
4 -3 -19 0.04 0.16
-4 3 -19 -0.07 0.14
4 -3 -19 0.04 0.15
5 3 -19 1.52 0.29
-5 -3 -19 1.4 0.22
5 3 -19 1.81 0.31
5 -3 -19 1.5 0.31
-5 3 -19 1.27 0.22
5 -3 -19 1.36 0.27
6 3 -19 2.92 0.39
6 3 -19 3.65 0.44
-6 -3 -19 3.68 0.31
-6 3 -19 3.38 0.33
6 -3 -19 4.49 0.46
6 -3 -19 2.71 0.42
7 3 -19 3.18 0.45
-7 -3 -19 2.32 0.31
-7 -3 19 2.07 0.36
7 -3 -19 2.73 0.42
7 -3 -19 2.99 0.39
-7 3 -19 2.6 0.29
-8 -3 -19 0.62 0.22
-8 3 19 0.44 0.25
8 3 -19 0.36 0.29
-8 3 -19 0.34 0.18
-8 -3 19 0.6 0.27
8 -3 -19 0.62 0.31
-9 3 19 0.7 0.28
-9 -3 -19 0.34 0.22
9 3 -19 0.79 0.28
9 -3 -19 0.88 0.29
-9 -3 19 0.86 0.31
-10 3 19 1.2 0.33
-10 -3 -19 0.72 0.25
10 3 -19 0.72 0.34
-10 -3 19 0.88 0.33
10 -3 -19 1.19 0.38
0 -4 -19 0.96 0.19
0 4 -19 0.56 0.18
0 -4 -19 0.7 0.19
-1 -4 -19 4.83 0.33
1 4 -19 4.52 0.34
-1 -4 -19 4.42 0.35
1 4 -19 4.59 0.33
1 -4 -19 4.8 0.36
1 -4 -19 4.14 0.34
-1 4 -19 4.22 0.33
-2 -4 -19 4.23 0.34
2 4 -19 3.72 0.34
2 4 -19 4.35 0.36
-2 4 -19 4.42 0.33
2 -4 -19 5.01 0.37
2 -4 -19 4.1 0.39
3 4 -19 1.86 0.27
-3 -4 -19 1.56 0.24
3 4 -19 1.27 0.24
-3 4 -19 1.39 0.21
3 -4 -19 1.95 0.29
3 -4 -19 1.38 0.24
-4 -4 -19 4.64 0.38
4 4 -19 5.01 0.38
4 4 -19 4.54 0.43
-4 4 -19 4.64 0.35
4 -4 -19 4.94 0.47
4 -4 -19 4.78 0.4
-5 -4 -19 8.97 0.52
5 4 -19 7.79 0.56
5 4 -19 8.63 0.55
-5 4 -19 8.1 0.47
5 -4 -19 7.8 0.59
5 -4 -19 7.6 0.54
-6 -4 -19 3.71 0.36
6 4 -19 3.14 0.39
6 4 -19 3.09 0.42
6 -4 -19 3.21 0.4
6 -4 -19 3.29 0.44
-6 4 -19 2.86 0.3
7 4 -19 0.51 0.29
-7 -4 -19 0.54 0.21
-7 -4 19 0.62 0.27
-7 4 -19 0.35 0.16
7 -4 -19 0.59 0.24
7 -4 -19 0.37 0.28
8 4 -19 0.14 0.27
-8 -4 -19 0.37 0.17
-8 -4 19 0.7 0.27
8 -4 -19 0.56 0.25
8 -4 -19 0.24 0.23
9 4 -19 0.2 0.3
-9 4 19 0.43 0.24
-9 -4 -19 -0.39 0.17
9 -4 -19 0.21 0.29
-9 -4 19 0.41 0.27
-10 -4 -19 1.14 0.29
-10 4 19 0.79 0.3
0 -5 -19 0.5 0.17
0 5 -19 0.63 0.17
0 -5 -19 0.62 0.18
-1 -5 -19 0.68 0.19
1 5 -19 0.8 0.19
1 5 -19 0.86 0.18
-1 -5 -19 0.95 0.18
1 -5 -19 0.79 0.19
1 -5 -19 1.29 0.23
-1 5 -19 0.9 0.19
2 5 -19 0.47 0.17
2 5 -19 0.3 0.17
-2 -5 -19 0.75 0.2
2 -5 -19 1.02 0.21
-2 5 -19 0.71 0.18
2 -5 -19 0.55 0.2
3 5 -19 4.17 0.37
3 5 -19 4.37 0.4
-3 -5 -19 4.58 0.36
3 -5 -19 4.45 0.37
-3 5 -19 4.29 0.33
3 -5 -19 4.34 0.37
4 5 -19 1.6 0.28
4 5 -19 1.92 0.3
-4 -5 -19 2.27 0.28
-4 5 -19 2.1 0.25
4 -5 -19 2.09 0.29
4 -5 -19 1.7 0.32
-5 -5 -19 4.02 0.37
5 5 -19 4.76 0.46
5 5 -19 4.48 0.39
5 -5 -19 4.16 0.36
-5 5 -19 3.97 0.32
5 -5 -19 3.58 0.44
-6 -5 -19 0.73 0.23
6 5 -19 1.23 0.3
6 5 -19 0.67 0.27
6 -5 -19 1.17 0.26
-6 5 -19 1.06 0.2
6 -5 -19 0.8 0.3
7 5 -19 0.37 0.28
-7 -5 -19 0.56 0.22
7 -5 -19 0.15 0.27
-7 -5 19 0.42 0.24
7 -5 -19 0.41 0.23
-8 -5 -19 0.52 0.24
8 5 -19 0.53 0.31
-8 -5 19 0.4 0.27
8 -5 -19 0.56 0.25
8 -5 -19 0.28 0.23
-9 5 19 0.31 0.24
9 5 -19 0.37 0.25
-9 -5 -19 0.04 0.16
9 -5 -19 0.55 0.33
-9 -5 19 0.54 0.24
-10 -5 -19 -0.06 0.22
-10 5 19 0.18 0.23
0 6 -19 4.3 0.33
0 -6 -19 4.57 0.32
0 -6 -19 3.9 0.33
-1 -6 -19 0.13 0.15
1 6 -19 0.17 0.15
1 6 -19 0.28 0.14
-1 -6 -19 0.05 0.13
-1 6 -19 0.36 0.16
1 -6 -19 0.23 0.17
1 -6 -19 0.21 0.15
-2 -6 -19 0.05 0.16
2 6 -19 0.08 0.15
2 6 -19 0.57 0.18
-2 6 -19 0.21 0.15
2 -6 -19 0.23 0.18
2 -6 -19 0.11 0.15
-3 -6 -19 0.79 0.21
3 6 -19 0.74 0.21
3 6 -19 0.87 0.21
3 -6 -19 0.91 0.19
3 -6 -19 1.38 0.27
-3 6 -19 1.16 0.2
4 6 -19 11.13 0.67
-4 -6 -19 11.61 0.63
4 6 -19 11.19 0.66
4 -6 -19 12.28 0.65
-4 6 -19 11.38 0.58
4 -6 -19 11.43 0.7
5 6 -19 0.56 0.23
5 6 -19 -0.17 0.19
-5 -6 -19 0.07 0.17
5 -6 -19 -0.15 0.22
-5 6 -19 0.07 0.14
5 -6 -19 0.09 0.18
6 6 -19 1.19 0.31
-6 -6 -19 0.82 0.2
6 6 -19 0.71 0.21
-6 -6 19 0.61 0.22
6 -6 -19 1.19 0.27
6 -6 -19 0.6 0.28
-7 -6 -19 -0.24 0.18
7 6 -19 0.07 0.26
7 -6 -19 0.08 0.19
7 -6 -19 0.25 0.22
-7 -6 19 -0.09 0.21
-8 -6 -19 0.21 0.17
8 6 -19 0.24 0.29
8 -6 -19 0.31 0.23
8 -6 -19 0.05 0.19
-8 -6 19 0.46 0.22
-9 6 19 1.65 0.34
-9 -6 -19 1.36 0.31
9 6 -19 1.51 0.39
-9 -6 19 1.66 0.39
9 -6 -19 1.57 0.41
-10 6 19 0.36 0.27
0 -7 -19 10.55 0.59
0 7 -19 11.3 0.58
0 -7 -19 11.34 0.59
1 7 -19 3.34 0.31
-1 -7 -19 3.46 0.32
1 7 -19 3.17 0.31
-1 -7 -19 3.03 0.31
1 -7 -19 2.97 0.31
1 -7 -19 2.7 0.32
-1 7 -19 3.12 0.29
-2 -7 -19 1.76 0.24
2 7 -19 2.21 0.28
2 7 -19 1.94 0.26
-2 7 -19 1.74 0.23
2 -7 -19 2.1 0.3
2 -7 -19 2.12 0.28
3 7 -19 6.49 0.47
3 7 -19 7.54 0.49
-3 -7 -19 7.67 0.48
3 -7 -19 6.76 0.46
-3 7 -19 7.27 0.43
3 -7 -19 6.95 0.52
-4 -7 -19 1.2 0.24
4 7 -19 1.49 0.27
4 7 -19 1.44 0.28
-4 7 -19 1.29 0.22
4 -7 -19 0.9 0.23
4 -7 -19 1.1 0.29
5 7 -19 0.37 0.24
-5 -7 -19 0.98 0.24
5 7 -19 0.9 0.26
5 -7 -19 1.26 0.32
5 -7 -19 1.22 0.25
6 7 -19 0.15 0.25
-6 -7 -19 0.14 0.19
6 -7 -19 0.25 0.23
6 -7 -19 0.87 0.24
-6 -7 19 0.6 0.27
-7 -7 -19 0.01 0.2
7 7 -19 0.02 0.25
7 -7 -19 0.07 0.18
-7 -7 19 -0.09 0.22
7 -7 -19 0.41 0.2
-8 -7 -19 1.97 0.32
8 7 -19 1.75 0.36
-8 -7 19 2.36 0.4
8 -7 -19 1.85 0.36
8 -7 -19 1.91 0.32
-9 -7 -19 0.17 0.25
9 7 -19 0.28 0.25
-9 7 19 0.47 0.26
-9 -7 19 0.79 0.32
9 -7 -19 0.44 0.26
0 -8 -19 -0.02 0.14
0 8 -19 0.1 0.14
0 -8 -19 0.07 0.11
-1 -8 -19 4.32 0.35
1 8 -19 5.1 0.37
1 8 -19 4.31 0.34
-1 -8 -19 5.13 0.38
-1 8 -19 4.23 0.33
1 -8 -19 4.67 0.36
1 -8 -19 4.58 0.38
2 8 -19 1.8 0.26
-2 -8 -19 2.69 0.3
2 8 -19 2.13 0.28
-2 8 -19 2.36 0.26
2 -8 -19 2.07 0.27
2 -8 -19 2.56 0.32
3 8 -19 0.86 0.23
-3 -8 -19 0.96 0.22
3 8 -19 1.14 0.24
3 -8 -19 0.87 0.19
3 -8 -19 1 0.26
-3 8 -19 1.09 0.19
4 8 -19 0.34 0.19
-4 -8 -19 -0.15 0.17
4 8 -19 0.01 0.19
4 -8 -19 0.02 0.16
4 -8 -19 0.4 0.24
5 8 -19 6.27 0.49
5 8 -19 5.83 0.51
-5 -8 -19 6.48 0.46
5 -8 -19 5.57 0.49
5 -8 -19 5.44 0.44
6 8 -19 0.97 0.3
-6 -8 -19 0.31 0.21
6 -8 -19 0.7 0.22
6 -8 -19 0.81 0.27
-6 -8 19 0.76 0.27
7 8 -19 3.24 0.43
-7 -8 -19 3.43 0.38
-7 -8 19 3.15 0.43
7 -8 -19 2.51 0.35
7 -8 -19 2.79 0.42
-8 -8 -19 0.68 0.27
8 8 -19 0.79 0.33
-8 -8 19 0.11 0.27
8 -8 -19 0.71 0.32
8 -8 -19 0.93 0.26
9 8 -19 0.29 0.34
-9 -8 -19 0.06 0.23
9 -8 -19 0.49 0.33
-9 -8 19 0.05 0.26
0 -9 -19 0.46 0.19
0 -9 -19 0.48 0.18
0 9 -19 0.28 0.15
-1 -9 -19 1.52 0.24
1 9 -19 1.47 0.23
-1 -9 -19 1.66 0.25
-1 -9 19 1.48 0.22
1 -9 -19 1.59 0.24
1 -9 -19 1.63 0.27
-1 9 -19 1.6 0.22
2 9 -19 0.88 0.21
2 9 -19 0.95 0.21
-2 -9 -19 0.72 0.21
-2 9 -19 0.62 0.17
2 -9 -19 0.93 0.21
2 -9 -19 0.81 0.24
3 9 -19 0.67 0.2
-3 -9 -19 0.66 0.18
3 9 -19 0.34 0.19
3 -9 -19 0.21 0.16
3 -9 -19 0.59 0.24
4 9 -19 1.91 0.31
-4 -9 -19 2.56 0.32
4 9 -19 1.48 0.28
4 -9 -19 2.05 0.29
4 -9 -19 2.14 0.36
-5 -9 -19 6.2 0.43
5 9 -19 5.25 0.51
5 -9 -19 6.01 0.45
5 -9 -19 5.87 0.51
-5 -9 19 6.49 0.51
-6 -9 -19 2.04 0.32
6 9 -19 2.94 0.4
-6 -9 19 2.94 0.4
6 -9 -19 3.28 0.45
6 -9 -19 2.75 0.35
7 9 -19 -0.09 0.26
-7 -9 -19 0.31 0.17
7 -9 -19 -0.04 0.17
-7 -9 19 -0.09 0.24
7 -9 -19 0.25 0.29
8 9 -19 0.12 0.29
-8 -9 -19 0 0.23
8 -9 -19 -0.11 0.18
-8 -9 19 0.31 0.28
8 -9 -19 0.64 0.33
0 -10 -19 0.3 0.2
0 10 -19 0.59 0.17
0 -10 -19 0.36 0.17
1 10 -19 1.77 0.25
-1 -10 -19 1.49 0.26
-1 -10 -19 1.87 0.24
1 -10 -19 1.78 0.29
-1 -10 19 1.75 0.25
-1 10 -19 1.48 0.22
1 -10 -19 1.81 0.26
2 10 -19 0.86 0.21
2 10 -19 1.35 0.26
-2 -10 -19 1.18 0.24
2 -10 -19 1.35 0.29
-2 -10 19 1.46 0.25
2 -10 -19 1.38 0.23
3 10 -19 0.38 0.2
3 10 -19 0.19 0.18
-3 -10 -19 0.41 0.2
3 -10 -19 0.49 0.24
3 -10 -19 0.68 0.2
4 10 -19 1.76 0.27
4 10 -19 1.36 0.28
-4 -10 -19 1.79 0.29
4 -10 -19 2.35 0.37
4 -10 -19 1.73 0.27
5 10 -19 3.62 0.43
-5 -10 -19 3.67 0.37
-5 -10 19 4.1 0.44
5 -10 -19 4.64 0.53
5 -10 -19 4.37 0.42
6 10 -19 0.38 0.26
-6 -10 -19 -0.32 0.17
-6 -10 19 0.08 0.23
6 -10 -19 0.46 0.2
6 -10 -19 0.37 0.29
-7 -10 -19 0.22 0.18
7 10 -19 0.04 0.28
-7 -10 19 0.33 0.26
7 -10 -19 0.39 0.31
7 -10 -19 0.39 0.23
8 10 -19 4.23 0.52
-8 -10 -19 5.32 0.5
8 -10 -19 5.4 0.62
-8 -10 19 5.19 0.57
0 11 -19 2.42 0.27
0 -11 -19 2.88 0.31
0 -11 -19 2.73 0.34
-1 -11 -19 1.57 0.23
-1 -11 -19 0.99 0.24
1 11 -19 1.5 0.23
1 -11 -19 1.58 0.24
1 -11 -19 1.32 0.28
2 11 -19 0.07 0.16
-2 -11 -19 -0.08 0.16
2 11 -19 0.21 0.16
2 -11 -19 0.36 0.17
2 -11 -19 0.57 0.24
-2 -11 19 -0.02 0.16
-3 -11 -19 0.92 0.23
3 11 -19 0.52 0.2
3 11 -19 0.78 0.25
-3 -11 19 0.7 0.24
3 -11 -19 1.07 0.28
3 -11 -19 1.04 0.22
-4 -11 -19 0.04 0.19
4 11 -19 -0.01 0.2
4 -11 -19 0.19 0.15
4 -11 -19 0.35 0.26
-4 -11 19 0.23 0.19
-4 -11 19 0.08 0.19
-5 -11 -19 2.49 0.31
5 11 -19 2.67 0.38
-5 -11 19 2.58 0.37
5 -11 -19 3.28 0.45
-5 -11 19 2.75 0.39
5 -11 -19 2.16 0.31
6 11 -19 0.32 0.26
-6 -11 -19 0.67 0.23
6 -11 -19 0.74 0.32
6 -11 -19 0.54 0.21
-6 -11 19 0.04 0.22
-7 -11 -19 0.52 0.25
7 11 -19 0.29 0.27
-7 -11 19 0.35 0.22
7 -11 -19 0.34 0.24
8 11 -19 1.25 0.38
-8 -11 -19 0.54 0.26
-8 -11 19 0.79 0.31
8 -11 -19 0.89 0.36
0 -12 -19 0.74 0.23
0 -12 -19 0.64 0.19
-1 -12 -19 2.29 0.28
-1 -12 -19 2.23 0.32
1 12 -19 1.78 0.29
1 -12 -19 2.05 0.27
1 -12 -19 1.87 0.32
-2 -12 -19 5.3 0.4
2 12 -19 4.16 0.4
2 12 -19 4.14 0.4
-2 -12 -19 4.41 0.42
2 -12 -19 4.95 0.47
2 -12 -19 4.45 0.36
-2 -12 19 3.85 0.4
-3 -12 -19 0.79 0.19
3 12 -19 0.46 0.21
-3 -12 19 0.32 0.21
3 -12 -19 0.42 0.18
-3 -12 19 0.26 0.18
3 -12 -19 0.39 0.21
-4 -12 -19 0.46 0.22
4 12 -19 0.45 0.24
4 -12 -19 0.72 0.25
-4 -12 19 0.53 0.24
-4 -12 19 0.93 0.24
4 -12 -19 0.56 0.2
-5 -12 -19 4.72 0.44
5 12 -19 4.57 0.49
5 -12 -19 4.64 0.54
-5 -12 19 4.45 0.48
5 -12 -19 3.93 0.4
-5 -12 19 5.07 0.48
6 12 -19 1.19 0.34
-6 -12 -19 1.49 0.29
-6 -12 19 1.49 0.33
-6 -12 19 1.53 0.35
6 -12 -19 2.02 0.4
-7 -12 -19 0.17 0.23
7 12 -19 -0.14 0.26
-7 -12 19 0.12 0.27
7 -12 -19 -0.08 0.29
-7 -12 19 0.49 0.29
8 12 -19 -0.1 0.28
-8 -12 19 0.08 0.26
0 -13 -19 0.35 0.22
0 -13 -19 0.15 0.16
-1 -13 -19 1.73 0.26
-1 -13 -19 1.62 0.29
1 -13 -19 1.93 0.26
1 -13 -19 1.36 0.31
2 13 -19 3.09 0.34
-2 -13 -19 2.89 0.33
-2 -13 -19 2.97 0.35
-2 -13 19 2.45 0.32
2 -13 -19 2.21 0.38
2 -13 -19 2.64 0.31
-3 -13 -19 -0.1 0.19
3 13 -19 0.15 0.2
-3 -13 19 0.06 0.2
3 -13 -19 -0.14 0.24
-3 -13 19 0.41 0.2
3 -13 -19 -0.02 0.15
4 13 -19 1.56 0.29
-4 -13 -19 1.46 0.28
-4 -13 19 1.08 0.27
-4 -13 19 1.06 0.28
4 -13 -19 0.98 0.23
4 -13 -19 1.35 0.35
-5 -13 -19 -0.11 0.21
5 13 -19 0.03 0.24
5 -13 -19 0.57 0.3
-5 -13 19 -0.04 0.23
-5 -13 19 -0.01 0.22
6 13 -19 0.74 0.32
-6 -13 -19 0.81 0.26
-6 -13 19 1.16 0.3
-6 -13 19 0.38 0.29
6 -13 -19 0.87 0.29
-7 -13 -19 0.57 0.26
7 13 -19 0.8 0.32
-7 -13 19 0.75 0.29
-7 -13 19 0.55 0.31
7 -13 -19 0.71 0.35
0 -14 -19 0.54 0.19
0 -14 -19 0.55 0.25
-1 -14 -19 1.75 0.27
-1 -14 -19 2.01 0.32
1 -14 -19 1.66 0.25
1 -14 -19 1.38 0.32
-2 -14 -19 1.41 0.26
-2 -14 -19 0.79 0.27
2 -14 -19 1.29 0.24
-2 -14 19 1.58 0.28
2 -14 -19 1.72 0.37
-3 -14 -19 1.94 0.3
3 14 -19 1.1 0.28
3 -14 -19 2.08 0.39
3 -14 -19 1.91 0.29
-3 -14 19 2.29 0.33
4 14 -19 0.21 0.22
-4 -14 -19 0.45 0.23
-4 -14 19 0.3 0.23
-4 -14 19 0.47 0.23
4 -14 -19 0.26 0.29
-5 -14 -19 0.22 0.23
5 14 -19 0.71 0.28
-5 -14 19 0.17 0.24
5 -14 -19 0.07 0.26
-5 -14 19 0.91 0.27
6 14 -19 -0.03 0.25
-6 -14 -19 0.2 0.23
6 -14 -19 0.25 0.3
-6 -14 19 0.1 0.24
-6 -14 19 0.35 0.23
7 14 -19 0.5 0.31
-7 -14 -19 0.69 0.28
-7 -14 19 0.65 0.32
-7 -14 19 0.6 0.27
0 -15 -19 6.25 0.44
0 -15 -19 5.87 0.52
-1 -15 -19 1.96 0.29
-1 -15 -19 1.02 0.28
1 -15 -19 1.57 0.26
1 -15 -19 1.8 0.34
-2 -15 -19 0.41 0.2
-2 -15 -19 0.63 0.27
-2 -15 19 0.33 0.24
2 -15 -19 0.07 0.25
-3 -15 -19 1.05 0.24
3 15 -19 0.35 0.24
-3 -15 19 0.92 0.27
3 -15 -19 0.96 0.33
-4 -15 -19 -0.15 0.2
4 15 -19 0.14 0.23
4 -15 -19 0.19 0.27
-4 -15 19 0.14 0.23
5 15 -19 3.36 0.44
-5 -15 -19 3.28 0.39
-5 -15 19 2.88 0.42
-5 -15 19 2.36 0.39
5 -15 -19 3.7 0.53
6 15 -19 0.89 0.32
-6 -15 -19 0.83 0.28
6 -15 -19 1.04 0.36
-6 -15 19 1.12 0.33
-6 -15 19 0.45 0.29
-7 -15 19 0.99 0.31
0 -16 -19 1.96 0.28
0 -16 -19 1.36 0.32
-1 -16 -19 2.24 0.36
-1 -16 -19 2.1 0.3
1 -16 -19 3.49 0.46
-2 -16 -19 0.05 0.18
-2 -16 -19 0.37 0.24
2 -16 -19 0.13 0.27
-3 -16 -19 0.52 0.23
3 16 -19 0.39 0.24
3 -16 -19 0.57 0.31
-3 -16 19 0.9 0.26
4 16 -19 4.34 0.48
-4 -16 -19 4.66 0.46
4 -16 -19 5.33 0.61
-4 -16 19 4.11 0.47
-5 -16 -19 1.42 0.29
5 16 -19 1.48 0.35
-5 -16 19 2 0.37
5 -16 -19 1.45 0.4
-6 -16 -19 1.23 0.31
6 16 -19 0.97 0.35
-6 -16 19 1.48 0.36
0 -17 -19 2.3 0.4
-1 -17 -19 0.57 0.21
-1 -17 -19 0.35 0.27
1 -17 -19 0.27 0.28
-2 -17 -19 0.21 0.2
-2 -17 -19 0.09 0.23
2 -17 -19 0.61 0.31
3 17 -19 1.01 0.29
-3 -17 -19 1.17 0.27
-3 -17 19 1.35 0.31
3 -17 -19 0.67 0.34
-4 -17 -19 0.43 0.23
4 17 -19 0.61 0.28
-4 -17 19 0.44 0.29
4 -17 -19 0.29 0.31
5 17 -19 0.28 0.28
-5 -17 -19 0.76 0.26
-5 -17 19 0.82 0.31
0 -18 -19 0.57 0.29
-1 -18 -19 1.66 0.37
1 -18 -19 1.79 0.4
-2 -18 -19 2.18 0.39
2 -18 -19 2.11 0.38
-3 -18 -19 2.19 0.33
3 -18 -19 2.53 0.45
-3 -18 19 1.85 0.34
-4 -18 -19 0.29 0.23
4 18 -19 -0.05 0.25
-4 -18 19 0.41 0.27
0 -19 -19 1.27 0.34
-1 -19 -19 3.46 0.48
1 -19 -19 3.48 0.49
-2 -19 -19 0.67 0.3
2 -19 -19 0.19 0.28
-4 -19 -19 0.43 0.24
-4 -19 19 0.17 0.29
-1 -20 -19 0.73 0.32
-2 -20 -19 0.01 0.25
0 0 -20 2.65 0.28
1 0 -20 0.82 0.2
-1 0 -20 0.68 0.19
1 0 -20 0.82 0.19
-2 0 -20 0.01 0.15
2 0 -20 0.02 0.15
2 0 -20 0.07 0.14
-3 0 -20 2.25 0.27
3 0 -20 2.33 0.3
3 0 -20 1.9 0.29
4 0 -20 1.53 0.28
4 0 -20 1.98 0.28
-4 0 -20 2.32 0.28
5 0 -20 9.46 0.62
5 0 -20 9.52 0.63
-5 0 -20 9.59 0.55
6 0 -20 -0.12 0.2
-6 0 -20 0.22 0.18
6 0 -20 -0.35 0.21
7 0 -20 0.87 0.31
7 0 -20 0.51 0.26
-7 0 -20 0.52 0.17
-8 0 -20 4.97 0.39
-8 0 20 3.87 0.49
8 0 -20 4.43 0.54
-9 0 20 1.99 0.38
9 0 -20 1.98 0.42
-9 0 -20 1.22 0.26
-10 0 -20 2.99 0.36
0 -1 -20 0.08 0.15
0 -1 -20 0.17 0.13
0 1 -20 0.45 0.17
1 1 -20 5 0.38
-1 -1 -20 5.28 0.39
1 1 -20 5.65 0.4
1 -1 -20 5.74 0.39
-1 1 -20 5.9 0.4
1 -1 -20 6.08 0.39
2 1 -20 2.38 0.29
2 1 -20 1.78 0.26
-2 -1 -20 2.25 0.27
2 -1 -20 2.17 0.28
-2 1 -20 2.21 0.26
2 -1 -20 2.09 0.28
3 1 -20 0.28 0.18
-3 -1 -20 0.47 0.18
3 1 -20 0.59 0.2
3 -1 -20 0.26 0.18
3 -1 -20 0.37 0.18
-3 1 -20 0.32 0.17
-4 -1 -20 1.77 0.26
4 1 -20 1.45 0.28
4 1 -20 1.29 0.26
4 -1 -20 1.02 0.27
-4 1 -20 1.48 0.24
4 -1 -20 1.73 0.29
5 1 -20 4.45 0.47
-5 -1 -20 4.48 0.37
5 1 -20 5.55 0.5
5 -1 -20 4.57 0.45
-5 1 -20 4.23 0.33
5 -1 -20 4.84 0.47
6 1 -20 1.55 0.32
6 1 -20 1.6 0.34
-6 -1 -20 1.8 0.26
6 -1 -20 1.22 0.32
-6 1 -20 1.56 0.25
6 -1 -20 2.16 0.34
7 1 -20 0.34 0.25
7 1 -20 0.54 0.28
-7 -1 -20 0.52 0.2
-7 1 -20 0.2 0.18
7 -1 -20 -0.11 0.24
7 -1 -20 -0.1 0.14
-8 -1 -20 0.24 0.19
8 1 -20 0.25 0.3
-8 1 20 -0.2 0.14
-8 1 -20 0.03 0.17
-8 -1 20 0.16 0.24
8 -1 -20 0.36 0.3
-9 -1 -20 0.87 0.24
-9 1 20 0.42 0.26
9 1 -20 0.23 0.3
-9 1 -20 0.7 0.22
9 -1 -20 0.39 0.26
-9 -1 20 0.95 0.32
-10 -1 -20 0.76 0.24
-10 1 -20 0.88 0.24
0 -2 -20 3.85 0.35
0 -2 -20 3.53 0.31
0 2 -20 3.5 0.33
1 2 -20 2.98 0.31
-1 -2 -20 3.25 0.28
1 2 -20 3.27 0.29
1 -2 -20 3.21 0.31
-1 2 -20 2.85 0.28
1 -2 -20 3.03 0.31
-2 -2 -20 3.1 0.3
2 2 -20 2.81 0.3
2 2 -20 3.15 0.32
2 -2 -20 3.25 0.34
2 -2 -20 2.83 0.32
-2 2 -20 3.27 0.27
3 2 -20 6.59 0.47
-3 -2 -20 7.35 0.46
3 2 -20 7.47 0.49
3 -2 -20 6.73 0.45
-3 2 -20 7.49 0.45
3 -2 -20 6.37 0.48
4 2 -20 0.21 0.19
-4 -2 -20 0 0.17
4 2 -20 0.13 0.19
4 -2 -20 -0.09 0.17
-4 2 -20 0.05 0.15
4 -2 -20 0.36 0.22
5 2 -20 2.91 0.36
-5 -2 -20 3.62 0.35
5 2 -20 3.99 0.42
5 -2 -20 4.08 0.43
5 -2 -20 3.23 0.39
-5 2 -20 3.32 0.33
6 2 -20 4.93 0.48
-6 -2 -20 4.55 0.39
6 2 -20 4.36 0.49
6 -2 -20 4.74 0.48
-6 2 -20 4.16 0.36
6 -2 -20 4.83 0.49
7 2 -20 3.28 0.44
-7 -2 -20 3.11 0.34
7 2 -20 2.84 0.45
7 -2 -20 2.93 0.41
7 -2 -20 3.56 0.46
-7 2 -20 3.68 0.34
-8 2 20 0.6 0.27
8 2 -20 0.27 0.28
-8 -2 -20 0.41 0.2
8 -2 -20 0.88 0.34
-8 2 -20 0.3 0.19
-8 -2 20 0.18 0.27
-9 2 20 0.15 0.25
9 2 -20 0.5 0.26
-9 -2 -20 0.42 0.23
9 -2 -20 0.39 0.31
-9 -2 20 0.55 0.29
-9 2 -20 0.21 0.21
-10 -2 -20 0.36 0.22
0 -3 -20 0.07 0.12
0 -3 -20 0.07 0.14
0 3 -20 -0.03 0.1
1 3 -20 5.4 0.39
1 3 -20 5.08 0.38
-1 -3 -20 5.61 0.39
1 -3 -20 5.7 0.4
1 -3 -20 4.72 0.38
-1 3 -20 6.71 0.4
2 3 -20 4.68 0.37
-2 -3 -20 4.9 0.35
2 3 -20 5.33 0.39
2 -3 -20 5.29 0.39
2 -3 -20 4.37 0.42
-2 3 -20 5.02 0.34
3 3 -20 0.09 0.13
3 3 -20 0.2 0.17
-3 -3 -20 0.14 0.17
3 -3 -20 0.46 0.16
3 -3 -20 0.28 0.19
-3 3 -20 0.23 0.16
4 3 -20 0.5 0.22
4 3 -20 0.6 0.23
-4 -3 -20 0.61 0.2
4 -3 -20 0.38 0.23
4 -3 -20 0.7 0.23
-4 3 -20 0.88 0.2
-5 -3 -20 0.56 0.21
5 3 -20 0.66 0.25
5 3 -20 0.36 0.23
5 -3 -20 0.78 0.27
-5 3 -20 0.9 0.2
5 -3 -20 0.68 0.24
6 3 -20 3.21 0.42
-6 -3 -20 3.9 0.37
6 3 -20 2.66 0.37
-6 3 -20 2.96 0.32
6 -3 -20 3.19 0.39
6 -3 -20 3.93 0.47
7 3 -20 1.33 0.29
7 3 -20 1.48 0.35
-7 -3 -20 1.64 0.27
-7 -3 20 1.29 0.27
-7 3 -20 1.34 0.23
7 -3 -20 1.52 0.36
7 -3 -20 1.67 0.34
8 3 -20 2.42 0.44
-8 -3 -20 2.4 0.3
-8 3 -20 2.56 0.3
8 -3 -20 2.57 0.39
-8 -3 20 2.42 0.39
8 -3 -20 2.36 0.42
-9 -3 -20 0.82 0.25
-9 3 20 1.28 0.32
9 3 -20 1.42 0.39
9 -3 -20 0.48 0.32
-9 -3 20 0.53 0.29
-10 -3 -20 1.29 0.31
-10 3 20 1.58 0.37
0 -4 -20 0.16 0.12
0 4 -20 0.32 0.13
0 -4 -20 -0.21 0.14
-1 -4 -20 3.61 0.35
1 4 -20 4.25 0.34
1 4 -20 3.35 0.3
1 -4 -20 3.94 0.34
1 -4 -20 3.79 0.36
-1 4 -20 3.66 0.32
-2 -4 -20 2.25 0.27
2 4 -20 2.54 0.28
2 4 -20 1.9 0.28
2 -4 -20 2.87 0.32
-2 4 -20 2.26 0.25
2 -4 -20 2.47 0.31
3 4 -20 8.06 0.52
3 4 -20 7.46 0.5
-3 -4 -20 8.34 0.5
-3 4 -20 8.33 0.48
3 -4 -20 7.48 0.48
3 -4 -20 7.26 0.53
4 4 -20 1.34 0.25
-4 -4 -20 1.34 0.25
4 4 -20 1.81 0.29
4 -4 -20 1.47 0.29
-4 4 -20 1.24 0.22
4 -4 -20 1.9 0.29
-5 -4 -20 1.21 0.25
5 4 -20 0.87 0.26
5 4 -20 1.47 0.29
5 -4 -20 0.75 0.24
-5 4 -20 0.9 0.2
5 -4 -20 1.2 0.3
6 4 -20 2.63 0.38
-6 -4 -20 2.2 0.31
6 4 -20 2.22 0.35
6 -4 -20 1.65 0.32
6 -4 -20 2.09 0.35
-6 4 -20 2.03 0.26
7 4 -20 1.36 0.31
-7 -4 -20 1.34 0.27
7 -4 -20 1.62 0.31
-7 -4 20 1.4 0.33
7 -4 -20 0.79 0.33
-7 4 -20 0.84 0.2
-8 -4 -20 0.27 0.22
8 4 -20 -0.04 0.27
8 -4 -20 0.48 0.25
-8 -4 20 0.75 0.28
8 -4 -20 0.52 0.26
-9 -4 -20 1.31 0.28
-9 4 20 0.36 0.27
9 4 -20 1.57 0.41
-9 -4 20 1 0.33
9 -4 -20 1.1 0.36
-10 4 20 2.64 0.45
0 5 -20 0.18 0.15
0 -5 -20 0.3 0.16
0 -5 -20 0.37 0.18
-1 -5 -20 4.11 0.32
1 5 -20 3.36 0.34
1 5 -20 3.72 0.34
1 -5 -20 4.01 0.37
1 -5 -20 3.95 0.36
-1 5 -20 3.85 0.32
-2 -5 -20 2.36 0.28
2 5 -20 1.99 0.27
2 5 -20 2.17 0.28
2 -5 -20 2.21 0.29
-2 5 -20 2.11 0.26
2 -5 -20 1.8 0.29
-3 -5 -20 2.6 0.3
3 5 -20 2.94 0.34
3 5 -20 1.9 0.29
-3 5 -20 2.42 0.28
3 -5 -20 2.16 0.33
3 -5 -20 3.01 0.33
-4 -5 -20 4.98 0.38
4 5 -20 4.93 0.44
4 5 -20 5.53 0.45
4 -5 -20 5.44 0.44
-4 5 -20 5.87 0.39
4 -5 -20 5.7 0.52
-5 -5 -20 1.9 0.28
5 5 -20 1.84 0.32
5 5 -20 1.15 0.29
5 -5 -20 1.43 0.25
-5 5 -20 1.17 0.22
5 -5 -20 1.21 0.31
6 5 -20 1.08 0.26
6 5 -20 1.6 0.29
-6 -5 -20 1.07 0.25
6 -5 -20 1.47 0.3
6 -5 -20 1.51 0.35
-6 5 -20 1.33 0.22
-7 -5 -20 1.98 0.31
7 5 -20 1.88 0.38
7 -5 -20 2.2 0.4
7 -5 -20 2.28 0.36
-7 -5 20 1.78 0.35
8 5 -20 0.3 0.23
-8 -5 -20 -0.03 0.2
8 -5 -20 0.01 0.21
-8 -5 20 0.09 0.19
8 -5 -20 -0.06 0.19
-9 -5 -20 1.97 0.33
-9 5 20 1.88 0.37
9 5 -20 1.7 0.42
9 -5 -20 1.96 0.42
-9 -5 20 2.33 0.43
-10 5 20 0.1 0.24
0 6 -20 10.12 0.55
0 -6 -20 9.83 0.57
0 -6 -20 9.64 0.56
-1 -6 -20 0.92 0.22
1 6 -20 1.53 0.24
-1 6 -20 1.27 0.22
1 -6 -20 1.08 0.23
1 -6 -20 1.33 0.21
2 6 -20 2.47 0.3
2 6 -20 2.33 0.3
-2 -6 -20 2.56 0.31
2 -6 -20 2.5 0.32
2 -6 -20 2.51 0.31
-2 6 -20 2.35 0.27
3 6 -20 -0.07 0.16
-3 -6 -20 -0.05 0.17
3 6 -20 0.06 0.17
-3 6 -20 0.01 0.14
3 -6 -20 0.1 0.15
3 -6 -20 0.17 0.17
4 6 -20 3.08 0.36
4 6 -20 3.1 0.37
-4 -6 -20 3.39 0.35
4 -6 -20 2.81 0.35
-4 6 -20 3.17 0.31
4 -6 -20 3.48 0.41
5 6 -20 0 0.22
-5 -6 -20 0.34 0.2
5 6 -20 0.59 0.2
-5 6 -20 0.34 0.18
5 -6 -20 0.11 0.23
5 -6 -20 0.7 0.24
6 6 -20 2.89 0.41
6 6 -20 3.19 0.4
-6 -6 -20 2.49 0.33
6 -6 -20 4.07 0.48
6 -6 -20 3.45 0.41
-7 -6 -20 1.62 0.28
7 6 -20 0.56 0.31
7 -6 -20 1.62 0.29
-7 -6 20 1.45 0.3
7 -6 -20 1.12 0.36
-8 -6 -20 1.94 0.33
8 6 -20 1.68 0.41
8 -6 -20 1.8 0.34
-8 -6 20 2.38 0.41
8 -6 -20 2.53 0.41
9 6 -20 1.65 0.41
-9 -6 -20 1.02 0.24
-9 6 20 0.87 0.29
9 -6 -20 1.72 0.41
-9 -6 20 0.79 0.32
-10 6 20 0.04 0.24
0 -7 -20 11.57 0.61
0 7 -20 11.21 0.6
0 -7 -20 11.09 0.63
-1 -7 -20 2.99 0.32
1 7 -20 2.59 0.3
-1 7 -20 2.68 0.29
1 -7 -20 2.56 0.31
1 -7 -20 2.48 0.31
-2 -7 -20 1.35 0.23
2 7 -20 1.53 0.25
2 7 -20 0.94 0.21
-2 7 -20 1.17 0.21
2 -7 -20 1.66 0.28
2 -7 -20 1.5 0.23
3 7 -20 0.16 0.18
-3 -7 -20 0.17 0.19
3 7 -20 0.22 0.18
3 -7 -20 0.33 0.15
3 -7 -20 0.28 0.22
-3 7 -20 0.24 0.16
-4 -7 -20 2.06 0.27
4 7 -20 2.06 0.31
4 7 -20 1.89 0.31
-4 7 -20 2.12 0.25
4 -7 -20 1.83 0.32
4 -7 -20 2.03 0.29
-5 -7 -20 2.5 0.33
5 7 -20 2.7 0.38
5 7 -20 3.59 0.41
5 -7 -20 3.95 0.47
5 -7 -20 3.05 0.36
-6 -7 -20 0.4 0.18
6 7 -20 0.65 0.22
6 -7 -20 0.78 0.32
-6 -7 20 0.73 0.27
6 -7 -20 0.83 0.25
-7 -7 -20 0.64 0.24
7 7 -20 0.22 0.28
7 -7 -20 0.64 0.24
7 -7 -20 0.71 0.31
-7 -7 20 0.26 0.25
8 7 -20 3.3 0.49
-8 -7 -20 2.8 0.36
-8 -7 20 3.13 0.46
8 -7 -20 2.96 0.45
8 -7 -20 3.24 0.43
-9 -7 -20 0.52 0.27
-9 7 20 0.65 0.29
0 8 -20 0.72 0.19
0 -8 -20 0.81 0.21
0 -8 -20 0.97 0.22
-1 -8 -20 3.71 0.36
1 8 -20 3.64 0.35
-1 -8 -20 4.27 0.36
1 -8 -20 4.35 0.36
-1 8 -20 3.88 0.32
1 -8 -20 3.61 0.38
2 8 -20 1.86 0.25
2 8 -20 1.85 0.26
-2 -8 -20 1.97 0.28
2 -8 -20 1.96 0.31
2 -8 -20 1.98 0.28
-2 8 -20 2.1 0.25
-3 -8 -20 2.6 0.32
3 8 -20 2.11 0.3
3 8 -20 2.46 0.32
-3 8 -20 2.38 0.27
3 -8 -20 2.43 0.31
3 -8 -20 2.43 0.35
4 8 -20 0.62 0.22
-4 -8 -20 0.52 0.22
4 8 -20 0.88 0.25
4 -8 -20 0.67 0.27
4 -8 -20 0.54 0.2
-5 -8 -20 0.29 0.21
5 8 -20 0.48 0.24
5 8 -20 0.41 0.2
5 -8 -20 0.6 0.21
5 -8 -20 -0.11 0.24
-6 -8 -20 1.31 0.27
6 8 -20 1.11 0.32
-6 -8 20 1.03 0.26
6 -8 -20 1.05 0.26
6 -8 -20 1.45 0.37
-7 -8 -20 0.9 0.27
7 8 -20 1.56 0.36
7 -8 -20 1.48 0.38
7 -8 -20 1.54 0.3
-7 -8 20 1.71 0.36
8 8 -20 0.05 0.29
-8 -8 -20 -0.2 0.21
-8 -8 20 0.03 0.25
8 -8 -20 0.51 0.23
8 -8 -20 -0.04 0.28
0 9 -20 2.75 0.3
0 -9 -20 3.22 0.32
0 -9 -20 2.98 0.34
1 9 -20 4.64 0.36
-1 -9 -20 4.1 0.36
-1 -9 -20 4.48 0.37
-1 9 -20 3.69 0.33
1 -9 -20 3.84 0.4
1 -9 -20 4.78 0.38
-2 -9 -20 1.09 0.24
2 9 -20 0.96 0.22
2 9 -20 1.06 0.23
2 -9 -20 1.5 0.25
2 -9 -20 0.8 0.25
-2 9 -20 1.12 0.22
-3 -9 -20 6.14 0.41
3 9 -20 4.77 0.42
3 9 -20 5.72 0.44
3 -9 -20 5.79 0.54
3 -9 -20 5.07 0.41
4 9 -20 0.89 0.25
4 9 -20 0.98 0.26
-4 -9 -20 0.36 0.21
4 -9 -20 0.59 0.21
4 -9 -20 1.02 0.29
-5 -9 -20 1.08 0.26
5 9 -20 1.26 0.3
5 -9 -20 1.3 0.27
5 -9 -20 1.37 0.34
-5 -9 20 1.17 0.29
-6 -9 -20 0.16 0.2
6 9 -20 -0.12 0.23
-6 -9 20 -0.04 0.22
6 -9 -20 -0.05 0.27
6 -9 -20 -0.19 0.15
7 9 -20 0.51 0.25
-7 -9 -20 0.69 0.25
7 -9 -20 0.43 0.22
7 -9 -20 0.64 0.35
-7 -9 20 0.76 0.3
8 9 -20 0.42 0.32
-8 -9 -20 0.14 0.23
-8 -9 20 0.31 0.28
8 -9 -20 0.91 0.27
8 -9 -20 0.19 0.29
0 -10 -20 2.88 0.34
0 10 -20 2.89 0.31
0 -10 -20 3.38 0.34
1 10 -20 -0.05 0.15
-1 -10 -20 0.1 0.17
-1 -10 -20 -0.04 0.15
1 -10 -20 0.34 0.2
-1 10 -20 0.1 0.15
1 -10 -20 0.18 0.17
2 10 -20 1.41 0.26
2 10 -20 1.86 0.28
-2 -10 -20 1.08 0.21
2 -10 -20 1.13 0.23
-2 -10 20 1.67 0.28
2 -10 -20 1.68 0.3
3 10 -20 2.08 0.31
-3 -10 -20 2.18 0.3
3 10 -20 1.9 0.29
3 -10 -20 2.17 0.3
3 -10 -20 2.88 0.39
-4 -10 -20 1.1 0.26
4 10 -20 1.37 0.28
4 10 -20 1.53 0.3
4 -10 -20 1.6 0.3
4 -10 -20 1.69 0.28
-5 -10 -20 0.44 0.22
5 10 -20 0.21 0.25
5 -10 -20 0.12 0.17
-5 -10 20 0.22 0.23
5 -10 -20 0.65 0.3
-6 -10 -20 0.59 0.25
6 10 -20 0.56 0.28
-6 -10 20 0.69 0.27
6 -10 -20 0.94 0.34
6 -10 -20 0.34 0.21
-7 -10 -20 0.88 0.27
7 10 -20 1.11 0.32
-7 -10 20 0.88 0.32
7 -10 -20 1.09 0.28
7 -10 -20 0.99 0.37
8 10 -20 0.33 0.3
-8 -10 -20 0.53 0.26
-8 -10 20 0.74 0.33
8 -10 -20 0.71 0.29
0 -11 -20 1.3 0.23
0 11 -20 0.66 0.2
0 -11 -20 1.13 0.25
-1 -11 -20 1.9 0.28
1 11 -20 1.5 0.25
-1 -11 -20 1.96 0.29
1 -11 -20 2.25 0.28
1 -11 -20 1.24 0.28
2 11 -20 0.58 0.19
-2 -11 -20 0.57 0.17
2 11 -20 0.19 0.18
2 -11 -20 0.74 0.26
-2 -11 20 0.39 0.2
2 -11 -20 0.51 0.18
3 11 -20 3.53 0.39
-3 -11 -20 3.75 0.39
3 11 -20 3.48 0.38
3 -11 -20 4.33 0.48
-3 -11 20 3.51 0.39
3 -11 -20 3.78 0.38
-4 -11 -20 2.2 0.31
4 11 -20 1.75 0.31
4 -11 -20 1.24 0.33
-4 -11 20 1.63 0.3
4 -11 -20 2.04 0.29
-4 -11 20 1.29 0.28
5 11 -20 1.61 0.33
-5 -11 -20 2.03 0.32
5 -11 -20 3.28 0.47
5 -11 -20 2.24 0.32
-5 -11 20 2.16 0.35
-5 -11 20 3.06 0.4
-6 -11 -20 1.21 0.29
6 11 -20 1.11 0.32
6 -11 -20 2.01 0.41
6 -11 -20 1.8 0.3
-6 -11 20 1.47 0.33
-7 -11 -20 0.61 0.27
7 11 -20 0.88 0.33
-7 -11 20 0.2 0.26
7 -11 -20 0.43 0.34
-8 -11 20 0.27 0.29
0 -12 -20 0.33 0.23
0 -12 -20 0.18 0.16
-1 -12 -20 0.15 0.18
-1 -12 -20 0.11 0.18
1 -12 -20 -0.3 0.18
1 -12 -20 0.01 0.15
-2 -12 -20 0.37 0.2
2 12 -20 0.46 0.19
2 -12 -20 0.53 0.25
2 -12 -20 0.61 0.19
-2 -12 20 0.59 0.23
3 12 -20 0.48 0.22
3 12 -20 0 0.17
-3 -12 -20 -0.01 0.14
-3 -12 20 0.28 0.21
3 -12 -20 0.59 0.27
3 -12 -20 0.37 0.18
4 12 -20 1.12 0.29
-4 -12 -20 1.88 0.31
4 -12 -20 1.56 0.34
-4 -12 20 1.46 0.3
-4 -12 20 1.17 0.28
4 -12 -20 1.71 0.27
5 12 -20 1.4 0.31
-5 -12 -20 1.01 0.27
5 -12 -20 0.97 0.25
-5 -12 20 1.25 0.3
-5 -12 20 0.65 0.25
5 -12 -20 1.17 0.35
-6 -12 -20 0.15 0.23
6 12 -20 -0.06 0.26
6 -12 -20 -0.26 0.27
-6 -12 20 0.02 0.22
-6 -12 20 -0.3 0.22
7 12 -20 0.86 0.34
-7 -12 -20 0.18 0.25
-7 -12 20 0.78 0.33
-7 -12 20 0.74 0.32
7 -12 -20 0.86 0.31
0 -13 -20 0.11 0.16
0 -13 -20 0.12 0.21
-1 -13 -20 1.53 0.26
-1 -13 -20 1.89 0.32
1 -13 -20 1.27 0.24
1 -13 -20 1.32 0.3
-2 -13 -20 2.05 0.3
2 -13 -20 2.26 0.3
2 -13 -20 0.86 0.3
-3 -13 -20 0.28 0.21
3 13 -20 0.31 0.22
-3 -13 20 0.21 0.19
-3 -13 20 0.05 0.2
3 -13 -20 0.61 0.2
3 -13 -20 0.33 0.28
4 13 -20 0.79 0.26
-4 -13 -20 0.64 0.24
4 -13 -20 0.56 0.21
-4 -13 20 0.49 0.25
4 -13 -20 1.06 0.34
-4 -13 20 0.82 0.25
5 13 -20 0.14 0.24
-5 -13 -20 0.17 0.22
-5 -13 20 0.14 0.24
5 -13 -20 -0.21 0.27
-5 -13 20 0.05 0.22
-6 -13 -20 0.51 0.21
6 13 -20 0.36 0.28
-6 -13 20 0.33 0.28
6 -13 -20 0.54 0.34
-6 -13 20 0.29 0.24
7 13 -20 0.11 0.28
-7 -13 20 0.22 0.26
-7 -13 20 -0.07 0.28
0 -14 -20 0.75 0.21
0 -14 -20 0.63 0.26
-1 -14 -20 1.11 0.25
-1 -14 -20 1.75 0.34
1 -14 -20 1.15 0.23
1 -14 -20 1.32 0.31
-2 -14 -20 0.5 0.21
2 -14 -20 0.42 0.18
2 -14 -20 0.59 0.28
-3 -14 -20 0.67 0.23
3 14 -20 0.97 0.27
3 -14 -20 1.22 0.33
-3 -14 20 0.56 0.24
3 -14 -20 0.67 0.2
-4 -14 -20 1.1 0.27
4 14 -20 0.51 0.25
-4 -14 20 0.75 0.27
4 -14 -20 0.88 0.33
-4 -14 20 0.96 0.27
-5 -14 -20 0.48 0.23
5 14 -20 0.37 0.25
-5 -14 20 0.36 0.23
5 -14 -20 0.47 0.33
-5 -14 20 -0.05 0.23
6 14 -20 1.61 0.36
-6 -14 -20 1.01 0.29
-6 -14 20 1.33 0.34
-6 -14 20 0.96 0.33
6 -14 -20 1.07 0.39
-7 -14 20 2.07 0.4
0 -15 -20 0.08 0.17
0 -15 -20 0.43 0.25
-1 -15 -20 1.06 0.23
-1 -15 -20 0.82 0.27
1 -15 -20 0.73 0.29
1 -15 -20 1.12 0.23
-2 -15 -20 1.08 0.25
2 -15 -20 0.31 0.28
-3 -15 -20 0.77 0.25
3 15 -20 0.47 0.24
-3 -15 20 1.07 0.27
3 -15 -20 1.46 0.35
-4 -15 -20 0.15 0.21
4 15 -20 0.06 0.23
4 -15 -20 0.88 0.32
-4 -15 20 0.4 0.27
5 15 -20 0.27 0.27
-5 -15 -20 0.33 0.25
5 -15 -20 0.11 0.28
-5 -15 20 0.25 0.25
6 15 -20 1.22 0.35
-6 -15 20 1.4 0.36
-6 -15 20 0.95 0.31
0 -16 -20 0.59 0.29
0 -16 -20 1.04 0.23
-1 -16 -20 0.01 0.17
-1 -16 -20 0.22 0.26
1 -16 -20 0.14 0.25
-2 -16 -20 1.79 0.3
2 -16 -20 1.98 0.4
-3 -16 -20 0.93 0.26
3 -16 -20 1.65 0.39
-3 -16 20 1.42 0.32
-4 -16 -20 0.52 0.23
4 16 -20 -0.1 0.23
-4 -16 20 0.22 0.25
4 -16 -20 0.43 0.3
-5 -16 -20 -0.03 0.21
5 16 -20 0.19 0.27
-5 -16 20 0.06 0.25
0 -17 -20 0.18 0.27
-1 -17 -20 2.11 0.3
-1 -17 -20 1.56 0.34
1 -17 -20 1.72 0.37
-2 -17 -20 1.57 0.29
2 -17 -20 1.35 0.37
-3 -17 -20 0.47 0.24
3 -17 -20 0.57 0.32
4 17 -20 1.77 0.35
-4 -17 -20 1.68 0.31
-4 -17 20 2.13 0.38
5 17 -20 -0.45 0.23
0 -18 -20 0.76 0.34
-1 -18 -20 0.11 0.25
1 -18 -20 0.41 0.31
2 -18 -20 0.07 0.21
-3 -18 -20 1.55 0.33
-4 -18 -20 -0.15 0.21
4 18 -20 -0.12 0.24
-4 -18 20 -0.11 0.25
0 -19 -20 0.31 0.29
-1 -19 -20 -0.21 0.24
1 -19 -20 0.24 0.3
0 0 -21 0.04 0.11
1 0 -21 0.41 0.18
-1 0 -21 0.16 0.13
1 0 -21 0.23 0.15
2 0 -21 5.63 0.42
2 0 -21 6.02 0.44
-2 0 -21 6.52 0.43
-3 0 -21 1.29 0.21
3 0 -21 1.38 0.26
3 0 -21 1.58 0.27
4 0 -21 4.52 0.39
-4 0 -21 4.67 0.38
4 0 -21 5.04 0.47
-5 0 -21 0.23 0.18
5 0 -21 0.17 0.22
5 0 -21 0.05 0.2
6 0 -21 1.08 0.32
6 0 -21 0.71 0.27
-6 0 -21 0.5 0.2
7 0 -21 6.86 0.57
-7 0 -21 7.59 0.5
7 0 -21 8.14 0.63
-8 0 21 0.17 0.25
-8 0 -21 -0.21 0.17
8 0 -21 0.25 0.28
9 0 -21 1.36 0.35
-9 0 21 1.41 0.34
-9 0 -21 1.04 0.25
-10 0 -21 0.31 0.22
0 1 -21 0.3 0.17
0 -1 -21 0.07 0.17
1 1 -21 4.09 0.36
1 1 -21 4.01 0.33
-1 -1 -21 4.6 0.37
-1 1 -21 4.06 0.35
1 -1 -21 4.59 0.37
1 -1 -21 3.98 0.34
-2 -1 -21 2.35 0.27
2 1 -21 1.91 0.28
2 1 -21 2.43 0.31
-2 1 -21 2.2 0.28
2 -1 -21 2.57 0.31
2 -1 -21 1.64 0.27
-3 -1 -21 1.8 0.27
3 1 -21 1.47 0.27
3 1 -21 2.54 0.31
-3 1 -21 2.15 0.28
3 -1 -21 2.17 0.31
3 -1 -21 2.02 0.3
-4 -1 -21 2.69 0.31
4 1 -21 3.03 0.37
4 1 -21 2.58 0.35
4 -1 -21 2.38 0.32
-4 1 -21 2.36 0.3
4 -1 -21 2.57 0.35
5 1 -21 0.48 0.25
5 1 -21 0.52 0.25
-5 -1 -21 0.61 0.21
-5 1 -21 0.5 0.2
5 -1 -21 0.61 0.21
5 -1 -21 0.43 0.23
6 1 -21 0.3 0.23
6 1 -21 0.15 0.19
-6 -1 -21 0.4 0.2
-6 1 -21 0.04 0.18
6 -1 -21 0.08 0.23
6 -1 -21 0.32 0.26
7 1 -21 4.06 0.49
7 1 -21 3.84 0.5
-7 -1 -21 4.5 0.38
7 -1 -21 3.82 0.49
7 -1 -21 3.84 0.48
-7 1 -21 3.38 0.36
-8 1 21 1.72 0.36
8 1 -21 1.77 0.4
-8 -1 -21 1.5 0.27
8 -1 -21 2.66 0.45
-8 1 -21 1.74 0.27
-8 -1 21 1.57 0.36
-9 1 21 -0.27 0.23
-9 -1 -21 0.34 0.21
9 1 -21 0.01 0.3
9 -1 -21 0.14 0.3
-9 -1 21 -0.02 0.23
-9 1 -21 -0.15 0.17
0 -2 -21 -0.03 0.15
0 2 -21 0.12 0.16
-1 -2 -21 7.09 0.46
1 2 -21 6.27 0.42
1 2 -21 6.96 0.46
1 -2 -21 7.33 0.45
1 -2 -21 7.16 0.46
-1 2 -21 6.32 0.44
2 2 -21 0.89 0.22
-2 -2 -21 0.59 0.2
2 2 -21 0.64 0.19
2 -2 -21 0.79 0.2
2 -2 -21 0.45 0.16
-2 2 -21 0.63 0.2
-3 -2 -21 2.24 0.3
3 2 -21 2.35 0.31
3 2 -21 2.26 0.31
3 -2 -21 2.68 0.33
3 -2 -21 1.56 0.29
-3 2 -21 2.66 0.3
4 2 -21 1.79 0.3
4 2 -21 1.17 0.27
-4 -2 -21 1.29 0.25
4 -2 -21 1.53 0.27
-4 2 -21 1.53 0.25
4 -2 -21 1.65 0.3
-5 -2 -21 3.42 0.36
5 2 -21 3.31 0.41
5 2 -21 3.51 0.43
5 -2 -21 4.57 0.45
5 -2 -21 3.69 0.44
-5 2 -21 3.78 0.36
-6 -2 -21 2.96 0.35
6 2 -21 4.22 0.46
6 2 -21 3.2 0.43
-6 2 -21 3.63 0.35
6 -2 -21 3.24 0.42
6 -2 -21 3.68 0.44
-7 -2 -21 -0.06 0.18
7 2 -21 -0.02 0.22
7 2 -21 0.15 0.27
7 -2 -21 0.3 0.23
7 -2 -21 0.07 0.26
-7 2 -21 0.1 0.17
-8 -2 -21 0.15 0.2
8 2 -21 -0.13 0.27
8 -2 -21 -0.15 0.15
-8 2 -21 0.24 0.2
-8 -2 21 -0.11 0.22
8 -2 -21 -0.01 0.27
-9 -2 -21 0.39 0.22
-9 2 21 0.49 0.28
9 2 -21 0.76 0.35
9 -2 -21 0.61 0.33
-9 -2 21 0.25 0.26
-9 2 -21 0.34 0.2
0 -3 -21 0.69 0.2
0 3 -21 0.65 0.19
-1 -3 -21 2.19 0.28
1 3 -21 2.01 0.26
1 -3 -21 1.39 0.24
1 -3 -21 1.72 0.25
-1 3 -21 2.13 0.25
2 3 -21 3.9 0.36
-2 -3 -21 3.96 0.37
2 3 -21 3.4 0.35
2 -3 -21 3.96 0.33
2 -3 -21 3.68 0.37
-2 3 -21 3.86 0.34
3 3 -21 0.6 0.19
-3 -3 -21 1.06 0.23
3 3 -21 0.94 0.24
3 -3 -21 1.01 0.24
-3 3 -21 0.74 0.18
3 -3 -21 0.57 0.22
-4 -3 -21 0.28 0.19
4 3 -21 0.38 0.21
4 3 -21 0.46 0.22
4 -3 -21 0.17 0.16
4 -3 -21 0.07 0.21
-4 3 -21 0.6 0.17
5 3 -21 4.77 0.43
5 3 -21 4.67 0.49
-5 -3 -21 5.45 0.42
5 -3 -21 5.16 0.52
5 -3 -21 5.92 0.48
-5 3 -21 5.16 0.39
6 3 -21 0.39 0.2
6 3 -21 0.29 0.26
-6 -3 -21 0.51 0.21
-6 3 -21 0.17 0.18
6 -3 -21 0.56 0.29
6 -3 -21 0.41 0.25
-7 -3 -21 1.96 0.3
7 3 -21 1.67 0.35
7 3 -21 1.87 0.38
-7 3 -21 1.82 0.27
7 -3 -21 1.48 0.33
7 -3 -21 2.37 0.42
-8 -3 -21 0.79 0.24
8 3 -21 1.04 0.35
-8 -3 21 0.94 0.31
8 -3 -21 1.27 0.32
-8 3 -21 1.04 0.22
8 -3 -21 0.75 0.29
9 3 -21 0.98 0.36
-9 3 21 0.97 0.31
-9 -3 -21 0.97 0.26
9 -3 -21 1.19 0.4
-9 -3 21 1.06 0.35
0 -4 -21 -0.07 0.15
0 4 -21 -0.07 0.14
-1 -4 -21 2.02 0.28
1 4 -21 1.87 0.27
1 -4 -21 1.8 0.27
-1 4 -21 1.72 0.23
1 -4 -21 2.33 0.29
2 4 -21 1.34 0.24
-2 -4 -21 1.44 0.25
2 4 -21 1.86 0.27
2 -4 -21 1.99 0.29
2 -4 -21 2.06 0.28
-2 4 -21 2.13 0.27
-3 -4 -21 1.2 0.25
3 4 -21 1.29 0.26
3 4 -21 1.2 0.24
-3 4 -21 1.34 0.23
3 -4 -21 1.61 0.27
3 -4 -21 0.89 0.25
-4 -4 -21 6.01 0.45
4 4 -21 5.93 0.48
4 4 -21 5.64 0.48
4 -4 -21 6.19 0.48
4 -4 -21 6.29 0.48
-4 4 -21 6.99 0.44
5 4 -21 0.53 0.25
5 4 -21 1.06 0.28
-5 -4 -21 1.03 0.24
5 -4 -21 0.9 0.26
-5 4 -21 0.76 0.21
5 -4 -21 0.75 0.24
-6 -4 -21 0.34 0.21
6 4 -21 0.41 0.26
6 4 -21 0.29 0.25
6 -4 -21 0.42 0.27
6 -4 -21 0.51 0.25
-6 4 -21 0.25 0.17
7 4 -21 4.29 0.51
-7 -4 -21 4.2 0.41
7 -4 -21 4.42 0.49
-7 4 -21 3.66 0.35
-7 -4 21 3.74 0.47
7 -4 -21 3.88 0.52
-8 -4 -21 0.67 0.24
8 4 -21 0.86 0.35
-8 -4 21 1.11 0.32
8 -4 -21 0.98 0.3
8 -4 -21 1.58 0.34
-9 -4 -21 1.44 0.29
-9 4 21 1.22 0.33
0 -5 -21 0.83 0.21
0 5 -21 0.44 0.18
0 -5 -21 0.56 0.18
-1 -5 -21 3.89 0.37
1 5 -21 4.03 0.35
1 -5 -21 3.58 0.38
-1 5 -21 4.28 0.35
1 -5 -21 4.61 0.38
2 5 -21 0.42 0.2
2 5 -21 0.15 0.16
-2 -5 -21 0.18 0.14
-2 5 -21 0.54 0.19
2 -5 -21 0.01 0.18
2 -5 -21 0.09 0.17
3 5 -21 0.96 0.23
-3 -5 -21 0.77 0.22
3 5 -21 1.06 0.25
3 -5 -21 0.86 0.26
3 -5 -21 0.62 0.22
-3 5 -21 0.85 0.2
4 5 -21 1.03 0.26
-4 -5 -21 1.62 0.25
4 5 -21 1.34 0.28
4 -5 -21 1.67 0.29
4 -5 -21 1.27 0.3
-4 5 -21 1.09 0.22
-5 -5 -21 0.14 0.19
5 5 -21 0.12 0.17
5 5 -21 0.03 0.22
5 -5 -21 -0.08 0.17
5 -5 -21 -0.16 0.22
-5 5 -21 0.23 0.16
6 5 -21 1.63 0.34
6 5 -21 1.32 0.31
-6 -5 -21 1.08 0.27
6 -5 -21 2.32 0.35
6 -5 -21 1.95 0.38
-6 5 -21 1.12 0.22
7 5 -21 2.97 0.44
-7 -5 -21 2.11 0.33
7 -5 -21 3.32 0.48
7 -5 -21 2.96 0.41
-7 -5 21 3 0.43
-8 -5 -21 4.21 0.42
8 5 -21 4.97 0.57
8 -5 -21 4.73 0.58
-8 -5 21 4.69 0.54
8 -5 -21 4.28 0.5
-9 5 21 0.53 0.27
-9 -5 -21 0.95 0.28
0 6 -21 7.32 0.45
0 -6 -21 6.73 0.46
0 -6 -21 6.38 0.45
-1 -6 -21 1.63 0.26
1 6 -21 0.9 0.22
-1 6 -21 1.33 0.23
1 -6 -21 1.14 0.25
1 -6 -21 1.57 0.24
-2 -6 -21 4.95 0.4
2 6 -21 4.7 0.38
2 6 -21 4.8 0.4
2 -6 -21 4.3 0.41
2 -6 -21 4.18 0.42
-2 6 -21 5.16 0.37
3 6 -21 -0.06 0.16
3 6 -21 -0.06 0.18
-3 -6 -21 0.1 0.18
3 -6 -21 0.5 0.23
3 -6 -21 0.07 0.19
-3 6 -21 0.27 0.17
4 6 -21 1.77 0.3
4 6 -21 1.08 0.26
-4 -6 -21 1.24 0.25
4 -6 -21 1.1 0.26
4 -6 -21 0.91 0.24
-4 6 -21 0.82 0.2
-5 -6 -21 2.2 0.32
5 6 -21 2.51 0.36
5 6 -21 1.79 0.33
5 -6 -21 2.1 0.38
5 -6 -21 1.82 0.32
-5 6 -21 2.49 0.28
6 6 -21 2.14 0.36
-6 -6 -21 1.57 0.29
6 6 -21 2.22 0.38
6 -6 -21 1.52 0.36
6 -6 -21 1.5 0.31
7 6 -21 0.29 0.22
-7 -6 -21 0.5 0.23
-7 -6 21 0.16 0.25
7 -6 -21 0.43 0.29
7 -6 -21 0.1 0.21
-8 -6 -21 0.86 0.26
8 6 -21 1.01 0.31
-8 -6 21 0.9 0.32
8 -6 -21 0.8 0.29
8 -6 -21 0.75 0.27
-9 6 21 0.03 0.23
0 7 -21 4.87 0.38
0 -7 -21 5.72 0.41
0 -7 -21 3.96 0.37
1 7 -21 4 0.37
-1 -7 -21 3.69 0.37
1 -7 -21 4.02 0.38
1 -7 -21 3.07 0.36
-1 7 -21 3.94 0.34
2 7 -21 3.6 0.36
-2 -7 -21 3.62 0.37
2 7 -21 3.57 0.37
2 -7 -21 3.88 0.41
-2 7 -21 4.04 0.34
2 -7 -21 4 0.34
-3 -7 -21 0 0.17
3 7 -21 0.03 0.17
3 7 -21 0.07 0.18
3 -7 -21 0.17 0.22
3 -7 -21 0.41 0.2
-3 7 -21 -0.01 0.17
4 7 -21 2.65 0.36
4 7 -21 3.28 0.37
-4 -7 -21 3.49 0.35
-4 7 -21 3.23 0.33
4 -7 -21 3.15 0.41
4 -7 -21 3.08 0.38
5 7 -21 1.89 0.33
5 7 -21 1.44 0.32
-5 -7 -21 1.84 0.29
5 -7 -21 1.11 0.33
5 -7 -21 2.04 0.32
6 7 -21 3.15 0.42
-6 -7 -21 3.55 0.39
6 -7 -21 2.58 0.42
6 -7 -21 3.11 0.4
-6 -7 21 2.2 0.38
-7 -7 -21 3.51 0.37
7 7 -21 2.92 0.46
-7 -7 21 3.31 0.43
7 -7 -21 3.59 0.45
7 -7 -21 3.72 0.51
-8 -7 -21 0.12 0.22
8 7 -21 0.2 0.3
8 -7 -21 -0.06 0.27
-8 -7 21 0.34 0.29
8 -7 -21 0.85 0.27
-9 7 21 2.32 0.4
0 -8 -21 0.05 0.17
0 8 -21 -0.02 0.16
0 -8 -21 -0.02 0.15
-1 -8 -21 2.21 0.3
1 8 -21 2.4 0.3
1 -8 -21 1.63 0.25
-1 8 -21 2.36 0.28
1 -8 -21 1.93 0.3
2 8 -21 1.38 0.24
2 8 -21 1.33 0.27
-2 -8 -21 1.51 0.27
2 -8 -21 1.32 0.28
-2 8 -21 2.09 0.27
2 -8 -21 2.13 0.3
-3 -8 -21 6.63 0.46
3 8 -21 5.64 0.45
3 8 -21 4.98 0.43
-3 8 -21 5.93 0.4
3 -8 -21 5.52 0.49
3 -8 -21 5.03 0.43
-4 -8 -21 -0.02 0.19
4 8 -21 0.53 0.22
4 8 -21 0.45 0.22
4 -8 -21 0.21 0.16
4 -8 -21 -0.28 0.22
-5 -8 -21 2.7 0.35
5 8 -21 2.05 0.36
5 8 -21 2.34 0.36
5 -8 -21 2.67 0.36
5 -8 -21 3.1 0.45
-6 -8 -21 1.98 0.29
6 8 -21 2.16 0.38
-6 -8 21 1.53 0.35
6 -8 -21 1.2 0.28
6 -8 -21 2.46 0.43
7 8 -21 1.7 0.36
-7 -8 -21 0.78 0.27
7 -8 -21 1.69 0.33
7 -8 -21 1.34 0.39
-7 -8 21 0.86 0.3
8 8 -21 0.49 0.32
-8 -8 -21 0.72 0.22
-8 -8 21 0.94 0.33
8 -8 -21 1.32 0.33
8 -8 -21 0.94 0.38
0 9 -21 0.48 0.18
0 -9 -21 0.39 0.2
0 -9 -21 0.64 0.2
1 9 -21 2.17 0.28
-1 -9 -21 1.99 0.29
-1 9 -21 1.66 0.25
1 -9 -21 1.71 0.3
1 -9 -21 2.14 0.3
2 9 -21 1.12 0.25
-2 -9 -21 1.16 0.23
2 -9 -21 0.96 0.23
-2 9 -21 1.32 0.22
2 -9 -21 1.05 0.27
3 9 -21 2.12 0.32
-3 -9 -21 2.34 0.3
3 9 -21 2.08 0.31
3 -9 -21 2.25 0.31
3 -9 -21 2.2 0.33
4 9 -21 0.61 0.24
-4 -9 -21 0.97 0.26
4 9 -21 0.87 0.23
4 -9 -21 0.88 0.23
4 -9 -21 1.02 0.32
-5 -9 -21 0.62 0.23
5 9 -21 0.84 0.28
5 -9 -21 0.68 0.31
-5 -9 21 -0.09 0.2
5 -9 -21 0.44 0.21
6 9 -21 0.43 0.27
-6 -9 -21 0.64 0.24
6 -9 -21 0.65 0.27
-6 -9 21 0.64 0.27
6 -9 -21 0.32 0.21
-7 -9 -21 0.49 0.25
7 9 -21 0.4 0.28
7 -9 -21 0.31 0.22
7 -9 -21 0.49 0.31
-7 -9 21 0.6 0.29
8 9 -21 3.92 0.55
8 -9 -21 4.08 0.49
0 -10 -21 16.65 0.88
0 -10 -21 19.33 0.87
0 10 -21 16.51 0.84
-1 -10 -21 0.03 0.18
1 10 -21 0.28 0.18
1 -10 -21 0.59 0.22
1 -10 -21 0.31 0.19
2 10 -21 1.96 0.29
-2 -10 -21 2.57 0.32
2 -10 -21 1.68 0.25
2 -10 -21 2.39 0.35
3 10 -21 0.8 0.23
3 10 -21 0.78 0.25
-3 -10 -21 1.63 0.28
3 -10 -21 1.01 0.23
3 -10 -21 0.7 0.27
4 10 -21 1.33 0.28
4 10 -21 0.93 0.26
-4 -10 -21 1.08 0.27
4 -10 -21 1.33 0.33
4 -10 -21 1.71 0.28
5 10 -21 -0.33 0.21
-5 -10 -21 -0.1 0.2
5 -10 -21 -0.25 0.24
5 -10 -21 0.18 0.19
-5 -10 21 0.19 0.22
-6 -10 -21 0.63 0.26
6 10 -21 1.04 0.28
6 -10 -21 0.89 0.26
-6 -10 21 0.59 0.27
6 -10 -21 1.14 0.38
-7 -10 -21 0.43 0.25
7 10 -21 0.74 0.27
7 -10 -21 0.32 0.33
-7 -10 21 0.5 0.29
7 -10 -21 0.52 0.23
0 -11 -21 0.31 0.18
0 -11 -21 0.15 0.19
-1 -11 -21 3.11 0.34
1 11 -21 2.8 0.33
1 -11 -21 3.03 0.38
1 -11 -21 3.04 0.34
-2 -11 -21 0.02 0.18
2 11 -21 0.25 0.18
2 -11 -21 0.49 0.18
2 -11 -21 0.22 0.22
-3 -11 -21 2.87 0.34
3 11 -21 2.47 0.33
3 11 -21 2.07 0.31
3 -11 -21 2.48 0.32
-3 -11 21 2.23 0.34
3 -11 -21 2.32 0.38
-4 -11 -21 2.22 0.33
4 11 -21 1.8 0.32
4 -11 -21 2.34 0.32
-4 -11 21 2.2 0.34
-4 -11 21 1.7 0.32
4 -11 -21 2.29 0.36
-5 -11 -21 2.38 0.34
5 11 -21 1.85 0.35
-5 -11 21 1.56 0.32
5 -11 -21 1.51 0.38
-5 -11 21 1.36 0.33
5 -11 -21 2.29 0.33
-6 -11 -21 0.05 0.22
6 11 -21 0.44 0.29
6 -11 -21 0.25 0.21
6 -11 -21 0.54 0.34
-6 -11 21 0.2 0.24
-7 -11 -21 0.63 0.27
7 11 -21 0.3 0.3
7 -11 -21 0.98 0.38
-7 -11 21 0.28 0.27
0 -12 -21 5.31 0.42
0 -12 -21 5.75 0.48
-1 -12 -21 1.12 0.26
1 -12 -21 1.04 0.23
1 -12 -21 0.55 0.25
2 12 -21 1.25 0.25
-2 -12 -21 1.73 0.28
2 -12 -21 0.98 0.29
2 -12 -21 1.25 0.26
-3 -12 -21 5.29 0.44
3 12 -21 5.47 0.46
3 12 -21 3.58 0.42
-3 -12 21 4.49 0.46
3 -12 -21 4.88 0.53
3 -12 -21 4.86 0.4
4 12 -21 0.89 0.28
-4 -12 -21 1.08 0.28
4 -12 -21 0.3 0.2
4 -12 -21 -0.04 0.26
-4 -12 21 -0.14 0.19
-4 -12 21 0.81 0.25
-5 -12 -21 0.67 0.26
5 12 -21 0.37 0.26
5 -12 -21 0.35 0.21
5 -12 -21 0.93 0.35
-5 -12 21 0.77 0.27
-5 -12 21 0.54 0.26
-6 -12 -21 -0.19 0.22
6 12 -21 0.45 0.28
6 -12 -21 0.52 0.31
-6 -12 21 0.73 0.28
-6 -12 21 0.55 0.28
7 12 -21 1.46 0.4
-7 -12 21 1.46 0.36
0 -13 -21 4.67 0.4
0 -13 -21 5.28 0.51
-1 -13 -21 0.38 0.2
1 -13 -21 0.65 0.2
1 -13 -21 -0.02 0.23
-2 -13 -21 2.07 0.31
2 -13 -21 2.22 0.39
2 -13 -21 1.74 0.28
-3 -13 -21 1.23 0.27
3 -13 -21 1.12 0.25
3 -13 -21 1.8 0.36
-3 -13 21 1.02 0.27
-3 -13 21 1.53 0.29
4 13 -21 1.52 0.31
-4 -13 -21 1.3 0.28
4 -13 -21 1.3 0.37
4 -13 -21 1.04 0.26
-4 -13 21 1.41 0.29
-4 -13 21 1.22 0.3
5 13 -21 0.33 0.26
-5 -13 -21 0.24 0.24
5 -13 -21 0.46 0.25
-5 -13 21 -0.13 0.22
-5 -13 21 0.15 0.24
-6 -13 -21 1.85 0.34
6 13 -21 1.41 0.36
-6 -13 21 1.82 0.38
-6 -13 21 1.87 0.35
6 -13 -21 1.3 0.35
0 -14 -21 2.36 0.31
0 -14 -21 2 0.35
-1 -14 -21 1.79 0.29
-1 -14 -21 1.96 0.35
1 -14 -21 1.82 0.35
1 -14 -21 1.72 0.28
-2 -14 -21 1.56 0.28
2 -14 -21 1.69 0.36
2 -14 -21 1.59 0.27
-3 -14 -21 1.49 0.3
3 -14 -21 1.45 0.27
3 -14 -21 1.91 0.37
4 14 -21 0.18 0.24
-4 -14 -21 0.09 0.22
-4 -14 21 0.47 0.26
4 -14 -21 0.68 0.26
-4 -14 21 0.76 0.26
5 14 -21 0.18 0.25
-5 -14 -21 0.35 0.24
5 -14 -21 0.78 0.34
-5 -14 21 0.74 0.27
-5 -14 21 0.08 0.24
6 14 -21 -0.09 0.25
-6 -14 21 -0.13 0.24
-6 -14 21 -0.1 0.24
0 -15 -21 0.11 0.19
0 -15 -21 0.12 0.25
-1 -15 -21 2.21 0.31
-1 -15 -21 2.29 0.37
1 -15 -21 2.07 0.3
1 -15 -21 1.75 0.37
-2 -15 -21 2.34 0.34
2 -15 -21 2.02 0.4
-3 -15 -21 1.16 0.28
3 -15 -21 1.94 0.39
4 15 -21 -0.2 0.22
-4 -15 -21 -0.06 0.22
4 -15 -21 0.14 0.28
-4 -15 21 0.21 0.26
-5 -15 -21 0.96 0.28
5 15 -21 0.54 0.28
-5 -15 21 0.74 0.3
-6 -15 21 0.31 0.27
0 -16 -21 -0.19 0.16
0 -16 -21 0.15 0.25
-1 -16 -21 1.53 0.34
-1 -16 -21 2.02 0.3
1 -16 -21 1.73 0.37
-2 -16 -21 0.96 0.26
2 -16 -21 1.04 0.35
-3 -16 -21 0.59 0.24
3 -16 -21 0.29 0.3
-4 -16 -21 -0.07 0.2
-4 -16 21 0.04 0.24
4 -16 -21 -0.01 0.27
5 16 -21 0.5 0.3
-5 -16 21 -0.17 0.24
0 -17 -21 0.31 0.27
-1 -17 -21 0.98 0.25
-1 -17 -21 1.73 0.36
1 -17 -21 1 0.35
-2 -17 -21 2.58 0.36
2 -17 -21 2.26 0.43
-3 -17 -21 0.53 0.27
-4 -17 21 0.16 0.29
0 -18 -21 0.85 0.33
-1 -18 -21 0.25 0.28
1 -18 -21 -0.01 0.27
-3 -18 -21 0.43 0.24
0 0 -22 11.67 0.63
1 0 -22 1.23 0.23
-1 0 -22 1.64 0.26
2 0 -22 0.87 0.2
-2 0 -22 0.51 0.17
2 0 -22 0.37 0.18
3 0 -22 0.54 0.22
-3 0 -22 0.14 0.18
3 0 -22 0.41 0.21
4 0 -22 2.8 0.37
-4 0 -22 3.29 0.33
4 0 -22 2.81 0.37
5 0 -22 3.41 0.42
5 0 -22 3.35 0.42
-5 0 -22 2.98 0.34
6 0 -22 0.06 0.24
6 0 -22 0.12 0.25
-6 0 -22 0.26 0.19
-7 0 -22 0.66 0.22
7 0 -22 0.14 0.28
7 0 -22 0.79 0.29
8 0 -22 -0.01 0.28
-8 0 22 0.18 0.26
-8 0 -22 0.06 0.2
-9 0 -22 0.07 0.22
0 -1 -22 1.04 0.23
0 1 -22 0.82 0.22
1 1 -22 2.85 0.33
-1 -1 -22 3.35 0.33
-1 1 -22 3.32 0.34
1 -1 -22 2.98 0.34
-2 -1 -22 2.22 0.3
2 1 -22 2.23 0.31
2 1 -22 1.59 0.26
2 -1 -22 1.45 0.26
-2 1 -22 1.9 0.28
2 -1 -22 2.37 0.31
3 1 -22 2.51 0.35
-3 -1 -22 2.65 0.33
3 1 -22 2.95 0.35
3 -1 -22 2.8 0.36
-3 1 -22 3.02 0.33
3 -1 -22 3.49 0.37
-4 -1 -22 1.51 0.26
4 1 -22 0.62 0.25
4 1 -22 1.76 0.3
-4 1 -22 1.42 0.26
4 -1 -22 1.16 0.28
4 -1 -22 1.07 0.27
5 1 -22 1.81 0.33
5 1 -22 1.7 0.33
-5 -1 -22 1.55 0.28
5 -1 -22 2.15 0.36
-5 1 -22 1.91 0.28
5 -1 -22 2.42 0.36
6 1 -22 2.89 0.4
6 1 -22 3.85 0.46
-6 -1 -22 2.54 0.33
6 -1 -22 3.03 0.43
6 -1 -22 3.41 0.45
-6 1 -22 2.92 0.34
-7 -1 -22 1.74 0.29
7 1 -22 2.45 0.41
7 1 -22 2.81 0.44
7 -1 -22 2.25 0.4
-7 1 -22 1.76 0.28
7 -1 -22 2.17 0.41
-8 -1 -22 0.72 0.24
8 1 -22 1.21 0.32
-8 1 22 1.02 0.31
-8 -1 22 1.08 0.3
-8 1 -22 1.11 0.25
8 -1 -22 0.92 0.36
-9 -1 -22 2.26 0.32
-9 1 -22 1.86 0.3
0 2 -22 7.07 0.46
0 -2 -22 6.64 0.47
1 2 -22 0.6 0.17
-1 -2 -22 1.3 0.25
-1 2 -22 0.79 0.21
1 -2 -22 0.33 0.19
1 -2 -22 0.56 0.19
2 2 -22 2.82 0.32
2 2 -22 2.18 0.3
-2 -2 -22 2.39 0.31
2 -2 -22 2.65 0.33
2 -2 -22 2.01 0.29
-2 2 -22 2.85 0.3
3 2 -22 6 0.47
-3 -2 -22 6.07 0.45
3 2 -22 5.29 0.44
3 -2 -22 6.38 0.44
3 -2 -22 5.71 0.47
-3 2 -22 5.94 0.43
4 2 -22 1.59 0.3
4 2 -22 1.1 0.26
-4 -2 -22 1.89 0.29
4 -2 -22 1.94 0.32
-4 2 -22 1.9 0.28
4 -2 -22 1.14 0.29
5 2 -22 6.4 0.54
5 2 -22 6.5 0.54
-5 -2 -22 6.93 0.48
5 -2 -22 6.25 0.55
5 -2 -22 6.66 0.54
-5 2 -22 6.16 0.45
6 2 -22 0.34 0.27
6 2 -22 0.25 0.25
-6 -2 -22 0.27 0.21
6 -2 -22 0.14 0.23
-6 2 -22 0.22 0.19
6 -2 -22 0.3 0.25
7 2 -22 1.86 0.36
7 2 -22 2.17 0.38
-7 -2 -22 1.75 0.3
-7 2 -22 1.72 0.26
7 -2 -22 1.34 0.32
7 -2 -22 2.48 0.4
-8 -2 -22 1.16 0.27
8 2 -22 1.89 0.41
8 -2 -22 1.59 0.4
8 -2 -22 1.07 0.32
-8 -2 22 0.9 0.32
-8 2 -22 1.32 0.25
-9 -2 -22 0.92 0.26
0 3 -22 1.91 0.28
0 -3 -22 1.83 0.28
-1 -3 -22 1.25 0.24
1 3 -22 0.68 0.21
-1 3 -22 0.55 0.2
1 -3 -22 0.79 0.2
1 -3 -22 1.03 0.24
2 3 -22 2.2 0.31
2 3 -22 2.28 0.29
-2 -3 -22 2.03 0.29
-2 3 -22 2.34 0.3
2 -3 -22 2.37 0.31
2 -3 -22 2.33 0.32
-3 -3 -22 -0.05 0.18
3 3 -22 0.22 0.2
3 3 -22 0.08 0.17
3 -3 -22 -0.1 0.18
-3 3 -22 0.09 0.18
3 -3 -22 0.06 0.14
4 3 -22 9.2 0.64
-4 -3 -22 11.27 0.63
4 3 -22 11.02 0.68
4 -3 -22 10.88 0.67
-4 3 -22 11.07 0.61
4 -3 -22 11.23 0.69
5 3 -22 3.71 0.43
5 3 -22 2.94 0.38
-5 -3 -22 3.1 0.36
-5 3 -22 2.98 0.33
5 -3 -22 3.32 0.41
5 -3 -22 3.3 0.43
6 3 -22 0.8 0.29
-6 -3 -22 0.65 0.23
6 3 -22 0.68 0.27
6 -3 -22 0.6 0.3
6 -3 -22 0.2 0.24
-6 3 -22 1 0.23
7 3 -22 0.13 0.24
7 3 -22 -0.27 0.24
-7 -3 -22 -0.26 0.18
7 -3 -22 -0.02 0.26
-7 3 -22 -0.06 0.16
7 -3 -22 0.05 0.18
-8 -3 -22 0.06 0.21
8 3 -22 0.03 0.28
8 -3 -22 0.1 0.24
8 -3 -22 0.05 0.21
-8 -3 22 0.25 0.25
0 4 -22 0.29 0.18
0 -4 -22 -0.24 0.15
-1 -4 -22 4.29 0.41
1 4 -22 4.88 0.4
-1 4 -22 4.81 0.35
1 -4 -22 4.43 0.41
1 -4 -22 4.17 0.37
2 4 -22 5.45 0.42
-2 -4 -22 4.48 0.39
2 4 -22 4.05 0.36
2 -4 -22 4.65 0.4
-2 4 -22 4.16 0.38
2 -4 -22 3.54 0.39
-3 -4 -22 0.69 0.23
3 4 -22 0.67 0.2
3 4 -22 0.74 0.22
3 -4 -22 0.22 0.21
-3 4 -22 0.34 0.19
3 -4 -22 0.75 0.23
4 4 -22 1.76 0.31
4 4 -22 1.87 0.33
-4 -4 -22 2.77 0.33
4 -4 -22 2.61 0.38
4 -4 -22 2.08 0.33
-4 4 -22 2.55 0.31
5 4 -22 0.49 0.25
-5 -4 -22 0.48 0.23
5 4 -22 0.6 0.25
5 -4 -22 0.54 0.27
5 -4 -22 0.76 0.26
-5 4 -22 0.73 0.2
6 4 -22 1.66 0.31
-6 -4 -22 1.45 0.26
6 4 -22 1.33 0.33
6 -4 -22 1.52 0.37
-6 4 -22 1.63 0.26
6 -4 -22 1.96 0.35
-7 -4 -22 0.66 0.25
7 4 -22 0.75 0.31
-7 4 -22 0.6 0.21
7 -4 -22 0.74 0.33
-7 -4 22 0.77 0.29
7 -4 -22 1.29 0.3
-8 -4 -22 0.89 0.26
8 4 -22 0.61 0.33
-8 -4 22 0.83 0.27
8 -4 -22 1 0.35
8 -4 -22 0.95 0.32
0 -5 -22 -0.13 0.16
0 5 -22 -0.14 0.16
-1 -5 -22 4.14 0.34
1 5 -22 3.68 0.37
1 -5 -22 3.85 0.39
-1 5 -22 3.78 0.37
1 -5 -22 3.99 0.4
-2 -5 -22 4.32 0.4
2 5 -22 3.93 0.39
2 5 -22 4.43 0.37
2 -5 -22 4.53 0.36
2 -5 -22 3.66 0.4
-2 5 -22 4.19 0.36
3 5 -22 2.82 0.35
3 5 -22 3.69 0.4
-3 -5 -22 4.57 0.39
3 -5 -22 3.37 0.4
-3 5 -22 3.39 0.35
3 -5 -22 4.1 0.41
4 5 -22 1.73 0.3
4 5 -22 2.08 0.33
-4 -5 -22 2.41 0.31
4 -5 -22 1.82 0.33
-4 5 -22 1.78 0.26
4 -5 -22 1.83 0.31
5 5 -22 0.3 0.19
-5 -5 -22 -0.04 0.14
5 5 -22 -0.02 0.22
5 -5 -22 0.15 0.21
-5 5 -22 0.34 0.18
5 -5 -22 0.33 0.22
6 5 -22 1.36 0.34
6 5 -22 1.45 0.34
-6 -5 -22 1.7 0.3
6 -5 -22 1.71 0.37
6 -5 -22 1.66 0.33
-6 5 -22 1.22 0.23
-7 -5 -22 0.03 0.2
7 5 -22 0.19 0.28
-7 -5 22 -0.28 0.23
7 -5 -22 0.21 0.31
7 -5 -22 0.5 0.21
8 5 -22 0.54 0.33
-8 -5 -22 0.29 0.23
8 -5 -22 0.54 0.27
8 -5 -22 0.14 0.23
-8 -5 22 0.08 0.24
0 -6 -22 1 0.23
0 6 -22 0.37 0.19
-1 -6 -22 2.02 0.29
1 6 -22 1.82 0.29
-1 6 -22 1.24 0.24
1 -6 -22 1.89 0.28
1 -6 -22 1.69 0.28
-2 -6 -22 0.93 0.2
2 6 -22 0.9 0.23
2 -6 -22 1.03 0.24
2 -6 -22 1.03 0.25
-2 6 -22 0.56 0.2
3 6 -22 1.88 0.31
3 6 -22 1.87 0.29
-3 -6 -22 1.69 0.26
3 -6 -22 1.89 0.33
-3 6 -22 1.85 0.27
3 -6 -22 1.83 0.3
-4 -6 -22 0.9 0.24
4 6 -22 0.96 0.26
4 6 -22 1.08 0.24
4 -6 -22 1.3 0.31
4 -6 -22 1.31 0.28
-4 6 -22 1.11 0.24
-5 -6 -22 -0.3 0.18
5 6 -22 0.25 0.23
5 6 -22 0.53 0.25
-5 6 -22 0.3 0.18
5 -6 -22 0.07 0.24
5 -6 -22 0.08 0.19
-6 -6 -22 0.76 0.25
6 6 -22 0.51 0.28
6 6 -22 1.14 0.27
6 -6 -22 0.97 0.28
6 -6 -22 0.82 0.28
-7 -6 -22 6.17 0.51
7 6 -22 6.3 0.63
7 -6 -22 7.36 0.59
-7 -6 22 6.85 0.64
7 -6 -22 6.55 0.67
-8 -6 -22 0.22 0.23
8 6 -22 0.4 0.32
8 -6 -22 -0.16 0.19
-8 -6 22 0.27 0.29
8 -6 -22 0.26 0.25
0 7 -22 1.98 0.28
0 -7 -22 2.13 0.3
-1 -7 -22 1.21 0.25
1 7 -22 1.65 0.27
-1 7 -22 1.11 0.23
1 -7 -22 1.35 0.25
1 -7 -22 0.97 0.25
2 7 -22 -0.06 0.13
-2 -7 -22 0.25 0.2
2 -7 -22 -0.12 0.16
2 -7 -22 0.09 0.19
-2 7 -22 0.12 0.16
-3 -7 -22 1.59 0.28
3 7 -22 1.36 0.27
3 7 -22 2.22 0.33
3 -7 -22 2.49 0.33
3 -7 -22 1.66 0.32
-3 7 -22 1.7 0.26
-4 -7 -22 2.3 0.3
4 7 -22 2.53 0.36
4 7 -22 2.22 0.34
4 -7 -22 2.43 0.39
4 -7 -22 2.95 0.37
-4 7 -22 2.95 0.32
5 7 -22 0.96 0.29
-5 -7 -22 1.34 0.25
5 7 -22 0.53 0.25
5 -7 -22 0.92 0.27
5 -7 -22 0.82 0.3
-6 -7 -22 1.31 0.29
6 7 -22 1.5 0.33
-6 -7 22 1.12 0.31
6 -7 -22 1.17 0.3
6 -7 -22 1.05 0.28
7 7 -22 1.46 0.37
-7 -7 -22 0.93 0.28
7 -7 -22 1.88 0.41
7 -7 -22 1.68 0.35
-7 -7 22 1.39 0.35
8 7 -22 0.91 0.31
8 -7 -22 0.77 0.28
0 8 -22 0.72 0.22
0 -8 -22 1.43 0.25
-1 -8 -22 1.33 0.27
1 8 -22 1 0.24
1 -8 -22 1.53 0.27
1 -8 -22 0.76 0.24
-1 8 -22 1.18 0.23
2 8 -22 0.73 0.23
-2 -8 -22 0.47 0.18
-2 8 -22 0.67 0.2
2 -8 -22 0.48 0.23
2 -8 -22 0.44 0.21
-3 -8 -22 0.08 0.2
3 8 -22 0.26 0.2
3 8 -22 0.36 0.2
3 -8 -22 0.29 0.2
-3 8 -22 0.13 0.16
3 -8 -22 0.33 0.24
4 8 -22 1.21 0.28
-4 -8 -22 0.9 0.25
4 8 -22 0.49 0.23
4 -8 -22 0.81 0.3
4 -8 -22 0.68 0.24
5 8 -22 0.66 0.26
-5 -8 -22 0.44 0.23
5 8 -22 0.8 0.24
5 -8 -22 0.73 0.24
5 -8 -22 0.92 0.32
-6 -8 -22 3.48 0.38
6 8 -22 2.85 0.42
6 -8 -22 4.02 0.51
-6 -8 22 2.56 0.41
6 -8 -22 3.43 0.43
-7 -8 -22 0.33 0.19
7 8 -22 0.73 0.3
7 -8 -22 -0.15 0.26
-7 -8 22 0.58 0.29
7 -8 -22 1.05 0.28
8 -8 -22 -0.22 0.19
0 -9 -22 2.26 0.31
0 -9 -22 2.38 0.33
0 9 -22 2.03 0.29
-1 -9 -22 2.34 0.31
1 9 -22 2.14 0.3
1 -9 -22 2.29 0.32
1 -9 -22 1.83 0.31
-1 9 -22 2.38 0.29
2 9 -22 0.22 0.2
-2 -9 -22 0.37 0.21
2 -9 -22 0.06 0.21
2 -9 -22 0.5 0.22
3 9 -22 2.73 0.37
-3 -9 -22 3.72 0.39
3 9 -22 3.22 0.38
3 -9 -22 3.65 0.39
3 -9 -22 2.64 0.39
-4 -9 -22 0.52 0.24
4 9 -22 0.46 0.24
4 9 -22 0.27 0.23
4 -9 -22 0.14 0.25
4 -9 -22 0.6 0.23
5 9 -22 -0.08 0.19
-5 -9 -22 0.08 0.21
5 9 -22 0.11 0.23
5 -9 -22 0.3 0.28
5 -9 -22 0.13 0.19
6 9 -22 -0.58 0.21
-6 -9 -22 -0.16 0.21
6 -9 -22 0.21 0.22
6 -9 -22 -0.32 0.27
-6 -9 22 -0.16 0.22
-7 -9 -22 -0.11 0.21
7 9 -22 0.29 0.29
7 -9 -22 0.41 0.31
7 -9 -22 0.24 0.21
-7 -9 22 -0.05 0.26
8 -9 -22 0.89 0.28
0 10 -22 0.33 0.19
0 -10 -22 0.34 0.2
0 -10 -22 0.11 0.17
-1 -10 -22 1.8 0.28
1 10 -22 1.68 0.28
1 -10 -22 1.98 0.3
1 -10 -22 1.55 0.29
-2 -10 -22 3.29 0.37
2 10 -22 3.1 0.36
2 -10 -22 3.11 0.4
2 -10 -22 2.65 0.34
3 10 -22 0.16 0.2
-3 -10 -22 0.78 0.25
3 -10 -22 0.63 0.22
3 -10 -22 0.14 0.24
-3 -10 22 0.49 0.22
4 10 -22 0.36 0.24
-4 -10 -22 1.11 0.28
4 10 -22 0.81 0.26
4 -10 -22 1.22 0.33
4 -10 -22 0.85 0.24
5 10 -22 0.83 0.29
-5 -10 -22 0.11 0.23
-5 -10 22 0.68 0.28
5 -10 -22 0.68 0.26
5 -10 -22 0.6 0.23
6 10 -22 0.51 0.3
-6 -10 -22 0.57 0.26
6 -10 -22 0.69 0.25
6 -10 -22 1.36 0.37
-6 -10 22 0.68 0.28
7 10 -22 0.25 0.29
7 -10 -22 -0.29 0.17
-7 -10 22 -0.24 0.25
0 -11 -22 0.41 0.22
0 -11 -22 0.43 0.21
-1 -11 -22 1.06 0.25
1 11 -22 0.91 0.23
1 -11 -22 1.03 0.28
1 -11 -22 1.18 0.24
-2 -11 -22 0.32 0.22
2 11 -22 -0.05 0.17
2 -11 -22 0.25 0.19
2 -11 -22 0.34 0.23
3 11 -22 1.23 0.26
-3 -11 -22 1.03 0.26
3 -11 -22 0.99 0.31
3 -11 -22 1.43 0.27
-3 -11 22 1.29 0.27
-4 -11 -22 0.42 0.24
4 11 -22 0.57 0.25
4 -11 -22 0.12 0.27
-4 -11 22 0.96 0.27
-4 -11 22 0.41 0.24
4 -11 -22 0.48 0.2
-5 -11 -22 0.1 0.23
5 11 -22 0.72 0.27
5 -11 -22 0.12 0.29
-5 -11 22 0.42 0.24
5 -11 -22 0.61 0.23
-5 -11 22 0.39 0.24
6 11 -22 0.17 0.26
-6 -11 -22 -0.04 0.22
6 -11 -22 0.36 0.22
-6 -11 22 -0.58 0.21
-6 -11 22 0.08 0.26
6 -11 -22 0.35 0.3
0 -12 -22 0.34 0.24
0 -12 -22 0.61 0.21
-1 -12 -22 2.18 0.31
1 -12 -22 2.71 0.37
1 -12 -22 1.85 0.29
-2 -12 -22 -0.33 0.17
2 -12 -22 0.1 0.23
2 -12 -22 -0.16 0.15
3 12 -22 1.38 0.28
-3 -12 -22 1.07 0.28
3 -12 -22 1.29 0.35
3 -12 -22 1.01 0.24
4 12 -22 1.8 0.33
-4 -12 -22 2.77 0.37
-4 -12 22 1.89 0.35
4 -12 -22 2.87 0.45
-4 -12 22 2.43 0.37
4 -12 -22 1.83 0.31
5 12 -22 0.21 0.24
-5 -12 -22 -0.01 0.23
-5 -12 22 -0.21 0.2
5 -12 -22 0.26 0.23
5 -12 -22 0.32 0.25
-5 -12 22 0.06 0.21
6 12 -22 0.49 0.29
6 -12 -22 0.14 0.32
-6 -12 22 0.38 0.26
-6 -12 22 0.93 0.3
0 -13 -22 2.21 0.31
0 -13 -22 2.19 0.36
-1 -13 -22 0.47 0.21
1 -13 -22 0.07 0.18
1 -13 -22 0.59 0.26
-2 -13 -22 0.37 0.21
2 -13 -22 0.62 0.26
2 -13 -22 0.49 0.21
-3 -13 -22 1.23 0.28
3 -13 -22 1.65 0.37
3 -13 -22 1.57 0.27
-3 -13 22 1.07 0.29
4 13 -22 1.85 0.33
-4 -13 -22 1.29 0.31
4 -13 -22 1.55 0.29
-4 -13 22 1.46 0.33
4 -13 -22 2.02 0.37
-4 -13 22 1.24 0.3
5 13 -22 0.31 0.27
-5 -13 -22 0.39 0.25
5 -13 -22 0.23 0.3
-5 -13 22 -0.18 0.24
-5 -13 22 0.82 0.28
6 13 -22 0.38 0.29
-6 -13 22 0.67 0.29
-6 -13 22 1.02 0.33
0 -14 -22 0.46 0.25
0 -14 -22 0.25 0.21
-1 -14 -22 2.01 0.32
1 -14 -22 1.83 0.36
1 -14 -22 1.99 0.31
-2 -14 -22 1.43 0.29
2 -14 -22 1.51 0.36
2 -14 -22 1.35 0.27
-3 -14 -22 2.66 0.37
3 -14 -22 3.08 0.46
-4 -14 -22 0.32 0.24
-4 -14 22 0.48 0.26
4 -14 -22 0.44 0.31
5 14 -22 0.03 0.26
-5 -14 22 0.27 0.27
-5 -14 22 0.47 0.27
0 -15 -22 0.22 0.2
0 -15 -22 0.25 0.27
-1 -15 -22 1.02 0.26
1 -15 -22 1.75 0.29
1 -15 -22 1.46 0.35
-2 -15 -22 0.35 0.22
2 -15 -22 -0.14 0.25
-3 -15 -22 0.64 0.25
3 -15 -22 0.94 0.32
-4 -15 -22 0.28 0.24
4 -15 -22 0.04 0.28
5 15 -22 0.01 0.25
-5 -15 22 0.27 0.25
0 -16 -22 -0.02 0.21
0 -16 -22 -0.07 0.22
-1 -16 -22 4.3 0.42
1 -16 -22 3.65 0.5
-2 -16 -22 1.88 0.33
2 -16 -22 2.21 0.41
-3 -16 -22 0.47 0.23
0 -17 -22 0.1 0.26
-1 -17 -22 0.72 0.24
1 -17 -22 0.89 0.32
-2 -17 -22 1.91 0.32
0 0 -23 0.25 0.19
-1 0 -23 -0.43 0.15
1 0 -23 -0.06 0.13
2 0 -23 8.25 0.53
2 0 -23 6.42 0.49
-2 0 -23 7.42 0.5
3 0 -23 0.15 0.2
-3 0 -23 0.44 0.21
3 0 -23 -0.28 0.15
4 0 -23 0.4 0.22
4 0 -23 0.13 0.2
-4 0 -23 0.24 0.2
-5 0 -23 1.25 0.26
5 0 -23 1.41 0.31
5 0 -23 0.98 0.26
6 0 -23 5.3 0.54
-6 0 -23 3.96 0.35
6 0 -23 4 0.49
-7 0 -23 0.18 0.2
7 0 -23 0.14 0.26
7 0 -23 -0.16 0.23
-8 0 23 -0.3 0.23
-8 0 -23 -0.21 0.18
8 0 -23 -0.39 0.25
0 1 -23 1.24 0.26
0 -1 -23 1.57 0.25
-1 -1 -23 0.29 0.2
1 1 -23 0.58 0.22
1 -1 -23 0.61 0.21
-1 1 -23 0.51 0.21
2 1 -23 0.96 0.22
-2 -1 -23 1.53 0.26
2 1 -23 1.04 0.23
2 -1 -23 1.65 0.28
-2 1 -23 1.1 0.25
2 -1 -23 1.26 0.25
-3 -1 -23 2.24 0.32
3 1 -23 3.11 0.36
3 1 -23 2.19 0.32
-3 1 -23 3.2 0.35
3 -1 -23 2.79 0.35
3 -1 -23 2.9 0.37
4 1 -23 0.14 0.22
-4 -1 -23 0.67 0.22
4 1 -23 0.14 0.23
4 -1 -23 0.1 0.21
-4 1 -23 0.53 0.21
4 -1 -23 0.31 0.23
-5 -1 -23 1.78 0.29
5 1 -23 1.55 0.33
5 1 -23 1.84 0.35
-5 1 -23 2 0.29
5 -1 -23 2.13 0.37
5 -1 -23 2.26 0.38
6 1 -23 1 0.31
-6 -1 -23 0.8 0.23
6 1 -23 0.87 0.29
-6 1 -23 0.45 0.21
6 -1 -23 0.89 0.29
6 -1 -23 0.44 0.28
-7 -1 -23 0.41 0.22
7 1 -23 0.32 0.3
7 1 -23 0.7 0.31
7 -1 -23 0.78 0.3
-7 1 -23 0.88 0.23
7 -1 -23 1.29 0.35
8 1 -23 0.17 0.29
-8 1 23 -0.11 0.23
-8 -1 -23 0.1 0.21
-8 -1 23 -0.14 0.24
-8 1 -23 -0.1 0.21
8 -1 -23 0.16 0.29
-9 1 -23 0.73 0.25
0 2 -23 0.49 0.2
0 -2 -23 0.37 0.2
1 2 -23 3.39 0.37
-1 -2 -23 3.01 0.35
1 -2 -23 2.79 0.35
-1 2 -23 2.91 0.34
2 2 -23 2.89 0.36
-2 -2 -23 2.89 0.33
2 -2 -23 3.63 0.39
-2 2 -23 3 0.35
2 -2 -23 3 0.35
3 2 -23 1.38 0.27
-3 -2 -23 1.66 0.28
3 2 -23 1.63 0.31
3 -2 -23 1.36 0.28
3 -2 -23 1.62 0.3
-3 2 -23 1.78 0.29
-4 -2 -23 1.15 0.26
4 2 -23 0.85 0.25
4 2 -23 0.99 0.24
-4 2 -23 0.71 0.23
4 -2 -23 1.14 0.28
4 -2 -23 0.98 0.28
-5 -2 -23 0.91 0.25
5 2 -23 0.43 0.24
5 2 -23 0.77 0.27
-5 2 -23 0.46 0.22
5 -2 -23 0.79 0.28
5 -2 -23 0.53 0.26
-6 -2 -23 -0.03 0.19
6 2 -23 0.01 0.23
6 2 -23 -0.21 0.24
6 -2 -23 0.23 0.24
6 -2 -23 -0.1 0.25
-6 2 -23 0.37 0.2
-7 -2 -23 0.09 0.21
7 2 -23 0.1 0.27
7 2 -23 0.36 0.27
7 -2 -23 0.07 0.25
7 -2 -23 0.08 0.26
-7 2 -23 -0.01 0.17
-8 -2 -23 0.65 0.25
8 2 -23 0.49 0.33
8 -2 -23 0.56 0.3
8 -2 -23 0.48 0.28
-8 2 -23 0.7 0.22
0 -3 -23 10.23 0.6
0 3 -23 9.47 0.59
1 3 -23 0.54 0.22
-1 -3 -23 0.55 0.22
1 -3 -23 0.55 0.21
-1 3 -23 0.39 0.21
2 3 -23 0.91 0.22
-2 -3 -23 0.75 0.2
2 -3 -23 0.9 0.25
2 -3 -23 0.72 0.23
-2 3 -23 0.96 0.23
3 3 -23 1.46 0.3
3 3 -23 1.37 0.26
-3 -3 -23 1.54 0.28
3 -3 -23 1 0.26
-3 3 -23 1.46 0.27
3 -3 -23 1.6 0.3
-4 -3 -23 0.33 0.2
4 3 -23 -0.18 0.2
4 3 -23 0.29 0.22
4 -3 -23 -0.15 0.2
-4 3 -23 0.15 0.19
4 -3 -23 -0.27 0.19
5 3 -23 0.41 0.24
-5 -3 -23 0.51 0.23
5 3 -23 0.79 0.24
5 -3 -23 0.58 0.26
-5 3 -23 0.42 0.2
5 -3 -23 0.35 0.26
-6 -3 -23 2.71 0.35
6 3 -23 1.76 0.36
6 3 -23 2.23 0.39
6 -3 -23 2.24 0.39
-6 3 -23 2.28 0.3
6 -3 -23 2.27 0.36
7 3 -23 1.07 0.34
7 3 -23 1.16 0.33
-7 -3 -23 0.73 0.25
-7 3 -23 1.35 0.26
7 -3 -23 0.87 0.33
7 -3 -23 0.99 0.28
-8 -3 -23 0.42 0.24
8 3 -23 0.59 0.34
8 -3 -23 0.59 0.28
0 4 -23 0.97 0.24
0 -4 -23 0.54 0.18
-1 -4 -23 4.99 0.41
1 4 -23 4.19 0.36
-1 4 -23 4.44 0.39
1 -4 -23 4.84 0.44
-2 -4 -23 0.2 0.19
2 4 -23 0.07 0.2
2 -4 -23 0.12 0.18
2 -4 -23 0.15 0.2
-2 4 -23 -0.09 0.17
-3 -4 -23 0.3 0.21
3 4 -23 0.13 0.21
3 4 -23 0.08 0.18
3 -4 -23 0.09 0.2
-3 4 -23 0.48 0.2
3 -4 -23 0.55 0.23
4 4 -23 0.35 0.23
4 4 -23 0.25 0.21
-4 -4 -23 0.09 0.2
-4 4 -23 0.23 0.19
4 -4 -23 0.27 0.17
4 -4 -23 -0.32 0.19
-5 -4 -23 3.06 0.37
5 4 -23 3.02 0.41
5 4 -23 2.6 0.4
-5 4 -23 2.76 0.32
5 -4 -23 2.77 0.4
5 -4 -23 2.83 0.41
6 4 -23 0.11 0.19
6 4 -23 0.25 0.2
-6 -4 -23 0.38 0.23
-6 4 -23 0.38 0.2
6 -4 -23 -0.13 0.22
6 -4 -23 0.17 0.27
7 4 -23 1.68 0.37
-7 -4 -23 1.32 0.29
7 -4 -23 1.59 0.36
7 -4 -23 0.87 0.34
-7 -4 23 1.18 0.35
8 -4 -23 0.19 0.27
0 -5 -23 -0.14 0.17
0 5 -23 -0.04 0.17
1 5 -23 1.99 0.31
-1 -5 -23 1.39 0.27
1 -5 -23 1.87 0.27
-1 5 -23 2.14 0.29
2 5 -23 0.57 0.24
-2 -5 -23 0.9 0.24
2 -5 -23 0.61 0.23
-2 5 -23 0.77 0.23
2 -5 -23 1.49 0.25
-3 -5 -23 0.38 0.21
3 5 -23 0.02 0.15
3 5 -23 0.12 0.2
-3 5 -23 -0.17 0.19
3 -5 -23 0 0.2
3 -5 -23 0.09 0.15
4 5 -23 1.96 0.34
4 5 -23 2.09 0.33
-4 -5 -23 2.5 0.32
4 -5 -23 2.38 0.36
4 -5 -23 2.13 0.37
-4 5 -23 2.54 0.31
5 5 -23 2.04 0.36
5 5 -23 2.32 0.37
-5 -5 -23 2.51 0.32
-5 5 -23 2.58 0.32
5 -5 -23 1.97 0.35
5 -5 -23 2.35 0.4
6 5 -23 0.84 0.31
-6 -5 -23 0.92 0.27
6 5 -23 1.52 0.35
6 -5 -23 1.62 0.33
6 -5 -23 1.26 0.35
7 5 -23 1.59 0.39
-7 -5 -23 1.92 0.33
7 -5 -23 1.76 0.41
7 -5 -23 2.36 0.39
-7 -5 23 2.03 0.4
8 -5 -23 0.98 0.31
0 6 -23 0.25 0.19
0 -6 -23 0.26 0.2
-1 -6 -23 0.38 0.18
1 6 -23 0.75 0.24
1 -6 -23 0.18 0.19
-1 6 -23 0.4 0.2
1 -6 -23 0.4 0.21
2 6 -23 3.24 0.38
-2 -6 -23 2.91 0.35
2 -6 -23 2.68 0.36
2 -6 -23 2.79 0.35
-2 6 -23 2.29 0.31
3 6 -23 2.3 0.34
3 6 -23 1.85 0.3
-3 -6 -23 1.81 0.28
3 -6 -23 2.04 0.35
3 -6 -23 2.53 0.35
-3 6 -23 2.33 0.29
4 6 -23 0.62 0.24
4 6 -23 0.77 0.27
-4 -6 -23 0.62 0.24
-4 6 -23 1.01 0.23
4 -6 -23 0.97 0.27
4 -6 -23 0.86 0.28
5 6 -23 1.58 0.34
5 6 -23 2.34 0.38
-5 -6 -23 2.43 0.35
5 -6 -23 2.02 0.35
5 -6 -23 1.86 0.37
6 6 -23 0.57 0.3
-6 -6 -23 0.23 0.22
6 6 -23 0.91 0.31
6 -6 -23 0.7 0.27
6 -6 -23 0.99 0.33
-7 -6 -23 0.18 0.23
7 6 -23 0.8 0.33
7 -6 -23 0.91 0.34
-7 -6 23 0.59 0.24
7 -6 -23 0.72 0.28
0 -7 -23 0 0.14
0 7 -23 0.3 0.2
-1 -7 -23 0.35 0.22
1 7 -23 0.4 0.21
1 -7 -23 0.26 0.2
1 -7 -23 0.42 0.2
-1 7 -23 -0.01 0.17
2 7 -23 6.92 0.49
-2 -7 -23 6.19 0.47
2 -7 -23 5.36 0.46
-2 7 -23 6.21 0.44
2 -7 -23 4.98 0.5
-3 -7 -23 3.71 0.4
3 7 -23 4.25 0.44
3 7 -23 3.35 0.39
3 -7 -23 3.29 0.42
-3 7 -23 3.8 0.37
3 -7 -23 3.97 0.4
-4 -7 -23 0.7 0.2
4 7 -23 0.58 0.24
4 7 -23 0.76 0.26
4 -7 -23 0.85 0.26
4 -7 -23 0.55 0.24
-5 -7 -23 3.05 0.36
5 7 -23 2.92 0.42
5 7 -23 3.21 0.42
5 -7 -23 2.91 0.39
5 -7 -23 3.08 0.45
-6 -7 -23 0.17 0.23
6 7 -23 0.38 0.27
-6 -7 23 0.28 0.27
6 -7 -23 -0.11 0.19
6 -7 -23 -0.02 0.27
7 7 -23 -0.37 0.25
-7 -7 -23 0.34 0.25
7 -7 -23 0.18 0.28
7 -7 -23 -0.06 0.21
-7 -7 23 0.07 0.27
0 8 -23 -0.15 0.17
0 -8 -23 0.18 0.2
-1 -8 -23 2.96 0.34
1 8 -23 3.24 0.37
-1 8 -23 3.3 0.35
1 -8 -23 3.27 0.38
1 -8 -23 3.05 0.38
-2 -8 -23 1.34 0.27
2 8 -23 1.25 0.27
-2 8 -23 0.98 0.23
2 -8 -23 0.93 0.27
2 -8 -23 1.09 0.26
-3 -8 -23 0.05 0.16
3 8 -23 0.23 0.22
3 -8 -23 0.08 0.22
3 -8 -23 0.52 0.22
-4 -8 -23 0.81 0.26
4 8 -23 1.18 0.28
4 8 -23 1.03 0.29
4 -8 -23 1.19 0.32
4 -8 -23 1.15 0.25
5 8 -23 1.1 0.3
-5 -8 -23 1.22 0.29
5 8 -23 1.55 0.33
5 -8 -23 1.88 0.33
5 -8 -23 1.35 0.35
-6 -8 -23 1.81 0.33
6 8 -23 2.34 0.4
-6 -8 23 2.24 0.4
6 -8 -23 2.34 0.43
6 -8 -23 2.13 0.36
7 8 -23 2.36 0.42
7 -8 -23 1.52 0.33
0 9 -23 0.21 0.19
0 -9 -23 0.3 0.2
1 9 -23 0.88 0.24
-1 -9 -23 0.84 0.25
1 -9 -23 1.29 0.24
-1 9 -23 0.45 0.2
1 -9 -23 0.37 0.25
-2 -9 -23 -0.06 0.2
2 9 -23 0.14 0.2
2 -9 -23 0.22 0.2
2 -9 -23 0.38 0.24
3 9 -23 3.69 0.42
-3 -9 -23 4.05 0.42
3 -9 -23 4.14 0.47
3 -9 -23 3.31 0.39
4 9 -23 2.2 0.34
-4 -9 -23 2.25 0.35
4 9 -23 2.21 0.35
4 -9 -23 3.07 0.38
4 -9 -23 1.67 0.32
5 9 -23 -0.24 0.2
-5 -9 -23 0.05 0.22
5 9 -23 0.02 0.22
5 -9 -23 0.21 0.28
5 -9 -23 0.28 0.22
-6 -9 -23 0.38 0.2
6 9 -23 -0.5 0.2
6 -9 -23 0.35 0.3
-6 -9 23 0.07 0.26
6 -9 -23 -0.48 0.14
7 -9 -23 0.34 0.24
0 10 -23 0.34 0.22
0 -10 -23 0.72 0.2
1 10 -23 0.35 0.21
-1 -10 -23 0.37 0.22
1 -10 -23 0.09 0.2
1 -10 -23 0.14 0.2
-2 -10 -23 0.47 0.23
2 10 -23 0.09 0.18
2 -10 -23 1.03 0.24
2 -10 -23 0.05 0.22
3 10 -23 0.89 0.26
-3 -10 -23 1.08 0.26
3 -10 -23 0.96 0.25
3 -10 -23 1.1 0.31
4 10 -23 1.5 0.31
-4 -10 -23 1.15 0.28
4 10 -23 0.82 0.28
4 -10 -23 0.85 0.32
4 -10 -23 0.88 0.26
5 10 -23 0.58 0.27
-5 -10 -23 0.23 0.25
5 -10 -23 -0.02 0.26
-5 -10 23 -0.26 0.22
5 -10 -23 -0.18 0.16
6 10 -23 0.13 0.28
-6 -10 -23 -0.17 0.22
-6 -10 23 0.53 0.27
6 -10 -23 0.45 0.24
6 -10 -23 0.71 0.34
7 -10 -23 2.92 0.41
0 -11 -23 0.57 0.22
-1 -11 -23 3.03 0.37
1 11 -23 3.37 0.4
1 -11 -23 3.37 0.43
1 -11 -23 3.25 0.38
2 11 -23 0.67 0.22
-2 -11 -23 0.41 0.24
2 -11 -23 0.37 0.2
2 -11 -23 0.25 0.24
3 11 -23 0.83 0.25
-3 -11 -23 0.91 0.26
3 -11 -23 1.23 0.34
3 -11 -23 0.72 0.24
-4 -11 -23 1.51 0.3
4 11 -23 1.2 0.28
4 11 -23 0.7 0.28
4 -11 -23 1.21 0.28
4 -11 -23 1.27 0.36
-4 -11 23 1.43 0.3
-5 -11 -23 0.41 0.26
5 11 -23 -0.06 0.23
5 -11 -23 -0.08 0.19
-5 -11 23 0.64 0.27
-5 -11 23 0.18 0.24
5 -11 -23 0.06 0.27
6 11 -23 1.97 0.39
-6 -11 23 1.99 0.38
-6 -11 23 2.23 0.39
6 -11 -23 1.87 0.34
0 -12 -23 -0.19 0.16
-1 -12 -23 1.54 0.29
1 -12 -23 1.68 0.32
1 -12 -23 1.9 0.31
-2 -12 -23 1.67 0.3
2 -12 -23 1.36 0.32
2 -12 -23 1.39 0.28
3 12 -23 2.57 0.36
-3 -12 -23 2.11 0.34
3 -12 -23 2.68 0.35
3 -12 -23 1.8 0.38
-4 -12 -23 0.9 0.28
4 -12 -23 0.82 0.25
4 -12 -23 1.54 0.37
-4 -12 23 1.06 0.3
-4 -12 23 0.54 0.27
5 12 -23 4 0.49
5 -12 -23 4 0.45
-5 -12 23 5.15 0.53
5 -12 -23 4 0.54
-5 -12 23 3.92 0.47
0 -13 -23 0.15 0.19
-1 -13 -23 1.04 0.26
1 -13 -23 1.53 0.32
1 -13 -23 1.07 0.25
-2 -13 -23 0.04 0.21
2 -13 -23 0.15 0.19
2 -13 -23 0.57 0.27
-3 -13 -23 0.45 0.25
3 -13 -23 0.54 0.3
3 -13 -23 0.49 0.22
-4 -13 -23 1.52 0.32
-4 -13 23 1.56 0.33
4 -13 -23 1.57 0.39
4 -13 -23 2.51 0.39
5 13 -23 1.09 0.31
-5 -13 23 1.16 0.33
-5 -13 23 0.39 0.28
0 -14 -23 2.2 0.33
-1 -14 -23 0.53 0.23
1 -14 -23 0.86 0.29
1 -14 -23 0.57 0.22
-2 -14 -23 1.76 0.31
2 -14 -23 2.16 0.33
2 -14 -23 2.13 0.39
-3 -14 -23 0.53 0.24
3 -14 -23 0.03 0.28
5 14 -23 0.61 0.28
-5 -14 23 0.66 0.31
0 -15 -23 0.82 0.26
-1 -15 -23 2.23 0.34
1 -15 -23 2.38 0.34
1 -15 -23 2.26 0.4
-2 -15 -23 0.1 0.21
2 -15 -23 0.61 0.3
3 -15 -23 0.3 0.25
0 -16 -23 0.68 0.24
-1 -16 -23 0.12 0.2
1 -16 -23 0.5 0.29
-2 -16 -23 0.58 0.25
0 0 -24 0.32 0.21
1 0 -24 1.52 0.29
-1 0 -24 1.78 0.27
-2 0 -24 2.06 0.29
2 0 -24 2.81 0.36
-3 0 -24 -0.01 0.2
3 0 -24 0.22 0.21
3 0 -24 -0.14 0.19
4 0 -24 -0.15 0.15
-4 0 -24 0.18 0.2
4 0 -24 0.13 0.21
5 0 -24 0.14 0.24
5 0 -24 -0.14 0.2
-5 0 -24 -0.07 0.19
6 0 -24 2.89 0.44
6 0 -24 2 0.39
-6 0 -24 2.32 0.32
7 0 -24 0.91 0.33
7 0 -24 0.96 0.32
-7 0 -24 0.97 0.26
-8 0 -24 -0.04 0.19
0 -1 -24 2.34 0.33
0 1 -24 2.64 0.34
1 1 -24 0.21 0.2
-1 -1 -24 0.69 0.24
-1 1 -24 0.41 0.21
1 -1 -24 0.48 0.22
-2 -1 -24 0.05 0.2
2 1 -24 -0.13 0.19
-2 1 -24 0 0.19
2 -1 -24 0.24 0.21
-3 -1 -24 1.68 0.27
3 1 -24 1.78 0.32
3 1 -24 1.44 0.28
3 -1 -24 1.62 0.29
-3 1 -24 2.14 0.31
3 -1 -24 1.69 0.31
-4 -1 -24 0.65 0.24
4 1 -24 0.51 0.23
4 1 -24 0.95 0.27
4 -1 -24 0.53 0.21
4 -1 -24 0.6 0.26
-4 1 -24 0.51 0.22
5 1 -24 0.64 0.28
5 1 -24 1.07 0.29
-5 -1 -24 0.77 0.25
5 -1 -24 0.76 0.27
5 -1 -24 0.29 0.24
-5 1 -24 0.67 0.2
6 1 -24 0.07 0.24
6 1 -24 0.41 0.29
-6 -1 -24 -0.2 0.18
-6 1 -24 0.14 0.2
6 -1 -24 0.29 0.28
6 -1 -24 -0.27 0.22
7 1 -24 0.62 0.26
-7 -1 -24 0.83 0.26
7 1 -24 1.04 0.35
7 -1 -24 0.93 0.34
-7 1 -24 0.9 0.26
7 -1 -24 1.48 0.37
-8 1 -24 2.89 0.35
0 -2 -24 -0.11 0.14
0 2 -24 0.45 0.21
-1 -2 -24 3.46 0.39
1 2 -24 3.41 0.39
-1 2 -24 3.44 0.38
1 -2 -24 3.6 0.4
-2 -2 -24 1.24 0.26
2 2 -24 0.77 0.25
2 -2 -24 0.57 0.24
-2 2 -24 1.01 0.25
3 2 -24 0.68 0.26
-3 -2 -24 0.96 0.25
3 2 -24 0.97 0.28
3 -2 -24 0.77 0.25
-3 2 -24 0.92 0.21
3 -2 -24 0.66 0.25
4 2 -24 1.76 0.34
4 2 -24 2.17 0.34
-4 -2 -24 1.97 0.31
-4 2 -24 2.17 0.31
4 -2 -24 1.93 0.34
4 -2 -24 1.74 0.31
5 2 -24 0.74 0.24
-5 -2 -24 0.06 0.21
5 2 -24 0.41 0.26
5 -2 -24 0.46 0.27
5 -2 -24 0.07 0.22
-5 2 -24 0.16 0.19
6 2 -24 0.29 0.26
-6 -2 -24 0.68 0.24
6 2 -24 0.66 0.31
6 -2 -24 1.13 0.32
-6 2 -24 0.39 0.22
6 -2 -24 0.7 0.3
7 2 -24 -0.06 0.28
-7 -2 -24 -0.18 0.19
7 2 -24 0.3 0.21
7 -2 -24 0.39 0.3
-7 2 -24 0.07 0.19
7 -2 -24 0.05 0.24
-8 2 -24 0.11 0.2
0 -3 -24 0.19 0.15
0 3 -24 0.25 0.21
-1 -3 -24 0.25 0.2
1 3 -24 0.57 0.23
-1 3 -24 0.74 0.23
1 -3 -24 0.89 0.25
-2 -3 -24 0.33 0.22
2 3 -24 0.12 0.22
2 -3 -24 0.2 0.22
-2 3 -24 0.29 0.21
2 -3 -24 0.52 0.24
-3 -3 -24 0.71 0.24
3 3 -24 0.31 0.21
3 3 -24 0.3 0.21
3 -3 -24 -0.23 0.19
-3 3 -24 0.06 0.2
3 -3 -24 0.08 0.21
4 3 -24 0.91 0.28
-4 -3 -24 0.95 0.26
4 3 -24 0.9 0.26
4 -3 -24 0.98 0.29
-4 3 -24 0.93 0.25
4 -3 -24 0.86 0.27
5 3 -24 1.76 0.35
5 3 -24 1.69 0.34
-5 -3 -24 2.04 0.32
5 -3 -24 2.51 0.39
5 -3 -24 2.68 0.41
-5 3 -24 2.37 0.32
6 3 -24 0.14 0.24
-6 -3 -24 0.37 0.18
6 3 -24 0.39 0.28
6 -3 -24 0.22 0.27
-6 3 -24 0.79 0.23
6 -3 -24 0.5 0.27
-7 -3 -24 0.9 0.26
7 3 -24 0.94 0.32
7 3 -24 0.8 0.32
7 -3 -24 1.32 0.31
-7 3 -24 1.22 0.28
7 -3 -24 1.28 0.32
0 4 -24 4.09 0.41
0 -4 -24 4.6 0.44
-1 -4 -24 6.66 0.49
1 4 -24 6.49 0.5
1 -4 -24 5.89 0.48
-1 4 -24 6.83 0.49
2 4 -24 1.16 0.29
-2 -4 -24 1.52 0.29
2 -4 -24 1.19 0.28
2 -4 -24 1.21 0.28
-2 4 -24 1.68 0.29
3 4 -24 1.2 0.29
-3 -4 -24 1.34 0.25
3 -4 -24 0.93 0.28
3 -4 -24 1.12 0.28
-3 4 -24 1.24 0.26
4 4 -24 0.78 0.25
4 4 -24 0.74 0.27
-4 -4 -24 1.13 0.27
4 -4 -24 0.76 0.27
4 -4 -24 0.54 0.27
-4 4 -24 0.8 0.25
-5 -4 -24 0.65 0.25
5 4 -24 0.24 0.26
5 4 -24 1.1 0.3
5 -4 -24 0.73 0.27
5 -4 -24 0.84 0.3
-5 4 -24 0.93 0.23
6 4 -24 1.08 0.32
-6 -4 -24 1.07 0.27
6 4 -24 0.3 0.21
-6 4 -24 0.55 0.21
6 -4 -24 0.85 0.3
6 -4 -24 0.98 0.33
7 4 -24 0.01 0.28
-7 -4 -24 0.08 0.18
7 -4 -24 0.24 0.29
7 -4 -24 0.4 0.27
0 5 -24 0.25 0.2
0 -5 -24 0.04 0.19
1 5 -24 1.68 0.3
-1 -5 -24 1.86 0.28
1 -5 -24 1.47 0.26
-1 5 -24 2.58 0.33
-2 -5 -24 2.53 0.32
2 5 -24 1.62 0.31
2 -5 -24 1.98 0.32
-2 5 -24 1.55 0.28
2 -5 -24 1.68 0.3
-3 -5 -24 1.42 0.29
3 5 -24 1.62 0.32
-3 5 -24 1.57 0.27
3 -5 -24 1.56 0.31
3 -5 -24 1.25 0.29
4 5 -24 1.4 0.29
4 5 -24 0.93 0.29
-4 -5 -24 0.94 0.23
4 -5 -24 1.25 0.32
4 -5 -24 1.01 0.27
-4 5 -24 1.02 0.25
-5 -5 -24 0.41 0.19
5 5 -24 0.09 0.18
5 5 -24 0.25 0.24
5 -5 -24 0.28 0.23
-5 5 -24 0.49 0.21
5 -5 -24 0.47 0.28
6 5 -24 2.46 0.42
-6 -5 -24 3.02 0.38
6 5 -24 2.31 0.41
6 -5 -24 2.98 0.41
6 -5 -24 2.51 0.44
7 5 -24 0.57 0.3
7 -5 -24 0.65 0.28
7 -5 -24 0.32 0.32
0 6 -24 0.21 0.2
0 -6 -24 0.1 0.2
-1 -6 -24 0.87 0.25
1 6 -24 0.8 0.25
1 -6 -24 0.86 0.25
-1 6 -24 1.09 0.25
2 6 -24 0.06 0.21
-2 -6 -24 -0.13 0.19
2 -6 -24 0.68 0.24
2 -6 -24 0.32 0.23
-2 6 -24 0.15 0.18
-3 -6 -24 1.38 0.28
3 6 -24 0.69 0.22
3 -6 -24 0.89 0.25
-3 6 -24 1.19 0.25
3 -6 -24 0.58 0.25
4 6 -24 2.53 0.37
-4 -6 -24 3.67 0.4
4 6 -24 3 0.41
-4 6 -24 3.48 0.37
4 -6 -24 3.7 0.45
4 -6 -24 3.66 0.43
-5 -6 -24 1.96 0.34
5 6 -24 1.07 0.3
5 6 -24 1.7 0.34
5 -6 -24 2.45 0.41
5 -6 -24 2.93 0.41
-6 -6 -24 0.42 0.21
6 6 -24 0.44 0.28
6 6 -24 0.52 0.3
6 -6 -24 1.24 0.33
6 -6 -24 0.96 0.34
7 6 -24 1.45 0.39
7 -6 -24 1.73 0.37
0 7 -24 1.16 0.26
0 -7 -24 0.7 0.25
1 7 -24 1.17 0.28
-1 -7 -24 1.35 0.26
1 -7 -24 1.64 0.3
-1 7 -24 1.73 0.28
-2 -7 -24 1.45 0.29
2 7 -24 1.72 0.31
2 -7 -24 1.67 0.31
2 -7 -24 1.51 0.3
-2 7 -24 1.95 0.29
3 7 -24 0.31 0.22
-3 -7 -24 0.29 0.22
3 -7 -24 0.6 0.26
3 -7 -24 -0.07 0.19
-3 7 -24 0.38 0.19
4 7 -24 3.87 0.44
4 7 -24 4.47 0.49
-4 -7 -24 4.72 0.4
4 -7 -24 4.31 0.47
4 -7 -24 3.87 0.48
-5 -7 -24 0.74 0.22
5 7 -24 0.48 0.26
5 7 -24 1.17 0.31
5 -7 -24 0.87 0.32
5 -7 -24 0.8 0.26
6 7 -24 -0.53 0.25
-6 -7 -24 0.09 0.23
6 -7 -24 0.02 0.28
6 -7 -24 0.29 0.24
-6 -7 24 0.35 0.28
0 -8 -24 1.9 0.32
0 8 -24 1.67 0.29
-1 -8 -24 2.67 0.36
1 8 -24 3.27 0.38
1 -8 -24 2.73 0.36
-1 8 -24 3.15 0.36
2 8 -24 0.63 0.24
-2 -8 -24 0.56 0.25
2 -8 -24 0.66 0.25
-2 8 -24 0.97 0.23
2 -8 -24 0.63 0.28
-3 -8 -24 0.86 0.26
3 8 -24 0.77 0.27
3 -8 -24 0.36 0.27
3 -8 -24 0.98 0.27
-4 -8 -24 4.41 0.44
4 8 -24 3.97 0.47
4 8 -24 3.06 0.41
4 -8 -24 4.15 0.45
4 -8 -24 3.71 0.48
-5 -8 -24 0.65 0.26
5 8 -24 0.59 0.27
5 8 -24 1.06 0.33
5 -8 -24 1.11 0.28
5 -8 -24 0.64 0.3
6 8 -24 1.31 0.36
6 -8 -24 1.81 0.36
-6 -8 24 1.31 0.35
6 -8 -24 2.49 0.37
0 9 -24 1.17 0.26
0 -9 -24 1.05 0.27
-1 -9 -24 3.19 0.38
1 9 -24 2.51 0.34
1 -9 -24 3.81 0.41
-1 9 -24 3.25 0.38
-2 -9 -24 1.39 0.3
2 9 -24 1.71 0.31
2 -9 -24 1.93 0.32
2 -9 -24 1.66 0.34
3 9 -24 2.48 0.37
-3 -9 -24 2.45 0.36
3 -9 -24 3.46 0.4
3 -9 -24 2.83 0.41
-4 -9 -24 0.15 0.23
4 9 -24 0.3 0.24
4 -9 -24 0.21 0.27
4 -9 -24 0.8 0.26
-5 -9 -24 0.11 0.23
5 9 -24 0.38 0.25
5 9 -24 0.09 0.24
5 -9 -24 0.41 0.25
5 -9 -24 0.24 0.22
6 9 -24 0.25 0.29
6 -9 -24 0.59 0.25
0 -10 -24 1.59 0.3
-1 -10 -24 0.11 0.16
1 10 -24 0.02 0.18
1 -10 -24 0.14 0.16
2 10 -24 2.39 0.37
-2 -10 -24 2.66 0.34
2 -10 -24 2.67 0.38
2 -10 -24 3.09 0.37
-3 -10 -24 1.55 0.32
3 10 -24 1.43 0.3
3 -10 -24 0.78 0.31
3 -10 -24 1.27 0.29
-4 -10 -24 0.98 0.28
4 10 -24 0.96 0.29
4 -10 -24 1.19 0.28
4 -10 -24 0.51 0.3
5 10 -24 1.73 0.35
5 -10 -24 2.18 0.34
-5 -10 24 1.73 0.35
5 -10 -24 1.03 0.37
6 10 -24 0.49 0.3
6 -10 -24 0.33 0.26
0 -11 -24 0.21 0.22
-1 -11 -24 0.05 0.16
1 -11 -24 0.25 0.2
-2 -11 -24 1.21 0.26
2 11 -24 1.71 0.31
2 -11 -24 0.98 0.26
2 -11 -24 0.67 0.28
3 11 -24 0.61 0.24
-3 -11 -24 0.17 0.24
3 -11 -24 0.61 0.3
3 -11 -24 1.09 0.28
4 11 -24 2.33 0.37
-4 -11 -24 1.98 0.35
4 -11 -24 2.21 0.35
4 -11 -24 2.99 0.47
5 11 -24 1.32 0.33
5 -11 -24 2 0.34
5 -11 -24 2.09 0.44
-5 -11 24 1.83 0.35
-5 -11 24 1.68 0.34
6 -11 -24 1.07 0.32
0 -12 -24 0 0.21
-1 -12 -24 0.71 0.22
1 -12 -24 0.69 0.3
1 -12 -24 1.43 0.28
-2 -12 -24 1.43 0.28
2 -12 -24 2.14 0.37
2 -12 -24 1.99 0.32
3 12 -24 0.85 0.25
-3 -12 -24 0.61 0.26
3 -12 -24 0.35 0.27
3 -12 -24 0.43 0.22
-4 -12 24 0.13 0.26
4 -12 -24 0.58 0.24
4 -12 -24 0.69 0.32
5 12 -24 0.54 0.33
-5 -12 24 1.03 0.31
5 -12 -24 0.39 0.22
-5 -12 24 1.14 0.32
0 -13 -24 0.17 0.2
-1 -13 -24 0.35 0.23
1 -13 -24 0.38 0.22
1 -13 -24 0.04 0.25
-2 -13 -24 3.25 0.4
2 -13 -24 3.19 0.46
2 -13 -24 3.76 0.42
-3 -13 -24 0.83 0.29
3 -13 -24 1.04 0.33
3 -13 -24 1.3 0.28
-4 -13 24 0.38 0.26
0 -14 -24 2.19 0.32
-1 -14 -24 0.83 0.26
1 -14 -24 0.76 0.25
1 -14 -24 0.91 0.3
-2 -14 -24 1.02 0.28
2 -14 -24 1.17 0.33
2 -14 -24 1.14 0.28
0 -15 -24 2.18 0.34
-1 -15 -24 0.39 0.23
1 -15 -24 0.09 0.19
1 -15 -24 0.16 0.25
0 0 -25 -0.11 0.19
-1 0 -25 4.79 0.46
1 0 -25 5.23 0.48
-2 0 -25 0.03 0.2
2 0 -25 0.13 0.21
3 0 -25 6.88 0.55
-3 0 -25 6.95 0.51
4 0 -25 3.44 0.42
-4 0 -25 3.31 0.38
4 0 -25 3.01 0.42
-5 0 -25 0.36 0.22
5 0 -25 0.38 0.25
5 0 -25 0.1 0.18
6 0 -25 0.05 0.25
6 0 -25 0.38 0.27
-6 0 -25 0.04 0.2
-7 0 -25 1.37 0.28
0 1 -25 0.69 0.25
0 -1 -25 0.54 0.24
1 1 -25 1.9 0.3
-1 -1 -25 2.39 0.34
1 -1 -25 2.19 0.34
-1 1 -25 1.52 0.3
2 1 -25 3.08 0.41
-2 -1 -25 3.76 0.41
-2 1 -25 3.78 0.4
2 -1 -25 4.19 0.44
3 1 -25 0.67 0.22
-3 -1 -25 0.9 0.26
3 -1 -25 0.86 0.27
3 -1 -25 0.81 0.25
-3 1 -25 0.79 0.24
-4 -1 -25 0.45 0.23
4 1 -25 0.45 0.24
4 1 -25 0.54 0.26
-4 1 -25 0.33 0.21
4 -1 -25 0.73 0.27
4 -1 -25 0.11 0.22
5 1 -25 1.75 0.32
-5 -1 -25 1.52 0.29
5 1 -25 1.5 0.34
5 -1 -25 1.48 0.34
-5 1 -25 1.25 0.28
5 -1 -25 1.47 0.35
6 1 -25 2.57 0.43
6 1 -25 2.79 0.44
-6 -1 -25 2.52 0.35
-6 1 -25 3.57 0.38
6 -1 -25 2.24 0.42
6 -1 -25 2.28 0.37
-7 -1 -25 0.79 0.26
-7 1 -25 1.04 0.26
0 -2 -25 5.83 0.48
0 2 -25 5.63 0.47
-1 -2 -25 0.21 0.17
1 2 -25 0.44 0.24
1 -2 -25 0.45 0.23
-1 2 -25 0.42 0.22
2 2 -25 3.93 0.43
-2 -2 -25 3.82 0.41
-2 2 -25 2.79 0.36
2 -2 -25 2.99 0.39
3 2 -25 -0.04 0.23
-3 -2 -25 0.15 0.22
3 -2 -25 -0.05 0.19
3 -2 -25 0 0.21
-3 2 -25 0.3 0.22
-4 -2 -25 1.44 0.29
4 2 -25 0.89 0.27
4 2 -25 0.78 0.29
-4 2 -25 1.31 0.28
4 -2 -25 0.59 0.26
4 -2 -25 1.46 0.32
-5 -2 -25 1.31 0.29
5 2 -25 0.83 0.28
5 2 -25 0.44 0.26
5 -2 -25 0.97 0.31
-5 2 -25 1.11 0.26
5 -2 -25 1.06 0.3
6 2 -25 0.18 0.28
-6 -2 -25 0.17 0.22
6 2 -25 0.85 0.3
-6 2 -25 0.45 0.21
6 -2 -25 0.04 0.19
6 -2 -25 0.4 0.3
-7 2 -25 1.7 0.3
0 -3 -25 -0.21 0.19
0 3 -25 -0.53 0.17
1 3 -25 5.96 0.49
-1 -3 -25 6.34 0.49
-1 3 -25 5.69 0.47
1 -3 -25 5.98 0.49
-2 -3 -25 2.52 0.34
2 3 -25 1.57 0.32
2 -3 -25 1.85 0.33
-2 3 -25 2.38 0.33
3 3 -25 0.17 0.23
-3 -3 -25 0.61 0.24
-3 3 -25 0.41 0.23
3 -3 -25 0.41 0.21
3 -3 -25 0.1 0.21
-4 -3 -25 1.27 0.29
4 3 -25 1.34 0.28
4 3 -25 1.38 0.3
4 -3 -25 1.25 0.3
-4 3 -25 1.32 0.27
4 -3 -25 1.46 0.33
5 3 -25 0.13 0.25
-5 -3 -25 0.49 0.24
5 3 -25 0.04 0.22
5 -3 -25 0.34 0.26
5 -3 -25 0.61 0.27
-5 3 -25 0.35 0.21
6 3 -25 0.38 0.28
6 3 -25 0.19 0.25
-6 -3 -25 0.94 0.23
6 -3 -25 0.59 0.29
-6 3 -25 0.51 0.23
6 -3 -25 0.6 0.33
0 -4 -25 0.54 0.24
0 4 -25 -0.24 0.18
-1 -4 -25 0.48 0.24
1 4 -25 0.55 0.25
-1 4 -25 1.3 0.28
1 -4 -25 0.83 0.25
2 4 -25 0.5 0.24
-2 -4 -25 0.51 0.25
-2 4 -25 0.5 0.22
2 -4 -25 0.06 0.22
-3 -4 -25 3.33 0.39
3 4 -25 3.25 0.39
-3 4 -25 3.44 0.38
3 -4 -25 3.02 0.4
3 -4 -25 2.62 0.37
-4 -4 -25 0.55 0.25
4 4 -25 0.23 0.22
4 4 -25 0.35 0.26
4 -4 -25 0.79 0.24
-4 4 -25 0.78 0.23
4 -4 -25 0.59 0.27
5 4 -25 3.93 0.48
-5 -4 -25 4.52 0.46
5 4 -25 4.22 0.51
-5 4 -25 5.88 0.44
5 -4 -25 4.42 0.51
5 -4 -25 5.94 0.57
-6 -4 -25 6.31 0.51
6 4 -25 6.78 0.56
6 4 -25 5.81 0.59
6 -4 -25 5.58 0.6
-6 4 -25 7.16 0.53
6 -4 -25 6.66 0.63
0 -5 -25 1.14 0.27
0 5 -25 0.88 0.27
1 5 -25 0.66 0.25
-1 -5 -25 0.59 0.24
1 -5 -25 0.74 0.26
-1 5 -25 0.65 0.24
2 5 -25 2.08 0.35
-2 -5 -25 1.96 0.32
-2 5 -25 2.11 0.32
2 -5 -25 2.75 0.38
-3 -5 -25 1.38 0.29
3 5 -25 1.21 0.3
-3 5 -25 1.91 0.29
3 -5 -25 1.43 0.31
3 -5 -25 1.27 0.31
4 5 -25 2.59 0.4
4 5 -25 3.31 0.42
-4 -5 -25 3.65 0.42
-4 5 -25 3.64 0.38
4 -5 -25 3.33 0.43
4 -5 -25 3.4 0.43
5 5 -25 0.08 0.23
5 5 -25 0.36 0.25
-5 -5 -25 0.38 0.2
5 -5 -25 0.1 0.26
5 -5 -25 0.2 0.24
-5 5 -25 -0.2 0.17
-6 -5 -25 0.46 0.26
6 5 -25 0.71 0.32
6 -5 -25 0.64 0.29
6 -5 -25 0.67 0.32
0 6 -25 2.28 0.34
0 -6 -25 2.42 0.35
-1 -6 -25 0.09 0.16
1 6 -25 0.22 0.21
-1 6 -25 0.21 0.21
1 -6 -25 0.1 0.23
-2 -6 -25 0.28 0.18
2 6 -25 0.27 0.22
2 -6 -25 0.04 0.21
-2 6 -25 0.36 0.2
3 6 -25 4.83 0.49
-3 -6 -25 4.83 0.47
-3 6 -25 4.15 0.41
3 -6 -25 4.35 0.45
3 -6 -25 3.65 0.45
-4 -6 -25 2.54 0.36
4 6 -25 2.03 0.37
4 -6 -25 2.42 0.38
4 -6 -25 2.11 0.38
-4 6 -25 2.27 0.32
5 6 -25 1.98 0.36
5 6 -25 0.99 0.31
-5 -6 -25 1.34 0.3
5 -6 -25 0.77 0.32
5 -6 -25 1.58 0.35
6 6 -25 1.38 0.38
6 -6 -25 2.29 0.4
6 -6 -25 0.32 0.31
0 -7 -25 0.84 0.26
0 7 -25 0.47 0.23
1 7 -25 0.08 0.21
-1 -7 -25 0.14 0.22
1 -7 -25 0.53 0.2
-1 7 -25 0.51 0.22
-2 -7 -25 0.49 0.25
2 7 -25 0.82 0.23
-2 7 -25 1.11 0.25
2 -7 -25 0.65 0.25
3 7 -25 1.44 0.32
-3 -7 -25 1.23 0.27
-3 7 -25 1.07 0.28
3 -7 -25 1.4 0.31
3 -7 -25 2 0.35
-4 -7 -25 -0.14 0.2
4 7 -25 0.52 0.26
4 -7 -25 0.38 0.27
4 -7 -25 0.17 0.23
5 7 -25 0.11 0.23
-5 -7 -25 0.31 0.18
5 7 -25 0.04 0.24
5 -7 -25 0.24 0.24
5 -7 -25 -0.36 0.23
6 7 -25 0.7 0.3
0 8 -25 0.52 0.23
0 -8 -25 0.62 0.24
-1 -8 -25 1.89 0.3
1 8 -25 2.1 0.33
1 -8 -25 1.76 0.32
-1 8 -25 2.04 0.32
2 8 -25 0.67 0.26
-2 -8 -25 0.41 0.25
-2 8 -25 1 0.28
2 -8 -25 1.57 0.31
3 8 -25 0.39 0.24
-3 -8 -25 0.58 0.25
3 -8 -25 0.28 0.23
3 -8 -25 -0.04 0.24
4 8 -25 0.78 0.28
-4 -8 -25 0.34 0.24
4 -8 -25 0.48 0.24
4 -8 -25 0.23 0.27
5 8 -25 0.93 0.3
5 8 -25 0.77 0.29
5 -8 -25 1.33 0.37
5 -8 -25 1.07 0.29
6 8 -25 -0.11 0.25
0 9 -25 0.45 0.22
0 -9 -25 0.64 0.24
1 9 -25 0.94 0.27
-1 -9 -25 0.94 0.27
1 -9 -25 0.94 0.28
2 9 -25 3.2 0.4
-2 -9 -25 3.18 0.4
2 -9 -25 3.22 0.45
2 -9 -25 3.77 0.43
-3 -9 -25 0.05 0.23
3 9 -25 0 0.22
3 -9 -25 1.04 0.31
3 -9 -25 0.34 0.22
-4 -9 -25 0 0.23
4 9 -25 -0.12 0.22
4 -9 -25 -0.37 0.23
4 -9 -25 0.45 0.23
5 9 -25 0.9 0.31
5 9 -25 0.98 0.3
5 -9 -25 0.85 0.34
5 -9 -25 1.03 0.29
0 -10 -25 -0.11 0.19
1 10 -25 0.57 0.24
-1 -10 -25 -0.08 0.21
1 -10 -25 0.51 0.24
-2 -10 -25 1.27 0.3
2 10 -25 1.03 0.28
2 -10 -25 0.74 0.31
2 -10 -25 0.71 0.26
3 10 -25 1.84 0.34
-3 -10 -25 1.14 0.3
3 -10 -25 2.12 0.34
3 -10 -25 1.56 0.35
4 10 -25 0.28 0.24
4 -10 -25 0.36 0.28
4 -10 -25 0.35 0.22
5 -10 -25 0.32 0.25
0 -11 -25 0.93 0.27
-1 -11 -25 0.49 0.24
1 -11 -25 0.19 0.21
-2 -11 -25 0.27 0.24
2 11 -25 0.68 0.25
2 -11 -25 0.23 0.21
2 -11 -25 0.1 0.25
3 11 -25 1.08 0.29
-3 -11 -25 1.51 0.34
3 -11 -25 1 0.27
3 -11 -25 0.54 0.29
4 11 -25 0.67 0.26
4 -11 -25 0.33 0.22
4 -11 -25 0.31 0.29
0 -12 -25 1.19 0.29
-1 -12 -25 0.68 0.26
1 -12 -25 0.44 0.23
-2 -12 -25 0.99 0.29
2 -12 -25 1.02 0.27
2 -12 -25 1.23 0.33
3 -12 -25 0.19 0.2
3 -12 -25 0.37 0.28
-4 -12 25 0.6 0.31
0 -13 -25 0.37 0.22
-1 -13 -25 0.07 0.23
1 -13 -25 0.09 0.2
2 -13 -25 0.89 0.27
2 -13 -25 0.64 0.29
3 -13 -25 3.52 0.43
0 0 -26 0.2 0.22
1 0 -26 0.72 0.26
-1 0 -26 0.89 0.27
-2 0 -26 -0.26 0.18
2 0 -26 -0.24 0.13
3 0 -26 1.39 0.33
-3 0 -26 1.74 0.31
4 0 -26 1.1 0.27
-4 0 -26 0.63 0.25
4 0 -26 0.97 0.28
-5 0 -26 0.12 0.22
5 0 -26 0.37 0.27
5 0 -26 0.57 0.27
6 0 -26 4.76 0.55
-6 0 -26 5.17 0.47
0 -1 -26 2.11 0.35
0 1 -26 2.76 0.37
-1 -1 -26 0.38 0.23
1 1 -26 0.55 0.21
-1 1 -26 0.79 0.25
1 -1 -26 0.56 0.25
2 1 -26 1.23 0.31
-2 -1 -26 1.58 0.3
-2 1 -26 1.62 0.31
2 -1 -26 1.24 0.27
3 1 -26 4.36 0.5
-3 -1 -26 5.25 0.49
-3 1 -26 5.57 0.47
3 -1 -26 5.77 0.55
-4 -1 -26 0.86 0.26
4 1 -26 0.4 0.24
4 1 -26 0.35 0.2
4 -1 -26 0.22 0.19
-4 1 -26 0.12 0.21
4 -1 -26 0.46 0.26
5 1 -26 0.94 0.31
-5 -1 -26 0.7 0.25
5 1 -26 1.17 0.32
-5 1 -26 1.06 0.28
5 -1 -26 0.92 0.31
5 -1 -26 0.8 0.29
6 1 -26 1.7 0.37
-6 -1 -26 2.05 0.33
-6 1 -26 1.24 0.28
6 -1 -26 1.65 0.39
0 -2 -26 0.73 0.27
0 2 -26 0.95 0.27
1 2 -26 1.32 0.29
-1 -2 -26 1.05 0.29
-1 2 -26 1.1 0.29
1 -2 -26 1.25 0.29
-2 -2 -26 1.3 0.3
2 2 -26 1.39 0.31
2 -2 -26 0.94 0.24
-2 2 -26 1.25 0.28
3 2 -26 0.63 0.26
-3 -2 -26 0.6 0.25
-3 2 -26 0.92 0.26
3 -2 -26 -0.04 0.23
4 2 -26 0.61 0.29
-4 -2 -26 1.08 0.29
4 -2 -26 1.06 0.29
-4 2 -26 1.69 0.3
4 -2 -26 1.1 0.27
-5 -2 -26 0.67 0.26
5 2 -26 0.66 0.3
5 2 -26 0.68 0.29
5 -2 -26 0.39 0.28
5 -2 -26 0.63 0.28
-5 2 -26 0.71 0.25
6 2 -26 2.13 0.41
6 -2 -26 2.39 0.42
-6 2 -26 2.24 0.33
0 -3 -26 0.17 0.22
0 3 -26 0.38 0.25
-1 -3 -26 1.32 0.3
1 3 -26 1.16 0.29
1 -3 -26 0.98 0.27
-1 3 -26 1.66 0.31
-2 -3 -26 0.6 0.26
2 3 -26 0.18 0.22
2 -3 -26 0.32 0.23
-2 3 -26 0.18 0.22
-3 -3 -26 1.25 0.3
3 3 -26 1.05 0.3
-3 3 -26 0.89 0.26
3 -3 -26 0.83 0.29
-4 -3 -26 0.4 0.24
4 3 -26 0.68 0.27
4 -3 -26 0.32 0.23
-4 3 -26 0.59 0.24
4 -3 -26 -0.15 0.21
5 3 -26 4 0.47
-5 -3 -26 3.96 0.43
5 3 -26 3.3 0.48
-5 3 -26 3.8 0.4
5 -3 -26 4.21 0.48
5 -3 -26 4.2 0.49
6 3 -26 0.13 0.26
-6 3 -26 0.49 0.23
6 -3 -26 0.63 0.31
0 4 -26 0.02 0.22
0 -4 -26 0.48 0.24
-1 -4 -26 0.55 0.26
1 4 -26 1.55 0.32
-1 4 -26 0.68 0.26
1 -4 -26 0.93 0.24
-2 -4 -26 0.43 0.2
2 4 -26 0.28 0.24
2 -4 -26 0.49 0.27
-2 4 -26 1.16 0.27
-3 -4 -26 2.74 0.39
3 4 -26 3.21 0.42
-3 4 -26 3.56 0.39
3 -4 -26 2.27 0.35
4 4 -26 2.4 0.39
-4 -4 -26 2.2 0.35
4 -4 -26 1.76 0.36
4 -4 -26 2.45 0.4
-4 4 -26 2.16 0.32
-5 -4 -26 0.85 0.27
5 4 -26 0.49 0.24
5 4 -26 0.64 0.28
5 -4 -26 0.68 0.29
-5 4 -26 0.25 0.22
5 -4 -26 0.22 0.3
6 4 -26 0.17 0.26
0 5 -26 3.69 0.43
0 -5 -26 4.21 0.43
-1 -5 -26 0.36 0.19
1 5 -26 0.18 0.18
1 -5 -26 0.62 0.27
-1 5 -26 0.13 0.22
-2 -5 -26 3.96 0.45
2 5 -26 3.55 0.41
-2 5 -26 4.58 0.44
2 -5 -26 4.1 0.46
-3 -5 -26 2.85 0.38
3 5 -26 2.36 0.38
-3 5 -26 2.71 0.35
3 -5 -26 2.84 0.41
4 5 -26 2.08 0.37
-4 -5 -26 1.25 0.3
4 -5 -26 0.8 0.25
4 -5 -26 1.19 0.32
-4 5 -26 1.26 0.29
5 5 -26 1.67 0.37
5 -5 -26 2 0.4
5 -5 -26 1.2 0.34
6 5 -26 0.36 0.3
0 -6 -26 5.42 0.52
0 6 -26 5.76 0.5
-1 -6 -26 0.69 0.27
1 6 -26 0.77 0.27
1 -6 -26 1.28 0.3
-1 6 -26 1.52 0.29
2 6 -26 0.54 0.26
-2 -6 -26 0.29 0.24
-2 6 -26 0.89 0.25
2 -6 -26 0.61 0.25
3 6 -26 1.27 0.32
-3 -6 -26 1.55 0.33
-3 6 -26 1.93 0.3
3 -6 -26 1.38 0.31
3 -6 -26 1.33 0.33
-4 -6 -26 0.06 0.22
4 6 -26 0.44 0.27
4 -6 -26 0.26 0.25
4 -6 -26 0.1 0.26
5 6 -26 2.95 0.43
5 -6 -26 3.19 0.46
0 -7 -26 0.01 0.16
0 7 -26 0.31 0.23
1 7 -26 6.32 0.52
-1 -7 -26 5.66 0.47
-1 7 -26 5.99 0.49
1 -7 -26 6.03 0.51
-2 -7 -26 0.28 0.24
2 7 -26 0.19 0.25
2 -7 -26 0.17 0.22
-2 7 -26 0.91 0.25
-3 -7 -26 -0.11 0.21
3 7 -26 0.15 0.24
3 -7 -26 0.16 0.24
3 -7 -26 -0.05 0.2
-4 -7 -26 0.36 0.26
4 7 -26 1.06 0.31
4 -7 -26 0.32 0.27
4 -7 -26 0.17 0.23
5 -7 -26 0.44 0.3
0 8 -26 4.6 0.48
0 -8 -26 4.03 0.46
-1 -8 -26 0.28 0.25
1 8 -26 0.04 0.22
1 -8 -26 0.69 0.26
-1 8 -26 0.46 0.23
2 8 -26 7.59 0.58
-2 -8 -26 7.74 0.57
2 -8 -26 6.78 0.56
3 8 -26 0.81 0.28
-3 -8 -26 0.36 0.26
3 -8 -26 0.37 0.24
3 -8 -26 0.46 0.27
4 8 -26 0.6 0.28
4 -8 -26 0.12 0.26
4 -8 -26 0.29 0.23
0 9 -26 0.6 0.23
0 -9 -26 0.69 0.27
-1 -9 -26 1.63 0.33
1 9 -26 1.29 0.3
1 -9 -26 1.39 0.31
2 9 -26 0.36 0.25
-2 -9 -26 0.36 0.25
2 -9 -26 0.05 0.21
3 9 -26 1.48 0.33
3 -9 -26 0.97 0.31
3 -9 -26 1.1 0.28
4 9 -26 3.27 0.45
4 -9 -26 3.17 0.47
0 -10 -26 0.4 0.24
1 10 -26 0.36 0.28
-1 -10 -26 0.44 0.25
1 -10 -26 0.71 0.26
2 10 -26 0.12 0.22
2 -10 -26 0.72 0.25
3 10 -26 5.13 0.52
3 -10 -26 4.17 0.51
3 -10 -26 4.02 0.47
0 -11 -26 -0.04 0.21
1 -11 -26 0.55 0.25
2 -11 -26 0.51 0.25
3 11 -26 1.11 0.29
3 -11 -26 1.09 0.33
0 0 -27 -0.24 0.2
1 0 -27 0.06 0.23
-1 0 -27 0.62 0.22
2 0 -27 0.03 0.17
-2 0 -27 0.28 0.23
-3 0 -27 0.31 0.23
3 0 -27 0.26 0.26
4 0 -27 3.05 0.45
-4 0 -27 2.22 0.32
-5 0 -27 1.21 0.31
5 0 -27 1.98 0.37
0 1 -27 6.14 0.48
0 -1 -27 6.01 0.52
1 1 -27 0.76 0.24
-1 -1 -27 0.66 0.26
-1 1 -27 0.88 0.28
1 -1 -27 1.24 0.31
2 1 -27 0.45 0.22
-2 -1 -27 0.46 0.26
2 -1 -27 0.16 0.22
-2 1 -27 0.45 0.25
3 1 -27 0.4 0.27
-3 -1 -27 0.48 0.24
3 -1 -27 0.22 0.25
-3 1 -27 0.56 0.25
4 1 -27 0.2 0.27
-4 -1 -27 0.95 0.27
4 -1 -27 0.59 0.29
-4 1 -27 0.62 0.26
5 1 -27 1.49 0.35
-5 1 -27 1.56 0.31
5 -1 -27 1.51 0.36
0 2 -27 1.58 0.33
0 -2 -27 1.57 0.33
1 2 -27 1.01 0.27
-1 -2 -27 0.83 0.28
-1 2 -27 0.91 0.27
1 -2 -27 0.71 0.26
-2 -2 -27 2.05 0.34
2 2 -27 1.41 0.34
-2 2 -27 1.71 0.29
2 -2 -27 1.62 0.3
-3 -2 -27 0.33 0.23
3 2 -27 0.32 0.26
-3 2 -27 0.75 0.27
3 -2 -27 0.96 0.29
4 2 -27 0.26 0.28
-4 -2 -27 0.22 0.23
4 -2 -27 -0.01 0.23
-4 2 -27 0.19 0.22
5 2 -27 1.4 0.36
-5 2 -27 1.39 0.3
5 -2 -27 1.1 0.36
0 3 -27 0.2 0.22
0 -3 -27 0.03 0.21
1 3 -27 0.07 0.22
-1 -3 -27 0.04 0.16
1 -3 -27 0.03 0.22
-1 3 -27 -0.02 0.16
2 3 -27 2.4 0.37
-2 -3 -27 2.24 0.36
2 -3 -27 1.65 0.34
-2 3 -27 2.36 0.36
-3 -3 -27 7.05 0.5
3 3 -27 5.33 0.56
-3 3 -27 6.72 0.52
3 -3 -27 5.86 0.58
-4 -3 -27 0.6 0.22
4 3 -27 0.32 0.27
4 -3 -27 0.68 0.32
-4 3 -27 0.9 0.26
-5 3 -27 0.53 0.24
5 -3 -27 0.59 0.3
0 4 -27 0.25 0.24
0 -4 -27 0.44 0.19
-1 -4 -27 0.83 0.27
1 4 -27 0.99 0.29
1 -4 -27 0.74 0.28
-1 4 -27 0.79 0.28
-2 -4 -27 0.12 0.24
2 4 -27 0.16 0.23
2 -4 -27 0.45 0.26
-2 4 -27 0.89 0.26
3 4 -27 1.35 0.32
-3 -4 -27 1.61 0.32
-3 4 -27 1.85 0.31
3 -4 -27 0.87 0.31
4 -4 -27 0.35 0.26
-4 4 -27 0.49 0.23
5 -4 -27 0.12 0.27
-5 4 -27 0.01 0.23
0 -5 -27 9.65 0.65
0 5 -27 8.91 0.63
-1 -5 -27 1.14 0.29
1 5 -27 0.77 0.28
-1 5 -27 0.88 0.28
1 -5 -27 1.24 0.31
2 5 -27 1.6 0.33
-2 -5 -27 1.4 0.31
-2 5 -27 0.96 0.27
2 -5 -27 1.32 0.32
-3 -5 -27 3.29 0.42
3 5 -27 3.01 0.42
3 -5 -27 2.35 0.4
-3 5 -27 2.76 0.37
4 -5 -27 1.28 0.36
-4 5 -27 1.49 0.29
0 -6 -27 0.9 0.29
0 6 -27 1.17 0.3
-1 -6 -27 2.45 0.37
1 6 -27 2.08 0.37
-1 6 -27 2.51 0.37
1 -6 -27 2.17 0.36
-2 -6 -27 3.32 0.42
2 6 -27 3.1 0.44
2 -6 -27 3.25 0.43
-2 6 -27 3.44 0.41
3 6 -27 0.86 0.3
-3 6 -27 0.79 0.24
3 -6 -27 0.61 0.28
4 -6 -27 0.81 0.3
0 -7 -27 0.76 0.28
0 7 -27 1.11 0.29
1 7 -27 3.69 0.45
-1 -7 -27 4.03 0.47
-1 7 -27 4.55 0.47
1 -7 -27 4.2 0.48
2 7 -27 0.47 0.26
-2 -7 -27 0.85 0.29
-2 7 -27 0.8 0.26
2 -7 -27 0.63 0.27
3 7 -27 1.16 0.31
4 -7 -27 0.95 0.31
0 8 -27 0.27 0.24
0 -8 -27 0.22 0.24
1 8 -27 1.1 0.3
1 -8 -27 0.49 0.22
-1 8 -27 0.45 0.25
2 8 -27 1.03 0.3
3 8 -27 0.01 0.23
4 -8 -27 1.72 0.38
1 9 -27 0.22 0.25
2 9 -27 2.6 0.39
2 10 -27 0.12 0.25
0 0 -28 5.56 0.53
1 0 -28 2.98 0.41
-1 0 -28 2.21 0.37
2 0 -28 -0.33 0.22
-2 0 -28 0.3 0.24
-3 0 -28 1.16 0.31
0 1 -28 3.61 0.45
0 -1 -28 4.26 0.48
1 1 -28 1.51 0.29
-1 -1 -28 1.25 0.31
-1 1 -28 0.89 0.29
1 -1 -28 1.23 0.32
-2 -1 -28 1.22 0.3
2 1 -28 0.97 0.32
2 -1 -28 1.78 0.35
-2 1 -28 1.2 0.29
-3 1 -28 1.77 0.33
0 2 -28 0.51 0.25
0 -2 -28 0.53 0.25
1 2 -28 1.56 0.34
-1 -2 -28 1.45 0.33
-1 2 -28 1.55 0.32
1 -2 -28 1.7 0.34
2 2 -28 2.12 0.4
-2 -2 -28 2.18 0.37
-2 2 -28 1.96 0.34
-3 2 -28 2.1 0.35
0 3 -28 0.9 0.28
0 -3 -28 1.09 0.26
-1 -3 -28 0.52 0.27
1 3 -28 0.39 0.25
-1 3 -28 0.69 0.27
1 -3 -28 0.34 0.21
2 3 -28 1.69 0.37
-2 3 -28 1.89 0.34
-3 3 -28 1.2 0.29
0 4 -28 2.85 0.41
1 4 -28 0.85 0.26
-1 4 -28 0.65 0.27
2 4 -28 1.91 0.37
-2 4 -28 1.66 0.32
-3 4 -28 -0.04 0.2
0 5 -28 3.6 0.44
1 5 -28 3.36 0.43
-1 5 -28 3.23 0.41
-2 5 -28 0.72 0.26
-3 5 -28 0.96 0.29
0 6 -28 1.48 0.33
1 6 -28 0.93 0.3
-1 6 -28 0.98 0.29
-2 6 -28 0.78 0.27
-3 6 -28 2 0.35
0 7 -28 -0.17 0.21
1 7 -28 0.03 0.22
-1 7 -28 0.64 0.26
0 8 -28 0.86 0.28
1 8 -28 0.75 0.29
