#------------------------------------------------------------------------------
#$Date: 2016-02-18 17:37:37 +0200 (Thu, 18 Feb 2016) $
#$Revision: 176729 $
#$URL: svn://www.crystallography.net/cod/cif/1/51/37/1513744.cif $
#------------------------------------------------------------------------------
#
# This file is available in the Crystallography Open Database (COD),
# http://www.crystallography.net/
#
# All data on this site have been placed in the public domain by the
# contributors.
#
data_1513744
loop_
_publ_author_name
'Telpoukhovskaia, Maria A.'
'Rodr\'iguez-Rodr\'iguez, Cristina'
'Cawthray, Jacqueline F.'
'Scott, Lauren E.'
'Page, Brent D. G.'
'Al\'i-Torres, Jorge'
'Sodupe, Mariona'
'Bailey, Gwendolyn A.'
'Patrick, Brian O.'
'Orvig, Chris'
_publ_section_title
;
 3-Hydroxy-4-pyridinone derivatives as metal ion and amyloid binding
 agents.
;
_journal_issue                   2
_journal_name_full               'Metallomics : integrated biometal science'
_journal_page_first              249
_journal_page_last               262
_journal_paper_doi               10.1039/c3mt00135k
_journal_volume                  6
_journal_year                    2014
_chemical_formula_sum            'C44 H38 Fe N7 O7 S3'
_chemical_formula_weight         928.84
_chemical_name_systematic
;
?
;
_space_group_crystal_system      monoclinic
_space_group_IT_number           15
_space_group_name_Hall           '-C 2yc'
_space_group_name_H-M_alt        'C 1 2/c 1'
_symmetry_space_group_name_Hall  '-C 2yc'
_symmetry_space_group_name_H-M   'C 1 2/c 1'
_audit_creation_method           SHELXL-2012
_cell_angle_alpha                90
_cell_angle_beta                 99.532(3)
_cell_angle_gamma                90
_cell_formula_units_Z            8
_cell_length_a                   15.7028(18)
_cell_length_b                   25.796(3)
_cell_length_c                   24.222(3)
_cell_measurement_reflns_used    9904
_cell_measurement_temperature    90.0(1)
_cell_measurement_theta_max      27.13
_cell_measurement_theta_min      2.45
_cell_volume                     9676(2)
_computing_cell_refinement       'Bruker SAINT'
_computing_data_collection       'Bruker APEX2'
_computing_data_reduction        'Bruker SAINT'
_computing_molecular_graphics    'Bruker SHELXTL'
_computing_publication_material  'Olex2 (Dolomanov, 2009)'
_computing_structure_refinement  'SHELXL-2012 (Sheldrick, 2012)'
_computing_structure_solution    'SHELXS-97 (Sheldrick, 2008)'
_diffrn_ambient_temperature      90.0(1)
_diffrn_measured_fraction_theta_full 0.999
_diffrn_measured_fraction_theta_max 0.989
_diffrn_measurement_device_type  'Bruker APEX-II CCD'
_diffrn_measurement_method       '\f and \w scans'
_diffrn_radiation_type           MoK\a
_diffrn_radiation_wavelength     0.71073
_diffrn_reflns_av_unetI/netI     0.0415
_diffrn_reflns_Laue_measured_fraction_full 0.999
_diffrn_reflns_Laue_measured_fraction_max 0.989
_diffrn_reflns_point_group_measured_fraction_full 0.999
_diffrn_reflns_point_group_measured_fraction_max 0.989
_diffrn_reflns_theta_full        25.242
_diffrn_reflns_theta_max         27.257
_diffrn_reflns_theta_min         1.534
_exptl_absorpt_coefficient_mu    0.494
_exptl_absorpt_correction_T_max  0.985
_exptl_absorpt_correction_T_min  0.916
_exptl_absorpt_correction_type   multi-scan
_exptl_absorpt_process_details   'SADABS (Bruker, 2008)'
_exptl_crystal_colour            red
_exptl_crystal_density_diffrn    1.275
_exptl_crystal_description       plate
_exptl_crystal_F_000             3848
_exptl_crystal_size_max          0.23
_exptl_crystal_size_mid          0.19
_exptl_crystal_size_min          0.03
_platon_squeeze_details
;
;
_refine_diff_density_max         1.283
_refine_diff_density_min         -0.817
_refine_diff_density_rms         0.074
_refine_ls_extinction_method     none
_refine_ls_goodness_of_fit_ref   1.055
_refine_ls_hydrogen_treatment    constr
_refine_ls_matrix_type           full
_refine_ls_number_parameters     751
_refine_ls_number_reflns         10735
_refine_ls_number_restraints     2100
_refine_ls_restrained_S_all      0.997
_refine_ls_R_factor_all          0.0874
_refine_ls_R_factor_gt           0.0675
_refine_ls_shift/su_max          0.003
_refine_ls_shift/su_mean         0.000
_refine_ls_structure_factor_coef Fsqd
_refine_ls_weighting_details
;
w=1/[\s^2^(Fo^2^)+(0.0840P)^2^+31.3014P]
where P=(Fo^2^+2Fc^2^)/3
;
_refine_ls_weighting_scheme      calc
_refine_ls_wR_factor_gt          0.1780
_refine_ls_wR_factor_ref         0.1876
_reflns_Friedel_coverage         0.000
_reflns_number_gt                8060
_reflns_number_total             10735
_reflns_threshold_expression     'I > 2\s(I)'
_cod_data_source_file            c3mt00135k.txt
_cod_data_source_block           co442
_cod_original_cell_volume        9676.1(19)
_cod_database_code               1513744
#BEGIN Tags that were not found in dictionaries:
_shelx_space_group_comment
;
The symmetry employed for this shelxl refinement is uniquely defined
by the following loop, which should always be used as a source of
symmetry information in preference to the above space-group names.
They are only intended as comments.
;
_shelxl_version_number           2012-9
_shelx_res_file
;
TITL co442 in C2/c
CELL 0.71073 15.7028 25.7960 24.2220 90.000 99.532 90.000
ZERR 8.00 0.0018 0.0027 0.0029 0.000 0.003 0.000
LATT 7
SYMM - X, Y, 1/2 - Z
SFAC C H FE N O S
UNIT 352 304 8 56 56 24
MERG 2
OMIT -1 3 1
OMIT 1 1 1
OMIT 5 3 0
DFIX 1.4 N6C C37C
DFIX 1.28 C36C N6C
DFIX 1.7 S3C C42C
DFIX 1.75 S3C C36C
SIMU
ISOR 0.01 0.02
EADP S3B S3
EADP N6 N6B
EADP C37 C37B
EADP C38 C38B
EADP C39 C39B
EADP C40 C40B
EADP C41 C41B
EADP C42 C42B
EADP C35 C35B
EADP N5B N5
EADP C36 C36B C36C
SUMP 1 0.01 1 3 1 4 1 5
FMAP 2
PLAN 25
ACTA
BOND $H
CONF
LIST 4
L.S. 6
TEMP -183.00
WGHT 0.084000 31.301399
FVAR 0.05141 0.77171 0.25359 0.47706 0.26726
C1 1 0.807785 0.249485 0.159448 11.00000 0.04683 0.04087 =
0.04623 -0.00725 0.01329 -0.00649
AFIX 137
H1A 2 0.760557 0.274534 0.158066 11.00000 -1.50000
H1B 2 0.860101 0.263610 0.182150 11.00000 -1.50000
H1C 2 0.791839 0.217050 0.176170 11.00000 -1.50000
AFIX 0
C2 1 0.824263 0.239259 0.101717 11.00000 0.02644 0.02888 =
0.04176 -0.00167 0.00395 -0.00290
C3 1 0.804684 0.192159 0.075293 11.00000 0.02455 0.02270 =
0.04117 0.00190 0.00267 -0.00186
C4 1 0.819859 0.183668 0.019799 11.00000 0.02019 0.02246 =
0.04155 -0.00032 0.00115 0.00405
C5 1 0.855147 0.224682 -0.007775 11.00000 0.02728 0.02569 =
0.03632 0.00324 0.00773 0.00413
AFIX 43
H5 2 0.866944 0.220227 -0.044703 11.00000 -1.20000
AFIX 0
C6 1 0.872039 0.270804 0.019433 11.00000 0.02574 0.02329 =
0.04782 0.00573 0.00733 0.00130
AFIX 43
H6 2 0.895174 0.298562 0.000809 11.00000 -1.20000
AFIX 0
C7 1 0.880922 0.328739 0.099328 11.00000 0.03646 0.01901 =
0.05578 -0.00326 0.00375 0.00018
AFIX 23
H7A 2 0.838441 0.338460 0.123502 11.00000 -1.20000
H7B 2 0.879553 0.355648 0.070052 11.00000 -1.20000
AFIX 0
N1 4 0.856602 0.278087 0.072589 11.00000 0.02627 0.02168 =
0.04316 -0.00349 0.00332 -0.00034
O1 5 0.799854 0.138597 -0.001966 11.00000 0.02985 0.02094 =
0.04263 -0.00186 0.00836 0.00071
O2 5 0.769323 0.153699 0.099902 11.00000 0.04915 0.02949 =
0.03937 0.00152 0.00670 -0.01104
C8 1 0.968896 0.326718 0.133640 11.00000 0.03969 0.02648 =
0.04121 -0.00487 0.01009 -0.00631
C9 1 1.082318 0.350011 0.194494 11.00000 0.04569 0.03246 =
0.04137 0.00472 0.01208 -0.01198
C10 1 1.133524 0.378119 0.237056 11.00000 0.05956 0.04789 =
0.03996 0.00269 0.00611 -0.01827
AFIX 43
H10 2 1.110985 0.407573 0.253255 11.00000 -1.20000
AFIX 0
C11 1 1.217625 0.362101 0.255027 11.00000 0.06196 0.06865 =
0.04104 0.01590 0.00025 -0.02754
AFIX 43
H11 2 1.253677 0.381262 0.283199 11.00000 -1.20000
AFIX 0
C12 1 1.249418 0.318939 0.232638 11.00000 0.03985 0.08035 =
0.07000 0.01558 0.00343 -0.01158
AFIX 43
H12 2 1.307792 0.309195 0.245047 11.00000 -1.20000
AFIX 0
C13 1 1.199881 0.289674 0.193209 11.00000 0.04675 0.07639 =
0.07857 0.00172 0.01031 0.00537
AFIX 43
H13 2 1.222097 0.258999 0.179183 11.00000 -1.20000
AFIX 0
C14 1 1.116514 0.305639 0.174068 11.00000 0.04217 0.05154 =
0.05027 -0.00370 0.00676 -0.00612
N2 4 0.997109 0.361790 0.171285 11.00000 0.04681 0.02465 =
0.05047 -0.00079 0.00003 -0.01039
S1 6 1.039447 0.276915 0.124399 11.00000 0.03946 0.05445 =
0.08008 -0.02581 -0.00010 0.00837
C15 1 0.579823 -0.013228 0.158546 11.00000 0.05708 0.03559 =
0.06110 0.01053 0.01832 -0.00685
AFIX 137
H15A 2 0.579852 -0.050278 0.149602 11.00000 -1.50000
H15B 2 0.541724 -0.006985 0.186069 11.00000 -1.50000
H15C 2 0.638629 -0.002193 0.174096 11.00000 -1.50000
AFIX 0
C16 1 0.548343 0.016788 0.106734 11.00000 0.03963 0.02406 =
0.05074 -0.00209 0.00980 -0.00598
C17 1 0.605366 0.047524 0.081781 11.00000 0.02835 0.02224 =
0.04616 -0.00539 0.00714 -0.00457
C18 1 0.574380 0.075920 0.032608 11.00000 0.03374 0.02373 =
0.03797 -0.00656 0.00842 0.00031
C19 1 0.485577 0.073444 0.010488 11.00000 0.03497 0.02939 =
0.04301 -0.00384 0.00707 0.00135
AFIX 43
H19 2 0.462354 0.093950 -0.021003 11.00000 -1.20000
AFIX 0
C20 1 0.433790 0.041695 0.034414 11.00000 0.03401 0.03334 =
0.05230 -0.01014 0.01054 -0.00124
AFIX 43
H20 2 0.374635 0.038720 0.018170 11.00000 -1.20000
AFIX 0
C21 1 0.402307 -0.021184 0.102217 11.00000 0.04355 0.02719 =
0.05874 -0.00732 0.02324 -0.01023
AFIX 23
H21A 2 0.433802 -0.051765 0.119893 11.00000 -1.20000
H21B 2 0.359704 -0.033594 0.070184 11.00000 -1.20000
AFIX 0
C22 1 0.355127 0.004468 0.144038 11.00000 0.04284 0.02358 =
0.04522 -0.00373 0.00901 -0.00044
C23 1 0.254997 0.015058 0.197328 11.00000 0.05439 0.04138 =
0.03220 0.00548 0.01316 0.01623
C24 1 0.182262 0.004031 0.220910 11.00000 0.06740 0.05834 =
0.04199 0.01175 0.02173 0.02144
AFIX 43
H24 2 0.149474 -0.026523 0.211064 11.00000 -1.20000
AFIX 0
C25 1 0.159030 0.038835 0.259117 11.00000 0.09208 0.07980 =
0.05090 0.01623 0.03598 0.03956
AFIX 43
H25 2 0.110043 0.031833 0.276258 11.00000 -1.20000
AFIX 0
C26 1 0.206293 0.084041 0.272914 11.00000 0.11988 0.07945 =
0.04613 -0.00107 0.02850 0.03535
AFIX 43
H26 2 0.188914 0.106897 0.299724 11.00000 -1.20000
AFIX 0
C27 1 0.276800 0.096732 0.249280 11.00000 0.10654 0.05790 =
0.05971 -0.01455 0.01423 0.02030
AFIX 43
H27 2 0.308054 0.127912 0.258665 11.00000 -1.20000
AFIX 0
C28 1 0.300927 0.061138 0.210154 11.00000 0.07405 0.04077 =
0.04074 -0.00449 0.01256 0.01149
PART 1
SAME 0.02 0.04 C1 > O2
C29 1 0.823450 -0.062612 -0.047868 21.00000 0.03260 0.02698 =
0.05104 -0.00493 0.00648 0.00640
AFIX 137
H29A 2 0.768999 -0.043644 -0.057835 21.00000 -1.50000
H29B 2 0.811238 -0.098723 -0.039332 21.00000 -1.50000
H29C 2 0.855427 -0.061578 -0.079332 21.00000 -1.50000
AFIX 0
C30 1 0.876797 -0.037837 0.002722 21.00000 0.02560 0.02201 =
0.03971 0.00467 0.00950 0.00223
C31 1 0.849110 0.006572 0.026576 21.00000 0.02264 0.01944 =
0.03865 0.00606 0.00342 0.00113
C32 1 0.900917 0.027754 0.075358 21.00000 0.02972 0.01957 =
0.03749 0.00448 0.00605 -0.00374
C33 1 0.979776 0.004009 0.097505 21.00000 0.02914 0.03009 =
0.04916 0.00585 0.00122 -0.00191
AFIX 43
H33 2 1.014997 0.017660 0.129919 21.00000 -1.20000
AFIX 0
C34 1 1.004807 -0.039050 0.071552 21.00000 0.02525 0.03058 =
0.05725 0.01148 0.00581 0.00449
AFIX 43
H34 2 1.058481 -0.054962 0.085888 21.00000 -1.20000
AFIX 0
C35 1 0.984558 -0.107941 0.001897 21.00000 0.03566 0.03716 =
0.05093 -0.00029 0.01225 0.01319
AFIX 23
H35A 2 0.975659 -0.104226 -0.039339 21.00000 -1.20000
H35B 2 1.047493 -0.111168 0.014955 21.00000 -1.20000
AFIX 0
N5 4 0.954675 -0.059651 0.025686 21.00000 0.02573 0.02880 =
0.04420 0.00615 0.01004 0.00641
O5 5 0.871181 0.068363 0.097348 21.00000 0.03156 0.02443 =
0.04638 0.00134 0.00426 0.00052
O6 5 0.774968 0.030123 0.007807 21.00000 0.02804 0.02224 =
0.03898 -0.00143 0.00179 0.00449
SAME 0.2 0.04 C8 > S1
C36 1 0.946063 -0.153351 0.014354 31.00000 0.02032 0.03105 =
0.05178 -0.00337 0.00857 0.01247
C37 1 0.898988 -0.216677 0.067115 31.00000 0.03722 0.03519 =
0.04873 0.00278 0.01324 0.00706
C38 1 0.874481 -0.241290 0.113604 31.00000 0.05002 0.04900 =
0.06262 -0.00554 0.01451 -0.00157
AFIX 43
H38 2 0.877013 -0.224633 0.148818 31.00000 -1.20000
AFIX 0
C39 1 0.844903 -0.294313 0.103613 31.00000 0.04738 0.05533 =
0.06393 0.01012 0.01138 -0.00311
AFIX 43
H39 2 0.842037 -0.317349 0.133851 31.00000 -1.20000
AFIX 0
C40 1 0.820818 -0.310391 0.048229 31.00000 0.04387 0.03472 =
0.06178 0.00729 0.00331 -0.00546
AFIX 43
H40 2 0.784659 -0.339968 0.040941 31.00000 -1.20000
AFIX 0
C41 1 0.846669 -0.285706 0.004075 31.00000 0.05404 0.04514 =
0.06952 -0.00144 0.00036 -0.00088
AFIX 43
H41 2 0.839451 -0.301626 -0.031764 31.00000 -1.20000
AFIX 0
C42 1 0.883698 -0.236930 0.012419 31.00000 0.04797 0.02934 =
0.06456 -0.00541 -0.00338 0.00854
N6 4 0.933526 -0.163640 0.067839 31.00000 0.02181 0.02330 =
0.02620 0.01002 -0.00272 0.00086
S3 6 0.915165 -0.198415 -0.034511 31.00000 0.07592 0.04392 =
0.05392 -0.01122 0.00932 0.01456
PART 0
N3 4 0.464323 0.013890 0.081202 11.00000 0.03375 0.02405 =
0.05597 -0.00626 0.01648 -0.00801
N4 4 0.288603 -0.016091 0.158690 11.00000 0.04276 0.03096 =
0.04098 -0.00013 0.01646 0.00422
O3 5 0.631217 0.102526 0.011632 11.00000 0.02632 0.03178 =
0.04473 0.00122 0.01106 0.00007
O4 5 0.688500 0.050998 0.103170 11.00000 0.03579 0.03144 =
0.05065 0.00726 0.00451 -0.00516
AFIX 6
O7 5 0.809370 0.105939 -0.109870 11.00000 0.03856 0.04434 =
0.04369 -0.00340 0.00712 -0.00479
H7C 2 0.781718 0.077724 -0.117156 11.00000 -1.50000
H7D 2 0.799022 0.118104 -0.079084 11.00000 -1.50000
AFIX 0
S2 6 0.387235 0.064148 0.174442 11.00000 0.07262 0.02878 =
0.06363 -0.01394 0.01684 -0.00756
FE1 3 0.754341 0.089570 0.053919 11.00000 0.02798 0.01855 =
0.04687 0.00334 0.00568 -0.00085
C43 1 0.748716 -0.090973 0.096412 11.00000 0.04226 0.04838 =
0.05797 0.01278 0.00205 -0.00149
C44 1 0.798595 -0.064204 0.142767 11.00000 0.05947 0.05902 =
0.04111 0.01120 0.00697 -0.01801
AFIX 137
H44A 2 0.791384 -0.026718 0.137310 11.00000 -1.50000
H44B 2 0.859702 -0.073263 0.145138 11.00000 -1.50000
H44C 2 0.778758 -0.074352 0.177506 11.00000 -1.50000
AFIX 0
N7 4 0.707778 -0.110421 0.059595 11.00000 0.07136 0.07249 =
0.09465 0.00201 -0.02197 -0.00557
PART 2
SAME 0.02 0.04 C1 > O2
C29B 1 1.005249 -0.021578 0.101502 -21.00000 0.03121 0.02786 =
0.06499 -0.01042 0.00796 -0.00082
AFIX 137
H29D 2 1.062517 -0.019164 0.090629 -21.00000 -1.50000
H29E 2 1.003202 -0.051881 0.125649 -21.00000 -1.50000
H29F 2 0.993931 0.009850 0.121836 -21.00000 -1.50000
AFIX 0
C30B 1 0.938037 -0.026996 0.050056 -21.00000 0.02175 0.02475 =
0.03935 0.00535 0.00269 0.00472
C31B 1 0.870578 0.008181 0.038688 -21.00000 0.02051 0.02163 =
0.02704 0.01686 -0.00083 0.00597
C32B 1 0.805987 0.001614 -0.010345 -21.00000 0.03319 0.02954 =
0.03543 0.01189 0.00820 -0.01034
C33B 1 0.814226 -0.041440 -0.045270 -21.00000 0.02902 0.02196 =
0.03960 0.00154 0.00603 0.00108
AFIX 43
H33B 2 0.771877 -0.047245 -0.077510 -21.00000 -1.20000
AFIX 0
C34B 1 0.881536 -0.074339 -0.033306 -21.00000 0.03537 0.02553 =
0.04228 -0.00123 0.01189 -0.00035
AFIX 43
H34B 2 0.886703 -0.102555 -0.057739 -21.00000 -1.20000
AFIX 0
C35B 1 1.008364 -0.108536 0.025120 -21.00000 0.03566 0.03716 =
0.05093 -0.00029 0.01225 0.01319
AFIX 23
H35C 2 1.047027 -0.103496 0.061375 -21.00000 -1.20000
H35D 2 1.042857 -0.112410 -0.005341 -21.00000 -1.20000
AFIX 0
N5B 4 0.942448 -0.067652 0.013502 -21.00000 0.02573 0.02880 =
0.04420 0.00615 0.01004 0.00641
O5B 5 0.744972 0.035181 -0.018248 -21.00000 0.02103 0.01997 =
0.03119 -0.00620 0.00149 0.00465
O6B 5 0.862698 0.048723 0.069516 -21.00000 0.04176 0.01422 =
0.03759 0.00200 0.00608 0.00438
SAME 0.02 0.04 C8 > S1
C36B 1 0.940440 -0.156059 0.026825 41.00000 0.02032 0.03105 =
0.05178 -0.00337 0.00857 0.01247
C37B 1 0.903406 -0.215129 0.084870 41.00000 0.03722 0.03519 =
0.04873 0.00278 0.01324 0.00706
C38B 1 0.896184 -0.237383 0.138462 41.00000 0.05002 0.04900 =
0.06262 -0.00554 0.01451 -0.00157
AFIX 43
H38B 2 0.916042 -0.219555 0.172478 41.00000 -1.20000
AFIX 0
C39B 1 0.858664 -0.286299 0.137901 41.00000 0.04738 0.05533 =
0.06393 0.01012 0.01138 -0.00311
AFIX 43
H39B 2 0.853433 -0.302942 0.172166 41.00000 -1.20000
AFIX 0
C40B 1 0.828959 -0.310749 0.087534 41.00000 0.04387 0.03472 =
0.06178 0.00729 0.00331 -0.00546
AFIX 43
H40B 2 0.801164 -0.343407 0.088131 41.00000 -1.20000
AFIX 0
C41B 1 0.837822 -0.290169 0.037735 41.00000 0.05404 0.04514 =
0.06952 -0.00144 0.00036 -0.00088
AFIX 43
H41B 2 0.819037 -0.309035 0.004249 41.00000 -1.20000
AFIX 0
C42B 1 0.875045 -0.240523 0.035211 41.00000 0.04797 0.02934 =
0.06456 -0.00541 -0.00338 0.00854
N6B 4 0.945959 -0.166018 0.083869 41.00000 0.02181 0.02330 =
0.02620 0.01002 -0.00272 0.00086
S3B 6 0.896361 -0.202754 -0.017552 41.00000 0.07592 0.04392 =
0.05392 -0.01122 0.00932 0.01456
PART 3
SAME 0.02 0.04 C8 > S1
C36C 1 0.966873 -0.157373 0.038931 51.00000 0.02032 0.03105 =
0.05178 -0.00337 0.00857 0.01247
C37C 1 0.898220 -0.232274 0.040540 51.00000 0.04319 0.04291 =
0.07588 -0.00417 0.01167 0.00122
C38C 1 0.861327 -0.281046 0.019272 51.00000 0.04837 0.04944 =
0.06904 0.00095 0.01689 -0.00890
AFIX 43
H38C 2 0.852513 -0.290570 -0.019139 51.00000 -1.20000
AFIX 0
C39C 1 0.839980 -0.312791 0.062221 51.00000 0.03539 0.03608 =
0.04327 0.00852 0.00430 -0.00103
AFIX 43
H39C 2 0.821594 -0.347239 0.052886 51.00000 -1.20000
AFIX 0
C40C 1 0.844005 -0.297302 0.116093 51.00000 0.04940 0.04843 =
0.04622 0.00196 0.01251 0.01031
AFIX 43
H40C 2 0.813562 -0.316506 0.140049 51.00000 -1.20000
AFIX 0
C41C 1 0.890273 -0.255165 0.136716 51.00000 0.05646 0.06734 =
0.08258 0.00051 0.02192 0.00385
AFIX 43
H41C 2 0.905767 -0.249567 0.175857 51.00000 -1.20000
AFIX 0
C42C 1 0.914093 -0.220410 0.097867 51.00000 0.04552 0.03276 =
0.07008 0.00479 0.01916 -0.00074
N6C 4 0.927913 -0.194210 0.006119 51.00000 0.04053 0.05500 =
0.06667 0.00339 0.01387 0.01353
S3C 6 0.968811 -0.163424 0.108656 51.00000 0.08614 0.05177 =
0.12569 -0.00631 0.06257 -0.00261
HKLF 4

REM co442 in C2/c
REM R1 = 0.0675 for 8060 Fo > 4sig(Fo) and 0.0874 for all 10735 data
REM 751 parameters refined using 2100 restraints

END

WGHT 0.0840 31.2962

REM Highest difference peak 1.283, deepest hole -0.817, 1-sigma level 0.074
Q1 1 1.1027 -0.1754 0.1480 11.00000 0.05 1.28
Q2 1 1.0555 0.2958 0.0925 11.00000 0.05 1.04
Q3 1 1.0508 -0.1453 0.1584 11.00000 0.05 0.78
Q4 1 0.9619 0.3703 0.1982 11.00000 0.05 0.49
Q5 1 0.9394 -0.2086 -0.0519 11.00000 0.05 0.47
Q6 1 0.9826 -0.1591 0.0631 11.00000 0.05 0.46
Q7 1 0.7377 0.0396 0.1211 11.00000 0.05 0.46
Q8 1 0.7570 0.0756 0.0241 11.00000 0.05 0.45
Q9 1 1.0227 0.3182 0.1178 11.00000 0.05 0.44
Q10 1 0.6417 0.0811 0.0426 11.00000 0.05 0.44
Q11 1 0.7450 0.1427 0.1228 11.00000 0.05 0.38
Q12 1 0.4402 0.0615 0.1774 11.00000 0.05 0.37
Q13 1 0.7721 0.1835 0.1089 11.00000 0.05 0.36
Q14 1 0.6558 0.0289 0.1130 11.00000 0.05 0.35
Q15 1 0.3754 0.0460 0.1967 11.00000 0.05 0.34
Q16 1 1.1358 0.3182 0.1526 11.00000 0.05 0.33
Q17 1 0.7035 0.0846 0.0777 11.00000 0.05 0.32
Q18 1 0.9947 0.3300 0.1033 11.00000 0.05 0.32
Q19 1 0.9422 -0.1552 0.0914 11.00000 0.05 0.32
Q20 1 0.8844 0.1355 -0.1532 11.00000 0.05 0.30
Q21 1 0.3423 0.0613 0.2043 11.00000 0.05 0.29
Q22 1 0.9546 -0.1862 0.0314 11.00000 0.05 0.29
Q23 1 0.7962 0.1407 0.0840 11.00000 0.05 0.29
Q24 1 0.2911 0.0280 0.2136 11.00000 0.05 0.27
Q25 1 0.8204 0.2694 0.1368 11.00000 0.05 0.27
;
_shelx_res_checksum              55498
_shelx_hkl_file
;
-20 0 2 0.02 0.31
-20 0 4 0.46 0.33
-20 0 6 0.05 0.31
-20 0 8 4.08 0.39
-20 2 1 1.15 0.38
-20 2 2 0.37 0.22
-20 2 3 0.02 0.22
-20 2 4 0.26 0.22
-20 2 5 1.79 0.25
-20 2 6 1.82 0.25
-20 2 7 0.78 0.23
-20 2 8 0.59 0.21
-20 2 9 0.34 0.40
-20 4 3 0.33 0.37
-20 4 4 0.29 0.27
-20 4 5 1.66 0.26
-20 4 6 0.19 0.33
-20 4 7 1.75 0.48
-20 4 8 0.00 0.37
-19 1 1 2.48 0.24
-19 1 2 2.01 0.25
-19 1 3 10.43 0.37
-19 1 4 5.95 0.32
-19 1 5 3.83 0.30
-19 1 6 7.99 0.36
-19 1 7 0.39 0.22
-19 1 8 4.84 0.29
-19 1 9 3.80 0.22
-19 1 10 0.28 0.18
-19 1 11 0.18 0.19
-19 1 12 0.74 0.23
-19 1 13 1.15 0.23
-19 1 14 0.60 0.29
-19 1 15 2.32 0.25
-19 3 1 6.43 0.33
-19 3 2 0.59 0.21
-19 3 3 0.72 0.25
-19 3 4 0.04 0.21
-19 3 5 0.63 0.25
-19 3 6 0.06 0.21
-19 3 7 0.23 0.21
-19 3 8 0.26 0.20
-19 3 9 1.00 0.19
-19 3 10 0.18 0.19
-19 3 11 4.04 0.25
-19 3 12 0.25 0.22
-19 3 13 5.74 0.38
-19 3 14 0.33 0.25
-19 3 15 0.16 0.81
-19 5 1 1.14 0.22
-19 5 2 0.44 0.22
-19 5 3 1.54 0.23
-19 5 4 3.42 0.28
-19 5 5 0.67 0.22
-19 5 6 7.28 0.42
-19 5 7 0.47 0.33
-19 5 8 9.32 0.46
-19 5 9 1.62 0.28
-19 5 10 0.71 0.24
-19 5 11 0.72 0.25
-19 5 12 0.13 0.21
-19 5 13 0.09 0.25
-19 5 14 0.62 0.26
-19 7 1 0.63 0.28
-19 7 2 3.78 0.32
-19 7 3 0.28 0.27
-19 7 4 1.00 0.28
-19 7 5 0.03 0.31
-19 7 6 0.54 0.28
-19 7 7 0.32 0.26
-19 7 8 3.26 0.31
-19 7 9 0.34 0.26
-19 7 10 0.19 0.24
-19 7 11 2.09 0.27
-19 7 12 0.01 0.24
-19 7 13 0.27 0.57
-19 9 1 1.32 0.51
-19 9 2 0.00 0.26
-19 9 3 0.13 0.27
-19 9 4 0.40 0.28
-19 9 5 0.00 0.29
-19 9 6 0.69 0.28
-19 9 7 0.78 0.28
-19 9 8 0.24 0.27
-19 9 9 4.68 0.38
-19 9 10 1.05 0.26
-19 11 4 2.13 0.43
-19 11 5 0.41 0.37
-19 11 6 5.36 0.59
-18 0 2 6.97 0.47
-18 0 4 1.73 0.29
-18 0 6 0.55 0.29
-18 0 8 0.06 0.28
-18 0 10 0.02 0.24
-18 0 12 0.04 0.35
-18 0 14 0.34 0.30
-18 0 16 0.79 0.32
-18 0 18 1.51 0.32
-18 2 1 0.39 0.30
-18 2 2 2.38 0.22
-18 2 3 3.24 0.39
-18 2 4 1.07 0.20
-18 2 5 10.13 0.38
-18 2 6 0.47 0.21
-18 2 7 9.09 0.58
-18 2 8 0.76 0.20
-18 2 9 2.79 0.22
-18 2 10 5.44 0.27
-18 2 11 0.21 0.19
-18 2 12 2.38 0.24
-18 2 13 0.09 0.21
-18 2 14 3.77 0.34
-18 2 15 0.32 0.22
-18 2 16 2.06 0.24
-18 2 17 0.34 0.22
-18 2 18 0.00 0.22
-18 4 1 0.54 0.20
-18 4 2 3.20 0.24
-18 4 3 3.48 0.28
-18 4 4 2.80 0.23
-18 4 5 7.10 0.38
-18 4 6 0.58 0.27
-18 4 7 0.03 0.22
-18 4 8 0.00 0.20
-18 4 9 0.44 0.21
-18 4 10 4.91 0.29
-18 4 11 0.77 0.22
-18 4 12 8.47 0.33
-18 4 13 2.09 0.23
-18 4 14 0.03 0.23
-18 4 15 0.99 0.25
-18 4 16 0.86 0.25
-18 4 17 0.68 0.25
-18 4 18 1.42 0.42
-18 6 1 0.88 0.23
-18 6 2 12.57 0.44
-18 6 3 0.73 0.23
-18 6 4 0.01 0.22
-18 6 5 1.06 0.23
-18 6 6 1.55 0.25
-18 6 7 1.53 0.27
-18 6 8 0.50 0.26
-18 6 9 0.15 0.26
-18 6 10 1.53 0.24
-18 6 11 1.60 0.25
-18 6 12 3.00 0.27
-18 6 13 0.89 0.28
-18 6 14 0.98 0.28
-18 6 15 0.58 0.27
-18 6 16 0.00 0.26
-18 6 17 0.41 0.28
-18 8 1 0.01 0.25
-18 8 2 0.00 0.25
-18 8 3 0.00 0.24
-18 8 4 0.33 0.26
-18 8 5 3.06 0.30
-18 8 6 0.47 0.26
-18 8 7 13.59 0.62
-18 8 8 0.26 0.26
-18 8 9 6.59 0.42
-18 8 10 1.14 0.25
-18 8 11 0.38 0.24
-18 8 12 2.71 0.28
-18 8 13 8.02 0.44
-18 8 14 1.48 0.32
-18 8 15 3.27 0.32
-18 8 16 0.49 0.27
-18 10 1 2.91 0.35
-18 10 2 2.54 0.35
-18 10 3 0.26 0.26
-18 10 4 0.61 0.27
-18 10 5 0.47 0.26
-18 10 6 0.03 0.25
-18 10 7 1.39 0.28
-18 10 8 1.14 0.27
-18 10 9 0.43 0.26
-18 10 10 0.88 0.24
-18 10 11 0.28 0.24
-18 10 12 0.06 0.24
-18 10 13 0.49 0.27
-18 10 14 1.93 0.29
-18 12 1 0.00 0.32
-18 12 2 2.74 0.35
-18 12 3 1.32 0.33
-18 12 4 1.77 0.48
-18 12 5 0.52 0.31
-18 12 6 0.00 0.30
-18 12 7 0.72 0.31
-18 12 8 5.79 0.39
-18 12 9 1.54 0.29
-18 12 10 11.20 0.49
-18 12 11 0.24 0.24
-18 12 12 0.93 0.25
-18 14 1 0.18 0.49
-18 14 2 0.77 0.32
-18 14 3 1.36 0.34
-18 14 4 0.27 0.31
-18 14 5 9.87 0.54
-18 14 6 2.65 0.34
-18 14 7 7.95 0.52
-18 14 8 2.11 0.34
-18 14 9 0.11 0.31
-17 1 1 11.30 0.49
-17 1 2 0.53 0.20
-17 1 3 1.54 0.20
-17 1 4 1.87 0.20
-17 1 5 0.46 0.19
-17 1 6 4.12 0.24
-17 1 7 0.24 0.19
-17 1 8 0.95 0.21
-17 1 9 0.37 0.18
-17 1 10 0.00 0.16
-17 1 11 0.05 0.17
-17 1 12 0.11 0.20
-17 1 13 0.53 0.21
-17 1 14 4.78 0.27
-17 1 15 0.00 0.20
-17 1 16 3.45 0.26
-17 1 17 1.31 0.22
-17 1 18 1.90 0.24
-17 1 19 0.04 0.21
-17 1 20 0.64 0.23
-17 1 21 0.00 0.65
-17 3 1 1.23 0.20
-17 3 2 0.31 0.19
-17 3 3 5.27 0.30
-17 3 4 0.49 0.20
-17 3 5 1.33 0.22
-17 3 6 9.97 0.40
-17 3 7 2.97 0.26
-17 3 8 0.06 0.21
-17 3 9 3.33 0.24
-17 3 10 0.09 0.18
-17 3 11 3.91 0.23
-17 3 12 1.71 0.20
-17 3 13 20.61 0.51
-17 3 14 1.46 0.22
-17 3 15 3.49 0.25
-17 3 16 0.86 0.22
-17 3 17 1.07 0.22
-17 3 18 9.25 0.37
-17 3 19 1.28 0.28
-17 3 20 0.32 0.24
-17 5 1 0.19 0.22
-17 5 2 0.05 0.21
-17 5 3 1.02 0.23
-17 5 4 0.72 0.22
-17 5 5 0.60 0.22
-17 5 6 7.18 0.36
-17 5 7 0.33 0.21
-17 5 8 6.20 0.29
-17 5 9 0.00 0.19
-17 5 10 1.45 0.21
-17 5 11 0.89 0.21
-17 5 12 0.00 0.20
-17 5 13 5.56 0.43
-17 5 14 0.06 0.25
-17 5 15 0.08 0.26
-17 5 16 0.32 0.26
-17 5 17 0.57 0.27
-17 5 18 0.00 0.26
-17 5 19 1.69 0.26
-17 5 20 0.22 0.24
-17 7 1 10.98 0.39
-17 7 2 1.22 0.22
-17 7 3 3.64 0.27
-17 7 4 0.69 0.21
-17 7 5 2.26 0.25
-17 7 6 5.78 0.32
-17 7 7 1.26 0.25
-17 7 8 0.08 0.26
-17 7 9 1.24 0.25
-17 7 10 0.45 0.22
-17 7 11 4.33 0.29
-17 7 12 2.08 0.25
-17 7 13 0.20 0.25
-17 7 14 0.43 0.25
-17 7 15 0.97 0.27
-17 7 16 7.50 0.42
-17 7 17 1.40 0.28
-17 7 18 2.64 0.30
-17 7 19 1.13 0.29
-17 9 1 13.75 0.66
-17 9 2 0.16 0.24
-17 9 3 6.97 0.38
-17 9 4 10.13 0.48
-17 9 5 0.63 0.24
-17 9 6 6.34 0.38
-17 9 7 1.14 0.25
-17 9 8 2.09 0.27
-17 9 9 1.11 0.29
-17 9 10 0.19 0.23
-17 9 11 1.10 0.24
-17 9 12 0.24 0.23
-17 9 13 3.95 0.29
-17 9 14 1.52 0.28
-17 9 15 0.76 0.27
-17 9 16 0.67 0.35
-17 9 17 0.30 0.26
-17 9 18 1.10 0.28
-17 11 1 2.00 0.32
-17 11 2 5.52 0.45
-17 11 3 1.67 0.31
-17 11 4 6.85 0.47
-17 11 5 3.34 0.30
-17 11 6 0.56 0.25
-17 11 7 0.30 0.25
-17 11 8 3.24 0.30
-17 11 9 0.19 0.25
-17 11 10 2.88 0.35
-17 11 11 0.38 0.23
-17 11 12 2.18 0.26
-17 11 13 0.07 0.26
-17 11 14 1.73 0.32
-17 11 15 1.93 0.28
-17 11 16 0.15 0.26
-17 11 17 3.21 0.31
-17 13 1 0.03 0.29
-17 13 2 0.00 0.30
-17 13 3 2.62 0.33
-17 13 4 4.25 0.39
-17 13 5 1.44 0.65
-17 13 6 5.00 0.45
-17 13 7 2.27 0.52
-17 13 8 1.98 0.32
-17 13 9 10.85 0.52
-17 13 10 0.31 0.27
-17 13 11 3.18 0.28
-17 13 12 0.13 0.23
-17 13 13 0.11 0.26
-17 13 14 0.66 0.27
-17 13 15 0.00 0.26
-17 15 1 0.91 0.42
-17 15 2 3.67 0.38
-17 15 3 7.55 0.49
-17 15 4 0.75 0.31
-17 15 5 1.46 0.31
-17 15 6 0.48 0.31
-17 15 7 0.18 0.43
-17 15 8 1.65 0.41
-17 15 9 0.94 0.31
-17 15 10 0.43 0.26
-17 15 11 7.70 0.50
-17 15 12 2.36 0.36
-17 15 13 1.52 0.52
-17 17 1 0.25 0.30
-17 17 2 0.04 0.29
-17 17 3 1.53 0.35
-17 17 4 1.69 0.32
-17 17 5 0.27 0.31
-17 17 6 2.97 0.45
-17 17 7 0.07 0.29
-17 17 8 5.16 0.43
-17 17 9 2.20 0.29
-16 0 2 13.29 0.55
-16 0 4 14.70 0.52
-16 0 6 9.61 0.44
-16 0 8 2.96 0.31
-16 0 10 0.99 0.24
-16 0 12 2.18 0.31
-16 0 14 1.23 0.31
-16 0 16 0.85 0.29
-16 0 18 7.21 0.55
-16 0 20 1.51 0.32
-16 0 22 2.42 0.35
-16 2 1 0.31 0.18
-16 2 2 3.19 0.20
-16 2 3 7.08 0.30
-16 2 4 0.34 0.18
-16 2 5 4.97 0.28
-16 2 6 0.11 0.18
-16 2 7 2.92 0.23
-16 2 8 0.91 0.21
-16 2 9 7.44 0.45
-16 2 10 1.70 0.18
-16 2 11 0.37 0.18
-16 2 12 11.61 0.35
-16 2 13 3.72 0.26
-16 2 14 1.03 0.20
-16 2 15 2.72 0.23
-16 2 16 2.47 0.23
-16 2 17 2.43 0.24
-16 2 18 9.42 0.53
-16 2 19 0.53 0.21
-16 2 20 1.78 0.23
-16 2 21 0.74 0.22
-16 2 22 0.01 0.22
-16 4 1 3.05 0.35
-16 4 2 19.06 0.47
-16 4 3 2.52 0.22
-16 4 4 0.30 0.20
-16 4 5 0.81 0.20
-16 4 6 0.29 0.20
-16 4 7 8.12 0.36
-16 4 8 0.01 0.18
-16 4 9 2.97 0.21
-16 4 10 0.01 0.16
-16 4 11 0.01 0.18
-16 4 12 0.00 0.19
-16 4 13 0.00 0.20
-16 4 14 0.12 0.21
-16 4 15 5.97 0.34
-16 4 16 0.11 0.21
-16 4 17 11.56 0.52
-16 4 18 0.86 0.23
-16 4 19 0.01 0.23
-16 4 20 0.02 0.24
-16 4 21 0.00 0.24
-16 4 22 0.42 0.25
-16 6 1 1.94 0.22
-16 6 2 9.12 0.50
-16 6 3 6.32 0.35
-16 6 4 0.68 0.21
-16 6 5 2.26 0.23
-16 6 6 0.03 0.20
-16 6 7 3.24 0.25
-16 6 8 0.01 0.18
-16 6 9 0.42 0.18
-16 6 10 2.78 0.22
-16 6 11 0.77 0.19
-16 6 12 1.40 0.20
-16 6 13 0.55 0.21
-16 6 14 3.19 0.28
-16 6 15 0.57 0.25
-16 6 16 2.51 0.29
-16 6 17 5.71 0.60
-16 6 18 1.53 0.27
-16 6 19 0.15 0.26
-16 6 20 4.24 0.33
-16 6 21 0.40 0.27
-16 6 22 0.00 0.55
-16 8 1 3.31 0.24
-16 8 2 1.71 0.23
-16 8 3 6.53 0.33
-16 8 4 1.04 0.21
-16 8 5 16.28 0.43
-16 8 6 0.79 0.21
-16 8 7 3.14 0.27
-16 8 8 0.23 0.24
-16 8 9 0.03 0.22
-16 8 10 0.39 0.22
-16 8 11 1.93 0.24
-16 8 12 0.97 0.22
-16 8 13 0.81 0.25
-16 8 14 0.00 0.24
-16 8 15 0.23 0.24
-16 8 16 1.42 0.26
-16 8 17 0.40 0.25
-16 8 18 0.36 0.27
-16 8 19 1.18 0.28
-16 8 20 0.00 0.27
-16 8 21 0.00 0.27
-16 10 1 0.51 0.28
-16 10 2 0.85 0.26
-16 10 3 0.66 0.24
-16 10 4 4.61 0.29
-16 10 5 0.96 0.26
-16 10 6 0.45 0.33
-16 10 7 4.10 0.28
-16 10 8 0.27 0.23
-16 10 9 1.54 0.26
-16 10 10 1.58 0.24
-16 10 11 0.28 0.22
-16 10 12 9.22 0.38
-16 10 13 0.11 0.24
-16 10 14 0.24 0.24
-16 10 15 0.03 0.25
-16 10 16 2.31 0.39
-16 10 17 0.54 0.29
-16 10 18 0.02 0.26
-16 10 19 0.16 0.27
-16 10 20 1.58 0.29
-16 12 1 6.10 0.45
-16 12 2 9.48 0.51
-16 12 3 12.97 0.54
-16 12 4 6.76 0.62
-16 12 5 7.88 0.57
-16 12 6 0.97 0.29
-16 12 7 4.53 0.48
-16 12 8 1.08 0.25
-16 12 9 0.05 0.24
-16 12 10 2.32 0.24
-16 12 11 0.97 0.23
-16 12 12 0.23 0.22
-16 12 13 4.00 0.31
-16 12 14 0.83 0.26
-16 12 15 0.67 0.26
-16 12 16 0.03 0.25
-16 12 17 0.31 0.26
-16 12 18 0.79 0.27
-16 12 19 0.09 0.27
-16 14 1 0.00 0.29
-16 14 2 6.79 0.50
-16 14 3 0.00 0.28
-16 14 4 1.96 0.31
-16 14 5 1.77 0.30
-16 14 6 5.06 0.43
-16 14 7 9.19 0.49
-16 14 8 0.49 0.28
-16 14 9 2.92 0.38
-16 14 10 4.70 0.34
-16 14 11 0.71 0.26
-16 14 12 0.44 0.26
-16 14 13 6.46 0.47
-16 14 14 0.27 0.30
-16 14 15 10.05 0.53
-16 14 16 0.94 0.32
-16 14 17 0.64 0.30
-16 16 1 0.69 0.30
-16 16 2 6.49 0.46
-16 16 3 0.07 0.28
-16 16 4 4.58 0.38
-16 16 5 5.53 0.43
-16 16 6 0.90 0.33
-16 16 7 3.89 0.68
-16 16 8 3.68 0.34
-16 16 9 2.51 0.28
-16 16 10 7.43 0.42
-16 16 11 0.00 0.24
-16 16 12 3.28 0.38
-16 16 13 0.53 0.32
-16 16 14 0.26 0.30
-16 16 15 0.16 0.29
-16 18 1 0.85 0.38
-16 18 2 5.76 0.42
-16 18 3 0.01 0.29
-16 18 4 0.85 0.30
-16 18 5 6.91 0.45
-16 18 6 0.15 0.29
-16 18 7 0.83 0.30
-16 18 8 1.95 0.32
-16 18 9 1.04 0.26
-16 18 10 1.16 0.27
-16 18 11 0.32 0.25
-16 18 12 4.05 0.40
-16 20 2 0.46 0.48
-16 20 3 0.77 0.36
-16 20 4 1.74 0.39
-16 20 5 6.59 0.75
-16 20 6 1.21 0.47
-15 1 1 1.72 0.20
-15 1 2 2.16 0.19
-15 1 3 8.40 0.34
-15 1 4 2.73 0.21
-15 1 5 0.52 0.18
-15 1 6 0.60 0.18
-15 1 7 2.96 0.21
-15 1 8 1.60 0.19
-15 1 9 4.44 0.26
-15 1 10 4.82 0.23
-15 1 11 6.27 0.22
-15 1 12 0.06 0.18
-15 1 13 1.70 0.19
-15 1 14 0.00 0.18
-15 1 15 0.01 0.18
-15 1 16 0.00 0.19
-15 1 17 0.46 0.19
-15 1 18 1.18 0.20
-15 1 19 8.81 0.34
-15 1 20 0.36 0.21
-15 1 21 2.59 0.24
-15 1 22 4.60 0.30
-15 1 23 0.18 0.22
-15 1 24 1.15 0.24
-15 3 1 7.97 0.34
-15 3 2 1.25 0.20
-15 3 3 9.38 0.32
-15 3 4 0.51 0.19
-15 3 5 1.55 0.21
-15 3 6 10.69 0.42
-15 3 7 1.51 0.20
-15 3 8 7.93 0.31
-15 3 9 0.01 0.17
-15 3 10 0.26 0.16
-15 3 11 4.35 0.26
-15 3 12 1.68 0.20
-15 3 13 0.63 0.21
-15 3 14 5.49 0.49
-15 3 15 11.58 0.38
-15 3 16 1.06 0.21
-15 3 17 4.97 0.33
-15 3 18 3.08 0.26
-15 3 19 4.20 0.26
-15 3 20 0.88 0.22
-15 3 21 6.40 0.34
-15 3 22 0.53 0.22
-15 3 23 0.58 0.25
-15 3 24 1.65 0.28
-15 5 1 0.11 0.19
-15 5 2 3.17 0.22
-15 5 3 0.43 0.20
-15 5 4 4.89 0.43
-15 5 5 2.30 0.22
-15 5 6 15.80 0.44
-15 5 7 1.05 0.20
-15 5 8 0.88 0.18
-15 5 9 1.74 0.21
-15 5 10 0.27 0.17
-15 5 11 0.01 0.18
-15 5 12 0.01 0.26
-15 5 13 0.26 0.20
-15 5 14 2.29 0.24
-15 5 15 5.73 0.32
-15 5 16 5.44 0.29
-15 5 17 1.17 0.23
-15 5 18 2.05 0.24
-15 5 19 1.05 0.27
-15 5 20 0.71 0.26
-15 5 21 0.57 0.26
-15 5 22 1.45 0.32
-15 5 23 0.00 0.25
-15 7 1 6.06 0.40
-15 7 2 0.62 0.19
-15 7 3 3.93 0.27
-15 7 4 0.01 0.19
-15 7 5 2.53 0.21
-15 7 6 1.78 0.21
-15 7 7 1.15 0.23
-15 7 8 0.73 0.17
-15 7 9 8.94 0.35
-15 7 10 0.82 0.19
-15 7 11 0.36 0.18
-15 7 12 0.51 0.18
-15 7 13 0.03 0.19
-15 7 14 2.37 0.26
-15 7 15 0.05 0.23
-15 7 16 0.08 0.24
-15 7 17 2.88 0.27
-15 7 18 1.28 0.29
-15 7 19 5.02 0.37
-15 7 20 0.40 0.26
-15 7 21 2.13 0.29
-15 7 22 2.69 0.31
-15 7 23 0.37 0.28
-15 9 1 11.18 0.37
-15 9 2 1.98 0.21
-15 9 3 7.57 0.32
-15 9 4 1.10 0.20
-15 9 5 0.33 0.19
-15 9 6 0.62 0.18
-15 9 7 2.23 0.24
-15 9 8 7.96 0.36
-15 9 9 0.22 0.26
-15 9 10 0.02 0.20
-15 9 11 4.15 0.43
-15 9 12 13.21 0.43
-15 9 13 0.87 0.24
-15 9 14 19.07 0.57
-15 9 15 3.18 0.36
-15 9 16 2.78 0.27
-15 9 17 1.92 0.26
-15 9 18 0.46 0.25
-15 9 19 3.07 0.31
-15 9 20 0.03 0.25
-15 9 21 1.42 0.29
-15 9 22 0.01 0.27
-15 11 1 0.55 0.27
-15 11 2 0.53 0.26
-15 11 3 0.90 0.28
-15 11 4 1.30 0.23
-15 11 5 0.07 0.22
-15 11 6 3.19 0.26
-15 11 7 0.98 0.24
-15 11 8 1.60 0.28
-15 11 9 0.10 0.23
-15 11 10 0.40 0.21
-15 11 11 0.39 0.21
-15 11 12 2.67 0.23
-15 11 13 1.03 0.27
-15 11 14 7.23 0.39
-15 11 15 0.74 0.25
-15 11 16 7.06 0.41
-15 11 17 0.51 0.26
-15 11 18 2.41 0.37
-15 11 19 0.23 0.26
-15 11 20 0.26 0.26
-15 11 21 0.10 0.27
-15 13 1 12.27 0.54
-15 13 2 0.76 0.27
-15 13 3 6.93 0.66
-15 13 4 6.63 0.42
-15 13 5 2.37 0.30
-15 13 6 0.54 0.26
-15 13 7 0.36 0.26
-15 13 8 8.95 0.50
-15 13 9 10.20 0.70
-15 13 10 0.50 0.23
-15 13 11 1.59 0.22
-15 13 12 1.76 0.24
-15 13 13 0.23 0.21
-15 13 14 1.43 0.25
-15 13 15 0.14 0.24
-15 13 16 0.81 0.26
-15 13 17 6.06 0.42
-15 13 18 0.39 0.26
-15 13 19 3.72 0.31
-15 13 20 0.00 0.26
-15 15 1 0.33 0.28
-15 15 2 0.00 0.26
-15 15 3 3.32 0.33
-15 15 4 0.01 0.26
-15 15 5 1.37 0.29
-15 15 6 4.29 0.37
-15 15 7 2.68 0.30
-15 15 8 0.66 0.31
-15 15 9 3.67 0.35
-15 15 10 2.28 0.31
-15 15 11 5.99 0.39
-15 15 12 5.78 0.41
-15 15 13 1.29 0.25
-15 15 14 1.68 0.25
-15 15 15 0.05 0.23
-15 15 16 0.55 0.24
-15 15 17 2.57 0.27
-15 15 18 0.49 0.30
-15 17 1 2.57 0.32
-15 17 2 1.57 0.29
-15 17 3 0.13 0.26
-15 17 4 6.43 0.43
-15 17 5 0.35 0.27
-15 17 6 2.19 0.30
-15 17 7 2.44 0.30
-15 17 8 4.11 0.38
-15 17 9 0.81 0.24
-15 17 10 0.17 0.24
-15 17 11 0.08 0.23
-15 17 12 0.62 0.28
-15 17 13 0.93 0.30
-15 17 14 5.02 0.36
-15 17 15 1.44 0.26
-15 17 16 9.09 0.54
-15 19 1 6.09 0.52
-15 19 2 0.40 0.43
-15 19 3 0.45 0.41
-15 19 4 0.24 0.33
-15 19 5 9.32 0.48
-15 19 6 0.58 0.28
-15 19 7 0.08 0.35
-15 19 8 1.02 0.28
-15 19 9 9.96 0.45
-15 19 10 0.79 0.28
-15 19 11 4.44 0.49
-15 19 12 0.00 0.28
-15 19 13 0.18 0.33
-15 19 14 0.27 0.29
-15 21 1 1.37 0.37
-15 21 2 1.88 0.38
-15 21 3 3.51 0.67
-15 21 4 6.13 0.54
-15 21 5 0.60 0.34
-15 21 6 1.79 0.36
-15 21 7 0.77 0.39
-15 21 8 1.30 0.40
-15 21 9 3.87 0.36
-15 21 10 0.68 0.29
-14 0 2 12.18 0.55
-14 0 4 4.28 0.31
-14 0 6 33.64 1.00
-14 0 8 19.91 0.67
-14 0 10 0.84 0.22
-14 0 12 5.20 0.40
-14 0 14 13.78 0.46
-14 0 16 1.42 0.31
-14 0 18 6.46 0.39
-14 0 20 0.56 0.30
-14 0 22 17.84 0.66
-14 0 24 0.03 0.31
-14 2 1 0.09 0.18
-14 2 2 0.65 0.24
-14 2 3 0.04 0.18
-14 2 4 13.27 0.53
-14 2 5 11.97 0.44
-14 2 6 2.39 0.20
-14 2 7 18.09 0.72
-14 2 8 18.72 0.61
-14 2 9 1.25 0.21
-14 2 10 5.32 0.31
-14 2 11 10.07 0.34
-14 2 12 6.26 0.32
-14 2 13 1.46 0.20
-14 2 14 2.47 0.22
-14 2 15 5.25 0.30
-14 2 16 3.35 0.35
-14 2 17 0.65 0.19
-14 2 18 1.85 0.21
-14 2 19 0.04 0.19
-14 2 20 2.50 0.22
-14 2 21 0.43 0.21
-14 2 22 5.08 0.47
-14 2 23 4.15 0.31
-14 2 24 0.27 0.22
-14 2 25 3.73 0.26
-14 4 1 1.01 0.20
-14 4 2 4.35 0.29
-14 4 3 1.60 0.20
-14 4 4 2.67 0.27
-14 4 5 3.27 0.27
-14 4 6 2.38 0.21
-14 4 7 2.26 0.21
-14 4 8 0.17 0.16
-14 4 9 1.11 0.17
-14 4 10 9.65 0.46
-14 4 11 5.69 0.32
-14 4 12 4.50 0.46
-14 4 13 19.95 0.58
-14 4 14 1.25 0.41
-14 4 15 31.08 0.70
-14 4 16 0.59 0.22
-14 4 17 7.00 0.33
-14 4 18 4.36 0.40
-14 4 19 0.31 0.21
-14 4 20 8.23 0.38
-14 4 21 0.97 0.21
-14 4 22 0.00 0.21
-14 4 23 0.63 0.24
-14 4 24 0.19 0.24
-14 4 25 0.00 0.24
-14 6 1 1.52 0.21
-14 6 2 0.44 0.18
-14 6 3 0.54 0.19
-14 6 4 0.05 0.17
-14 6 5 0.27 0.17
-14 6 6 3.18 0.21
-14 6 7 3.93 0.28
-14 6 8 4.83 0.26
-14 6 9 25.52 0.75
-14 6 10 21.71 0.47
-14 6 11 2.03 0.19
-14 6 12 6.94 0.30
-14 6 13 0.08 0.19
-14 6 14 6.89 0.38
-14 6 15 4.53 0.28
-14 6 16 2.18 0.35
-14 6 17 1.27 0.22
-14 6 18 7.83 0.35
-14 6 19 1.36 0.25
-14 6 20 2.71 0.28
-14 6 21 0.07 0.25
-14 6 22 0.29 0.26
-14 6 23 0.16 0.27
-14 6 24 0.00 0.27
-14 6 25 1.30 0.43
-14 8 1 0.79 0.18
-14 8 2 1.76 0.20
-14 8 3 3.70 0.26
-14 8 4 0.28 0.18
-14 8 5 6.26 0.31
-14 8 6 1.92 0.21
-14 8 7 3.57 0.19
-14 8 8 0.30 0.16
-14 8 9 6.03 0.29
-14 8 10 4.77 0.22
-14 8 11 1.49 0.21
-14 8 12 0.72 0.18
-14 8 13 2.44 0.23
-14 8 14 7.29 0.39
-14 8 15 5.28 0.35
-14 8 16 0.15 0.23
-14 8 17 3.76 0.28
-14 8 18 0.11 0.24
-14 8 19 0.00 0.24
-14 8 20 0.03 0.25
-14 8 21 3.79 0.31
-14 8 22 0.01 0.27
-14 8 23 3.51 0.32
-14 8 24 0.24 0.28
-14 10 1 1.10 0.32
-14 10 2 17.44 0.49
-14 10 3 0.78 0.19
-14 10 4 4.05 0.28
-14 10 5 1.50 0.22
-14 10 6 0.11 0.20
-14 10 7 3.00 0.25
-14 10 8 1.92 0.20
-14 10 9 3.40 0.21
-14 10 10 0.00 0.19
-14 10 11 1.20 0.20
-14 10 12 0.19 0.20
-14 10 13 2.56 0.26
-14 10 14 0.42 0.23
-14 10 15 7.94 0.39
-14 10 16 1.76 0.26
-14 10 17 0.25 0.24
-14 10 18 2.51 0.27
-14 10 19 0.17 0.24
-14 10 20 2.32 0.28
-14 10 21 0.79 0.27
-14 10 22 0.31 0.32
-14 10 23 0.40 0.27
-14 12 1 0.32 0.26
-14 12 2 0.62 0.26
-14 12 3 9.66 0.70
-14 12 4 5.81 0.39
-14 12 5 1.13 0.25
-14 12 6 1.41 0.22
-14 12 7 1.88 0.39
-14 12 8 1.59 0.19
-14 12 9 2.97 0.20
-14 12 10 2.37 0.19
-14 12 11 0.03 0.17
-14 12 12 3.64 0.23
-14 12 13 11.58 0.44
-14 12 14 1.26 0.25
-14 12 15 0.56 0.24
-14 12 16 2.98 0.26
-14 12 17 1.02 0.25
-14 12 18 2.80 0.31
-14 12 19 2.09 0.28
-14 12 20 4.59 0.33
-14 12 21 0.23 0.27
-14 12 22 1.49 0.29
-14 14 1 14.10 0.57
-14 14 2 0.00 0.25
-14 14 3 0.05 0.25
-14 14 4 1.81 0.32
-14 14 5 2.74 0.29
-14 14 6 0.33 0.26
-14 14 7 13.59 0.51
-14 14 8 2.42 0.22
-14 14 9 0.79 0.21
-14 14 10 0.41 0.20
-14 14 11 9.47 0.36
-14 14 12 1.44 0.23
-14 14 13 6.81 0.36
-14 14 14 0.00 0.21
-14 14 15 0.37 0.26
-14 14 16 0.44 0.28
-14 14 17 2.13 0.31
-14 14 18 0.30 0.36
-14 14 19 0.09 0.28
-14 14 20 1.10 0.31
-14 14 21 2.35 0.35
-14 16 1 5.36 0.40
-14 16 2 9.73 0.48
-14 16 3 0.83 0.27
-14 16 4 0.75 0.26
-14 16 5 0.36 0.25
-14 16 6 3.56 0.37
-14 16 7 1.64 0.27
-14 16 8 0.06 0.25
-14 16 9 2.96 0.28
-14 16 10 6.13 0.30
-14 16 11 1.70 0.22
-14 16 12 6.01 0.59
-14 16 13 0.26 0.23
-14 16 14 0.40 0.23
-14 16 15 3.16 0.26
-14 16 16 0.27 0.24
-14 16 17 0.12 0.24
-14 16 18 0.24 0.25
-14 16 19 0.01 0.30
-14 18 1 0.50 0.27
-14 18 2 5.29 0.40
-14 18 3 0.96 0.28
-14 18 4 2.78 0.30
-14 18 5 1.99 0.38
-14 18 6 0.51 0.26
-14 18 7 2.16 0.27
-14 18 8 1.95 0.27
-14 18 9 0.33 0.23
-14 18 10 4.13 0.30
-14 18 11 0.73 0.20
-14 18 12 0.27 0.23
-14 18 13 8.43 0.40
-14 18 14 2.20 0.26
-14 18 15 1.46 0.26
-14 18 16 0.12 0.24
-14 18 17 0.12 0.24
-14 18 18 0.01 0.25
-14 20 1 0.03 0.32
-14 20 2 1.55 0.48
-14 20 3 4.42 0.73
-14 20 4 4.65 0.77
-14 20 5 6.26 0.50
-14 20 6 1.55 0.34
-14 20 7 1.16 0.33
-14 20 8 2.67 0.31
-14 20 9 0.52 0.27
-14 20 10 0.01 0.27
-14 20 11 0.07 0.42
-14 20 12 2.74 0.29
-14 20 13 0.90 0.28
-14 20 14 0.48 0.27
-14 20 15 4.07 0.34
-14 22 1 2.68 0.58
-14 22 2 5.91 0.52
-14 22 3 3.40 0.54
-14 22 4 0.00 0.31
-14 22 5 1.16 0.34
-14 22 6 1.42 0.49
-14 22 7 0.59 0.32
-14 22 8 0.00 0.26
-14 22 9 0.57 0.27
-14 22 10 4.74 0.42
-14 22 11 1.98 0.35
-14 22 12 9.42 0.57
-13 1 1 0.78 0.18
-13 1 2 0.64 0.18
-13 1 3 3.49 0.30
-13 1 4 11.73 0.32
-13 1 5 0.00 0.17
-13 1 6 10.24 0.35
-13 1 7 0.62 0.19
-13 1 8 7.82 0.31
-13 1 9 20.60 0.50
-13 1 10 9.81 0.28
-13 1 11 15.59 0.35
-13 1 12 24.01 0.59
-13 1 13 2.80 0.22
-13 1 14 3.32 0.20
-13 1 15 1.29 0.18
-13 1 16 7.16 0.29
-13 1 17 2.52 0.26
-13 1 18 4.47 0.27
-13 1 19 0.25 0.18
-13 1 20 0.30 0.19
-13 1 21 1.12 0.22
-13 1 22 0.08 0.19
-13 1 23 0.01 0.21
-13 1 24 0.25 0.21
-13 1 25 1.89 0.24
-13 1 26 3.60 0.27
-13 3 1 56.79 1.09
-13 3 2 1.80 0.19
-13 3 3 29.46 0.69
-13 3 4 4.31 0.49
-13 3 5 10.31 0.38
-13 3 6 0.16 0.17
-13 3 7 13.06 0.33
-13 3 8 6.16 0.26
-13 3 9 21.80 0.49
-13 3 10 6.33 0.26
-13 3 11 10.24 0.30
-13 3 12 12.93 0.35
-13 3 13 1.37 0.19
-13 3 14 1.85 0.18
-13 3 15 0.00 0.19
-13 3 16 0.21 0.20
-13 3 17 0.91 0.20
-13 3 18 0.02 0.19
-13 3 19 4.80 0.31
-13 3 20 0.37 0.19
-13 3 21 0.94 0.20
-13 3 22 0.07 0.20
-13 3 23 0.01 0.21
-13 3 24 0.82 0.22
-13 3 25 0.44 0.22
-13 3 26 0.00 0.25
-13 5 1 0.32 0.17
-13 5 2 1.77 0.20
-13 5 3 0.64 0.18
-13 5 4 1.50 0.19
-13 5 5 0.24 0.17
-13 5 6 5.71 0.24
-13 5 7 0.48 0.17
-13 5 8 8.42 0.28
-13 5 9 0.40 0.15
-13 5 10 2.65 0.20
-13 5 11 6.65 0.26
-13 5 12 2.94 0.29
-13 5 13 0.92 0.20
-13 5 14 40.83 0.80
-13 5 15 1.22 0.20
-13 5 16 5.70 0.32
-13 5 17 1.43 0.22
-13 5 18 4.60 0.29
-13 5 19 2.29 0.22
-13 5 20 0.02 0.21
-13 5 21 0.41 0.21
-13 5 22 0.16 0.25
-13 5 23 0.02 0.24
-13 5 24 1.78 0.26
-13 5 25 0.00 0.24
-13 5 26 0.19 0.25
-13 7 1 2.65 0.25
-13 7 2 18.44 0.42
-13 7 3 0.67 0.17
-13 7 4 15.53 0.32
-13 7 5 0.34 0.13
-13 7 6 0.38 0.17
-13 7 7 4.18 0.25
-13 7 8 0.38 0.16
-13 7 9 20.39 0.44
-13 7 10 1.38 0.17
-13 7 11 13.34 0.35
-13 7 12 3.19 0.20
-13 7 13 18.20 0.50
-13 7 14 1.83 0.26
-13 7 15 3.30 0.32
-13 7 16 12.56 0.45
-13 7 17 4.89 0.31
-13 7 18 7.32 0.36
-13 7 19 8.03 0.39
-13 7 20 0.00 0.24
-13 7 21 0.33 0.25
-13 7 22 0.23 0.25
-13 7 23 0.00 0.25
-13 7 24 0.19 0.27
-13 7 25 0.26 0.27
-13 9 1 1.07 0.29
-13 9 2 0.36 0.17
-13 9 3 0.27 0.17
-13 9 4 0.13 0.13
-13 9 5 1.25 0.15
-13 9 6 1.24 0.14
-13 9 7 0.77 0.14
-13 9 8 0.16 0.16
-13 9 9 12.81 0.38
-13 9 10 1.78 0.29
-13 9 11 17.71 0.40
-13 9 12 0.59 0.19
-13 9 13 13.51 0.80
-13 9 14 0.12 0.22
-13 9 15 1.46 0.24
-13 9 16 0.14 0.22
-13 9 17 0.20 0.23
-13 9 18 1.14 0.25
-13 9 19 3.48 0.28
-13 9 20 0.56 0.25
-13 9 21 0.00 0.24
-13 9 22 0.05 0.25
-13 9 23 0.00 0.25
-13 9 24 0.36 0.27
-13 9 25 0.00 0.27
-13 11 1 11.01 0.53
-13 11 2 1.03 0.22
-13 11 3 1.41 0.20
-13 11 4 1.85 0.22
-13 11 5 0.31 0.15
-13 11 6 0.29 0.16
-13 11 7 3.05 0.35
-13 11 8 15.87 0.40
-13 11 9 1.73 0.20
-13 11 10 0.01 0.18
-13 11 11 1.11 0.32
-13 11 12 6.00 0.37
-13 11 13 1.18 0.23
-13 11 14 6.54 0.35
-13 11 15 0.83 0.23
-13 11 16 7.38 0.37
-13 11 17 0.14 0.23
-13 11 18 2.30 0.27
-13 11 19 0.02 0.24
-13 11 20 0.00 0.24
-13 11 21 1.86 0.28
-13 11 22 1.84 0.28
-13 11 23 0.01 0.26
-13 11 24 1.40 0.38
-13 13 1 6.06 0.37
-13 13 2 1.24 0.27
-13 13 3 21.90 0.66
-13 13 4 16.14 0.53
-13 13 5 0.58 0.18
-13 13 6 2.85 0.39
-13 13 7 12.70 0.43
-13 13 8 0.62 0.19
-13 13 9 3.33 0.28
-13 13 10 0.67 0.17
-13 13 11 0.11 0.16
-13 13 12 0.18 0.18
-13 13 13 3.12 0.24
-13 13 14 0.59 0.23
-13 13 15 0.13 0.22
-13 13 16 1.61 0.25
-13 13 17 2.65 0.25
-13 13 18 0.64 0.31
-13 13 19 2.38 0.31
-13 13 20 2.56 0.37
-13 13 21 2.19 0.29
-13 13 22 3.10 0.36
-13 13 23 0.85 0.32
-13 15 1 0.09 0.25
-13 15 2 0.15 0.32
-13 15 3 2.96 0.37
-13 15 4 4.25 0.30
-13 15 5 0.58 0.19
-13 15 6 6.11 0.31
-13 15 7 0.01 0.19
-13 15 8 3.11 0.25
-13 15 9 14.25 0.40
-13 15 10 0.29 0.19
-13 15 11 24.90 0.54
-13 15 12 0.07 0.21
-13 15 13 1.65 0.24
-13 15 14 7.99 0.36
-13 15 15 1.17 0.23
-13 15 16 3.50 0.31
-13 15 17 1.08 0.29
-13 15 18 0.01 0.27
-13 15 19 0.99 0.31
-13 15 20 0.16 0.30
-13 15 21 2.19 0.33
-13 15 22 0.01 0.30
-13 17 1 0.30 0.24
-13 17 2 0.15 0.33
-13 17 3 0.02 0.23
-13 17 4 2.88 0.30
-13 17 5 1.60 0.22
-13 17 6 15.29 0.46
-13 17 7 2.70 0.22
-13 17 8 3.78 0.26
-13 17 9 6.17 0.57
-13 17 10 0.64 0.19
-13 17 11 1.08 0.20
-13 17 12 7.71 0.35
-13 17 13 0.38 0.22
-13 17 14 10.41 0.57
-13 17 15 0.69 0.23
-13 17 16 0.89 0.26
-13 17 17 0.83 0.25
-13 17 18 1.29 0.29
-13 17 19 0.08 0.25
-13 17 20 1.43 0.45
-13 19 1 12.49 0.45
-13 19 2 0.76 0.27
-13 19 3 4.88 0.39
-13 19 4 0.74 0.25
-13 19 5 0.24 0.25
-13 19 6 3.00 0.23
-13 19 7 9.92 0.38
-13 19 8 1.64 0.23
-13 19 9 0.78 0.20
-13 19 10 3.31 0.23
-13 19 11 1.92 0.24
-13 19 12 0.70 0.23
-13 19 13 4.42 0.33
-13 19 14 0.22 0.23
-13 19 15 0.53 0.24
-13 19 16 0.62 0.24
-13 19 17 3.62 0.33
-13 19 18 0.02 0.25
-13 21 1 0.02 0.31
-13 21 2 1.67 0.34
-13 21 3 0.85 0.31
-13 21 4 2.13 0.40
-13 21 5 2.41 0.39
-13 21 6 3.18 0.36
-13 21 7 0.38 0.24
-13 21 8 2.28 0.37
-13 21 9 7.67 0.37
-13 21 10 2.96 0.27
-13 21 11 9.93 0.46
-13 21 12 1.36 0.26
-13 21 13 2.67 0.29
-13 21 14 0.88 0.27
-13 21 15 0.37 0.27
-13 21 16 0.27 0.28
-13 23 1 0.00 0.46
-13 23 2 2.07 0.30
-13 23 3 1.50 0.33
-13 23 4 22.38 0.88
-13 23 5 1.10 0.41
-13 23 6 15.21 0.68
-13 23 7 1.54 0.28
-13 23 8 0.91 0.23
-13 23 9 1.85 0.26
-13 23 10 0.16 0.33
-13 23 11 1.73 0.46
-13 23 12 3.14 0.44
-13 23 13 0.20 0.35
-13 25 1 3.62 0.64
-13 25 2 0.52 0.38
-13 25 3 6.71 0.85
-13 25 4 1.84 0.56
-13 25 5 3.24 0.59
-13 25 6 0.51 0.37
-12 0 2 9.97 0.32
-12 0 4 44.95 1.54
-12 0 6 4.90 0.45
-12 0 8 43.59 1.54
-12 0 10 7.97 0.46
-12 0 12 16.03 0.52
-12 0 14 6.37 0.68
-12 0 16 0.41 0.23
-12 0 18 0.86 0.24
-12 0 20 7.30 0.42
-12 0 22 0.99 0.29
-12 0 24 3.07 0.34
-12 0 26 1.20 0.32
-12 2 1 0.80 0.18
-12 2 2 4.22 0.29
-12 2 3 23.91 0.71
-12 2 4 1.56 0.21
-12 2 5 53.60 0.89
-12 2 6 0.04 0.16
-12 2 7 10.28 0.36
-12 2 8 1.24 0.17
-12 2 9 13.26 0.29
-12 2 10 0.18 0.16
-12 2 11 2.39 0.21
-12 2 12 19.84 0.63
-12 2 13 5.51 0.29
-12 2 14 0.53 0.17
-12 2 15 6.91 0.31
-12 2 16 7.25 0.45
-12 2 17 0.22 0.18
-12 2 18 1.32 0.20
-12 2 19 4.17 0.23
-12 2 20 0.25 0.18
-12 2 21 1.05 0.20
-12 2 22 0.50 0.19
-12 2 23 1.16 0.21
-12 2 24 0.00 0.20
-12 2 25 1.32 0.23
-12 2 26 0.00 0.21
-12 2 27 0.44 0.23
-12 4 1 10.52 0.51
-12 4 2 8.62 0.21
-12 4 3 7.03 0.25
-12 4 4 2.25 0.18
-12 4 5 28.67 0.76
-12 4 6 2.25 0.23
-12 4 7 38.10 0.71
-12 4 8 23.54 0.50
-12 4 9 11.67 0.30
-12 4 10 20.77 0.83
-12 4 11 6.53 0.25
-12 4 12 2.56 0.20
-12 4 13 21.43 0.69
-12 4 14 0.24 0.18
-12 4 15 8.15 0.31
-12 4 16 0.24 0.18
-12 4 17 0.11 0.19
-12 4 18 0.48 0.19
-12 4 19 0.71 0.20
-12 4 20 0.31 0.20
-12 4 21 0.20 0.21
-12 4 22 0.91 0.22
-12 4 23 0.36 0.20
-12 4 24 0.30 0.22
-12 4 25 0.95 0.26
-12 4 26 0.23 0.27
-12 4 27 0.82 0.26
-12 6 1 1.36 0.16
-12 6 2 24.58 0.52
-12 6 3 5.22 0.23
-12 6 4 10.10 0.28
-12 6 5 6.17 0.30
-12 6 6 21.76 0.53
-12 6 7 3.32 0.32
-12 6 8 33.40 0.60
-12 6 9 0.48 0.16
-12 6 10 13.35 0.60
-12 6 11 9.63 0.29
-12 6 12 1.90 0.18
-12 6 13 1.83 0.18
-12 6 14 6.60 0.33
-12 6 15 0.63 0.18
-12 6 16 0.24 0.23
-12 6 17 6.23 0.40
-12 6 18 3.87 0.27
-12 6 19 0.80 0.20
-12 6 20 9.91 0.40
-12 6 21 3.13 0.28
-12 6 22 2.78 0.28
-12 6 23 0.05 0.25
-12 6 24 0.00 0.26
-12 6 25 0.05 0.26
-12 6 26 0.24 0.24
-12 6 27 0.00 0.24
-12 8 1 10.04 0.32
-12 8 2 17.12 0.34
-12 8 3 6.58 0.26
-12 8 4 30.02 0.56
-12 8 5 2.58 0.15
-12 8 6 3.20 0.21
-12 8 7 6.97 0.25
-12 8 8 0.67 0.18
-12 8 9 6.60 0.33
-12 8 10 9.96 0.36
-12 8 11 0.74 0.16
-12 8 12 1.02 0.18
-12 8 13 26.17 0.54
-12 8 14 1.37 0.23
-12 8 15 31.21 0.69
-12 8 16 0.55 0.21
-12 8 17 1.06 0.20
-12 8 18 0.80 0.25
-12 8 19 1.14 0.24
-12 8 20 0.53 0.29
-12 8 21 0.44 0.24
-12 8 22 0.59 0.25
-12 8 23 0.00 0.25
-12 8 24 0.00 0.28
-12 8 25 0.21 0.27
-12 8 26 2.09 0.30
-12 10 1 0.32 0.14
-12 10 2 16.70 0.53
-12 10 3 26.77 0.47
-12 10 4 2.87 0.25
-12 10 5 63.51 1.01
-12 10 6 1.23 0.14
-12 10 7 20.22 0.44
-12 10 8 3.44 0.25
-12 10 9 1.14 0.17
-12 10 10 0.91 0.22
-12 10 11 0.49 0.15
-12 10 12 8.78 0.35
-12 10 13 0.00 0.20
-12 10 14 1.01 0.21
-12 10 15 0.40 0.21
-12 10 16 1.23 0.23
-12 10 17 2.80 0.27
-12 10 18 2.94 0.29
-12 10 19 2.58 0.47
-12 10 20 5.51 0.36
-12 10 21 0.59 0.25
-12 10 22 1.46 0.29
-12 10 23 2.42 0.30
-12 10 24 0.01 0.25
-12 10 25 0.56 0.27
-12 12 1 0.41 0.15
-12 12 2 0.14 0.16
-12 12 3 1.18 0.18
-12 12 4 3.75 0.29
-12 12 5 11.38 0.37
-12 12 6 1.27 0.20
-12 12 7 5.10 0.41
-12 12 8 2.30 0.18
-12 12 9 6.62 0.26
-12 12 10 3.98 0.28
-12 12 11 4.67 0.29
-12 12 12 12.95 0.44
-12 12 13 1.48 0.22
-12 12 14 0.84 0.21
-12 12 15 7.28 0.55
-12 12 16 5.58 0.34
-12 12 17 7.71 0.37
-12 12 18 3.59 0.26
-12 12 19 0.03 0.23
-12 12 20 3.51 0.34
-12 12 21 0.37 0.25
-12 12 22 0.49 0.26
-12 12 23 0.05 0.25
-12 12 24 0.34 0.27
-12 12 25 0.18 0.28
-12 14 1 1.49 0.18
-12 14 2 0.18 0.17
-12 14 3 13.42 0.38
-12 14 4 2.11 0.27
-12 14 5 0.52 0.17
-12 14 6 0.44 0.18
-12 14 7 2.23 0.23
-12 14 8 0.16 0.18
-12 14 9 1.23 0.18
-12 14 10 1.92 0.22
-12 14 11 0.01 0.17
-12 14 12 0.42 0.20
-12 14 13 7.94 0.43
-12 14 14 0.63 0.24
-12 14 15 6.96 0.39
-12 14 16 1.33 0.27
-12 14 17 2.34 0.29
-12 14 18 0.35 0.37
-12 14 19 0.39 0.31
-12 14 20 1.32 0.29
-12 14 21 0.24 0.28
-12 14 22 0.64 0.31
-12 14 23 0.01 0.31
-12 14 24 0.00 0.51
-12 16 1 0.78 0.19
-12 16 2 12.08 0.39
-12 16 3 0.92 0.19
-12 16 4 0.47 0.19
-12 16 5 6.07 0.31
-12 16 6 0.37 0.19
-12 16 7 10.22 0.36
-12 16 8 15.34 0.48
-12 16 9 1.81 0.19
-12 16 10 12.80 0.38
-12 16 11 0.26 0.18
-12 16 12 0.03 0.21
-12 16 13 0.39 0.21
-12 16 14 0.12 0.21
-12 16 15 0.23 0.22
-12 16 16 0.01 0.21
-12 16 17 1.11 0.27
-12 16 18 2.10 0.31
-12 16 19 0.22 0.28
-12 16 20 3.53 0.36
-12 16 21 1.54 0.31
-12 16 22 0.61 0.31
-12 18 1 5.79 0.77
-12 18 2 1.30 0.34
-12 18 3 0.47 0.21
-12 18 4 5.54 0.32
-12 18 5 2.14 0.49
-12 18 6 0.02 0.19
-12 18 7 0.19 0.19
-12 18 8 0.34 0.20
-12 18 9 1.18 0.20
-12 18 10 1.50 0.19
-12 18 11 10.07 0.39
-12 18 12 3.96 0.31
-12 18 13 1.55 0.22
-12 18 14 3.52 0.29
-12 18 15 2.61 0.26
-12 18 16 0.42 0.23
-12 18 17 6.88 0.40
-12 18 18 0.02 0.24
-12 18 19 0.07 0.24
-12 18 20 0.04 0.24
-12 18 21 0.03 0.26
-12 20 1 0.86 0.25
-12 20 2 3.03 0.26
-12 20 3 4.76 0.35
-12 20 4 0.00 0.22
-12 20 5 3.80 0.30
-12 20 6 0.09 0.31
-12 20 7 9.77 0.42
-12 20 8 0.58 0.19
-12 20 9 4.95 0.29
-12 20 10 2.04 0.21
-12 20 11 0.51 0.21
-12 20 12 0.04 0.21
-12 20 13 0.01 0.27
-12 20 14 0.55 0.23
-12 20 15 0.93 0.29
-12 20 16 0.11 0.26
-12 20 17 1.61 0.28
-12 20 18 0.06 0.27
-12 20 19 0.07 0.28
-12 22 1 0.28 0.25
-12 22 2 6.85 0.40
-12 22 3 0.77 0.21
-12 22 4 0.46 0.23
-12 22 5 0.13 0.23
-12 22 6 1.87 0.26
-12 22 7 2.92 0.26
-12 22 8 12.15 0.41
-12 22 9 2.24 0.24
-12 22 10 11.88 0.81
-12 22 11 1.08 0.34
-12 22 12 3.10 0.32
-12 22 13 0.25 0.25
-12 22 14 2.43 0.29
-12 22 15 0.02 0.26
-12 22 16 1.04 0.28
-12 24 1 0.67 0.27
-12 24 2 5.12 0.41
-12 24 3 2.86 0.29
-12 24 4 1.32 0.34
-12 24 5 1.09 0.34
-12 24 6 4.34 0.48
-12 24 7 1.81 0.29
-12 24 8 0.46 0.28
-12 24 9 2.24 0.37
-12 24 10 3.96 0.40
-12 24 11 0.02 0.34
-12 24 12 0.61 0.35
-12 24 13 5.42 0.55
-12 26 1 1.03 0.38
-12 26 2 0.76 0.41
-12 26 3 0.60 0.38
-12 26 4 0.83 0.52
-12 26 5 1.73 0.37
-12 26 6 0.21 0.29
-12 26 7 4.68 0.40
-12 26 8 1.47 0.37
-11 1 1 13.39 0.44
-11 1 2 3.03 0.20
-11 1 3 7.41 0.23
-11 1 4 2.60 0.25
-11 1 5 0.72 0.14
-11 1 6 6.20 0.23
-11 1 7 24.64 0.43
-11 1 8 21.34 0.47
-11 1 9 18.32 0.49
-11 1 10 6.12 0.26
-11 1 11 10.06 0.45
-11 1 12 1.13 0.16
-11 1 13 23.08 0.53
-11 1 14 2.34 0.18
-11 1 15 0.78 0.17
-11 1 16 6.05 0.31
-11 1 17 4.13 0.27
-11 1 18 0.39 0.17
-11 1 19 0.47 0.17
-11 1 20 0.16 0.18
-11 1 21 0.49 0.19
-11 1 22 0.02 0.18
-11 1 23 0.28 0.20
-11 1 24 1.27 0.21
-11 1 25 0.52 0.21
-11 1 26 3.44 0.26
-11 1 27 1.72 0.24
-11 1 28 0.51 0.26
-11 3 1 8.80 0.33
-11 3 2 8.05 0.29
-11 3 3 16.29 0.37
-11 3 4 15.59 0.39
-11 3 5 20.96 0.56
-11 3 6 2.91 0.22
-11 3 7 6.89 0.40
-11 3 8 11.74 0.31
-11 3 9 57.74 0.83
-11 3 10 6.88 0.28
-11 3 11 16.81 0.45
-11 3 12 1.96 0.19
-11 3 13 0.44 0.17
-11 3 14 0.32 0.18
-11 3 15 0.03 0.16
-11 3 16 6.40 0.30
-11 3 17 0.37 0.18
-11 3 18 0.98 0.19
-11 3 19 3.10 0.22
-11 3 20 3.12 0.37
-11 3 21 7.14 0.33
-11 3 22 0.95 0.19
-11 3 23 2.88 0.23
-11 3 24 0.66 0.21
-11 3 25 1.65 0.22
-11 3 26 0.72 0.22
-11 3 27 2.16 0.24
-11 3 28 0.00 0.35
-11 5 1 29.92 0.71
-11 5 2 12.27 0.29
-11 5 3 7.89 0.28
-11 5 4 52.34 1.08
-11 5 5 10.03 0.34
-11 5 6 34.10 0.75
-11 5 7 7.41 0.23
-11 5 8 11.02 0.26
-11 5 9 1.33 0.20
-11 5 10 1.23 0.15
-11 5 11 0.12 0.14
-11 5 12 0.78 0.16
-11 5 13 0.20 0.17
-11 5 14 38.18 0.75
-11 5 15 8.28 0.28
-11 5 16 3.50 0.32
-11 5 17 21.01 0.55
-11 5 18 0.93 0.19
-11 5 19 0.82 0.21
-11 5 20 7.35 0.32
-11 5 21 0.27 0.20
-11 5 22 0.59 0.22
-11 5 23 0.23 0.21
-11 5 24 2.37 0.24
-11 5 25 0.01 0.23
-11 5 26 1.31 0.26
-11 5 27 0.14 0.25
-11 5 28 0.10 0.25
-11 7 1 50.33 0.84
-11 7 2 0.06 0.13
-11 7 3 17.32 0.35
-11 7 4 1.60 0.15
-11 7 5 1.25 0.15
-11 7 6 21.34 0.43
-11 7 7 8.90 0.25
-11 7 8 7.06 0.32
-11 7 9 5.89 0.34
-11 7 10 0.02 0.14
-11 7 11 5.84 0.22
-11 7 12 0.80 0.16
-11 7 13 3.54 0.23
-11 7 14 11.82 0.49
-11 7 15 1.70 0.18
-11 7 16 4.28 0.28
-11 7 17 0.72 0.18
-11 7 18 1.26 0.21
-11 7 19 1.56 0.24
-11 7 20 0.00 0.19
-11 7 21 0.42 0.20
-11 7 22 0.05 0.24
-11 7 23 0.10 0.25
-11 7 24 3.59 0.41
-11 7 25 1.18 0.28
-11 7 26 0.01 0.27
-11 7 27 0.00 0.27
-11 9 1 41.56 0.81
-11 9 2 2.22 0.16
-11 9 3 14.88 0.31
-11 9 4 0.27 0.12
-11 9 5 5.93 0.21
-11 9 6 5.99 0.39
-11 9 7 1.68 0.19
-11 9 8 16.34 0.77
-11 9 9 78.70 1.41
-11 9 10 19.14 0.37
-11 9 11 1.61 0.16
-11 9 12 0.48 0.16
-11 9 13 4.04 0.22
-11 9 14 0.01 0.17
-11 9 15 0.53 0.18
-11 9 16 1.88 0.30
-11 9 17 1.43 0.23
-11 9 18 6.41 0.36
-11 9 19 2.87 0.30
-11 9 20 0.21 0.23
-11 9 21 0.09 0.23
-11 9 22 0.12 0.24
-11 9 23 0.00 0.24
-11 9 24 1.28 0.26
-11 9 25 0.33 0.28
-11 9 26 0.60 0.28
-11 9 27 0.91 0.29
-11 11 1 3.32 0.23
-11 11 2 18.52 0.48
-11 11 3 1.43 0.15
-11 11 4 59.29 1.08
-11 11 5 1.02 0.15
-11 11 6 22.51 0.45
-11 11 7 0.52 0.13
-11 11 8 12.31 0.30
-11 11 9 6.76 0.23
-11 11 10 17.89 0.40
-11 11 11 0.06 0.17
-11 11 12 0.54 0.20
-11 11 13 1.73 0.22
-11 11 14 2.90 0.25
-11 11 15 0.04 0.20
-11 11 16 6.27 0.35
-11 11 17 0.34 0.21
-11 11 18 0.96 0.23
-11 11 19 0.10 0.22
-11 11 20 1.15 0.24
-11 11 21 0.17 0.24
-11 11 22 0.29 0.25
-11 11 23 1.41 0.26
-11 11 24 0.30 0.27
-11 11 25 0.01 0.27
-11 11 26 0.18 0.29
-11 13 1 0.21 0.14
-11 13 2 0.83 0.16
-11 13 3 11.17 0.36
-11 13 4 0.41 0.17
-11 13 5 1.73 0.19
-11 13 6 15.74 0.42
-11 13 7 4.75 0.27
-11 13 8 16.22 0.47
-11 13 9 1.88 0.20
-11 13 10 5.96 0.27
-11 13 11 7.20 0.33
-11 13 12 0.47 0.20
-11 13 13 7.53 0.38
-11 13 14 6.08 0.33
-11 13 15 0.04 0.21
-11 13 16 0.00 0.28
-11 13 17 1.53 0.24
-11 13 18 0.00 0.22
-11 13 19 3.11 0.26
-11 13 20 0.29 0.27
-11 13 21 1.07 0.30
-11 13 22 0.23 0.28
-11 13 23 1.40 0.30
-11 13 24 1.25 0.33
-11 13 25 0.02 0.30
-11 15 1 10.32 0.30
-11 15 2 4.07 0.23
-11 15 3 16.94 0.49
-11 15 4 2.04 0.32
-11 15 5 1.23 0.19
-11 15 6 0.05 0.17
-11 15 7 3.31 0.23
-11 15 8 3.38 0.24
-11 15 9 0.00 0.16
-11 15 10 0.23 0.17
-11 15 11 4.36 0.29
-11 15 12 7.12 0.31
-11 15 13 2.37 0.25
-11 15 14 8.98 0.47
-11 15 15 0.00 0.24
-11 15 16 1.96 0.27
-11 15 17 0.95 0.26
-11 15 18 8.72 0.44
-11 15 19 0.88 0.29
-11 15 20 3.69 0.72
-11 15 21 0.40 0.37
-11 15 22 0.29 0.28
-11 15 23 0.01 0.35
-11 15 24 0.26 0.31
-11 17 1 9.10 0.37
-11 17 2 3.19 0.20
-11 17 3 14.45 0.40
-11 17 4 20.84 0.53
-11 17 5 1.70 0.30
-11 17 6 1.60 0.22
-11 17 7 4.69 0.34
-11 17 8 0.47 0.19
-11 17 9 0.16 0.18
-11 17 10 1.18 0.18
-11 17 11 0.06 0.19
-11 17 12 1.42 0.22
-11 17 13 2.22 0.23
-11 17 14 8.11 0.33
-11 17 15 3.31 0.25
-11 17 16 1.40 0.23
-11 17 17 0.74 0.23
-11 17 18 4.28 0.41
-11 17 19 9.73 0.48
-11 17 20 0.39 0.28
-11 17 21 0.79 0.30
-11 17 22 1.12 0.32
-11 17 23 2.40 0.35
-11 19 1 0.36 0.17
-11 19 2 1.01 0.17
-11 19 3 2.23 0.22
-11 19 4 0.29 0.16
-11 19 5 0.96 0.22
-11 19 6 0.52 0.19
-11 19 7 1.67 0.20
-11 19 8 0.62 0.18
-11 19 9 13.36 0.41
-11 19 10 1.12 0.27
-11 19 11 14.12 0.64
-11 19 12 0.25 0.20
-11 19 13 2.82 0.23
-11 19 14 1.04 0.32
-11 19 15 0.03 0.21
-11 19 16 4.52 0.31
-11 19 17 0.25 0.23
-11 19 18 6.41 0.37
-11 19 19 3.50 0.31
-11 19 20 0.90 0.31
-11 19 21 6.04 0.40
-11 21 1 9.44 0.36
-11 21 2 0.10 0.20
-11 21 3 9.93 0.52
-11 21 4 9.01 0.37
-11 21 5 0.18 0.21
-11 21 6 8.08 0.38
-11 21 7 0.15 0.20
-11 21 8 2.51 0.23
-11 21 9 0.35 0.20
-11 21 10 1.42 0.24
-11 21 11 2.28 0.35
-11 21 12 0.99 0.24
-11 21 13 3.24 0.46
-11 21 14 7.60 0.42
-11 21 15 2.11 0.29
-11 21 16 1.97 0.28
-11 21 17 3.36 0.53
-11 21 18 0.11 0.27
-11 21 19 3.40 0.32
-11 23 1 0.00 0.20
-11 23 2 0.29 0.21
-11 23 3 0.33 0.33
-11 23 4 3.67 0.27
-11 23 5 3.66 0.29
-11 23 6 1.97 0.28
-11 23 7 3.97 0.37
-11 23 8 3.74 0.33
-11 23 9 3.48 0.38
-11 23 10 0.66 0.33
-11 23 11 2.74 0.37
-11 23 12 8.42 0.57
-11 23 13 2.39 0.39
-11 23 14 4.85 0.53
-11 23 15 0.05 0.34
-11 23 16 1.10 0.55
-11 23 17 0.00 0.36
-11 25 1 0.00 0.29
-11 25 2 4.94 0.38
-11 25 3 8.82 0.46
-11 25 4 2.07 0.31
-11 25 5 1.18 0.53
-11 25 6 0.55 0.27
-11 25 7 3.00 0.32
-11 25 8 0.59 0.34
-11 25 9 5.19 0.53
-11 25 10 0.60 0.34
-11 25 11 4.24 0.47
-11 25 12 0.21 0.52
-11 25 13 2.45 0.38
-11 27 1 1.74 0.31
-11 27 2 3.35 0.33
-11 27 3 4.15 0.40
-11 27 4 7.13 0.48
-11 27 5 0.00 0.32
-11 27 6 1.35 0.30
-11 27 7 1.10 0.37
-11 27 8 0.24 0.35
-10 0 2 155.77 6.25
-10 0 4 12.87 0.33
-10 0 6 15.82 0.52
-10 0 8 0.10 0.17
-10 0 10 37.45 1.35
-10 0 12 34.76 1.00
-10 0 14 0.00 0.35
-10 0 16 0.18 0.25
-10 0 18 9.17 0.38
-10 0 20 3.48 0.29
-10 0 22 2.15 0.29
-10 0 24 0.00 0.26
-10 0 26 3.24 0.34
-10 0 28 3.68 0.47
-10 2 1 0.65 0.15
-10 2 2 73.27 1.12
-10 2 3 19.75 0.46
-10 2 4 18.93 0.48
-10 2 5 9.53 0.31
-10 2 6 1.98 0.20
-10 2 7 27.33 0.60
-10 2 8 7.63 0.34
-10 2 9 5.70 0.23
-10 2 10 16.84 0.48
-10 2 11 4.48 0.26
-10 2 12 1.16 0.17
-10 2 13 10.91 0.29
-10 2 14 0.38 0.16
-10 2 15 9.27 0.32
-10 2 16 2.31 0.20
-10 2 17 11.24 0.34
-10 2 18 4.53 0.28
-10 2 19 1.75 0.21
-10 2 20 10.35 0.45
-10 2 21 7.33 0.31
-10 2 22 0.98 0.19
-10 2 23 0.73 0.19
-10 2 24 0.00 0.18
-10 2 25 1.71 0.22
-10 2 26 0.01 0.20
-10 2 27 0.01 0.21
-10 2 28 0.04 0.22
-10 2 29 0.02 0.23
-10 4 1 17.22 0.22
-10 4 2 6.57 0.51
-10 4 3 25.06 0.32
-10 4 4 0.93 0.14
-10 4 5 36.73 0.88
-10 4 6 35.31 0.66
-10 4 7 8.29 0.40
-10 4 8 49.86 0.87
-10 4 9 22.85 0.43
-10 4 10 13.77 0.65
-10 4 11 7.68 0.27
-10 4 12 1.43 0.17
-10 4 13 8.04 0.28
-10 4 14 10.20 0.30
-10 4 15 0.95 0.17
-10 4 16 22.68 0.68
-10 4 17 0.42 0.18
-10 4 18 0.33 0.18
-10 4 19 0.24 0.18
-10 4 20 0.41 0.19
-10 4 21 2.26 0.21
-10 4 22 0.68 0.21
-10 4 23 0.35 0.21
-10 4 24 0.57 0.20
-10 4 25 1.83 0.24
-10 4 26 2.15 0.23
-10 4 27 2.64 0.23
-10 4 28 6.56 0.47
-10 4 29 0.15 0.39
-10 6 1 15.55 0.39
-10 6 2 18.00 0.38
-10 6 3 3.94 0.11
-10 6 4 20.16 0.43
-10 6 5 8.06 0.28
-10 6 6 9.47 0.30
-10 6 7 10.15 0.33
-10 6 8 0.06 0.14
-10 6 9 3.14 0.16
-10 6 10 13.81 0.32
-10 6 11 12.57 0.34
-10 6 12 1.58 0.17
-10 6 13 1.42 0.20
-10 6 14 0.05 0.15
-10 6 15 1.17 0.37
-10 6 16 2.25 0.20
-10 6 17 9.33 0.33
-10 6 18 20.55 0.46
-10 6 19 17.67 0.43
-10 6 20 3.94 0.28
-10 6 21 0.03 0.19
-10 6 22 0.02 0.20
-10 6 23 1.99 0.31
-10 6 24 0.03 0.22
-10 6 25 2.11 0.32
-10 6 26 2.41 0.29
-10 6 27 0.07 0.24
-10 6 28 2.10 0.27
-10 8 1 1.20 0.14
-10 8 2 5.90 0.50
-10 8 3 31.70 0.64
-10 8 4 1.60 0.12
-10 8 5 32.30 0.66
-10 8 6 4.73 0.21
-10 8 7 9.45 0.26
-10 8 8 3.55 0.19
-10 8 9 5.79 0.22
-10 8 10 2.96 0.14
-10 8 11 2.62 0.19
-10 8 12 1.72 0.15
-10 8 13 6.94 0.28
-10 8 14 2.56 0.22
-10 8 15 5.72 0.26
-10 8 16 3.91 0.24
-10 8 17 5.75 0.29
-10 8 18 2.68 0.26
-10 8 19 0.13 0.18
-10 8 20 1.81 0.20
-10 8 21 0.01 0.22
-10 8 22 0.03 0.23
-10 8 23 1.01 0.25
-10 8 24 1.58 0.29
-10 8 25 0.01 0.26
-10 8 26 0.10 0.27
-10 8 27 0.40 0.29
-10 8 28 1.78 0.31
-10 10 1 16.55 0.52
-10 10 2 0.09 0.12
-10 10 3 0.32 0.12
-10 10 4 2.19 0.14
-10 10 5 1.28 0.11
-10 10 6 0.60 0.13
-10 10 7 0.11 0.13
-10 10 8 14.36 0.34
-10 10 9 14.03 0.39
-10 10 10 7.13 0.37
-10 10 11 9.00 0.29
-10 10 12 19.95 0.49
-10 10 13 28.04 0.52
-10 10 14 0.95 0.16
-10 10 15 0.01 0.16
-10 10 16 2.71 0.24
-10 10 17 0.09 0.21
-10 10 18 0.97 0.23
-10 10 19 0.31 0.21
-10 10 20 3.70 0.29
-10 10 21 0.62 0.23
-10 10 22 0.63 0.24
-10 10 23 1.94 0.26
-10 10 24 0.14 0.25
-10 10 25 1.25 0.28
-10 10 26 1.09 0.28
-10 10 27 0.00 0.27
-10 12 1 47.20 0.75
-10 12 2 73.56 1.20
-10 12 3 9.78 0.33
-10 12 4 6.50 0.31
-10 12 5 2.85 0.28
-10 12 6 7.06 0.34
-10 12 7 18.98 0.38
-10 12 8 23.83 0.52
-10 12 9 1.79 0.17
-10 12 10 0.00 0.16
-10 12 11 8.22 0.37
-10 12 12 0.31 0.19
-10 12 13 0.55 0.19
-10 12 14 0.02 0.20
-10 12 15 6.95 0.50
-10 12 16 0.20 0.20
-10 12 17 0.01 0.21
-10 12 18 0.33 0.22
-10 12 19 6.64 0.38
-10 12 20 0.65 0.23
-10 12 21 2.07 0.46
-10 12 22 0.55 0.24
-10 12 23 1.05 0.31
-10 12 24 0.00 0.29
-10 12 25 0.08 0.30
-10 12 26 0.54 0.33
-10 14 1 5.68 0.48
-10 14 2 29.83 0.58
-10 14 3 3.49 0.21
-10 14 4 8.15 0.29
-10 14 5 21.76 0.51
-10 14 6 1.78 0.19
-10 14 7 20.45 0.54
-10 14 8 4.97 0.26
-10 14 9 1.39 0.17
-10 14 10 2.14 0.23
-10 14 11 1.19 0.19
-10 14 12 0.76 0.27
-10 14 13 1.48 0.22
-10 14 14 6.93 0.84
-10 14 15 13.24 0.54
-10 14 16 1.48 0.28
-10 14 17 4.19 0.40
-10 14 18 2.88 0.56
-10 14 19 0.03 0.25
-10 14 20 0.68 0.27
-10 14 21 2.73 0.31
-10 14 22 1.55 0.32
-10 14 23 0.03 0.29
-10 14 24 0.65 0.31
-10 14 25 0.08 0.32
-10 16 1 3.36 0.22
-10 16 2 4.68 0.22
-10 16 3 0.45 0.16
-10 16 4 0.09 0.15
-10 16 5 1.28 0.20
-10 16 6 1.77 0.19
-10 16 7 1.12 0.18
-10 16 8 4.44 0.28
-10 16 9 7.53 0.28
-10 16 10 9.25 0.32
-10 16 11 4.88 0.31
-10 16 12 2.12 0.21
-10 16 13 0.07 0.21
-10 16 14 0.03 0.19
-10 16 15 0.01 0.36
-10 16 16 6.61 0.40
-10 16 17 0.02 0.28
-10 16 18 7.50 0.41
-10 16 19 1.05 0.31
-10 16 20 1.95 0.30
-10 16 21 0.11 0.28
-10 16 22 3.82 0.35
-10 16 23 0.18 0.30
-10 16 24 0.00 0.31
-10 18 1 1.41 0.18
-10 18 2 5.63 0.25
-10 18 3 0.00 0.15
-10 18 4 0.20 0.16
-10 18 5 16.09 0.44
-10 18 6 2.04 0.28
-10 18 7 6.87 0.45
-10 18 8 5.76 0.26
-10 18 9 0.42 0.17
-10 18 10 0.00 0.18
-10 18 11 0.14 0.19
-10 18 12 9.73 0.35
-10 18 13 5.31 0.32
-10 18 14 7.80 0.35
-10 18 15 3.57 0.42
-10 18 16 0.90 0.23
-10 18 17 0.85 0.23
-10 18 18 9.59 0.41
-10 18 19 1.03 0.24
-10 18 20 5.65 0.44
-10 18 21 0.55 0.39
-10 18 22 1.21 0.32
-10 18 23 4.13 0.53
-10 20 1 5.44 0.29
-10 20 2 0.47 0.18
-10 20 3 0.21 0.18
-10 20 4 0.31 0.18
-10 20 5 5.75 0.28
-10 20 6 0.91 0.19
-10 20 7 7.54 0.29
-10 20 8 11.07 0.33
-10 20 9 2.46 0.19
-10 20 10 0.30 0.19
-10 20 11 0.08 0.19
-10 20 12 1.04 0.20
-10 20 13 4.08 0.26
-10 20 14 6.13 0.32
-10 20 15 19.99 0.58
-10 20 16 5.71 0.36
-10 20 17 0.92 0.27
-10 20 18 0.29 0.23
-10 20 19 0.38 0.27
-10 20 20 0.22 0.28
-10 20 21 0.52 0.30
-10 22 1 2.74 0.23
-10 22 2 0.08 0.19
-10 22 3 2.88 0.23
-10 22 4 0.42 0.19
-10 22 5 0.00 0.18
-10 22 6 1.81 0.23
-10 22 7 0.32 0.19
-10 22 8 7.34 0.34
-10 22 9 1.50 0.23
-10 22 10 12.71 0.43
-10 22 11 0.40 0.22
-10 22 12 9.53 0.44
-10 22 13 0.27 0.25
-10 22 14 0.03 0.24
-10 22 15 0.60 0.25
-10 22 16 1.88 0.29
-10 22 17 0.49 0.26
-10 22 18 1.56 0.29
-10 22 19 0.89 0.29
-10 24 1 1.10 0.21
-10 24 2 0.10 0.20
-10 24 3 2.86 0.30
-10 24 4 0.17 0.26
-10 24 5 15.08 0.58
-10 24 6 1.55 0.28
-10 24 7 23.01 0.70
-10 24 8 5.26 0.49
-10 24 9 0.20 0.53
-10 24 10 0.24 0.33
-10 24 11 0.63 0.33
-10 24 12 1.15 0.34
-10 24 13 0.09 0.33
-10 24 14 3.49 0.42
-10 24 15 1.29 0.38
-10 24 16 0.74 0.38
-10 24 17 0.54 0.37
-10 26 1 1.51 0.39
-10 26 2 7.22 0.56
-10 26 3 0.02 0.27
-10 26 4 0.01 0.27
-10 26 5 1.33 0.25
-10 26 6 8.01 0.46
-10 26 7 13.76 0.67
-10 26 8 2.04 0.52
-10 26 9 0.98 0.36
-10 26 10 2.72 0.37
-10 26 11 0.28 0.34
-10 26 12 7.81 0.73
-10 26 13 5.78 0.56
-10 28 1 0.28 0.29
-10 28 2 4.79 0.41
-10 28 3 0.00 0.32
-10 28 4 2.54 0.30
-10 28 5 2.95 0.31
-10 28 6 0.05 0.34
-10 28 7 1.05 0.36
-10 28 8 0.63 0.36
-9 1 1 9.97 0.54
-9 1 2 12.69 0.56
-9 1 3 29.52 1.29
-9 1 4 72.48 1.39
-9 1 5 37.94 0.59
-9 1 6 56.18 2.11
-9 1 7 7.33 0.55
-9 1 8 2.77 0.32
-9 1 9 49.40 0.88
-9 1 10 1.73 0.19
-9 1 11 0.61 0.13
-9 1 12 10.28 0.30
-9 1 13 4.46 0.23
-9 1 14 20.07 0.45
-9 1 15 12.51 0.37
-9 1 16 41.44 0.91
-9 1 17 5.15 0.27
-9 1 18 2.73 0.18
-9 1 19 0.39 0.17
-9 1 20 0.43 0.17
-9 1 21 5.22 0.26
-9 1 22 1.35 0.19
-9 1 23 0.73 0.19
-9 1 24 8.44 0.33
-9 1 25 3.52 0.23
-9 1 26 0.54 0.21
-9 1 27 2.38 0.24
-9 1 28 1.72 0.23
-9 1 29 1.20 0.24
-9 3 1 17.34 0.61
-9 3 2 5.09 0.20
-9 3 3 22.08 0.44
-9 3 4 1.76 0.26
-9 3 5 0.28 0.15
-9 3 6 8.72 0.42
-9 3 7 38.18 0.58
-9 3 8 0.38 0.12
-9 3 9 31.87 0.66
-9 3 10 2.43 0.15
-9 3 11 32.15 0.58
-9 3 12 2.47 0.22
-9 3 13 20.39 0.50
-9 3 14 0.12 0.15
-9 3 15 2.12 0.20
-9 3 16 0.71 0.25
-9 3 17 0.05 0.16
-9 3 18 0.32 0.21
-9 3 19 2.15 0.22
-9 3 20 0.00 0.18
-9 3 21 0.77 0.19
-9 3 22 0.54 0.18
-9 3 23 0.56 0.19
-9 3 24 0.18 0.19
-9 3 25 5.54 0.33
-9 3 26 1.05 0.21
-9 3 27 7.18 0.34
-9 3 28 1.50 0.23
-9 3 29 7.25 0.38
-9 5 1 26.19 0.73
-9 5 2 70.63 1.49
-9 5 3 13.21 0.44
-9 5 4 29.91 0.42
-9 5 5 22.60 0.40
-9 5 6 9.98 0.50
-9 5 7 0.02 0.12
-9 5 8 5.48 0.23
-9 5 9 3.31 0.17
-9 5 10 12.95 0.33
-9 5 11 2.33 0.18
-9 5 12 1.79 0.29
-9 5 13 0.39 0.14
-9 5 14 5.59 0.34
-9 5 15 7.95 0.33
-9 5 16 11.89 0.40
-9 5 17 2.04 0.18
-9 5 18 0.00 0.17
-9 5 19 0.98 0.18
-9 5 20 0.32 0.24
-9 5 21 3.84 0.29
-9 5 22 8.51 0.34
-9 5 23 0.56 0.24
-9 5 24 5.08 0.33
-9 5 25 1.92 0.22
-9 5 26 2.13 0.23
-9 5 27 0.77 0.30
-9 5 28 0.65 0.26
-9 5 29 0.00 0.25
-9 7 1 2.61 0.12
-9 7 2 1.64 0.10
-9 7 3 0.81 0.11
-9 7 4 3.65 0.22
-9 7 5 2.76 0.14
-9 7 6 18.98 0.33
-9 7 7 5.33 0.16
-9 7 8 0.40 0.13
-9 7 9 21.19 0.43
-9 7 10 2.22 0.20
-9 7 11 6.59 0.39
-9 7 12 0.03 0.14
-9 7 13 3.28 0.26
-9 7 14 41.79 0.78
-9 7 15 0.57 0.24
-9 7 16 0.84 0.16
-9 7 17 6.17 0.30
-9 7 18 0.41 0.21
-9 7 19 3.58 0.33
-9 7 20 0.30 0.18
-9 7 21 0.18 0.19
-9 7 22 1.41 0.22
-9 7 23 0.25 0.21
-9 7 24 0.93 0.25
-9 7 25 0.00 0.25
-9 7 26 0.88 0.28
-9 7 27 0.00 0.45
-9 7 28 0.09 0.25
-9 7 29 2.32 0.59
-9 9 1 19.02 0.37
-9 9 2 0.88 0.10
-9 9 3 16.03 0.64
-9 9 4 5.79 0.21
-9 9 5 1.71 0.11
-9 9 6 10.06 0.60
-9 9 7 1.58 0.14
-9 9 8 3.99 0.23
-9 9 9 11.88 0.29
-9 9 10 11.90 0.30
-9 9 11 0.96 0.14
-9 9 12 0.03 0.14
-9 9 13 7.21 0.42
-9 9 14 0.58 0.16
-9 9 15 4.46 0.24
-9 9 16 7.92 0.26
-9 9 17 3.99 0.23
-9 9 18 2.72 0.20
-9 9 19 7.76 0.32
-9 9 20 8.28 0.37
-9 9 21 3.42 0.40
-9 9 22 0.02 0.23
-9 9 23 1.56 0.25
-9 9 24 0.08 0.25
-9 9 25 0.31 0.26
-9 9 26 0.30 0.36
-9 9 27 1.36 0.29
-9 9 28 0.00 0.29
-9 11 1 7.61 0.30
-9 11 2 30.11 0.56
-9 11 3 17.99 0.36
-9 11 4 29.17 0.54
-9 11 5 1.37 0.13
-9 11 6 45.08 0.93
-9 11 7 24.32 0.47
-9 11 8 9.89 0.27
-9 11 9 1.20 0.14
-9 11 10 0.30 0.12
-9 11 11 3.84 0.23
-9 11 12 0.00 0.14
-9 11 13 0.30 0.15
-9 11 14 0.98 0.17
-9 11 15 8.12 0.33
-9 11 16 4.30 0.30
-9 11 17 0.15 0.21
-9 11 18 2.44 0.49
-9 11 19 3.11 0.42
-9 11 20 3.45 0.46
-9 11 21 2.25 0.25
-9 11 22 8.49 0.40
-9 11 23 0.14 0.24
-9 11 24 4.35 0.41
-9 11 25 0.48 0.31
-9 11 26 0.21 0.31
-9 11 27 0.00 0.32
-9 13 1 32.89 0.71
-9 13 2 13.59 0.36
-9 13 3 56.25 1.56
-9 13 4 40.54 0.71
-9 13 5 0.93 0.12
-9 13 6 2.91 0.18
-9 13 7 1.06 0.16
-9 13 8 3.05 0.21
-9 13 9 23.86 0.55
-9 13 10 0.51 0.17
-9 13 11 36.35 0.85
-9 13 12 1.21 0.23
-9 13 13 6.60 0.45
-9 13 14 4.16 0.34
-9 13 15 0.19 0.22
-9 13 16 5.22 0.64
-9 13 17 4.66 0.46
-9 13 18 0.90 0.25
-9 13 19 4.47 0.48
-9 13 20 0.11 0.26
-9 13 21 0.42 0.28
-9 13 22 1.09 0.30
-9 13 23 1.89 0.49
-9 13 24 2.34 0.33
-9 13 25 1.13 0.33
-9 13 26 0.23 0.43
-9 15 1 34.24 0.67
-9 15 2 12.24 0.39
-9 15 3 16.15 0.37
-9 15 4 0.51 0.21
-9 15 5 1.92 0.19
-9 15 6 22.09 0.94
-9 15 7 6.46 0.29
-9 15 8 7.61 0.36
-9 15 9 7.65 0.26
-9 15 10 1.63 0.19
-9 15 11 0.97 0.19
-9 15 12 5.19 0.28
-9 15 13 2.79 0.23
-9 15 14 10.17 0.41
-9 15 15 0.18 0.23
-9 15 16 10.77 0.56
-9 15 17 2.44 0.27
-9 15 18 3.03 0.28
-9 15 19 3.93 0.31
-9 15 20 6.09 0.42
-9 15 21 4.42 0.56
-9 15 22 0.14 0.28
-9 15 23 0.00 0.29
-9 15 24 0.62 0.31
-9 15 25 0.03 0.31
-9 17 1 3.03 0.20
-9 17 2 0.85 0.15
-9 17 3 2.78 0.19
-9 17 4 7.98 0.38
-9 17 5 8.99 0.31
-9 17 6 1.46 0.18
-9 17 7 0.13 0.16
-9 17 8 15.64 0.37
-9 17 9 4.74 0.28
-9 17 10 6.42 0.28
-9 17 11 7.36 0.31
-9 17 12 4.59 0.29
-9 17 13 12.23 0.37
-9 17 14 1.09 0.22
-9 17 15 2.68 0.25
-9 17 16 2.19 0.26
-9 17 17 0.53 0.24
-9 17 18 5.49 0.40
-9 17 19 0.86 0.31
-9 17 20 4.38 0.49
-9 17 21 0.15 0.28
-9 17 22 4.78 0.37
-9 17 23 0.39 0.30
-9 17 24 8.02 0.50
-9 19 1 12.75 0.55
-9 19 2 0.69 0.15
-9 19 3 1.15 0.16
-9 19 4 4.72 0.24
-9 19 5 0.43 0.15
-9 19 6 0.01 0.15
-9 19 7 2.54 0.18
-9 19 8 0.80 0.16
-9 19 9 3.98 0.27
-9 19 10 0.64 0.19
-9 19 11 16.67 0.49
-9 19 12 3.28 0.29
-9 19 13 11.07 0.38
-9 19 14 8.83 0.33
-9 19 15 0.49 0.20
-9 19 16 3.11 0.31
-9 19 17 3.83 0.29
-9 19 18 0.02 0.22
-9 19 19 3.29 0.27
-9 19 20 0.38 0.25
-9 19 21 0.67 0.25
-9 19 22 0.00 0.25
-9 19 23 0.40 0.34
-9 21 1 2.86 0.36
-9 21 2 1.39 0.31
-9 21 3 0.79 0.18
-9 21 4 8.69 0.32
-9 21 5 2.04 0.20
-9 21 6 11.79 0.38
-9 21 7 0.71 0.22
-9 21 8 19.45 0.51
-9 21 9 13.12 0.52
-9 21 10 0.65 0.24
-9 21 11 3.21 0.28
-9 21 12 1.82 0.24
-9 21 13 0.08 0.21
-9 21 14 2.38 0.26
-9 21 15 0.43 0.30
-9 21 16 0.01 0.24
-9 21 17 0.00 0.25
-9 21 18 0.32 0.26
-9 21 19 1.27 0.28
-9 21 20 0.30 0.28
-9 21 21 0.05 0.28
-9 23 1 0.15 0.18
-9 23 2 0.32 0.22
-9 23 3 1.01 0.18
-9 23 4 3.42 0.24
-9 23 5 0.26 0.24
-9 23 6 0.54 0.21
-9 23 7 1.96 0.26
-9 23 8 4.47 0.79
-9 23 9 5.71 1.02
-9 23 10 0.01 0.29
-9 23 11 4.32 0.69
-9 23 12 4.84 0.48
-9 23 13 0.03 0.32
-9 23 14 2.85 0.38
-9 23 15 1.51 0.38
-9 23 16 4.26 0.47
-9 23 17 0.31 0.36
-9 23 18 1.66 0.40
-9 23 19 1.62 0.39
-9 25 1 7.50 0.47
-9 25 2 0.46 0.26
-9 25 3 1.74 0.28
-9 25 4 0.46 0.26
-9 25 5 1.53 0.24
-9 25 6 0.78 0.23
-9 25 7 0.28 0.31
-9 25 8 1.44 0.33
-9 25 9 6.15 0.52
-9 25 10 0.01 0.31
-9 25 11 9.27 0.67
-9 25 12 0.19 0.33
-9 25 13 1.09 0.36
-9 25 14 3.84 0.41
-9 25 15 0.00 0.34
-9 25 16 0.55 0.37
-9 27 1 4.16 0.35
-9 27 2 0.65 0.28
-9 27 3 5.26 0.39
-9 27 4 0.58 0.31
-9 27 5 0.85 0.24
-9 27 6 8.10 0.47
-9 27 7 2.65 0.38
-9 27 8 2.39 0.37
-9 27 9 0.56 0.34
-9 27 10 0.08 0.33
-9 27 11 0.20 0.34
-9 27 12 0.15 0.40
-9 27 13 0.03 0.35
-9 29 1 3.38 0.35
-9 29 2 6.09 0.46
-9 29 3 5.32 0.36
-9 29 4 5.80 0.53
-9 29 5 5.79 0.41
-9 29 6 1.21 0.31
-9 29 7 0.24 0.34
-8 0 2 25.23 0.41
-8 0 4 0.02 0.41
-8 0 6 3.95 0.51
-8 0 8 48.23 0.92
-8 0 10 7.25 0.42
-8 0 12 6.22 0.37
-8 0 14 1.31 0.23
-8 0 16 1.52 0.22
-8 0 18 10.09 0.38
-8 0 20 12.50 0.53
-8 0 22 6.29 0.40
-8 0 24 0.40 0.26
-8 0 26 5.62 0.82
-8 0 28 0.77 0.30
-8 0 30 0.01 0.38
-8 2 1 4.65 0.20
-8 2 2 12.41 0.61
-8 2 3 66.47 1.32
-8 2 4 18.32 0.58
-8 2 5 0.26 0.13
-8 2 6 14.87 0.41
-8 2 7 32.05 0.69
-8 2 8 10.23 0.43
-8 2 9 2.11 0.18
-8 2 10 1.00 0.24
-8 2 11 4.18 0.19
-8 2 12 16.03 0.61
-8 2 13 3.06 0.28
-8 2 14 0.44 0.14
-8 2 15 16.84 0.47
-8 2 16 5.85 0.28
-8 2 17 1.33 0.18
-8 2 18 0.08 0.16
-8 2 19 1.05 0.18
-8 2 20 10.99 0.35
-8 2 21 5.53 0.45
-8 2 22 2.69 0.20
-8 2 23 2.40 0.25
-8 2 24 1.79 0.21
-8 2 25 6.48 0.31
-8 2 26 1.88 0.22
-8 2 27 0.82 0.21
-8 2 28 1.04 0.22
-8 2 29 0.24 0.22
-8 2 30 0.45 0.23
-8 4 1 0.18 0.09
-8 4 2 22.07 0.43
-8 4 3 1.90 0.23
-8 4 4 0.17 0.13
-8 4 5 0.94 0.21
-8 4 6 0.33 0.11
-8 4 7 19.90 0.52
-8 4 8 13.78 0.49
-8 4 9 0.05 0.11
-8 4 10 32.76 0.62
-8 4 11 14.91 0.32
-8 4 12 2.22 0.20
-8 4 13 3.87 0.21
-8 4 14 0.37 0.15
-8 4 15 2.04 0.18
-8 4 16 2.03 0.18
-8 4 17 3.16 0.22
-8 4 18 13.17 0.49
-8 4 19 3.23 0.26
-8 4 20 0.18 0.18
-8 4 21 5.75 0.29
-8 4 22 3.83 0.28
-8 4 23 1.82 0.21
-8 4 24 0.17 0.19
-8 4 25 5.41 0.31
-8 4 26 6.20 0.31
-8 4 27 0.64 0.22
-8 4 28 4.66 0.27
-8 4 29 1.13 0.22
-8 4 30 0.77 0.55
-8 6 1 69.58 1.01
-8 6 2 202.43 3.01
-8 6 3 18.14 0.89
-8 6 4 26.11 0.82
-8 6 5 106.17 1.51
-8 6 6 4.30 0.15
-8 6 7 8.65 0.23
-8 6 8 1.40 0.11
-8 6 9 20.72 0.38
-8 6 10 2.24 0.18
-8 6 11 2.49 0.16
-8 6 12 0.19 0.13
-8 6 13 0.47 0.14
-8 6 14 0.92 0.14
-8 6 15 0.17 0.15
-8 6 16 15.72 0.44
-8 6 17 2.79 0.25
-8 6 18 19.32 0.47
-8 6 19 0.13 0.17
-8 6 20 0.62 0.19
-8 6 21 0.25 0.18
-8 6 22 0.01 0.19
-8 6 23 0.43 0.20
-8 6 24 1.94 0.24
-8 6 25 0.23 0.22
-8 6 26 0.48 0.23
-8 6 27 0.02 0.23
-8 6 28 2.14 0.27
-8 6 29 1.71 0.26
-8 8 1 56.22 0.91
-8 8 2 15.16 0.32
-8 8 3 33.47 0.47
-8 8 4 22.21 0.33
-8 8 5 19.05 0.45
-8 8 6 0.72 0.13
-8 8 7 53.27 0.95
-8 8 8 6.75 0.24
-8 8 9 59.45 1.04
-8 8 10 13.67 0.97
-8 8 11 1.27 0.14
-8 8 12 6.48 0.62
-8 8 13 35.50 0.67
-8 8 14 2.76 0.20
-8 8 15 13.49 0.43
-8 8 16 0.07 0.15
-8 8 17 5.49 0.25
-8 8 18 8.82 0.30
-8 8 19 2.16 0.20
-8 8 20 0.34 0.19
-8 8 21 5.01 0.28
-8 8 22 0.23 0.20
-8 8 23 9.15 0.42
-8 8 24 1.54 0.26
-8 8 25 3.28 0.29
-8 8 26 1.19 0.29
-8 8 27 0.00 0.26
-8 8 28 0.10 0.28
-8 8 29 0.02 0.24
-8 10 1 5.85 0.28
-8 10 2 8.71 0.30
-8 10 3 87.37 1.55
-8 10 4 17.94 0.42
-8 10 5 50.93 0.82
-8 10 6 1.93 0.28
-8 10 7 6.21 0.39
-8 10 8 9.11 0.75
-8 10 9 2.22 0.17
-8 10 10 11.76 0.30
-8 10 11 0.36 0.13
-8 10 12 13.67 0.31
-8 10 13 5.19 0.22
-8 10 14 1.16 0.17
-8 10 15 0.50 0.17
-8 10 16 0.16 0.16
-8 10 17 3.09 0.52
-8 10 18 2.24 0.19
-8 10 19 6.24 0.32
-8 10 20 14.42 0.48
-8 10 21 0.27 0.23
-8 10 22 1.51 0.24
-8 10 23 0.22 0.25
-8 10 24 2.39 0.27
-8 10 25 1.75 0.33
-8 10 26 0.08 0.30
-8 10 27 0.17 0.31
-8 10 28 0.36 0.32
-8 12 1 1.66 0.14
-8 12 2 5.77 0.19
-8 12 3 0.98 0.11
-8 12 4 2.11 0.13
-8 12 5 27.77 0.57
-8 12 6 1.55 0.12
-8 12 7 0.06 0.10
-8 12 8 2.68 0.15
-8 12 9 0.61 0.12
-8 12 10 10.16 0.34
-8 12 11 5.15 0.33
-8 12 12 30.73 0.65
-8 12 13 17.67 0.60
-8 12 14 12.17 0.42
-8 12 15 24.69 0.63
-8 12 16 0.34 0.22
-8 12 17 8.96 0.44
-8 12 18 2.93 0.35
-8 12 19 0.00 0.24
-8 12 20 22.08 1.14
-8 12 21 5.66 0.42
-8 12 22 2.61 0.32
-8 12 23 0.44 0.29
-8 12 24 0.23 0.32
-8 12 25 0.01 0.30
-8 12 26 1.04 0.33
-8 12 27 0.85 0.32
-8 14 1 5.73 0.15
-8 14 2 0.56 0.10
-8 14 3 3.05 0.21
-8 14 4 36.62 0.76
-8 14 5 31.93 0.63
-8 14 6 10.41 0.35
-8 14 7 34.74 0.74
-8 14 8 23.76 0.45
-8 14 9 1.22 0.15
-8 14 10 5.13 0.34
-8 14 11 4.09 0.26
-8 14 12 0.24 0.21
-8 14 13 27.59 0.99
-8 14 14 25.02 0.71
-8 14 15 9.76 0.58
-8 14 16 20.10 0.54
-8 14 17 2.52 0.26
-8 14 18 0.20 0.29
-8 14 19 0.22 0.24
-8 14 20 1.36 0.28
-8 14 21 1.45 0.47
-8 14 22 3.35 0.33
-8 14 23 4.59 0.43
-8 14 24 0.19 0.30
-8 14 25 1.88 0.33
-8 14 26 0.08 0.37
-8 14 27 0.65 0.33
-8 16 1 14.69 0.38
-8 16 2 103.41 1.93
-8 16 3 9.15 0.29
-8 16 4 64.59 1.16
-8 16 5 7.09 0.38
-8 16 6 9.41 0.29
-8 16 7 10.01 0.31
-8 16 8 1.59 0.15
-8 16 9 4.15 0.25
-8 16 10 1.30 0.23
-8 16 11 0.45 0.18
-8 16 12 1.39 0.18
-8 16 13 0.01 0.18
-8 16 14 16.23 0.46
-8 16 15 2.56 0.30
-8 16 16 3.19 0.32
-8 16 17 2.73 0.35
-8 16 18 4.18 0.34
-8 16 19 3.62 0.36
-8 16 20 10.50 0.48
-8 16 21 3.83 0.36
-8 16 22 0.00 0.28
-8 16 23 0.80 0.30
-8 16 24 0.00 0.29
-8 16 25 0.00 0.34
-8 18 1 0.78 0.15
-8 18 2 2.10 0.16
-8 18 3 5.64 0.32
-8 18 4 2.42 0.38
-8 18 5 29.72 0.59
-8 18 6 4.12 0.36
-8 18 7 0.22 0.14
-8 18 8 9.27 0.29
-8 18 9 0.15 0.16
-8 18 10 13.69 0.41
-8 18 11 3.78 0.29
-8 18 12 26.26 0.69
-8 18 13 1.64 0.24
-8 18 14 0.90 0.20
-8 18 15 0.42 0.29
-8 18 16 2.15 0.24
-8 18 17 0.33 0.22
-8 18 18 2.03 0.23
-8 18 19 0.17 0.28
-8 18 20 0.17 0.27
-8 18 21 0.39 0.28
-8 18 22 0.51 0.31
-8 18 23 4.78 0.59
-8 18 24 0.35 0.35
-8 20 1 10.73 0.34
-8 20 2 3.28 0.25
-8 20 3 3.68 0.24
-8 20 4 0.64 0.16
-8 20 5 18.08 0.42
-8 20 6 0.46 0.14
-8 20 7 0.97 0.14
-8 20 8 0.68 0.16
-8 20 9 0.49 0.17
-8 20 10 10.09 0.44
-8 20 11 4.62 0.29
-8 20 12 9.26 0.41
-8 20 13 46.40 1.03
-8 20 14 0.36 0.21
-8 20 15 15.53 0.45
-8 20 16 1.42 0.23
-8 20 17 0.39 0.25
-8 20 18 0.85 0.24
-8 20 19 1.29 0.28
-8 20 20 0.41 0.26
-8 20 21 1.34 0.29
-8 20 22 0.69 0.29
-8 20 23 0.93 0.29
-8 22 1 0.19 0.17
-8 22 2 4.13 0.25
-8 22 3 0.63 0.17
-8 22 4 0.61 0.19
-8 22 5 3.53 0.24
-8 22 6 1.50 0.16
-8 22 7 0.60 0.23
-8 22 8 8.27 0.36
-8 22 9 0.35 0.19
-8 22 10 1.85 0.25
-8 22 11 0.82 0.20
-8 22 12 3.73 0.26
-8 22 13 3.48 0.27
-8 22 14 0.40 0.23
-8 22 15 1.30 0.25
-8 22 16 0.01 0.24
-8 22 17 1.50 0.25
-8 22 18 3.27 0.38
-8 22 19 0.28 0.37
-8 22 20 2.03 0.29
-8 22 21 0.03 0.28
-8 24 1 1.97 0.33
-8 24 2 0.10 0.23
-8 24 3 0.01 0.23
-8 24 4 0.17 0.24
-8 24 5 0.65 0.21
-8 24 6 0.47 0.24
-8 24 7 4.33 0.40
-8 24 8 0.58 0.30
-8 24 9 2.46 0.34
-8 24 10 5.00 0.68
-8 24 11 0.02 0.44
-8 24 12 8.34 0.58
-8 24 13 6.29 0.50
-8 24 14 0.20 0.33
-8 24 15 3.87 0.42
-8 24 16 0.94 0.40
-8 24 17 0.09 0.35
-8 24 18 0.10 0.35
-8 24 19 0.02 0.37
-8 26 1 0.74 0.26
-8 26 2 2.48 0.29
-8 26 3 2.52 0.34
-8 26 4 0.28 0.23
-8 26 5 17.28 0.54
-8 26 6 0.09 0.26
-8 26 7 5.16 0.49
-8 26 8 6.89 0.52
-8 26 9 0.00 0.31
-8 26 10 2.88 0.38
-8 26 11 0.06 0.49
-8 26 12 0.29 0.47
-8 26 13 1.34 0.36
-8 26 14 0.01 0.34
-8 26 15 0.00 0.35
-8 26 16 0.25 0.36
-8 28 1 2.40 0.31
-8 28 2 4.14 0.39
-8 28 3 0.00 0.23
-8 28 4 1.20 0.24
-8 28 5 0.59 0.35
-8 28 6 0.42 0.27
-8 28 7 0.00 0.27
-8 28 8 2.51 0.38
-8 28 9 0.22 0.33
-8 28 10 1.51 0.51
-8 28 11 0.70 0.34
-8 28 12 9.90 0.64
-8 30 1 0.76 0.30
-8 30 2 0.17 0.23
-8 30 3 0.75 0.25
-8 30 4 0.95 0.29
-8 30 5 3.97 0.34
-8 30 6 10.38 0.62
-7 1 1 18.01 0.17
-7 1 2 0.02 0.20
-7 1 3 17.43 0.49
-7 1 4 63.88 1.43
-7 1 5 30.32 0.27
-7 1 6 1.29 0.13
-7 1 7 0.74 0.26
-7 1 8 10.78 0.22
-7 1 9 0.18 0.13
-7 1 10 9.16 0.36
-7 1 11 5.12 0.45
-7 1 12 98.39 1.76
-7 1 13 18.91 0.53
-7 1 14 51.74 1.77
-7 1 15 4.34 0.24
-7 1 16 6.81 0.25
-7 1 17 1.95 0.17
-7 1 18 10.21 0.35
-7 1 19 5.82 0.38
-7 1 20 5.14 0.25
-7 1 21 6.12 0.36
-7 1 22 3.49 0.25
-7 1 23 4.01 0.22
-7 1 24 9.54 0.32
-7 1 25 0.28 0.19
-7 1 26 5.81 0.31
-7 1 27 0.27 0.20
-7 1 28 3.73 0.33
-7 1 29 1.30 0.22
-7 1 30 0.46 0.22
-7 3 1 60.47 1.35
-7 3 2 24.02 0.74
-7 3 3 145.04 2.58
-7 3 4 3.14 0.38
-7 3 5 8.91 0.25
-7 3 6 0.03 0.11
-7 3 7 8.47 0.25
-7 3 8 1.36 0.10
-7 3 9 87.92 1.54
-7 3 10 7.91 0.26
-7 3 11 66.39 1.22
-7 3 12 2.48 0.21
-7 3 13 0.83 0.14
-7 3 14 0.10 0.13
-7 3 15 10.56 0.33
-7 3 16 0.80 0.15
-7 3 17 0.15 0.15
-7 3 18 5.98 0.27
-7 3 19 32.60 0.70
-7 3 20 0.45 0.18
-7 3 21 6.39 0.30
-7 3 22 13.33 0.37
-7 3 23 2.83 0.23
-7 3 24 0.02 0.18
-7 3 25 0.30 0.19
-7 3 26 0.13 0.20
-7 3 27 0.17 0.20
-7 3 28 4.04 0.34
-7 3 29 2.05 0.23
-7 3 30 0.80 0.23
-7 5 1 8.55 0.77
-7 5 2 97.44 1.85
-7 5 3 30.53 0.40
-7 5 4 106.21 2.34
-7 5 5 5.35 0.25
-7 5 6 5.42 0.26
-7 5 7 7.48 0.18
-7 5 8 1.81 0.11
-7 5 9 1.37 0.24
-7 5 10 9.07 0.35
-7 5 11 69.94 1.43
-7 5 12 16.37 0.42
-7 5 13 0.50 0.14
-7 5 14 10.08 0.28
-7 5 15 42.02 0.73
-7 5 16 3.57 0.23
-7 5 17 0.00 0.15
-7 5 18 15.13 0.41
-7 5 19 3.39 0.21
-7 5 20 2.39 0.24
-7 5 21 0.30 0.22
-7 5 22 19.29 0.48
-7 5 23 2.16 0.32
-7 5 24 1.36 0.21
-7 5 25 3.69 0.24
-7 5 26 0.77 0.20
-7 5 27 1.20 0.21
-7 5 28 0.07 0.21
-7 5 29 1.52 0.25
-7 5 30 1.59 0.26
-7 7 1 0.48 0.11
-7 7 2 1.79 0.14
-7 7 3 13.60 0.41
-7 7 4 65.50 1.15
-7 7 5 99.15 1.64
-7 7 6 15.32 0.74
-7 7 7 13.51 0.23
-7 7 8 0.06 0.11
-7 7 9 6.54 0.18
-7 7 10 0.29 0.12
-7 7 11 8.47 0.24
-7 7 12 8.15 0.23
-7 7 13 4.14 0.31
-7 7 14 13.35 0.48
-7 7 15 12.99 0.34
-7 7 16 5.71 0.24
-7 7 17 15.14 0.42
-7 7 18 12.55 0.33
-7 7 19 0.44 0.17
-7 7 20 2.11 0.19
-7 7 21 1.65 0.20
-7 7 22 19.02 0.49
-7 7 23 1.37 0.22
-7 7 24 1.96 0.23
-7 7 25 0.00 0.21
-7 7 26 0.17 0.25
-7 7 27 2.57 0.29
-7 7 28 0.71 0.25
-7 7 29 0.51 0.25
-7 9 1 9.32 0.25
-7 9 2 5.54 0.23
-7 9 3 7.23 0.16
-7 9 4 1.88 0.10
-7 9 5 14.69 0.32
-7 9 6 46.52 1.05
-7 9 7 1.51 0.15
-7 9 8 7.63 0.18
-7 9 9 7.94 0.25
-7 9 10 9.05 0.21
-7 9 11 13.60 0.33
-7 9 12 2.06 0.15
-7 9 13 11.04 0.30
-7 9 14 4.01 0.29
-7 9 15 3.32 0.23
-7 9 16 11.77 0.64
-7 9 17 9.40 0.30
-7 9 18 0.84 0.19
-7 9 19 55.56 1.03
-7 9 20 4.35 0.33
-7 9 21 6.94 0.32
-7 9 22 0.03 0.22
-7 9 23 0.00 0.22
-7 9 24 1.53 0.33
-7 9 25 0.42 0.25
-7 9 26 1.66 0.46
-7 9 27 0.24 0.32
-7 9 28 0.00 0.31
-7 9 29 0.01 0.31
-7 11 1 0.98 0.10
-7 11 2 45.08 0.70
-7 11 3 1.19 0.10
-7 11 4 6.00 0.25
-7 11 5 2.13 0.13
-7 11 6 14.49 0.34
-7 11 7 15.91 0.33
-7 11 8 3.36 0.19
-7 11 9 0.41 0.12
-7 11 10 4.79 0.20
-7 11 11 4.36 0.25
-7 11 12 0.77 0.13
-7 11 13 1.56 0.14
-7 11 14 25.14 0.59
-7 11 15 19.54 0.47
-7 11 16 35.18 0.61
-7 11 17 7.80 0.46
-7 11 18 0.54 0.23
-7 11 19 0.01 0.24
-7 11 20 0.01 0.24
-7 11 21 0.06 0.25
-7 11 22 1.27 0.29
-7 11 23 2.84 0.33
-7 11 24 8.11 0.58
-7 11 25 0.44 0.29
-7 11 26 0.24 0.29
-7 11 27 0.38 0.31
-7 11 28 0.03 0.31
-7 13 1 34.93 0.54
-7 13 2 5.34 0.17
-7 13 3 41.17 0.78
-7 13 4 19.24 0.64
-7 13 5 1.26 0.13
-7 13 6 29.58 0.74
-7 13 7 1.82 0.14
-7 13 8 1.76 0.14
-7 13 9 24.69 0.53
-7 13 10 1.26 0.18
-7 13 11 0.00 0.17
-7 13 12 6.28 0.33
-7 13 13 3.49 0.31
-7 13 14 7.39 0.37
-7 13 15 12.36 0.62
-7 13 16 0.00 0.21
-7 13 17 6.20 0.33
-7 13 18 6.15 0.39
-7 13 19 10.38 0.87
-7 13 20 0.68 0.26
-7 13 21 3.28 0.31
-7 13 22 1.71 0.30
-7 13 23 3.04 0.33
-7 13 24 1.07 0.32
-7 13 25 1.50 0.32
-7 13 26 0.01 0.30
-7 13 27 0.02 0.30
-7 15 1 104.21 1.94
-7 15 2 2.47 0.16
-7 15 3 2.01 0.14
-7 15 4 8.48 0.36
-7 15 5 20.20 0.54
-7 15 6 42.78 0.84
-7 15 7 8.50 0.27
-7 15 8 25.92 0.53
-7 15 9 0.97 0.19
-7 15 10 8.71 0.29
-7 15 11 7.14 0.26
-7 15 12 1.49 0.17
-7 15 13 2.52 0.33
-7 15 14 0.16 0.20
-7 15 15 0.64 0.22
-7 15 16 1.40 0.25
-7 15 17 4.66 0.36
-7 15 18 3.52 0.27
-7 15 19 0.02 0.40
-7 15 20 0.39 0.26
-7 15 21 2.62 0.36
-7 15 22 2.59 0.32
-7 15 23 1.79 0.30
-7 15 24 1.53 0.31
-7 15 25 0.51 0.30
-7 15 26 0.03 0.30
-7 17 1 7.69 0.25
-7 17 2 2.67 0.18
-7 17 3 3.34 0.17
-7 17 4 6.97 0.24
-7 17 5 1.99 0.21
-7 17 6 5.23 0.22
-7 17 7 6.61 0.23
-7 17 8 3.26 0.20
-7 17 9 1.32 0.26
-7 17 10 19.08 0.54
-7 17 11 10.01 0.39
-7 17 12 0.01 0.17
-7 17 13 0.83 0.18
-7 17 14 5.13 0.30
-7 17 15 2.40 0.26
-7 17 16 5.67 0.35
-7 17 17 3.17 0.28
-7 17 18 5.80 0.37
-7 17 19 0.01 0.25
-7 17 20 0.92 0.27
-7 17 21 1.96 0.30
-7 17 22 0.53 0.28
-7 17 23 3.26 0.33
-7 17 24 0.93 0.30
-7 17 25 0.75 0.30
-7 19 1 1.60 0.17
-7 19 2 0.14 0.13
-7 19 3 13.05 0.31
-7 19 4 2.02 0.16
-7 19 5 25.55 0.56
-7 19 6 1.18 0.15
-7 19 7 17.16 0.39
-7 19 8 7.09 0.44
-7 19 9 54.35 1.15
-7 19 10 1.40 0.16
-7 19 11 0.42 0.16
-7 19 12 0.93 0.26
-7 19 13 3.13 0.60
-7 19 14 2.58 0.30
-7 19 15 0.36 0.20
-7 19 16 5.74 0.30
-7 19 17 10.56 0.41
-7 19 18 0.45 0.31
-7 19 19 0.86 0.32
-7 19 20 0.00 0.23
-7 19 21 1.50 0.28
-7 19 22 0.05 0.24
-7 19 23 0.23 0.28
-7 19 24 0.59 0.65
-7 21 1 3.14 0.20
-7 21 2 8.27 0.49
-7 21 3 5.78 0.35
-7 21 4 3.51 0.29
-7 21 5 0.93 0.27
-7 21 6 0.28 0.20
-7 21 7 1.58 0.17
-7 21 8 1.53 0.18
-7 21 9 9.09 0.36
-7 21 10 1.40 0.30
-7 21 11 0.00 0.19
-7 21 12 0.08 0.19
-7 21 13 13.20 0.44
-7 21 14 4.30 0.35
-7 21 15 0.30 0.22
-7 21 16 4.17 0.44
-7 21 17 7.31 0.40
-7 21 18 1.56 0.27
-7 21 19 1.06 0.27
-7 21 20 0.64 0.27
-7 21 21 0.00 0.27
-7 21 22 0.09 0.29
-7 23 1 0.35 0.17
-7 23 2 15.05 0.41
-7 23 3 0.35 0.28
-7 23 4 10.32 0.44
-7 23 5 0.00 0.19
-7 23 6 20.09 0.59
-7 23 7 0.08 0.23
-7 23 8 13.41 0.54
-7 23 9 2.08 0.33
-7 23 10 0.85 0.31
-7 23 11 15.90 0.72
-7 23 12 1.61 0.34
-7 23 13 0.24 0.31
-7 23 14 2.81 0.39
-7 23 15 1.94 0.37
-7 23 16 2.14 0.36
-7 23 17 0.13 0.34
-7 23 18 0.54 0.27
-7 23 19 2.04 0.29
-7 23 20 1.43 0.29
-7 23 21 0.91 0.33
-7 25 1 2.52 0.36
-7 25 2 9.31 0.48
-7 25 3 0.33 0.24
-7 25 4 0.62 0.21
-7 25 5 0.53 0.21
-7 25 6 0.01 0.25
-7 25 7 10.10 0.48
-7 25 8 0.22 0.25
-7 25 9 9.54 0.54
-7 25 10 0.33 0.31
-7 25 11 5.44 0.50
-7 25 12 2.30 0.61
-7 25 13 3.09 0.39
-7 25 14 0.68 0.54
-7 25 15 0.31 0.69
-7 25 16 1.05 0.37
-7 25 17 0.47 0.37
-7 25 18 0.05 0.36
-7 27 1 3.70 0.34
-7 27 2 0.09 0.26
-7 27 3 0.04 0.21
-7 27 4 0.20 0.21
-7 27 5 0.62 0.30
-7 27 6 2.06 0.39
-7 27 7 0.46 0.27
-7 27 8 7.53 0.44
-7 27 9 8.63 0.55
-7 27 10 0.09 0.32
-7 27 11 3.42 0.39
-7 27 12 5.69 0.52
-7 27 13 1.25 0.43
-7 27 14 2.97 0.41
-7 27 15 0.00 0.34
-7 29 1 0.69 0.28
-7 29 2 0.43 0.23
-7 29 3 4.94 0.43
-7 29 4 0.43 0.32
-7 29 5 1.34 0.29
-7 29 6 20.76 0.69
-7 29 7 0.86 0.30
-7 29 8 2.79 0.33
-7 29 9 0.03 0.32
-7 29 10 3.39 0.40
-7 29 11 0.89 0.37
-7 29 12 0.53 0.47
-7 31 1 9.98 0.56
-7 31 2 2.24 0.69
-7 31 3 5.20 0.50
-6 0 2 17.18 0.59
-6 0 4 9.81 0.24
-6 0 6 44.06 1.65
-6 0 8 37.28 1.45
-6 0 10 19.17 0.46
-6 0 12 36.17 1.49
-6 0 14 12.75 0.64
-6 0 16 27.40 0.88
-6 0 18 0.03 0.20
-6 0 20 4.89 0.28
-6 0 22 3.31 0.35
-6 0 24 0.01 0.33
-6 0 26 0.68 0.27
-6 0 28 2.44 0.31
-6 0 30 0.11 0.36
-6 2 1 35.06 0.51
-6 2 2 32.70 1.02
-6 2 3 6.48 0.26
-6 2 4 2.68 0.14
-6 2 5 5.20 0.24
-6 2 6 12.80 0.22
-6 2 7 56.87 0.67
-6 2 8 15.25 0.41
-6 2 9 21.66 0.44
-6 2 10 6.66 0.35
-6 2 11 33.59 0.71
-6 2 12 4.04 0.19
-6 2 13 22.70 0.49
-6 2 14 11.12 0.34
-6 2 15 81.26 1.78
-6 2 16 37.91 0.65
-6 2 17 8.39 0.33
-6 2 18 6.15 0.28
-6 2 19 2.07 0.21
-6 2 20 0.32 0.16
-6 2 21 0.46 0.16
-6 2 22 1.38 0.18
-6 2 23 1.14 0.18
-6 2 24 0.01 0.18
-6 2 25 0.64 0.19
-6 2 26 2.30 0.32
-6 2 27 1.25 0.21
-6 2 28 0.18 0.20
-6 2 29 0.38 0.21
-6 2 30 0.72 0.22
-6 4 1 96.94 1.41
-6 4 2 53.35 1.18
-6 4 3 0.21 0.11
-6 4 4 1.77 0.16
-6 4 5 11.64 0.70
-6 4 6 62.33 1.37
-6 4 7 55.11 0.75
-6 4 8 22.05 0.39
-6 4 9 12.77 0.28
-6 4 10 13.55 0.54
-6 4 11 4.46 0.26
-6 4 12 7.29 0.62
-6 4 13 36.01 0.60
-6 4 14 3.17 0.22
-6 4 15 39.93 0.74
-6 4 16 0.76 0.16
-6 4 17 0.54 0.16
-6 4 18 14.23 0.33
-6 4 19 0.86 0.18
-6 4 20 0.53 0.17
-6 4 21 2.72 0.19
-6 4 22 2.02 0.21
-6 4 23 1.28 0.21
-6 4 24 0.85 0.19
-6 4 25 1.47 0.20
-6 4 26 3.39 0.27
-6 4 27 0.40 0.20
-6 4 28 1.07 0.21
-6 4 29 0.02 0.21
-6 4 30 0.01 0.24
-6 6 1 15.19 0.11
-6 6 2 25.41 0.44
-6 6 3 44.24 0.99
-6 6 4 4.13 0.15
-6 6 5 0.00 0.12
-6 6 6 2.31 0.27
-6 6 7 62.76 1.26
-6 6 8 34.64 0.88
-6 6 9 22.83 0.65
-6 6 10 27.76 0.84
-6 6 11 4.92 0.36
-6 6 12 48.25 0.93
-6 6 13 2.99 0.18
-6 6 14 0.01 0.13
-6 6 15 0.72 0.15
-6 6 16 5.69 0.24
-6 6 17 28.17 0.64
-6 6 18 0.47 0.17
-6 6 19 8.00 0.31
-6 6 20 0.33 0.18
-6 6 21 0.35 0.19
-6 6 22 16.43 0.43
-6 6 23 3.22 0.47
-6 6 24 0.43 0.21
-6 6 25 5.91 0.32
-6 6 26 8.07 0.31
-6 6 27 1.54 0.21
-6 6 28 0.04 0.22
-6 6 29 0.74 0.24
-6 6 30 0.93 0.35
-6 8 1 23.46 0.31
-6 8 2 12.11 0.48
-6 8 3 25.50 0.38
-6 8 4 40.43 0.55
-6 8 5 112.34 1.92
-6 8 6 29.89 0.73
-6 8 7 39.40 0.82
-6 8 8 14.60 0.35
-6 8 9 23.76 0.42
-6 8 10 45.44 0.80
-6 8 11 5.94 0.32
-6 8 12 0.07 0.12
-6 8 13 1.88 0.17
-6 8 14 18.15 0.41
-6 8 15 19.59 0.41
-6 8 16 11.68 0.33
-6 8 17 2.69 0.31
-6 8 18 5.90 0.42
-6 8 19 6.60 0.30
-6 8 20 3.02 0.26
-6 8 21 26.88 0.59
-6 8 22 0.69 0.20
-6 8 23 11.75 0.38
-6 8 24 0.44 0.20
-6 8 25 1.52 0.25
-6 8 26 2.84 0.41
-6 8 27 1.70 0.32
-6 8 28 1.61 0.34
-6 8 29 0.52 0.28
-6 10 1 86.39 1.71
-6 10 2 1.49 0.17
-6 10 3 2.29 0.10
-6 10 4 0.09 0.08
-6 10 5 6.18 0.18
-6 10 6 0.95 0.10
-6 10 7 23.95 0.40
-6 10 8 6.03 0.26
-6 10 9 12.24 0.44
-6 10 10 90.49 1.70
-6 10 11 3.96 0.25
-6 10 12 1.77 0.17
-6 10 13 13.16 0.33
-6 10 14 0.61 0.14
-6 10 15 2.04 0.21
-6 10 16 1.42 0.17
-6 10 17 9.75 0.27
-6 10 18 45.98 0.91
-6 10 19 14.32 0.41
-6 10 20 10.50 0.38
-6 10 21 0.33 0.26
-6 10 22 0.56 0.27
-6 10 23 7.17 0.63
-6 10 24 1.40 0.29
-6 10 25 0.01 0.28
-6 10 26 0.11 0.30
-6 10 27 1.73 0.32
-6 10 28 0.67 0.32
-6 10 29 0.22 0.32
-6 12 1 12.16 0.22
-6 12 2 31.77 0.59
-6 12 3 4.95 0.44
-6 12 4 5.99 0.19
-6 12 5 9.68 0.35
-6 12 6 45.01 0.98
-6 12 7 3.39 0.17
-6 12 8 62.70 1.04
-6 12 9 1.44 0.14
-6 12 10 39.27 0.87
-6 12 11 4.67 0.19
-6 12 12 4.17 0.36
-6 12 13 13.23 0.38
-6 12 14 12.35 0.33
-6 12 15 0.44 0.16
-6 12 16 9.36 0.42
-6 12 17 0.01 0.22
-6 12 18 7.77 0.38
-6 12 19 1.67 0.46
-6 12 20 12.76 0.51
-6 12 21 2.74 0.31
-6 12 22 0.10 0.27
-6 12 23 1.18 0.29
-6 12 24 0.00 0.27
-6 12 25 1.70 0.30
-6 12 26 0.04 0.29
-6 12 27 0.12 0.30
-6 12 28 0.17 0.41
-6 14 1 6.81 0.28
-6 14 2 17.70 0.36
-6 14 3 40.65 0.68
-6 14 4 1.37 0.11
-6 14 5 53.91 0.94
-6 14 6 0.35 0.10
-6 14 7 1.60 0.13
-6 14 8 10.81 0.51
-6 14 9 0.98 0.15
-6 14 10 1.83 0.26
-6 14 11 4.39 0.25
-6 14 12 0.17 0.18
-6 14 13 15.87 0.52
-6 14 14 5.68 0.36
-6 14 15 7.17 0.35
-6 14 16 0.03 0.34
-6 14 17 7.88 0.41
-6 14 18 4.96 0.33
-6 14 19 2.24 0.28
-6 14 20 0.06 0.25
-6 14 21 1.49 0.27
-6 14 22 0.08 0.26
-6 14 23 2.43 0.31
-6 14 24 0.39 0.28
-6 14 25 5.68 0.45
-6 14 26 0.72 0.41
-6 14 27 1.46 0.33
-6 16 1 5.41 0.17
-6 16 2 21.07 0.42
-6 16 3 2.70 0.22
-6 16 4 0.35 0.09
-6 16 5 4.74 0.44
-6 16 6 8.06 0.23
-6 16 7 21.67 0.43
-6 16 8 1.47 0.15
-6 16 9 0.07 0.14
-6 16 10 9.36 0.40
-6 16 11 1.83 0.21
-6 16 12 0.01 0.16
-6 16 13 2.43 0.18
-6 16 14 1.54 0.18
-6 16 15 13.95 0.51
-6 16 16 6.35 0.40
-6 16 17 1.23 0.25
-6 16 18 0.46 0.24
-6 16 19 0.66 0.24
-6 16 20 12.40 0.50
-6 16 21 0.56 0.26
-6 16 22 2.17 0.30
-6 16 23 0.00 0.27
-6 16 24 0.76 0.30
-6 16 25 0.12 0.38
-6 16 26 2.62 0.35
-6 18 1 3.47 0.32
-6 18 2 99.46 1.80
-6 18 3 47.93 0.90
-6 18 4 6.85 0.33
-6 18 5 6.55 0.38
-6 18 6 1.82 0.13
-6 18 7 0.55 0.12
-6 18 8 1.67 0.16
-6 18 9 3.49 0.21
-6 18 10 5.38 0.25
-6 18 11 3.23 0.26
-6 18 12 12.75 0.38
-6 18 13 4.89 0.21
-6 18 14 0.14 0.25
-6 18 15 2.27 0.25
-6 18 16 0.60 0.20
-6 18 17 11.72 0.59
-6 18 18 7.83 0.36
-6 18 19 0.16 0.22
-6 18 20 8.21 0.58
-6 18 21 0.96 0.27
-6 18 22 0.00 0.27
-6 18 23 1.58 0.30
-6 18 24 0.83 0.29
-6 18 25 0.52 0.30
-6 20 1 15.66 0.66
-6 20 2 13.14 0.40
-6 20 3 9.27 0.41
-6 20 4 14.41 0.39
-6 20 5 2.78 0.17
-6 20 6 0.05 0.12
-6 20 7 0.53 0.13
-6 20 8 1.85 0.21
-6 20 9 4.15 0.29
-6 20 10 1.20 0.17
-6 20 11 8.45 0.28
-6 20 12 2.64 0.36
-6 20 13 16.85 0.52
-6 20 14 3.18 0.24
-6 20 15 0.37 0.20
-6 20 16 2.40 0.30
-6 20 17 6.09 0.38
-6 20 18 0.39 0.24
-6 20 19 0.00 0.25
-6 20 20 0.17 0.26
-6 20 21 0.01 0.26
-6 20 22 0.70 0.27
-6 20 23 0.08 0.27
-6 20 24 0.61 0.30
-6 22 1 0.68 0.16
-6 22 2 0.52 0.17
-6 22 3 9.86 0.32
-6 22 4 0.17 0.21
-6 22 5 0.07 0.18
-6 22 6 5.92 0.37
-6 22 7 0.05 0.22
-6 22 8 13.13 0.48
-6 22 9 2.73 0.36
-6 22 10 40.63 1.29
-6 22 11 0.75 0.20
-6 22 12 8.56 0.41
-6 22 13 0.07 0.20
-6 22 14 0.28 0.21
-6 22 15 2.44 0.28
-6 22 16 1.26 0.25
-6 22 17 1.92 0.26
-6 22 18 1.56 0.27
-6 22 19 1.27 0.28
-6 22 20 2.29 0.29
-6 22 21 0.52 0.28
-6 22 22 0.32 0.29
-6 24 1 0.36 0.23
-6 24 2 41.46 1.02
-6 24 3 1.54 0.24
-6 24 4 2.40 0.24
-6 24 5 7.63 0.39
-6 24 6 3.33 0.27
-6 24 7 8.28 0.42
-6 24 8 0.98 0.26
-6 24 9 0.86 0.30
-6 24 10 2.70 0.35
-6 24 11 6.57 0.50
-6 24 12 0.75 0.32
-6 24 13 9.17 0.58
-6 24 14 0.27 0.33
-6 24 15 7.84 1.07
-6 24 16 2.07 0.36
-6 24 17 0.27 0.35
-6 24 18 3.24 0.43
-6 24 19 1.40 0.39
-6 24 20 0.00 0.35
-6 26 1 0.03 0.24
-6 26 2 0.12 0.23
-6 26 3 0.92 0.21
-6 26 4 0.98 0.26
-6 26 5 11.21 0.48
-6 26 6 3.09 0.27
-6 26 7 8.89 0.49
-6 26 8 1.37 0.27
-6 26 9 11.96 1.02
-6 26 10 0.26 0.35
-6 26 11 0.42 0.40
-6 26 12 2.19 0.35
-6 26 13 7.42 0.54
-6 26 14 2.42 0.37
-6 26 15 0.57 0.35
-6 26 16 10.24 1.27
-6 26 17 0.22 0.55
-6 26 18 1.16 0.39
-6 28 1 4.55 0.41
-6 28 2 20.04 0.57
-6 28 3 9.40 0.47
-6 28 4 2.27 0.36
-6 28 5 7.26 0.45
-6 28 6 0.96 0.27
-6 28 7 0.31 0.27
-6 28 8 5.68 0.60
-6 28 9 2.45 0.37
-6 28 10 9.17 0.59
-6 28 11 0.99 0.34
-6 28 12 1.62 0.36
-6 28 13 0.34 0.34
-6 28 14 0.56 0.48
-6 28 15 0.68 0.48
-6 30 1 4.21 0.30
-6 30 2 0.06 0.27
-6 30 3 6.58 0.44
-6 30 4 2.78 0.32
-6 30 5 10.23 0.52
-6 30 6 0.30 0.28
-6 30 7 1.73 0.29
-6 30 8 0.13 0.28
-6 30 9 0.93 0.36
-6 30 10 0.90 0.43
-5 1 1 0.21 1.17
-5 1 2 48.03 1.97
-5 1 3 2.52 0.14
-5 1 4 53.82 0.81
-5 1 5 4.61 0.24
-5 1 6 0.76 0.10
-5 1 7 0.79 0.22
-5 1 8 2.85 0.12
-5 1 9 76.20 1.81
-5 1 10 6.72 0.18
-5 1 11 98.75 1.75
-5 1 12 12.35 0.36
-5 1 13 7.67 0.30
-5 1 14 9.84 0.27
-5 1 15 1.65 0.15
-5 1 16 21.37 0.74
-5 1 17 2.23 0.29
-5 1 18 18.48 0.75
-5 1 19 8.48 0.26
-5 1 20 8.93 0.27
-5 1 21 0.42 0.16
-5 1 22 0.51 0.16
-5 1 23 0.15 0.16
-5 1 24 16.45 0.40
-5 1 25 0.16 0.18
-5 1 26 0.77 0.19
-5 1 27 0.55 0.19
-5 1 28 0.38 0.20
-5 1 29 0.19 0.23
-5 1 30 0.68 0.28
-5 3 1 1.61 0.25
-5 3 2 50.55 1.96
-5 3 3 31.89 0.39
-5 3 4 83.95 1.40
-5 3 5 20.37 0.26
-5 3 6 12.69 0.16
-5 3 7 71.75 1.56
-5 3 8 49.89 0.89
-5 3 9 28.39 0.88
-5 3 10 51.98 0.88
-5 3 11 102.50 1.75
-5 3 12 1.28 0.14
-5 3 13 1.08 0.13
-5 3 14 2.86 0.21
-5 3 15 1.98 0.15
-5 3 16 0.10 0.14
-5 3 17 25.10 0.53
-5 3 18 1.38 0.17
-5 3 19 24.92 0.54
-5 3 20 5.76 0.27
-5 3 21 2.65 0.22
-5 3 22 0.83 0.17
-5 3 23 2.91 0.22
-5 3 24 1.33 0.18
-5 3 25 0.51 0.18
-5 3 26 0.37 0.19
-5 3 27 1.19 0.20
-5 3 28 0.04 0.20
-5 3 29 1.26 0.24
-5 3 30 0.88 0.29
-5 5 1 6.00 0.08
-5 5 2 32.90 1.12
-5 5 3 9.44 0.37
-5 5 4 12.77 0.35
-5 5 5 9.32 0.22
-5 5 6 24.68 0.54
-5 5 7 49.80 0.87
-5 5 8 20.65 0.37
-5 5 9 12.45 0.38
-5 5 10 23.72 0.56
-5 5 11 3.81 0.14
-5 5 12 0.46 0.14
-5 5 13 0.35 0.20
-5 5 14 31.78 0.58
-5 5 15 3.56 0.18
-5 5 16 19.02 0.40
-5 5 17 1.04 0.15
-5 5 18 8.02 0.30
-5 5 19 6.92 0.31
-5 5 20 0.06 0.17
-5 5 21 2.66 0.29
-5 5 22 0.64 0.18
-5 5 23 0.33 0.19
-5 5 24 0.01 0.19
-5 5 25 0.00 0.18
-5 5 26 1.11 0.20
-5 5 27 3.75 0.24
-5 5 28 0.51 0.20
-5 5 29 1.27 0.25
-5 5 30 2.04 0.36
-5 7 1 25.44 0.34
-5 7 2 142.85 2.80
-5 7 3 75.47 1.21
-5 7 4 65.21 0.89
-5 7 5 0.64 0.14
-5 7 6 45.52 0.88
-5 7 7 124.00 2.11
-5 7 8 205.07 3.71
-5 7 9 85.02 1.78
-5 7 10 151.49 2.61
-5 7 11 44.98 1.85
-5 7 12 29.28 0.56
-5 7 13 9.01 0.43
-5 7 14 2.89 0.16
-5 7 15 1.91 0.16
-5 7 16 1.79 0.21
-5 7 17 4.60 0.33
-5 7 18 10.30 0.33
-5 7 19 0.93 0.17
-5 7 20 15.61 0.46
-5 7 21 2.99 0.24
-5 7 22 1.64 0.26
-5 7 23 0.69 0.20
-5 7 24 0.57 0.20
-5 7 25 0.04 0.20
-5 7 26 3.83 0.59
-5 7 27 2.45 0.28
-5 7 28 0.43 0.26
-5 7 29 2.10 0.38
-5 7 30 0.06 0.33
-5 9 1 11.79 0.26
-5 9 2 19.12 0.25
-5 9 3 1.17 0.11
-5 9 4 1.40 0.13
-5 9 5 12.39 0.18
-5 9 6 16.26 0.36
-5 9 7 51.42 0.89
-5 9 8 46.01 0.72
-5 9 9 275.00 4.73
-5 9 10 8.50 0.29
-5 9 11 58.53 1.12
-5 9 12 9.62 0.25
-5 9 13 50.43 1.00
-5 9 14 33.46 0.77
-5 9 15 3.10 0.19
-5 9 16 2.15 0.20
-5 9 17 7.54 0.30
-5 9 18 1.73 0.22
-5 9 19 2.83 0.20
-5 9 20 0.02 0.19
-5 9 21 0.62 0.21
-5 9 22 0.84 0.22
-5 9 23 0.63 0.27
-5 9 24 5.14 0.54
-5 9 25 1.62 0.43
-5 9 26 0.26 0.28
-5 9 27 1.01 0.32
-5 9 28 0.39 0.31
-5 9 29 0.68 0.32
-5 11 1 11.20 0.25
-5 11 2 27.31 0.59
-5 11 3 2.84 0.13
-5 11 4 56.37 0.94
-5 11 5 0.01 0.08
-5 11 6 38.83 0.66
-5 11 7 1.79 0.10
-5 11 8 16.46 0.43
-5 11 9 5.69 0.39
-5 11 10 14.11 0.40
-5 11 11 12.64 0.32
-5 11 12 24.35 0.52
-5 11 13 7.88 0.24
-5 11 14 0.81 0.15
-5 11 15 2.13 0.16
-5 11 16 30.47 0.81
-5 11 17 2.42 0.33
-5 11 18 34.41 0.66
-5 11 19 1.09 0.21
-5 11 20 0.45 0.24
-5 11 21 3.27 0.28
-5 11 22 11.08 1.02
-5 11 23 0.24 0.26
-5 11 24 1.39 0.30
-5 11 25 1.00 0.46
-5 11 26 0.52 0.30
-5 11 27 0.43 0.30
-5 11 28 0.00 0.30
-5 11 29 0.00 0.32
-5 13 1 4.78 0.27
-5 13 2 99.56 1.78
-5 13 3 14.49 0.27
-5 13 4 18.00 0.27
-5 13 5 4.53 0.16
-5 13 6 10.07 0.27
-5 13 7 1.58 0.10
-5 13 8 22.74 0.54
-5 13 9 6.12 0.29
-5 13 10 6.83 0.27
-5 13 11 5.13 0.20
-5 13 12 0.88 0.16
-5 13 13 19.21 0.58
-5 13 14 1.26 0.19
-5 13 15 42.73 1.21
-5 13 16 1.77 0.31
-5 13 17 6.69 0.40
-5 13 18 0.38 0.23
-5 13 19 8.34 0.42
-5 13 20 0.24 0.31
-5 13 21 5.67 0.40
-5 13 22 0.19 0.25
-5 13 23 1.29 0.28
-5 13 24 2.90 0.47
-5 13 25 1.89 0.31
-5 13 26 1.40 0.33
-5 13 27 0.18 0.31
-5 13 28 0.11 0.31
-5 15 1 17.59 0.30
-5 15 2 0.04 0.08
-5 15 3 7.34 0.25
-5 15 4 11.06 0.21
-5 15 5 0.67 0.09
-5 15 6 11.79 0.25
-5 15 7 16.40 0.31
-5 15 8 18.27 0.42
-5 15 9 6.58 0.28
-5 15 10 23.33 0.66
-5 15 11 7.61 0.30
-5 15 12 0.00 0.15
-5 15 13 1.85 0.19
-5 15 14 0.40 0.21
-5 15 15 13.73 0.50
-5 15 16 1.00 0.24
-5 15 17 1.90 0.26
-5 15 18 0.60 0.24
-5 15 19 12.28 0.74
-5 15 20 1.17 0.35
-5 15 21 2.14 0.28
-5 15 22 8.91 0.45
-5 15 23 0.58 0.28
-5 15 24 4.49 0.39
-5 15 25 4.82 0.45
-5 15 26 0.90 0.44
-5 15 27 1.30 0.34
-5 17 1 32.28 0.58
-5 17 2 7.63 0.17
-5 17 3 5.08 0.19
-5 17 4 45.08 0.77
-5 17 5 13.95 0.37
-5 17 6 29.61 0.47
-5 17 7 2.02 0.39
-5 17 8 1.63 0.12
-5 17 9 2.84 0.24
-5 17 10 0.05 0.14
-5 17 11 4.48 0.24
-5 17 12 4.30 0.19
-5 17 13 0.15 0.20
-5 17 14 25.12 0.51
-5 17 15 4.25 0.30
-5 17 16 9.90 0.60
-5 17 17 0.07 0.22
-5 17 18 3.03 0.56
-5 17 19 0.10 0.24
-5 17 20 0.35 0.25
-5 17 21 0.30 0.26
-5 17 22 2.97 0.33
-5 17 23 0.74 0.29
-5 17 24 1.20 0.30
-5 17 25 0.10 0.36
-5 17 26 0.19 0.31
-5 19 1 48.62 0.86
-5 19 2 13.64 0.34
-5 19 3 25.53 0.55
-5 19 4 1.43 0.16
-5 19 5 0.31 0.10
-5 19 6 9.31 0.35
-5 19 7 30.23 0.56
-5 19 8 1.99 0.13
-5 19 9 2.91 0.21
-5 19 10 0.68 0.15
-5 19 11 0.92 0.16
-5 19 12 1.42 0.17
-5 19 13 1.07 0.18
-5 19 14 1.13 0.28
-5 19 15 21.44 0.52
-5 19 16 0.51 0.24
-5 19 17 1.70 0.26
-5 19 18 0.06 0.21
-5 19 19 0.00 0.30
-5 19 20 0.22 0.22
-5 19 21 1.63 0.38
-5 19 22 0.01 0.24
-5 19 23 0.02 0.27
-5 19 24 0.40 0.35
-5 19 25 0.06 0.35
-5 21 1 11.65 0.36
-5 21 2 7.53 0.29
-5 21 3 19.71 0.88
-5 21 4 1.61 0.19
-5 21 5 13.38 0.40
-5 21 6 5.70 0.36
-5 21 7 5.52 0.25
-5 21 8 0.21 0.13
-5 21 9 0.05 0.15
-5 21 10 9.64 0.42
-5 21 11 3.95 0.30
-5 21 12 22.10 0.61
-5 21 13 1.38 0.25
-5 21 14 31.66 0.83
-5 21 15 1.03 0.38
-5 21 16 1.75 0.25
-5 21 17 0.40 0.24
-5 21 18 0.00 0.24
-5 21 19 0.00 0.25
-5 21 20 0.00 0.28
-5 21 21 1.97 0.47
-5 21 22 3.73 0.58
-5 21 23 0.33 0.29
-5 23 1 2.20 0.19
-5 23 2 1.16 0.27
-5 23 3 0.18 0.17
-5 23 4 0.99 0.20
-5 23 5 4.91 0.37
-5 23 6 10.25 0.43
-5 23 7 5.29 0.37
-5 23 8 0.03 0.24
-5 23 9 6.61 0.38
-5 23 10 0.75 0.31
-5 23 11 1.46 0.31
-5 23 12 1.09 0.44
-5 23 13 0.43 0.30
-5 23 14 17.25 1.37
-5 23 15 0.45 0.35
-5 23 16 0.31 0.24
-5 23 17 5.79 0.39
-5 23 18 0.98 0.37
-5 23 19 10.33 0.48
-5 23 20 1.61 0.29
-5 23 21 0.69 0.28
-5 25 1 14.58 0.55
-5 25 2 1.80 0.25
-5 25 3 2.15 0.21
-5 25 4 2.24 0.26
-5 25 5 1.04 0.24
-5 25 6 10.53 0.46
-5 25 7 0.03 0.23
-5 25 8 0.71 0.31
-5 25 9 3.12 0.36
-5 25 10 1.19 0.31
-5 25 11 16.89 0.74
-5 25 12 0.39 0.30
-5 25 13 2.36 0.37
-5 25 14 0.11 0.32
-5 25 15 5.73 0.54
-5 25 16 2.24 0.57
-5 25 17 7.24 0.59
-5 25 18 0.85 0.36
-5 25 19 0.52 0.56
-5 27 1 1.03 0.21
-5 27 2 0.04 0.20
-5 27 3 2.42 0.27
-5 27 4 17.88 0.59
-5 27 5 0.44 0.25
-5 27 6 11.29 0.49
-5 27 7 20.44 0.66
-5 27 8 0.73 0.27
-5 27 9 0.29 0.26
-5 27 10 0.79 0.50
-5 27 11 0.34 0.31
-5 27 12 1.08 0.33
-5 27 13 2.77 0.39
-5 27 14 0.14 0.41
-5 27 15 0.32 0.36
-5 27 16 6.36 0.88
-5 27 17 1.50 0.38
-5 29 1 0.94 0.34
-5 29 2 8.31 0.58
-5 29 3 0.65 0.26
-5 29 4 5.68 0.41
-5 29 5 0.04 0.26
-5 29 6 3.30 0.35
-5 29 7 0.38 0.26
-5 29 8 3.76 0.36
-5 29 9 6.00 0.46
-5 29 10 4.99 0.79
-5 29 11 1.86 0.36
-5 29 12 0.00 0.33
-5 29 13 0.47 0.36
-5 31 1 3.74 0.34
-5 31 2 5.75 0.43
-5 31 3 6.61 0.55
-5 31 4 2.07 0.29
-5 31 5 0.13 0.27
-5 31 6 0.91 0.28
-5 31 7 2.72 0.32
-5 31 8 1.90 0.31
-4 0 2 6.05 0.88
-4 0 4 124.60 4.36
-4 0 6 171.09 5.98
-4 0 8 14.52 0.64
-4 0 10 10.46 0.40
-4 0 12 135.38 3.20
-4 0 14 8.80 0.31
-4 0 16 40.13 0.94
-4 0 18 17.58 0.66
-4 0 20 27.75 0.76
-4 0 22 0.26 0.22
-4 0 24 2.43 0.26
-4 0 26 0.13 0.25
-4 0 28 9.91 0.66
-4 0 30 1.29 0.41
-4 2 1 418.09 8.96
-4 2 2 51.24 0.51
-4 2 3 102.00 1.02
-4 2 4 20.81 0.20
-4 2 5 54.36 0.75
-4 2 6 1.96 0.10
-4 2 7 1.63 0.16
-4 2 8 2.35 0.18
-4 2 9 83.80 2.23
-4 2 10 0.37 0.11
-4 2 11 25.98 0.32
-4 2 12 26.25 0.61
-4 2 13 77.17 1.43
-4 2 14 6.76 0.23
-4 2 15 15.60 0.36
-4 2 16 7.49 0.29
-4 2 17 7.02 0.41
-4 2 18 0.57 0.17
-4 2 19 3.74 0.18
-4 2 20 2.85 0.21
-4 2 21 12.43 0.33
-4 2 22 0.24 0.16
-4 2 23 7.15 0.27
-4 2 24 3.98 0.39
-4 2 25 0.16 0.20
-4 2 26 0.15 0.18
-4 2 27 0.56 0.19
-4 2 28 2.23 0.35
-4 2 29 0.64 0.27
-4 2 30 0.24 0.28
-4 2 31 0.54 0.28
-4 4 1 124.06 2.24
-4 4 2 10.49 0.22
-4 4 3 3.44 0.30
-4 4 4 17.31 0.49
-4 4 5 20.65 0.22
-4 4 6 45.46 0.75
-4 4 7 6.36 0.47
-4 4 8 38.76 0.69
-4 4 9 27.58 0.59
-4 4 10 43.79 0.83
-4 4 11 38.46 1.02
-4 4 12 0.41 0.12
-4 4 13 52.00 1.20
-4 4 14 2.88 0.20
-4 4 15 21.52 0.42
-4 4 16 1.89 0.15
-4 4 17 4.66 0.20
-4 4 18 2.00 0.23
-4 4 19 0.04 0.16
-4 4 20 0.79 0.18
-4 4 21 12.63 0.35
-4 4 22 0.52 0.18
-4 4 23 3.61 0.25
-4 4 24 0.23 0.19
-4 4 25 0.20 0.17
-4 4 26 5.11 0.39
-4 4 27 2.98 0.28
-4 4 28 1.75 0.24
-4 4 29 0.35 0.27
-4 4 30 0.04 0.27
-4 6 1 22.37 0.91
-4 6 2 19.98 0.22
-4 6 3 48.07 0.52
-4 6 4 18.32 0.32
-4 6 5 99.40 2.07
-4 6 6 11.99 0.16
-4 6 7 19.18 0.77
-4 6 8 99.06 1.62
-4 6 9 21.76 0.81
-4 6 10 51.97 1.32
-4 6 11 3.84 0.17
-4 6 12 124.39 2.19
-4 6 13 2.23 0.16
-4 6 14 3.17 0.19
-4 6 15 6.61 0.49
-4 6 16 11.40 0.34
-4 6 17 9.08 0.36
-4 6 18 6.27 0.42
-4 6 19 5.30 0.26
-4 6 20 1.99 0.20
-4 6 21 2.46 0.21
-4 6 22 2.90 0.21
-4 6 23 1.82 0.20
-4 6 24 0.00 0.19
-4 6 25 0.83 0.20
-4 6 26 1.06 0.22
-4 6 27 1.24 0.23
-4 6 28 1.73 0.28
-4 6 29 0.80 0.33
-4 6 30 2.61 0.57
-4 8 1 1.84 0.07
-4 8 2 0.00 0.09
-4 8 3 12.34 0.55
-4 8 4 99.88 2.17
-4 8 5 94.01 1.30
-4 8 6 10.65 0.16
-4 8 7 125.47 2.78
-4 8 8 1.31 0.12
-4 8 9 60.03 1.30
-4 8 10 9.35 0.32
-4 8 11 121.82 2.43
-4 8 12 72.52 1.25
-4 8 13 25.63 0.73
-4 8 14 21.92 0.40
-4 8 15 2.45 0.19
-4 8 16 8.30 0.28
-4 8 17 3.82 0.23
-4 8 18 0.38 0.16
-4 8 19 0.68 0.16
-4 8 20 1.05 0.20
-4 8 21 0.10 0.20
-4 8 22 1.63 0.22
-4 8 23 2.30 0.27
-4 8 24 1.30 0.28
-4 8 25 0.28 0.24
-4 8 26 0.01 0.28
-4 8 27 0.71 0.46
-4 8 28 0.09 0.32
-4 8 29 0.62 0.33
-4 8 30 0.00 0.32
-4 10 1 21.64 0.48
-4 10 2 4.12 0.22
-4 10 3 5.31 0.15
-4 10 4 20.40 0.36
-4 10 5 18.89 0.46
-4 10 6 22.57 0.38
-4 10 7 17.12 0.39
-4 10 8 1.36 0.13
-4 10 9 20.65 0.52
-4 10 10 0.43 0.13
-4 10 11 5.67 0.22
-4 10 12 0.53 0.13
-4 10 13 31.30 0.99
-4 10 14 0.85 0.15
-4 10 15 4.92 0.32
-4 10 16 6.15 0.25
-4 10 17 2.56 0.23
-4 10 18 13.04 0.65
-4 10 19 12.51 0.90
-4 10 20 5.40 0.41
-4 10 21 20.78 0.53
-4 10 22 0.83 0.22
-4 10 23 0.33 0.26
-4 10 24 0.02 0.40
-4 10 25 0.49 0.29
-4 10 26 0.06 0.28
-4 10 27 0.97 0.38
-4 10 28 1.12 0.32
-4 10 29 0.85 0.33
-4 12 1 4.34 0.15
-4 12 2 45.92 0.64
-4 12 3 8.26 0.16
-4 12 4 2.37 0.17
-4 12 5 1.83 0.16
-4 12 6 29.74 0.57
-4 12 7 1.48 0.15
-4 12 8 0.10 0.12
-4 12 9 11.74 0.34
-4 12 10 10.72 0.20
-4 12 11 4.27 0.23
-4 12 12 1.29 0.13
-4 12 13 13.65 0.43
-4 12 14 0.50 0.23
-4 12 15 55.27 1.19
-4 12 16 0.77 0.17
-4 12 17 21.13 0.57
-4 12 18 0.74 0.23
-4 12 19 0.73 0.25
-4 12 20 3.87 0.33
-4 12 21 1.14 0.26
-4 12 22 4.57 0.39
-4 12 23 0.74 0.28
-4 12 24 1.48 0.31
-4 12 25 3.39 0.91
-4 12 26 1.96 0.35
-4 12 27 0.35 0.31
-4 12 28 3.37 0.36
-4 14 1 36.14 0.57
-4 14 2 11.64 0.46
-4 14 3 70.74 1.17
-4 14 4 2.68 0.11
-4 14 5 157.09 2.40
-4 14 6 20.79 0.36
-4 14 7 43.76 0.80
-4 14 8 4.19 0.21
-4 14 9 13.29 0.36
-4 14 10 24.69 0.53
-4 14 11 2.39 0.16
-4 14 12 0.38 0.20
-4 14 13 8.33 0.34
-4 14 14 13.84 0.39
-4 14 15 0.85 0.21
-4 14 16 0.82 0.31
-4 14 17 2.08 0.24
-4 14 18 0.82 0.30
-4 14 19 1.98 0.26
-4 14 20 0.25 0.23
-4 14 21 0.00 0.24
-4 14 22 0.24 0.31
-4 14 23 9.00 0.58
-4 14 24 1.00 0.29
-4 14 25 8.39 0.48
-4 14 26 0.23 0.30
-4 14 27 0.01 0.30
-4 14 28 0.44 0.33
-4 16 1 1.46 0.10
-4 16 2 0.78 0.07
-4 16 3 4.53 0.13
-4 16 4 21.93 0.36
-4 16 5 0.07 0.07
-4 16 6 5.64 0.15
-4 16 7 9.69 0.25
-4 16 8 22.23 0.45
-4 16 9 21.57 0.42
-4 16 10 11.86 0.31
-4 16 11 0.47 0.15
-4 16 12 2.76 0.25
-4 16 13 1.76 0.22
-4 16 14 34.98 0.69
-4 16 15 1.13 0.19
-4 16 16 0.65 0.22
-4 16 17 1.83 0.24
-4 16 18 23.59 0.70
-4 16 19 0.05 0.23
-4 16 20 1.82 0.27
-4 16 21 0.00 0.25
-4 16 22 2.15 0.32
-4 16 23 0.15 0.28
-4 16 24 0.23 0.28
-4 16 25 1.33 0.30
-4 16 26 2.18 0.35
-4 16 27 0.49 0.32
-4 18 1 4.58 0.15
-4 18 2 50.89 0.92
-4 18 3 8.84 0.20
-4 18 4 34.97 0.63
-4 18 5 0.84 0.09
-4 18 6 10.41 0.23
-4 18 7 3.55 0.17
-4 18 8 18.21 0.36
-4 18 9 2.30 0.21
-4 18 10 4.32 0.28
-4 18 11 14.39 0.40
-4 18 12 20.24 0.61
-4 18 13 26.01 0.72
-4 18 14 10.77 0.35
-4 18 15 19.12 0.57
-4 18 16 0.20 0.19
-4 18 17 16.04 0.51
-4 18 18 2.28 0.23
-4 18 19 0.22 0.23
-4 18 20 2.32 0.24
-4 18 21 0.56 0.36
-4 18 22 2.33 0.30
-4 18 23 0.02 0.28
-4 18 24 0.00 0.28
-4 18 25 0.00 0.29
-4 18 26 0.93 0.32
-4 20 1 0.46 0.15
-4 20 2 0.43 0.11
-4 20 3 14.22 0.48
-4 20 4 0.55 0.16
-4 20 5 2.18 0.32
-4 20 6 10.92 0.41
-4 20 7 25.80 0.61
-4 20 8 6.87 0.25
-4 20 9 20.40 0.49
-4 20 10 12.04 0.43
-4 20 11 2.73 0.27
-4 20 12 0.77 0.19
-4 20 13 19.45 0.52
-4 20 14 0.65 0.21
-4 20 15 9.15 0.52
-4 20 16 0.63 0.23
-4 20 17 7.00 0.38
-4 20 18 1.84 0.26
-4 20 19 1.55 0.29
-4 20 20 0.87 0.27
-4 20 21 0.40 0.28
-4 20 22 0.14 0.27
-4 20 23 2.17 0.31
-4 20 24 0.30 0.29
-4 22 1 2.23 0.16
-4 22 2 1.57 0.37
-4 22 3 5.99 0.29
-4 22 4 0.48 0.20
-4 22 5 0.03 0.20
-4 22 6 1.73 0.23
-4 22 7 7.41 0.48
-4 22 8 15.65 0.54
-4 22 9 7.84 0.40
-4 22 10 19.98 0.55
-4 22 11 1.02 0.18
-4 22 12 4.63 0.29
-4 22 13 0.12 0.20
-4 22 14 12.46 0.47
-4 22 15 0.12 0.22
-4 22 16 4.97 0.37
-4 22 17 0.56 0.30
-4 22 18 24.98 0.75
-4 22 19 1.19 0.27
-4 22 20 0.01 0.26
-4 22 21 0.61 0.28
-4 22 22 0.02 0.27
-4 22 23 0.01 0.29
-4 24 1 9.47 0.69
-4 24 2 0.51 0.22
-4 24 3 5.58 0.36
-4 24 4 0.18 0.24
-4 24 5 4.09 0.35
-4 24 6 0.44 0.22
-4 24 7 0.81 0.23
-4 24 8 5.53 0.34
-4 24 9 0.33 0.32
-4 24 10 1.68 0.34
-4 24 11 2.74 0.33
-4 24 12 0.23 0.31
-4 24 13 4.57 0.49
-4 24 14 0.68 0.33
-4 24 15 10.27 0.59
-4 24 16 0.42 0.34
-4 24 17 2.09 0.44
-4 24 18 6.10 0.58
-4 24 19 0.34 0.27
-4 24 20 0.57 0.27
-4 24 21 0.12 0.27
-4 26 1 4.80 0.30
-4 26 2 1.67 0.24
-4 26 3 6.72 0.38
-4 26 4 0.60 0.22
-4 26 5 4.76 0.36
-4 26 6 0.37 0.23
-4 26 7 6.66 0.41
-4 26 8 0.03 0.24
-4 26 9 0.84 0.26
-4 26 10 3.68 0.44
-4 26 11 0.50 0.35
-4 26 12 1.94 0.34
-4 26 13 0.07 0.32
-4 26 14 0.79 0.35
-4 26 15 11.70 0.66
-4 26 16 0.35 0.43
-4 26 17 2.99 0.41
-4 26 18 0.78 0.37
-4 28 1 4.90 0.38
-4 28 2 3.57 0.31
-4 28 3 1.21 0.31
-4 28 4 0.81 0.25
-4 28 5 1.16 0.27
-4 28 6 3.18 0.31
-4 28 7 2.99 0.33
-4 28 8 7.30 0.68
-4 28 9 0.05 0.25
-4 28 10 5.55 0.50
-4 28 11 0.02 0.32
-4 28 12 5.30 0.51
-4 28 13 2.92 0.38
-4 28 14 0.02 0.34
-4 28 15 0.71 0.36
-4 28 16 0.22 0.35
-4 30 1 2.27 0.32
-4 30 2 5.26 0.39
-4 30 3 0.89 0.26
-4 30 4 0.26 0.26
-4 30 5 6.91 0.66
-4 30 6 2.06 0.35
-4 30 7 10.09 0.50
-4 30 8 0.03 0.27
-4 30 9 3.41 0.32
-4 30 10 0.64 0.35
-4 30 11 1.71 0.37
-4 30 12 0.47 0.36
-4 32 1 1.15 0.39
-4 32 2 8.73 0.68
-4 32 3 3.48 0.47
-4 32 4 1.36 0.41
-4 32 5 1.04 0.59
-3 1 1 416.06 5.89
-3 1 2 0.56 0.35
-3 1 3 3.99 0.65
-3 1 4 4.42 0.28
-3 1 5 176.79 2.96
-3 1 6 3.27 0.20
-3 1 7 37.61 0.73
-3 1 8 5.43 0.17
-3 1 9 44.85 0.88
-3 1 10 19.84 0.64
-3 1 11 15.33 0.37
-3 1 12 2.45 0.12
-3 1 13 3.90 0.22
-3 1 14 29.86 0.69
-3 1 15 5.13 0.20
-3 1 16 32.95 0.59
-3 1 17 9.20 0.23
-3 1 18 1.22 0.21
-3 1 19 0.10 0.14
-3 1 20 0.86 0.15
-3 1 21 1.67 0.18
-3 1 22 0.04 0.15
-3 1 23 0.29 0.16
-3 1 24 15.09 0.56
-3 1 25 3.16 0.22
-3 1 26 2.30 0.28
-3 1 27 1.61 0.27
-3 1 28 0.51 0.26
-3 1 29 1.41 0.28
-3 1 30 0.00 0.26
-3 1 31 0.04 0.28
-3 3 1 0.01 0.16
-3 3 2 51.19 0.34
-3 3 3 105.12 0.66
-3 3 4 220.40 4.19
-3 3 5 594.33 13.42
-3 3 6 10.77 0.53
-3 3 7 28.62 0.84
-3 3 8 1.74 0.12
-3 3 9 0.26 0.15
-3 3 10 1.68 0.17
-3 3 11 5.01 0.70
-3 3 12 2.55 0.16
-3 3 13 20.55 0.34
-3 3 14 3.11 0.44
-3 3 15 1.27 0.19
-3 3 16 1.46 0.15
-3 3 17 56.66 1.13
-3 3 18 10.13 0.62
-3 3 19 7.44 0.29
-3 3 20 1.38 0.18
-3 3 21 0.51 0.15
-3 3 22 2.31 0.22
-3 3 23 0.25 0.16
-3 3 24 0.02 0.16
-3 3 25 0.41 0.18
-3 3 26 0.29 0.17
-3 3 27 0.20 0.24
-3 3 28 0.07 0.26
-3 3 29 1.98 0.29
-3 3 30 1.67 0.29
-3 5 1 8.01 0.35
-3 5 2 171.99 3.22
-3 5 3 2.42 0.12
-3 5 4 191.79 1.96
-3 5 5 128.37 2.16
-3 5 6 18.23 0.45
-3 5 7 220.67 3.96
-3 5 8 70.12 1.36
-3 5 9 53.59 1.46
-3 5 10 67.28 1.28
-3 5 11 76.59 2.19
-3 5 12 38.70 0.63
-3 5 13 2.14 0.17
-3 5 14 30.95 0.72
-3 5 15 0.88 0.13
-3 5 16 16.37 0.39
-3 5 17 14.44 0.38
-3 5 18 8.04 0.25
-3 5 19 1.65 0.16
-3 5 20 0.55 0.17
-3 5 21 0.52 0.17
-3 5 22 0.07 0.17
-3 5 23 2.36 0.22
-3 5 24 10.05 0.33
-3 5 25 2.11 0.21
-3 5 26 0.28 0.20
-3 5 27 0.20 0.25
-3 5 28 0.49 0.26
-3 5 29 0.68 0.28
-3 5 30 4.20 0.41
-3 7 1 13.71 0.22
-3 7 2 21.03 0.16
-3 7 3 181.72 3.24
-3 7 4 0.36 0.63
-3 7 5 205.45 3.61
-3 7 6 331.97 5.38
-3 7 7 82.93 1.41
-3 7 8 0.05 0.10
-3 7 9 10.86 0.35
-3 7 10 4.67 0.19
-3 7 11 132.80 2.44
-3 7 12 0.72 0.13
-3 7 13 25.27 0.55
-3 7 14 2.18 0.17
-3 7 15 2.74 0.22
-3 7 16 7.90 0.28
-3 7 17 0.75 0.15
-3 7 18 6.60 0.24
-3 7 19 0.33 0.16
-3 7 20 0.38 0.19
-3 7 21 2.92 0.25
-3 7 22 3.64 0.32
-3 7 23 0.59 0.22
-3 7 24 1.85 0.23
-3 7 25 0.15 0.24
-3 7 26 0.11 0.21
-3 7 27 1.90 0.26
-3 7 28 1.98 0.34
-3 7 29 0.92 0.34
-3 7 30 0.00 0.32
-3 9 1 3.06 0.12
-3 9 2 14.35 0.19
-3 9 3 0.34 0.19
-3 9 4 260.90 3.88
-3 9 5 11.68 0.20
-3 9 6 173.15 3.01
-3 9 7 17.56 0.60
-3 9 8 3.67 0.24
-3 9 9 84.72 1.59
-3 9 10 61.49 1.27
-3 9 11 2.05 0.26
-3 9 12 1.24 0.23
-3 9 13 16.47 0.41
-3 9 14 4.72 0.22
-3 9 15 3.55 0.21
-3 9 16 25.87 0.58
-3 9 17 22.90 0.53
-3 9 18 8.82 0.30
-3 9 19 4.30 0.42
-3 9 20 7.46 0.31
-3 9 21 5.69 0.47
-3 9 22 2.43 0.24
-3 9 23 1.35 0.22
-3 9 24 0.21 0.22
-3 9 25 2.21 0.35
-3 9 26 0.63 0.29
-3 9 27 0.53 0.30
-3 9 28 0.39 0.31
-3 9 29 0.98 0.33
-3 11 1 3.17 0.08
-3 11 2 51.95 0.63
-3 11 3 3.16 0.17
-3 11 4 45.09 0.99
-3 11 5 2.19 0.12
-3 11 6 100.13 1.77
-3 11 7 65.20 1.26
-3 11 8 5.93 0.22
-3 11 9 1.13 0.11
-3 11 10 1.56 0.13
-3 11 11 56.01 1.15
-3 11 12 28.80 0.84
-3 11 13 2.09 0.14
-3 11 14 20.69 0.42
-3 11 15 1.16 0.25
-3 11 16 1.09 0.16
-3 11 17 0.88 0.17
-3 11 18 6.48 0.29
-3 11 19 0.64 0.25
-3 11 20 5.82 0.33
-3 11 21 4.57 0.50
-3 11 22 10.52 0.49
-3 11 23 0.72 0.27
-3 11 24 13.98 1.05
-3 11 25 0.57 0.29
-3 11 26 2.31 0.33
-3 11 27 0.02 0.44
-3 11 28 0.00 0.31
-3 11 29 0.01 0.32
-3 13 1 32.42 0.56
-3 13 2 5.06 0.21
-3 13 3 45.66 0.93
-3 13 4 0.42 0.07
-3 13 5 36.24 0.63
-3 13 6 2.33 0.10
-3 13 7 19.37 0.42
-3 13 8 13.69 0.29
-3 13 9 129.78 2.73
-3 13 10 51.74 1.05
-3 13 11 35.54 0.66
-3 13 12 5.36 0.21
-3 13 13 15.00 0.41
-3 13 14 0.00 0.13
-3 13 15 9.87 0.66
-3 13 16 9.31 0.43
-3 13 17 5.94 0.61
-3 13 18 1.67 0.23
-3 13 19 23.39 0.91
-3 13 20 0.79 0.30
-3 13 21 0.14 0.24
-3 13 22 0.07 0.25
-3 13 23 0.32 0.27
-3 13 24 3.16 0.57
-3 13 25 0.58 0.29
-3 13 26 0.21 0.30
-3 13 27 0.23 0.31
-3 13 28 0.74 0.32
-3 15 1 56.13 1.05
-3 15 2 34.00 0.50
-3 15 3 8.98 0.23
-3 15 4 68.34 1.51
-3 15 5 1.14 0.08
-3 15 6 5.57 0.15
-3 15 7 17.54 0.30
-3 15 8 8.59 0.25
-3 15 9 39.71 0.82
-3 15 10 6.22 0.23
-3 15 11 8.30 0.30
-3 15 12 0.70 0.15
-3 15 13 8.52 0.28
-3 15 14 0.94 0.21
-3 15 15 10.82 0.64
-3 15 16 11.08 0.47
-3 15 17 1.56 0.23
-3 15 18 10.31 0.43
-3 15 19 2.89 0.26
-3 15 20 0.15 0.24
-3 15 21 2.02 0.27
-3 15 22 4.43 0.43
-3 15 23 1.17 0.28
-3 15 24 0.20 0.28
-3 15 25 0.59 0.30
-3 15 26 0.47 0.31
-3 15 27 4.46 0.53
-3 17 1 1.28 0.07
-3 17 2 10.43 0.35
-3 17 3 8.00 0.25
-3 17 4 44.93 0.79
-3 17 5 17.97 0.48
-3 17 6 11.86 0.24
-3 17 7 0.41 0.08
-3 17 8 2.97 0.16
-3 17 9 1.93 0.16
-3 17 10 1.34 0.21
-3 17 11 23.33 0.54
-3 17 12 30.54 0.73
-3 17 13 56.06 1.25
-3 17 14 5.55 0.46
-3 17 15 1.11 0.19
-3 17 16 2.70 0.24
-3 17 17 0.43 0.19
-3 17 18 6.63 0.33
-3 17 19 0.01 0.23
-3 17 20 1.11 0.26
-3 17 21 0.05 0.24
-3 17 22 2.06 0.29
-3 17 23 0.55 0.28
-3 17 24 2.27 0.32
-3 17 25 0.92 0.30
-3 17 26 1.29 0.31
-3 19 1 69.45 1.32
-3 19 2 7.28 0.34
-3 19 3 24.96 0.52
-3 19 4 2.48 0.15
-3 19 5 3.70 0.20
-3 19 6 0.57 0.14
-3 19 7 5.07 0.19
-3 19 8 6.82 0.20
-3 19 9 1.32 0.22
-3 19 10 3.36 0.25
-3 19 11 15.09 0.46
-3 19 12 3.25 0.22
-3 19 13 23.35 0.57
-3 19 14 0.79 0.18
-3 19 15 0.01 0.18
-3 19 16 0.95 0.21
-3 19 17 2.33 0.23
-3 19 18 0.19 0.21
-3 19 19 14.45 0.47
-3 19 20 0.44 0.23
-3 19 21 4.47 0.54
-3 19 22 0.14 0.30
-3 19 23 1.71 0.29
-3 19 24 0.23 0.29
-3 19 25 0.85 0.31
-3 21 1 1.00 0.14
-3 21 2 7.46 0.36
-3 21 3 4.07 0.30
-3 21 4 15.83 0.47
-3 21 5 1.08 0.21
-3 21 6 2.03 0.33
-3 21 7 5.36 0.37
-3 21 8 1.25 0.16
-3 21 9 0.71 0.19
-3 21 10 0.41 0.16
-3 21 11 20.07 0.52
-3 21 12 7.22 0.34
-3 21 13 0.16 0.19
-3 21 14 4.29 0.31
-3 21 15 8.87 0.39
-3 21 16 1.83 0.24
-3 21 17 5.08 0.38
-3 21 18 4.91 0.38
-3 21 19 4.97 0.39
-3 21 20 1.00 0.27
-3 21 21 7.50 0.45
-3 21 22 1.58 0.29
-3 21 23 1.05 0.29
-3 21 24 0.10 0.51
-3 23 1 6.04 0.23
-3 23 2 5.93 0.27
-3 23 3 5.52 0.35
-3 23 4 0.12 0.20
-3 23 5 0.13 0.25
-3 23 6 0.93 0.21
-3 23 7 0.26 0.21
-3 23 8 1.40 0.23
-3 23 9 9.53 0.45
-3 23 10 2.05 0.30
-3 23 11 4.87 0.69
-3 23 12 5.31 0.29
-3 23 13 2.83 0.27
-3 23 14 9.13 0.42
-3 23 15 0.65 0.23
-3 23 16 2.92 0.36
-3 23 17 0.71 0.26
-3 23 18 7.34 0.42
-3 23 19 0.15 0.26
-3 23 20 3.08 0.32
-3 23 21 0.72 0.28
-3 23 22 4.64 0.49
-3 25 1 7.84 0.31
-3 25 2 0.20 0.38
-3 25 3 3.48 0.31
-3 25 4 2.42 0.24
-3 25 5 3.26 0.44
-3 25 6 0.60 0.33
-3 25 7 4.33 0.36
-3 25 8 1.07 0.24
-3 25 9 9.73 0.60
-3 25 10 4.43 0.46
-3 25 11 18.13 0.76
-3 25 12 0.27 0.44
-3 25 13 0.00 0.30
-3 25 14 0.21 0.31
-3 25 15 0.00 0.32
-3 25 16 0.90 0.36
-3 25 17 0.63 0.35
-3 25 18 0.76 0.36
-3 25 19 4.61 0.51
-3 25 20 0.85 0.38
-3 27 1 13.87 0.51
-3 27 2 3.80 0.30
-3 27 3 0.27 0.26
-3 27 4 8.85 0.45
-3 27 5 3.04 0.51
-3 27 6 5.91 0.38
-3 27 7 0.15 0.23
-3 27 8 6.18 0.40
-3 27 9 0.16 0.24
-3 27 10 2.71 0.40
-3 27 11 6.40 0.73
-3 27 12 0.26 0.60
-3 27 13 0.24 0.48
-3 27 14 9.25 1.07
-3 27 15 0.26 0.35
-3 27 16 1.28 0.37
-3 27 17 0.39 0.36
-3 29 1 2.60 0.54
-3 29 2 0.40 0.24
-3 29 3 5.67 0.49
-3 29 4 23.67 0.69
-3 29 5 1.10 0.25
-3 29 6 6.34 0.42
-3 29 7 6.26 0.43
-3 29 8 0.45 0.26
-3 29 9 7.11 0.42
-3 29 10 0.01 0.32
-3 29 11 0.84 0.33
-3 29 12 0.53 0.34
-3 29 13 0.71 0.34
-3 29 14 1.95 0.39
-3 31 1 6.60 0.61
-3 31 2 0.67 0.38
-3 31 3 0.02 0.36
-3 31 4 0.89 0.38
-3 31 5 2.09 0.28
-3 31 6 1.52 0.28
-3 31 7 2.25 0.30
-3 31 8 0.01 0.26
-3 31 9 1.30 0.30
-3 31 10 2.37 0.48
-2 0 2 152.52 5.46
-2 0 4 532.60 20.56
-2 0 6 153.90 4.37
-2 0 8 19.49 1.25
-2 0 10 125.16 3.32
-2 0 12 1.90 0.32
-2 0 14 41.74 1.34
-2 0 16 13.23 0.34
-2 0 18 34.32 0.85
-2 0 20 46.86 1.28
-2 0 22 0.08 0.21
-2 0 24 3.53 0.36
-2 0 26 7.91 0.53
-2 0 28 6.61 0.56
-2 0 30 0.11 0.39
-2 2 1 133.02 1.76
-2 2 2 85.01 0.74
-2 2 3 676.78 6.53
-2 2 4 150.64 4.55
-2 2 5 17.08 1.01
-2 2 6 42.78 1.14
-2 2 7 81.62 1.69
-2 2 8 78.78 1.24
-2 2 9 1.73 0.11
-2 2 10 16.39 0.21
-2 2 11 7.14 0.37
-2 2 12 42.02 1.01
-2 2 13 13.05 0.22
-2 2 14 2.94 0.18
-2 2 15 5.92 0.37
-2 2 16 9.04 0.33
-2 2 17 28.99 0.58
-2 2 18 18.26 0.42
-2 2 19 0.53 0.13
-2 2 20 0.08 0.14
-2 2 21 1.53 0.18
-2 2 22 0.94 0.16
-2 2 23 2.82 0.26
-2 2 24 1.25 0.17
-2 2 25 2.25 0.18
-2 2 26 0.52 0.23
-2 2 27 0.31 0.25
-2 2 28 3.99 0.52
-2 2 29 2.19 0.29
-2 2 30 0.00 0.30
-2 4 1 2.48 0.30
-2 4 2 12.89 0.14
-2 4 3 99.13 1.02
-2 4 4 197.51 2.62
-2 4 5 238.66 4.18
-2 4 6 592.38 10.32
-2 4 7 140.56 1.75
-2 4 8 5.82 0.33
-2 4 9 13.23 0.37
-2 4 10 20.96 0.30
-2 4 11 22.61 0.62
-2 4 12 8.11 0.25
-2 4 13 50.14 0.84
-2 4 14 23.57 0.44
-2 4 15 1.86 0.20
-2 4 16 4.07 0.31
-2 4 17 6.28 0.23
-2 4 18 3.22 0.27
-2 4 19 3.10 0.34
-2 4 20 6.23 0.43
-2 4 21 21.06 0.47
-2 4 22 0.23 0.15
-2 4 23 3.27 0.19
-2 4 24 2.75 0.21
-2 4 25 2.97 0.29
-2 4 26 1.34 0.25
-2 4 27 1.78 0.27
-2 4 28 0.12 0.25
-2 4 29 0.12 0.27
-2 4 30 1.23 0.30
-2 6 1 26.72 0.68
-2 6 2 11.55 0.48
-2 6 3 189.66 2.74
-2 6 4 764.78 14.18
-2 6 5 18.50 0.28
-2 6 6 109.40 2.69
-2 6 7 99.79 2.65
-2 6 8 79.35 1.09
-2 6 9 12.39 0.51
-2 6 10 104.61 1.67
-2 6 11 10.66 0.48
-2 6 12 14.76 0.43
-2 6 13 1.92 0.19
-2 6 14 2.11 0.16
-2 6 15 1.73 0.17
-2 6 16 3.52 0.17
-2 6 17 0.30 0.14
-2 6 18 16.03 0.41
-2 6 19 5.35 0.35
-2 6 20 17.76 0.51
-2 6 21 1.71 0.22
-2 6 22 0.37 0.23
-2 6 23 6.50 0.70
-2 6 24 0.17 0.19
-2 6 25 0.34 0.20
-2 6 26 3.63 0.40
-2 6 27 0.50 0.27
-2 6 28 1.12 0.27
-2 6 29 0.01 0.26
-2 6 30 0.55 0.38
-2 8 1 0.01 0.09
-2 8 2 0.69 0.10
-2 8 3 66.85 1.36
-2 8 4 104.41 2.21
-2 8 5 299.70 5.76
-2 8 6 24.85 0.29
-2 8 7 1.50 0.09
-2 8 8 69.52 1.92
-2 8 9 5.05 0.26
-2 8 10 3.72 0.41
-2 8 11 46.65 0.86
-2 8 12 5.62 0.37
-2 8 13 15.15 0.43
-2 8 14 1.24 0.22
-2 8 15 8.83 0.33
-2 8 16 1.88 0.28
-2 8 17 12.31 0.34
-2 8 18 13.07 0.41
-2 8 19 3.39 0.23
-2 8 20 2.34 0.38
-2 8 21 0.53 0.21
-2 8 22 1.73 0.26
-2 8 23 1.01 0.23
-2 8 24 1.30 0.25
-2 8 25 3.64 0.44
-2 8 26 0.28 0.24
-2 8 27 0.80 0.31
-2 8 28 0.01 0.30
-2 8 29 0.35 0.33
-2 8 30 0.24 0.33
-2 10 1 11.00 0.28
-2 10 2 15.90 0.45
-2 10 3 85.99 1.63
-2 10 4 35.54 0.51
-2 10 5 76.67 1.03
-2 10 6 29.01 0.53
-2 10 7 26.55 1.37
-2 10 8 211.20 3.98
-2 10 9 5.68 0.55
-2 10 10 137.51 2.65
-2 10 11 68.31 1.54
-2 10 12 73.01 1.74
-2 10 13 13.34 0.42
-2 10 14 8.90 0.27
-2 10 15 1.49 0.23
-2 10 16 21.58 0.57
-2 10 17 6.61 0.30
-2 10 18 1.92 0.21
-2 10 19 1.53 0.21
-2 10 20 9.01 0.35
-2 10 21 8.60 0.55
-2 10 22 0.17 0.21
-2 10 23 0.49 0.22
-2 10 24 2.95 0.31
-2 10 25 3.47 0.33
-2 10 26 0.04 0.29
-2 10 27 0.40 0.51
-2 10 28 0.88 0.32
-2 10 29 0.29 0.33
-2 12 1 36.89 0.60
-2 12 2 57.01 1.33
-2 12 3 84.83 1.50
-2 12 4 0.00 0.10
-2 12 5 105.43 1.44
-2 12 6 35.61 0.37
-2 12 7 109.87 1.88
-2 12 8 34.15 0.70
-2 12 9 44.87 0.88
-2 12 10 24.56 0.70
-2 12 11 0.35 0.11
-2 12 12 1.41 0.12
-2 12 13 12.24 0.54
-2 12 14 1.37 0.23
-2 12 15 0.00 0.15
-2 12 16 0.08 0.18
-2 12 17 35.31 0.77
-2 12 18 7.08 0.44
-2 12 19 5.05 0.28
-2 12 20 2.79 0.43
-2 12 21 7.31 0.43
-2 12 22 1.73 0.27
-2 12 23 11.34 0.97
-2 12 24 0.23 0.28
-2 12 25 0.04 0.28
-2 12 26 0.58 0.29
-2 12 27 0.00 0.39
-2 12 28 2.56 0.36
-2 14 1 44.16 0.73
-2 14 2 2.41 0.15
-2 14 3 0.73 0.17
-2 14 4 0.33 0.14
-2 14 5 38.72 0.60
-2 14 6 4.50 0.19
-2 14 7 1.89 0.12
-2 14 8 0.88 0.10
-2 14 9 4.56 0.36
-2 14 10 15.13 0.33
-2 14 11 1.41 0.14
-2 14 12 1.90 0.17
-2 14 13 19.60 0.44
-2 14 14 21.39 0.55
-2 14 15 37.41 0.99
-2 14 16 0.99 0.21
-2 14 17 1.84 0.24
-2 14 18 1.46 0.24
-2 14 19 0.88 0.24
-2 14 20 1.01 0.25
-2 14 21 0.06 0.24
-2 14 22 1.46 0.27
-2 14 23 6.03 0.43
-2 14 24 0.96 0.29
-2 14 25 0.03 0.35
-2 14 26 0.00 0.28
-2 14 27 0.10 0.31
-2 14 28 0.49 0.31
-2 16 1 23.01 0.39
-2 16 2 4.30 0.19
-2 16 3 1.02 0.13
-2 16 4 67.85 1.27
-2 16 5 6.44 0.21
-2 16 6 1.21 0.14
-2 16 7 17.99 0.33
-2 16 8 37.42 0.64
-2 16 9 4.61 0.22
-2 16 10 4.67 0.23
-2 16 11 23.23 0.44
-2 16 12 6.38 0.28
-2 16 13 20.47 0.51
-2 16 14 3.33 0.28
-2 16 15 9.72 0.38
-2 16 16 0.90 0.20
-2 16 17 3.86 0.59
-2 16 18 3.25 0.29
-2 16 19 0.56 0.37
-2 16 20 5.38 0.38
-2 16 21 0.04 0.25
-2 16 22 1.30 0.27
-2 16 23 0.09 0.27
-2 16 24 2.98 0.33
-2 16 25 0.01 0.28
-2 16 26 3.81 0.35
-2 16 27 0.22 0.30
-2 18 1 30.90 0.64
-2 18 2 20.77 0.46
-2 18 3 18.37 0.41
-2 18 4 4.34 0.24
-2 18 5 30.32 0.74
-2 18 6 11.16 0.29
-2 18 7 0.98 0.08
-2 18 8 4.33 0.22
-2 18 9 0.78 0.13
-2 18 10 1.40 0.15
-2 18 11 0.33 0.16
-2 18 12 4.08 0.26
-2 18 13 10.14 0.37
-2 18 14 0.11 0.17
-2 18 15 5.83 0.53
-2 18 16 4.42 0.31
-2 18 17 0.49 0.19
-2 18 18 2.28 0.24
-2 18 19 0.11 0.21
-2 18 20 5.18 0.35
-2 18 21 1.04 0.24
-2 18 22 4.34 0.53
-2 18 23 5.96 0.38
-2 18 24 1.26 0.27
-2 18 25 0.00 0.29
-2 18 26 1.16 0.39
-2 20 1 2.04 0.14
-2 20 2 5.52 0.24
-2 20 3 1.72 0.21
-2 20 4 35.74 0.92
-2 20 5 26.02 0.72
-2 20 6 20.85 0.51
-2 20 7 18.77 0.56
-2 20 8 8.09 0.40
-2 20 9 5.85 0.32
-2 20 10 1.56 0.22
-2 20 11 17.90 0.56
-2 20 12 13.92 0.50
-2 20 13 15.67 0.51
-2 20 14 7.67 0.37
-2 20 15 9.98 0.40
-2 20 16 0.27 0.22
-2 20 17 0.08 0.23
-2 20 18 0.34 0.30
-2 20 19 1.21 0.26
-2 20 20 0.43 0.27
-2 20 21 0.57 0.28
-2 20 22 0.09 0.28
-2 20 23 6.03 0.45
-2 20 24 0.97 0.30
-2 22 1 2.24 0.14
-2 22 2 9.59 0.39
-2 22 3 1.35 0.21
-2 22 4 52.34 1.31
-2 22 5 7.14 0.62
-2 22 6 0.18 0.29
-2 22 7 12.32 0.33
-2 22 8 0.07 0.16
-2 22 9 2.23 0.19
-2 22 10 0.86 0.18
-2 22 11 1.49 0.23
-2 22 12 0.22 0.19
-2 22 13 2.31 0.25
-2 22 14 0.49 0.22
-2 22 15 0.44 0.23
-2 22 16 6.56 0.38
-2 22 17 0.81 0.27
-2 22 18 5.85 0.40
-2 22 19 0.03 0.25
-2 22 20 1.54 0.29
-2 22 21 0.51 0.28
-2 22 22 1.86 0.31
-2 22 23 0.34 0.29
-2 24 1 0.32 0.19
-2 24 2 0.02 0.19
-2 24 3 3.36 0.29
-2 24 4 0.70 0.21
-2 24 5 3.65 0.28
-2 24 6 1.50 0.23
-2 24 7 0.04 0.37
-2 24 8 1.15 0.23
-2 24 9 5.23 0.37
-2 24 10 0.06 0.32
-2 24 11 3.89 0.39
-2 24 12 5.59 0.57
-2 24 13 4.88 0.48
-2 24 14 6.10 0.34
-2 24 15 11.00 0.47
-2 24 16 0.39 0.24
-2 24 17 0.19 0.25
-2 24 18 0.13 0.26
-2 24 19 3.04 0.30
-2 24 20 0.01 0.29
-2 24 21 0.54 0.30
-2 26 1 10.67 0.65
-2 26 2 4.97 0.33
-2 26 3 0.53 0.21
-2 26 4 0.61 0.22
-2 26 5 11.21 0.58
-2 26 6 1.02 0.23
-2 26 7 4.36 0.31
-2 26 8 1.52 0.44
-2 26 9 0.32 0.24
-2 26 10 7.83 0.44
-2 26 11 0.00 0.41
-2 26 12 0.83 0.32
-2 26 13 5.37 0.50
-2 26 14 0.64 0.33
-2 26 15 5.32 0.47
-2 26 16 0.15 0.34
-2 26 17 0.84 0.37
-2 26 18 0.05 0.36
-2 26 19 0.00 0.36
-2 28 1 1.15 0.23
-2 28 2 0.26 0.22
-2 28 3 2.75 0.25
-2 28 4 0.84 0.23
-2 28 5 0.75 0.24
-2 28 6 0.14 0.23
-2 28 7 3.14 0.32
-2 28 8 14.26 0.53
-2 28 9 1.36 0.27
-2 28 10 2.72 0.32
-2 28 11 4.79 0.42
-2 28 12 0.51 0.40
-2 28 13 0.07 0.32
-2 28 14 1.06 0.36
-2 28 15 0.51 0.39
-2 28 16 1.43 0.37
-2 30 1 1.54 0.38
-2 30 2 1.60 0.38
-2 30 3 12.18 0.71
-2 30 4 1.24 0.26
-2 30 5 6.12 0.40
-2 30 6 1.98 0.28
-2 30 7 1.04 0.27
-2 30 8 1.24 0.29
-2 30 9 0.65 0.35
-2 30 10 0.00 0.31
-2 30 11 0.39 0.33
-2 30 12 0.62 0.37
-2 30 13 3.17 0.51
-2 32 1 0.90 0.38
-2 32 2 14.15 0.77
-2 32 3 1.10 0.40
-2 32 4 1.00 0.38
-2 32 5 2.00 0.49
-2 32 6 0.19 0.39
-2 32 7 4.31 0.48
-1 1 1 258.28 4.10
-1 1 2 15.91 0.03
-1 1 3 40.03 0.79
-1 1 4 70.14 0.97
-1 1 5 168.09 3.26
-1 1 6 114.24 2.07
-1 1 7 7.05 0.26
-1 1 8 29.33 0.87
-1 1 9 8.34 0.32
-1 1 10 0.03 0.17
-1 1 11 17.45 0.26
-1 1 12 0.22 0.14
-1 1 13 6.31 0.32
-1 1 14 13.48 0.36
-1 1 15 6.49 0.16
-1 1 16 3.51 0.18
-1 1 17 11.08 0.39
-1 1 18 1.62 0.16
-1 1 19 26.00 0.74
-1 1 20 1.24 0.15
-1 1 21 0.00 0.14
-1 1 22 14.10 0.35
-1 1 23 2.30 0.18
-1 1 24 6.53 0.25
-1 1 25 0.39 0.23
-1 1 26 0.03 0.23
-1 1 27 0.08 0.24
-1 1 28 0.36 0.26
-1 1 29 1.59 0.40
-1 1 30 0.41 0.28
-1 3 2 4.92 0.09
-1 3 3 1.00 0.11
-1 3 4 70.05 1.14
-1 3 5 15.43 1.08
-1 3 6 25.61 0.49
-1 3 7 110.49 1.46
-1 3 8 8.81 0.38
-1 3 9 2.77 0.11
-1 3 10 21.54 0.33
-1 3 11 103.70 1.60
-1 3 12 18.35 0.58
-1 3 13 54.32 1.26
-1 3 14 1.06 0.15
-1 3 15 2.19 0.13
-1 3 16 8.95 0.29
-1 3 17 2.48 0.15
-1 3 18 1.50 0.15
-1 3 19 0.01 0.13
-1 3 20 0.89 0.15
-1 3 21 8.61 0.27
-1 3 22 1.17 0.16
-1 3 23 0.00 0.17
-1 3 24 0.01 0.22
-1 3 25 1.04 0.24
-1 3 26 0.39 0.23
-1 3 27 0.16 0.25
-1 3 28 0.33 0.25
-1 3 29 2.02 0.29
-1 3 30 0.39 0.28
-1 5 1 36.76 1.30
-1 5 2 175.46 3.70
-1 5 3 17.10 0.32
-1 5 4 847.18 17.80
-1 5 5 39.14 0.49
-1 5 6 120.40 1.96
-1 5 7 248.06 5.20
-1 5 8 6.66 0.22
-1 5 9 0.22 0.19
-1 5 10 2.04 0.13
-1 5 11 3.91 0.11
-1 5 12 13.75 0.34
-1 5 13 1.18 0.12
-1 5 14 9.58 0.21
-1 5 15 2.72 0.27
-1 5 16 0.85 0.18
-1 5 17 0.53 0.17
-1 5 18 6.92 0.32
-1 5 19 0.36 0.20
-1 5 20 0.43 0.20
-1 5 21 1.17 0.20
-1 5 22 12.53 0.36
-1 5 23 6.27 0.30
-1 5 24 7.41 0.36
-1 5 25 0.04 0.23
-1 5 26 0.16 0.24
-1 5 27 0.16 0.25
-1 5 28 0.01 0.25
-1 5 29 1.28 0.28
-1 5 30 2.33 0.31
-1 7 1 57.70 1.26
-1 7 2 117.66 2.17
-1 7 3 19.33 0.60
-1 7 4 1.74 0.18
-1 7 5 161.29 2.42
-1 7 6 3.46 0.46
-1 7 7 5.82 0.37
-1 7 8 1.89 0.19
-1 7 9 87.33 1.41
-1 7 10 3.34 0.19
-1 7 11 43.00 0.91
-1 7 12 58.05 1.26
-1 7 13 9.87 0.29
-1 7 14 12.20 0.41
-1 7 15 0.53 0.17
-1 7 16 0.81 0.16
-1 7 17 7.31 0.31
-1 7 18 0.52 0.17
-1 7 19 6.75 0.32
-1 7 20 9.47 0.37
-1 7 21 0.14 0.20
-1 7 22 7.93 0.51
-1 7 23 0.67 0.22
-1 7 24 4.08 0.35
-1 7 25 0.52 0.24
-1 7 26 0.00 0.24
-1 7 27 0.43 0.25
-1 7 28 0.30 0.26
-1 7 29 1.52 0.34
-1 7 30 0.62 0.32
-1 9 1 58.53 1.51
-1 9 2 0.92 0.16
-1 9 3 121.28 1.35
-1 9 4 13.15 0.14
-1 9 5 8.68 0.38
-1 9 6 6.10 0.13
-1 9 7 107.27 1.86
-1 9 8 60.82 1.14
-1 9 9 62.73 1.74
-1 9 10 45.56 1.90
-1 9 11 51.84 0.96
-1 9 12 5.52 0.36
-1 9 13 28.75 0.71
-1 9 14 7.86 0.42
-1 9 15 22.53 0.55
-1 9 16 4.64 0.40
-1 9 17 2.70 0.19
-1 9 18 0.78 0.25
-1 9 19 0.04 0.18
-1 9 20 0.24 0.19
-1 9 21 0.11 0.20
-1 9 22 7.34 0.35
-1 9 23 0.06 0.21
-1 9 24 3.02 0.36
-1 9 25 1.71 0.26
-1 9 26 1.92 0.32
-1 9 27 0.00 0.29
-1 9 28 2.11 0.38
-1 9 29 1.65 0.34
-1 11 1 14.57 0.34
-1 11 2 12.60 0.39
-1 11 3 0.29 0.14
-1 11 4 111.79 1.11
-1 11 5 27.56 0.68
-1 11 6 215.74 3.93
-1 11 7 110.99 1.56
-1 11 8 77.91 1.58
-1 11 9 5.17 0.38
-1 11 10 2.51 0.24
-1 11 11 0.84 0.12
-1 11 12 0.33 0.12
-1 11 13 18.02 0.44
-1 11 14 1.22 0.14
-1 11 15 4.79 0.23
-1 11 16 4.01 0.18
-1 11 17 2.65 0.24
-1 11 18 7.04 0.31
-1 11 19 2.36 0.21
-1 11 20 19.72 0.51
-1 11 21 8.88 0.36
-1 11 22 1.87 0.23
-1 11 23 0.44 0.26
-1 11 24 2.29 0.31
-1 11 25 0.15 0.43
-1 11 26 1.10 0.30
-1 11 27 0.04 0.30
-1 11 28 0.25 0.31
-1 11 29 0.02 0.32
-1 13 1 116.55 1.58
-1 13 2 10.40 0.21
-1 13 3 2.01 0.28
-1 13 4 41.40 0.84
-1 13 5 2.46 0.14
-1 13 6 16.21 0.38
-1 13 7 10.39 0.28
-1 13 8 0.62 0.10
-1 13 9 24.66 0.64
-1 13 10 2.49 0.14
-1 13 11 21.39 0.51
-1 13 12 4.90 0.20
-1 13 13 3.39 0.31
-1 13 14 4.17 0.49
-1 13 15 0.58 0.16
-1 13 16 0.59 0.24
-1 13 17 1.48 0.20
-1 13 18 19.86 0.58
-1 13 19 6.24 0.44
-1 13 20 6.90 0.39
-1 13 21 1.00 0.26
-1 13 22 0.15 0.26
-1 13 23 0.14 0.26
-1 13 24 1.17 0.28
-1 13 25 3.60 0.33
-1 13 26 0.34 0.44
-1 13 27 5.52 0.49
-1 13 28 0.51 0.32
-1 15 1 69.02 1.20
-1 15 2 69.55 1.07
-1 15 3 44.32 0.97
-1 15 4 10.23 0.23
-1 15 5 0.04 0.08
-1 15 6 13.31 0.31
-1 15 7 6.33 0.18
-1 15 8 39.85 0.72
-1 15 9 37.05 0.75
-1 15 10 0.73 0.14
-1 15 11 12.42 0.42
-1 15 12 36.95 0.86
-1 15 13 1.42 0.17
-1 15 14 0.35 0.17
-1 15 15 1.91 0.22
-1 15 16 7.11 0.34
-1 15 17 16.40 0.58
-1 15 18 2.71 0.27
-1 15 19 9.16 0.42
-1 15 20 0.99 0.25
-1 15 21 1.84 0.36
-1 15 22 0.76 0.38
-1 15 23 0.40 0.29
-1 15 24 1.74 0.34
-1 15 25 0.91 0.30
-1 15 26 0.61 0.58
-1 15 27 0.01 0.30
-1 17 1 1.73 0.11
-1 17 2 37.05 0.72
-1 17 3 7.87 0.36
-1 17 4 6.95 0.22
-1 17 5 6.97 0.18
-1 17 6 21.80 0.39
-1 17 7 12.53 0.23
-1 17 8 0.03 0.09
-1 17 9 0.67 0.12
-1 17 10 3.97 0.24
-1 17 11 1.65 0.17
-1 17 12 17.05 0.38
-1 17 13 11.00 0.43
-1 17 14 28.50 0.67
-1 17 15 3.16 0.26
-1 17 16 13.89 0.47
-1 17 17 4.53 0.32
-1 17 18 0.03 0.20
-1 17 19 0.58 0.21
-1 17 20 6.09 0.35
-1 17 21 0.32 0.23
-1 17 22 0.13 0.27
-1 17 23 0.40 0.28
-1 17 24 3.91 0.37
-1 17 25 1.06 0.31
-1 17 26 1.55 0.33
-1 19 1 37.32 0.68
-1 19 2 7.73 0.43
-1 19 3 5.54 0.14
-1 19 4 2.49 0.14
-1 19 5 1.89 0.09
-1 19 6 6.22 0.32
-1 19 7 0.61 0.15
-1 19 8 5.16 0.21
-1 19 9 37.10 0.69
-1 19 10 3.37 0.24
-1 19 11 18.23 0.46
-1 19 12 4.05 0.34
-1 19 13 15.89 0.42
-1 19 14 3.77 0.43
-1 19 15 6.19 0.31
-1 19 16 3.97 0.24
-1 19 17 12.23 0.46
-1 19 18 0.75 0.31
-1 19 19 5.48 0.40
-1 19 20 0.08 0.26
-1 19 21 1.66 0.29
-1 19 22 0.14 0.28
-1 19 23 0.53 0.30
-1 19 24 0.41 0.30
-1 19 25 0.00 0.30
-1 21 1 72.49 1.49
-1 21 2 16.41 0.43
-1 21 3 16.06 0.39
-1 21 4 9.81 0.40
-1 21 5 10.31 0.31
-1 21 6 2.92 0.17
-1 21 7 14.78 0.38
-1 21 8 1.21 0.18
-1 21 9 10.35 0.33
-1 21 10 4.72 0.25
-1 21 11 1.32 0.21
-1 21 12 0.62 0.19
-1 21 13 0.18 0.20
-1 21 14 0.05 0.21
-1 21 15 1.40 0.24
-1 21 16 4.51 0.36
-1 21 17 10.17 0.44
-1 21 18 2.42 0.28
-1 21 19 0.76 0.31
-1 21 20 2.69 0.30
-1 21 21 0.28 0.28
-1 21 22 1.21 0.30
-1 21 23 0.00 0.35
-1 23 1 24.21 0.59
-1 23 2 25.03 0.61
-1 23 3 24.08 0.59
-1 23 4 1.25 0.15
-1 23 5 0.46 0.15
-1 23 6 7.45 0.37
-1 23 7 4.27 0.26
-1 23 8 14.03 0.42
-1 23 9 2.18 0.30
-1 23 10 4.11 0.27
-1 23 11 0.60 0.29
-1 23 12 17.67 0.54
-1 23 13 0.25 0.21
-1 23 14 6.49 0.36
-1 23 15 0.36 0.23
-1 23 16 14.19 0.54
-1 23 17 1.82 0.27
-1 23 18 2.79 0.33
-1 23 19 1.26 0.28
-1 23 20 0.24 0.27
-1 23 21 0.49 0.31
-1 23 22 0.00 0.29
-1 25 1 4.61 0.28
-1 25 2 5.71 0.32
-1 25 3 2.69 0.26
-1 25 4 4.12 0.33
-1 25 5 0.59 0.20
-1 25 6 1.10 0.31
-1 25 7 0.03 0.22
-1 25 8 1.09 0.25
-1 25 9 11.15 0.46
-1 25 10 9.03 0.43
-1 25 11 8.50 0.50
-1 25 12 0.18 0.29
-1 25 13 0.04 0.50
-1 25 14 0.90 0.32
-1 25 15 0.01 0.24
-1 25 16 4.66 0.44
-1 25 17 0.97 0.28
-1 25 18 1.10 0.28
-1 25 19 9.27 0.48
-1 25 20 0.71 0.29
-1 27 1 3.85 0.27
-1 27 2 0.89 0.45
-1 27 3 3.57 0.28
-1 27 4 8.10 0.38
-1 27 5 1.80 0.28
-1 27 6 0.20 0.23
-1 27 7 0.01 0.23
-1 27 8 0.61 0.24
-1 27 9 2.19 0.29
-1 27 10 0.24 0.25
-1 27 11 1.47 0.33
-1 27 12 0.43 0.33
-1 27 13 0.37 0.32
-1 27 14 2.60 0.39
-1 27 15 1.48 0.36
-1 27 16 2.84 0.41
-1 27 17 0.01 0.35
-1 29 1 0.23 0.35
-1 29 2 14.63 0.72
-1 29 3 4.97 0.55
-1 29 4 1.65 0.26
-1 29 5 1.02 0.25
-1 29 6 0.84 0.30
-1 29 7 2.02 0.29
-1 29 8 1.47 0.27
-1 29 9 0.19 0.26
-1 29 10 1.21 0.48
-1 29 11 0.60 0.36
-1 29 12 1.16 0.36
-1 29 13 0.00 0.61
-1 29 14 0.32 0.34
-1 31 1 4.78 0.52
-1 31 2 3.41 0.42
-1 31 3 1.45 0.38
-1 31 4 0.45 0.47
-1 31 5 0.17 0.35
-1 31 6 1.07 0.57
-1 31 7 3.12 0.43
-1 31 8 0.76 0.27
-1 31 9 8.57 0.49
-1 31 10 0.79 0.35
-1 33 1 2.81 0.45
-1 33 2 0.22 0.53
0 0 2 1738.83 35.71
0 0 4 7.87 0.19
0 0 6 0.10 0.25
0 0 8 76.05 2.47
0 0 10 50.01 0.65
0 0 12 106.55 2.76
0 0 14 14.93 0.48
0 0 16 0.81 0.36
0 0 18 15.27 0.41
0 0 20 6.97 0.32
0 0 22 0.06 0.19
0 0 24 0.89 0.57
0 0 26 4.08 1.90
0 0 28 0.00 0.35
0 0 30 0.97 0.39
0 2 1 28.38 0.04
0 2 2 0.54 0.14
0 2 3 38.86 1.31
0 2 4 21.17 0.73
0 2 5 332.74 2.63
0 2 6 30.93 1.00
0 2 7 100.11 2.31
0 2 8 44.71 0.74
0 2 9 0.06 0.13
0 2 10 3.78 0.18
0 2 11 0.37 0.19
0 2 12 5.99 0.27
0 2 13 2.50 0.46
0 2 14 0.24 0.12
0 2 15 1.66 0.12
0 2 16 10.98 0.26
0 2 17 11.76 0.28
0 2 18 7.24 0.22
0 2 19 0.65 0.13
0 2 20 13.94 0.35
0 2 21 1.58 0.19
0 2 22 0.74 0.17
0 2 23 4.28 0.56
0 2 24 0.00 0.22
0 2 25 3.69 0.27
0 2 26 0.17 0.36
0 2 27 0.03 0.24
0 2 28 0.34 0.29
0 2 29 0.00 0.26
0 2 30 0.00 0.28
0 4 0 307.22 2.75
0 4 1 808.99 6.13
0 4 2 6.89 0.41
0 4 3 19.13 0.59
0 4 4 241.54 3.02
0 4 5 137.46 3.46
0 4 6 54.86 0.65
0 4 7 26.57 0.86
0 4 8 3.24 0.17
0 4 9 13.34 0.59
0 4 10 15.24 0.66
0 4 11 7.59 0.21
0 4 12 0.19 0.14
0 4 13 0.67 0.21
0 4 14 10.09 0.32
0 4 15 39.15 0.76
0 4 16 26.75 0.65
0 4 17 0.84 0.32
0 4 18 13.99 0.41
0 4 19 2.46 0.46
0 4 20 11.74 0.49
0 4 21 1.47 0.18
0 4 22 2.00 0.33
0 4 23 2.04 0.24
0 4 24 0.56 0.23
0 4 25 8.57 0.54
0 4 26 2.68 0.28
0 4 27 0.26 0.25
0 4 28 0.02 0.24
0 4 29 0.00 0.26
0 4 30 0.14 0.28
0 6 0 45.43 0.15
0 6 1 102.23 1.49
0 6 2 127.37 2.29
0 6 3 6.58 0.09
0 6 4 64.09 1.93
0 6 5 129.69 2.88
0 6 6 7.83 0.10
0 6 7 1.36 0.15
0 6 8 9.47 0.37
0 6 9 9.41 0.66
0 6 10 66.74 1.12
0 6 11 3.44 0.30
0 6 12 27.53 1.44
0 6 13 42.42 0.94
0 6 14 4.54 0.59
0 6 15 0.02 0.15
0 6 16 19.09 0.46
0 6 17 1.70 0.18
0 6 18 28.20 0.73
0 6 19 1.52 0.21
0 6 20 1.84 0.23
0 6 21 0.35 0.21
0 6 22 1.72 0.22
0 6 23 0.79 0.22
0 6 24 0.01 0.22
0 6 25 0.14 0.23
0 6 26 3.27 0.30
0 6 27 0.57 0.25
0 6 28 0.36 0.26
0 6 29 0.56 0.28
0 6 30 0.88 0.29
0 8 0 51.51 1.23
0 8 1 0.89 0.07
0 8 2 62.01 0.92
0 8 3 15.58 0.44
0 8 4 3.80 0.17
0 8 5 32.30 0.91
0 8 6 4.38 0.41
0 8 7 148.45 3.06
0 8 8 45.64 0.78
0 8 9 44.20 0.58
0 8 10 0.74 0.12
0 8 11 38.29 0.65
0 8 12 4.81 0.33
0 8 13 5.45 0.22
0 8 14 8.24 0.33
0 8 15 4.92 0.56
0 8 16 0.67 0.16
0 8 17 7.71 0.38
0 8 18 1.16 0.20
0 8 19 0.56 0.19
0 8 20 8.94 0.56
0 8 21 7.79 0.36
0 8 22 1.91 0.37
0 8 23 5.10 0.34
0 8 24 0.29 0.23
0 8 25 4.74 0.62
0 8 26 2.60 0.27
0 8 27 0.00 0.25
0 8 28 0.58 0.36
0 8 29 1.28 0.34
0 10 0 41.42 0.42
0 10 1 106.65 1.68
0 10 2 41.47 0.92
0 10 3 49.06 0.98
0 10 4 29.14 0.59
0 10 5 28.47 0.45
0 10 6 9.12 0.26
0 10 7 84.07 1.44
0 10 8 3.06 0.16
0 10 9 4.53 0.17
0 10 10 25.85 0.46
0 10 11 8.11 0.32
0 10 12 14.18 0.36
0 10 13 0.15 0.14
0 10 14 3.77 0.17
0 10 15 12.28 0.42
0 10 16 2.48 0.27
0 10 17 2.22 0.18
0 10 18 4.31 0.28
0 10 19 14.56 0.44
0 10 20 0.67 0.20
0 10 21 1.32 0.22
0 10 22 0.37 0.21
0 10 23 0.08 0.22
0 10 24 2.34 0.25
0 10 25 2.21 0.32
0 10 26 0.25 0.29
0 10 27 0.38 0.30
0 10 28 2.36 0.35
0 10 29 0.18 0.32
0 12 0 36.17 0.95
0 12 1 0.00 0.09
0 12 2 0.51 0.11
0 12 3 16.55 0.30
0 12 4 48.52 0.94
0 12 5 105.95 2.12
0 12 6 6.73 0.57
0 12 7 29.15 0.43
0 12 8 16.05 0.36
0 12 9 46.70 0.82
0 12 10 28.81 0.57
0 12 11 2.17 0.18
0 12 12 19.13 0.53
0 12 13 15.70 0.36
0 12 14 2.50 0.16
0 12 15 3.62 0.16
0 12 16 12.95 0.47
0 12 17 72.31 1.76
0 12 18 4.69 0.28
0 12 19 0.88 0.20
0 12 20 11.56 0.40
0 12 21 1.07 0.25
0 12 22 1.68 0.32
0 12 23 0.00 0.26
0 12 24 2.14 0.31
0 12 25 0.51 0.29
0 12 26 6.59 0.67
0 12 27 2.67 0.34
0 12 28 1.71 0.35
0 14 0 47.16 1.44
0 14 1 6.78 0.14
0 14 2 10.94 0.29
0 14 3 23.90 0.68
0 14 4 2.11 0.11
0 14 5 53.55 0.92
0 14 6 42.78 0.95
0 14 7 2.11 0.13
0 14 8 3.90 0.34
0 14 9 0.65 0.09
0 14 10 2.57 0.12
0 14 11 16.95 0.36
0 14 12 0.68 0.12
0 14 13 23.80 0.52
0 14 14 5.00 0.23
0 14 15 15.75 0.39
0 14 16 2.04 0.34
0 14 17 4.26 0.61
0 14 18 0.50 0.23
0 14 19 0.47 0.23
0 14 20 1.42 0.26
0 14 21 5.04 0.61
0 14 22 0.30 0.26
0 14 23 5.31 0.49
0 14 24 0.01 0.28
0 14 25 0.00 0.29
0 14 26 0.50 0.30
0 14 27 0.31 0.31
0 16 0 25.66 0.68
0 16 1 11.63 0.22
0 16 2 95.76 1.47
0 16 3 87.51 1.69
0 16 4 1.98 0.19
0 16 5 35.36 0.51
0 16 6 46.67 0.83
0 16 7 0.80 0.12
0 16 8 0.29 0.11
0 16 9 11.55 0.34
0 16 10 1.23 0.14
0 16 11 11.05 0.27
0 16 12 6.53 0.27
0 16 13 8.59 0.57
0 16 14 4.41 0.28
0 16 15 0.97 0.20
0 16 16 31.22 0.66
0 16 17 2.58 0.30
0 16 18 3.62 0.31
0 16 19 0.92 0.22
0 16 20 9.31 0.46
0 16 21 0.75 0.26
0 16 22 0.12 0.26
0 16 23 0.27 0.27
0 16 24 0.01 0.28
0 16 25 0.01 0.29
0 16 26 0.00 0.30
0 18 0 1.92 0.20
0 18 1 0.24 0.08
0 18 2 6.08 0.16
0 18 3 2.12 0.12
0 18 4 40.13 0.68
0 18 5 9.73 0.21
0 18 6 0.50 0.13
0 18 7 0.06 0.12
0 18 8 13.64 0.39
0 18 9 46.72 0.82
0 18 10 18.16 0.45
0 18 11 7.19 0.39
0 18 12 1.39 0.18
0 18 13 6.67 0.27
0 18 14 0.04 0.18
0 18 15 0.14 0.18
0 18 16 0.40 0.20
0 18 17 0.18 0.20
0 18 18 6.78 0.48
0 18 19 0.21 0.27
0 18 20 5.98 0.37
0 18 21 1.73 0.26
0 18 22 0.01 0.27
0 18 23 3.15 0.33
0 18 24 0.29 0.30
0 18 25 0.77 0.32
0 20 0 2.31 0.25
0 20 1 0.15 0.14
0 20 2 2.15 0.14
0 20 3 45.80 1.04
0 20 4 3.49 0.32
0 20 5 40.07 0.86
0 20 6 0.67 0.14
0 20 7 0.31 0.16
0 20 8 9.20 0.33
0 20 9 2.40 0.22
0 20 10 0.02 0.22
0 20 11 6.16 0.32
0 20 12 0.12 0.20
0 20 13 16.46 0.56
0 20 14 2.09 0.25
0 20 15 2.32 0.25
0 20 16 1.58 0.27
0 20 17 0.78 0.25
0 20 18 0.07 0.25
0 20 19 0.00 0.25
0 20 20 1.79 0.31
0 20 21 2.71 0.31
0 20 22 0.01 0.28
0 20 23 0.26 0.29
0 20 24 0.90 0.42
0 22 0 11.67 0.47
0 22 1 15.23 0.38
0 22 2 11.48 0.34
0 22 3 14.44 0.38
0 22 4 6.31 0.24
0 22 5 0.92 0.14
0 22 6 11.17 0.69
0 22 7 19.59 0.57
0 22 8 1.01 0.16
0 22 9 14.36 0.45
0 22 10 16.72 0.47
0 22 11 1.19 0.21
0 22 12 4.83 0.51
0 22 13 0.97 0.22
0 22 14 7.29 0.38
0 22 15 0.70 0.26
0 22 16 10.20 0.46
0 22 17 0.63 0.26
0 22 18 0.19 0.26
0 22 19 0.11 0.27
0 22 20 0.33 0.28
0 22 21 0.01 0.28
0 22 22 1.05 0.30
0 24 0 9.57 0.41
0 24 1 0.62 0.16
0 24 2 2.59 0.18
0 24 3 0.24 0.14
0 24 4 1.52 0.17
0 24 5 16.27 0.41
0 24 6 14.32 0.39
0 24 7 3.71 0.27
0 24 8 1.36 0.24
0 24 9 0.02 0.16
0 24 10 10.16 0.35
0 24 11 0.69 0.34
0 24 12 4.50 0.45
0 24 13 12.81 0.48
0 24 14 0.36 0.30
0 24 15 3.99 0.34
0 24 16 0.05 0.24
0 24 17 0.00 0.25
0 24 18 0.28 0.27
0 24 19 0.57 0.28
0 24 20 1.36 0.33
0 24 21 0.87 0.39
0 26 0 3.54 0.32
0 26 1 3.23 0.28
0 26 2 4.58 0.32
0 26 3 22.16 0.64
0 26 4 6.79 0.37
0 26 5 14.30 0.52
0 26 6 0.30 0.22
0 26 7 0.01 0.22
0 26 8 3.83 0.39
0 26 9 1.14 0.24
0 26 10 0.15 0.24
0 26 11 0.64 0.31
0 26 12 0.28 0.30
0 26 13 8.77 0.58
0 26 14 0.67 0.33
0 26 15 2.58 0.37
0 26 16 1.36 0.36
0 26 17 0.00 0.34
0 26 18 4.49 0.41
0 28 0 1.88 0.49
0 28 1 0.63 0.33
0 28 2 1.66 0.41
0 28 3 3.32 0.40
0 28 4 2.27 0.40
0 28 5 1.82 0.25
0 28 6 16.72 0.59
0 28 7 3.41 0.55
0 28 8 13.64 0.52
0 28 9 0.18 0.26
0 28 10 4.77 0.36
0 28 11 0.60 0.34
0 28 12 5.61 0.53
0 28 13 0.16 0.32
0 28 14 0.56 0.35
0 28 15 1.33 0.37
0 28 16 0.03 0.36
0 30 0 0.13 0.50
0 30 1 0.16 0.52
0 30 2 0.02 0.35
0 30 3 0.10 0.49
0 30 4 3.16 0.62
0 30 5 1.56 0.39
0 30 6 9.82 0.66
0 30 7 2.95 0.52
0 30 8 3.00 0.31
0 30 9 4.98 0.38
0 30 10 0.04 0.27
0 30 11 10.60 0.60
0 30 12 3.16 1.19
0 32 0 3.42 0.61
0 32 1 0.27 0.39
0 32 2 0.00 0.39
0 32 3 3.76 0.46
0 32 4 0.34 0.39
0 32 5 1.24 0.41
0 32 6 0.59 0.56
0 32 7 0.08 0.53
1 1 0 80.49 0.55
1 1 2 346.93 3.90
1 1 3 115.07 0.94
1 1 4 833.16 16.50
1 1 5 1.88 0.23
1 1 6 5.72 0.28
1 1 7 1.59 0.10
1 1 8 4.85 0.26
1 1 9 13.61 0.34
1 1 10 3.04 0.10
1 1 11 11.03 0.68
1 1 12 20.03 0.35
1 1 13 19.05 0.30
1 1 14 10.96 0.24
1 1 15 5.83 0.15
1 1 16 3.58 0.16
1 1 17 0.43 0.14
1 1 18 0.49 0.11
1 1 19 10.73 0.31
1 1 20 0.82 0.44
1 1 21 2.06 0.16
1 1 22 12.89 0.42
1 1 23 0.44 0.22
1 1 24 0.46 0.31
1 1 25 0.41 0.24
1 1 26 0.84 0.25
1 1 27 0.02 0.25
1 1 28 0.23 0.26
1 1 29 1.05 0.29
1 1 30 0.54 0.28
1 3 0 0.66 0.07
1 3 1 365.47 3.97
1 3 2 263.22 3.42
1 3 3 280.04 5.09
1 3 4 89.34 1.92
1 3 5 42.92 0.36
1 3 6 90.57 2.73
1 3 7 5.52 0.12
1 3 8 6.48 0.61
1 3 9 70.40 1.39
1 3 10 1.77 0.24
1 3 11 4.55 0.41
1 3 12 1.41 0.24
1 3 13 2.19 0.21
1 3 14 1.35 0.19
1 3 15 4.06 0.17
1 3 16 17.42 0.55
1 3 17 46.87 1.00
1 3 18 1.00 0.14
1 3 19 33.46 0.82
1 3 20 0.50 0.15
1 3 21 2.25 0.24
1 3 22 0.14 0.21
1 3 23 2.09 0.23
1 3 24 0.30 0.23
1 3 25 0.15 0.25
1 3 26 0.54 0.24
1 3 27 1.70 0.31
1 3 28 0.12 0.26
1 3 29 0.90 0.28
1 3 30 1.47 0.37
1 5 0 7.14 1.07
1 5 1 59.23 1.59
1 5 2 28.70 0.06
1 5 3 16.49 0.14
1 5 4 39.14 0.75
1 5 5 34.15 0.84
1 5 6 58.17 1.41
1 5 7 1.43 0.20
1 5 8 34.23 0.86
1 5 9 4.69 0.17
1 5 10 3.01 0.15
1 5 11 0.13 0.14
1 5 12 88.04 1.83
1 5 13 35.80 0.97
1 5 14 5.21 0.27
1 5 15 3.56 0.20
1 5 16 0.60 0.19
1 5 17 2.06 0.18
1 5 18 1.26 0.20
1 5 19 0.27 0.19
1 5 20 4.68 0.23
1 5 21 0.92 0.20
1 5 22 16.68 0.73
1 5 23 1.98 0.44
1 5 24 8.16 0.70
1 5 25 0.39 0.24
1 5 26 1.09 0.25
1 5 27 1.04 0.26
1 5 28 0.01 0.25
1 5 29 0.00 0.27
1 5 30 1.02 0.40
1 7 0 8.27 0.63
1 7 1 15.62 0.11
1 7 2 35.72 1.03
1 7 3 7.46 0.24
1 7 4 0.81 0.13
1 7 5 46.30 1.15
1 7 6 9.24 0.73
1 7 7 0.13 0.12
1 7 8 30.00 0.62
1 7 9 0.88 0.24
1 7 10 3.78 0.24
1 7 11 5.75 0.22
1 7 12 14.51 0.57
1 7 13 3.17 0.41
1 7 14 3.52 0.21
1 7 15 3.94 0.38
1 7 16 10.68 0.33
1 7 17 11.30 0.33
1 7 18 7.29 0.33
1 7 19 8.12 0.35
1 7 20 4.74 0.31
1 7 21 5.26 0.44
1 7 22 4.39 0.35
1 7 23 1.06 0.22
1 7 24 0.13 0.23
1 7 25 0.01 0.23
1 7 26 0.53 0.33
1 7 27 0.31 0.26
1 7 28 0.00 0.26
1 7 29 0.51 0.28
1 9 0 16.83 0.30
1 9 1 0.42 0.21
1 9 2 19.15 0.20
1 9 3 0.13 0.07
1 9 4 7.89 0.07
1 9 5 34.99 1.15
1 9 6 99.06 1.88
1 9 7 38.80 0.77
1 9 8 3.02 0.21
1 9 9 48.03 0.79
1 9 10 0.83 0.13
1 9 11 130.35 3.10
1 9 12 2.17 0.22
1 9 13 6.82 0.27
1 9 14 48.07 0.97
1 9 15 9.98 0.32
1 9 16 18.28 0.43
1 9 17 2.07 0.28
1 9 18 1.24 0.18
1 9 19 2.59 0.37
1 9 20 0.87 0.20
1 9 21 2.12 0.23
1 9 22 0.21 0.21
1 9 23 0.38 0.22
1 9 24 2.62 0.26
1 9 25 0.08 0.24
1 9 26 0.37 0.25
1 9 27 0.00 0.30
1 9 28 0.04 0.33
1 9 29 4.34 0.45
1 11 0 7.08 0.05
1 11 1 26.16 0.42
1 11 2 5.68 0.12
1 11 3 0.31 0.06
1 11 4 35.94 1.00
1 11 5 11.99 0.18
1 11 6 153.06 1.77
1 11 7 14.19 0.15
1 11 8 33.84 0.72
1 11 9 27.56 0.81
1 11 10 0.86 0.11
1 11 11 1.71 0.13
1 11 12 44.84 0.93
1 11 13 3.54 0.25
1 11 14 21.68 0.52
1 11 15 1.91 0.20
1 11 16 1.52 0.20
1 11 17 0.04 0.18
1 11 18 1.81 0.27
1 11 19 7.80 0.36
1 11 20 0.62 0.21
1 11 21 0.54 0.21
1 11 22 0.69 0.22
1 11 23 2.62 0.30
1 11 24 3.52 0.62
1 11 25 0.68 0.30
1 11 26 0.64 0.31
1 11 27 1.29 0.33
1 11 28 0.59 0.32
1 13 0 16.99 0.26
1 13 1 94.54 1.90
1 13 2 10.39 0.18
1 13 3 1.76 0.13
1 13 4 33.86 0.51
1 13 5 25.79 0.28
1 13 6 31.46 0.40
1 13 7 5.69 0.27
1 13 8 0.40 0.15
1 13 9 32.56 0.51
1 13 10 10.19 0.28
1 13 11 6.12 0.21
1 13 12 3.16 0.25
1 13 13 13.37 0.38
1 13 14 30.34 0.68
1 13 15 2.09 0.17
1 13 16 35.89 0.80
1 13 17 10.12 0.35
1 13 18 9.31 0.68
1 13 19 10.33 0.44
1 13 20 0.62 0.25
1 13 21 0.04 0.25
1 13 22 2.89 0.34
1 13 23 0.29 0.28
1 13 24 0.24 0.28
1 13 25 3.14 0.73
1 13 26 1.79 0.33
1 13 27 0.12 0.31
1 15 0 9.46 0.21
1 15 1 6.91 0.12
1 15 2 0.00 0.08
1 15 3 27.18 0.54
1 15 4 0.62 0.08
1 15 5 15.05 0.58
1 15 6 46.14 0.79
1 15 7 16.92 0.47
1 15 8 6.32 0.24
1 15 9 20.70 0.40
1 15 10 2.06 0.12
1 15 11 29.52 0.58
1 15 12 4.24 0.20
1 15 13 1.21 0.26
1 15 14 4.61 0.35
1 15 15 1.42 0.19
1 15 16 0.10 0.19
1 15 17 10.62 0.47
1 15 18 8.31 0.36
1 15 19 3.13 0.58
1 15 20 1.33 0.26
1 15 21 3.02 0.30
1 15 22 2.23 0.30
1 15 23 2.93 0.98
1 15 24 8.44 0.49
1 15 25 0.54 0.31
1 15 26 3.42 0.36
1 15 27 0.51 0.52
1 17 0 2.81 0.17
1 17 1 5.27 0.16
1 17 2 17.50 0.25
1 17 3 1.09 0.18
1 17 4 1.69 0.10
1 17 5 4.48 0.15
1 17 6 34.11 0.69
1 17 7 0.02 0.11
1 17 8 0.02 0.12
1 17 9 0.00 0.13
1 17 10 20.25 0.50
1 17 11 0.06 0.16
1 17 12 2.09 0.62
1 17 13 5.91 0.30
1 17 14 5.83 0.28
1 17 15 3.07 0.28
1 17 16 0.93 0.20
1 17 17 0.06 0.23
1 17 18 0.04 0.21
1 17 19 0.02 0.21
1 17 20 0.03 0.23
1 17 21 0.38 0.23
1 17 22 3.44 0.28
1 17 23 0.04 0.25
1 17 24 9.05 0.50
1 17 25 1.64 0.32
1 17 26 0.19 0.54
1 19 0 2.21 0.11
1 19 1 14.26 0.27
1 19 2 0.22 0.20
1 19 3 2.32 0.15
1 19 4 0.20 0.12
1 19 5 1.48 0.20
1 19 6 2.80 0.22
1 19 7 62.84 1.36
1 19 8 1.56 0.22
1 19 9 5.57 0.29
1 19 10 5.04 0.45
1 19 11 4.77 0.38
1 19 12 2.33 0.28
1 19 13 4.30 0.33
1 19 14 0.01 0.22
1 19 15 3.13 0.33
1 19 16 0.42 0.24
1 19 17 12.10 0.50
1 19 18 0.59 0.26
1 19 19 0.96 0.26
1 19 20 0.79 0.27
1 19 21 1.57 0.30
1 19 22 0.00 0.29
1 19 23 0.14 0.30
1 19 24 0.64 0.30
1 21 0 3.95 0.21
1 21 1 5.78 0.31
1 21 2 30.25 0.58
1 21 3 1.77 0.15
1 21 4 12.24 0.34
1 21 5 45.02 0.92
1 21 6 10.81 0.38
1 21 7 0.18 0.15
1 21 8 6.39 0.27
1 21 9 12.32 0.77
1 21 10 3.28 0.44
1 21 11 5.43 0.42
1 21 12 1.51 0.22
1 21 13 0.00 0.21
1 21 14 2.80 0.55
1 21 15 8.95 0.43
1 21 16 3.58 0.41
1 21 17 0.29 0.25
1 21 18 0.93 0.26
1 21 19 2.67 0.34
1 21 20 0.80 0.29
1 21 21 1.94 0.31
1 21 22 0.02 0.28
1 21 23 0.00 0.29
1 23 0 2.94 0.19
1 23 1 10.51 0.29
1 23 2 0.51 0.13
1 23 3 9.03 0.34
1 23 4 3.60 0.24
1 23 5 2.02 0.21
1 23 6 22.64 0.50
1 23 7 0.70 0.24
1 23 8 2.17 0.20
1 23 9 1.74 0.23
1 23 10 0.11 0.18
1 23 11 0.19 0.21
1 23 12 0.64 0.22
1 23 13 1.66 0.24
1 23 14 5.81 0.49
1 23 15 0.80 0.26
1 23 16 5.82 0.40
1 23 17 1.61 0.27
1 23 18 1.22 0.29
1 23 19 0.24 0.28
1 23 20 0.61 0.29
1 23 21 0.31 0.29
1 25 0 24.36 0.54
1 25 1 4.77 0.26
1 25 2 4.75 0.31
1 25 3 1.49 0.15
1 25 4 6.42 0.28
1 25 5 0.81 0.16
1 25 6 1.93 0.29
1 25 7 18.98 0.59
1 25 8 1.64 0.19
1 25 9 43.66 1.05
1 25 10 0.94 0.20
1 25 11 11.24 0.44
1 25 12 0.60 0.23
1 25 13 4.35 0.29
1 25 14 0.52 0.28
1 25 15 0.02 0.25
1 25 16 0.62 0.31
1 25 17 10.16 0.50
1 25 18 0.13 0.28
1 25 19 0.98 0.29
1 27 0 0.27 0.19
1 27 1 0.59 0.32
1 27 2 5.61 0.54
1 27 3 1.76 0.24
1 27 4 14.37 0.49
1 27 5 0.05 0.22
1 27 6 6.26 0.40
1 27 7 20.42 0.66
1 27 8 0.57 0.26
1 27 9 13.84 0.51
1 27 10 6.24 0.44
1 27 11 2.26 0.36
1 27 12 18.94 0.82
1 27 13 3.35 0.39
1 27 14 2.58 0.38
1 27 15 0.29 0.35
1 27 16 0.73 0.41
1 27 17 0.00 0.36
1 29 0 2.96 0.39
1 29 1 1.77 0.38
1 29 2 2.91 0.39
1 29 3 0.02 0.34
1 29 4 7.82 0.62
1 29 5 5.10 0.47
1 29 6 11.48 0.50
1 29 7 0.87 0.26
1 29 8 0.01 0.25
1 29 9 1.17 0.27
1 29 10 1.77 0.47
1 29 11 1.08 0.35
1 29 12 1.41 0.35
1 29 13 0.24 0.35
1 29 14 2.96 0.41
1 31 0 1.20 0.39
1 31 1 5.67 0.95
1 31 2 1.16 0.38
1 31 3 0.34 0.39
1 31 4 0.16 0.36
1 31 5 0.96 0.39
1 31 6 5.48 1.37
1 31 7 0.24 0.38
1 31 8 0.00 0.45
1 31 9 5.79 0.62
1 31 10 1.17 0.35
1 33 0 3.56 0.46
1 33 1 0.42 0.56
2 0 0 499.74 2.46
2 0 2 794.92 5.06
2 0 4 13.11 0.55
2 0 6 105.43 3.37
2 0 8 22.11 0.70
2 0 10 0.39 0.77
2 0 12 4.78 0.34
2 0 14 9.89 0.42
2 0 16 0.63 0.29
2 0 18 36.71 1.88
2 0 20 69.44 3.00
2 0 22 0.40 0.31
2 0 24 5.16 0.50
2 0 26 0.03 0.34
2 0 28 0.34 0.38
2 2 0 24.44 0.81
2 2 1 104.17 0.28
2 2 2 4.30 0.72
2 2 3 0.02 0.12
2 2 4 145.54 3.72
2 2 5 126.24 4.63
2 2 6 1.20 0.45
2 2 7 0.91 0.20
2 2 8 5.31 0.24
2 2 9 5.82 0.59
2 2 10 23.15 0.52
2 2 11 0.65 0.21
2 2 12 69.55 1.33
2 2 13 11.93 0.29
2 2 14 4.44 0.20
2 2 15 12.82 0.39
2 2 16 10.69 0.27
2 2 17 3.98 0.21
2 2 18 0.50 0.13
2 2 19 2.27 0.16
2 2 20 4.57 0.33
2 2 21 2.88 0.57
2 2 22 1.27 0.29
2 2 23 3.23 0.37
2 2 24 0.01 0.23
2 2 25 5.13 0.61
2 2 26 2.15 0.29
2 2 27 0.01 0.26
2 2 28 0.63 0.27
2 2 29 0.05 0.27
2 4 0 109.76 0.48
2 4 1 6.05 0.40
2 4 2 344.01 8.48
2 4 3 283.13 7.86
2 4 4 2.70 0.24
2 4 5 254.87 5.33
2 4 6 266.10 7.21
2 4 7 2.04 0.24
2 4 8 25.73 0.87
2 4 9 4.28 0.24
2 4 10 2.87 0.14
2 4 11 8.62 0.67
2 4 12 5.80 0.50
2 4 13 9.96 0.51
2 4 14 0.30 0.26
2 4 15 35.73 1.00
2 4 16 22.17 1.32
2 4 17 2.80 0.14
2 4 18 5.25 0.27
2 4 19 1.76 0.17
2 4 20 1.47 0.22
2 4 21 1.93 0.24
2 4 22 3.83 0.32
2 4 23 1.98 0.25
2 4 24 2.74 0.27
2 4 25 0.02 0.26
2 4 26 2.40 0.28
2 4 27 0.03 0.26
2 4 28 0.20 0.27
2 4 29 0.01 0.27
2 6 0 222.90 4.57
2 6 1 0.24 0.07
2 6 2 23.02 0.10
2 6 3 4.01 0.08
2 6 4 20.43 0.27
2 6 5 50.05 0.56
2 6 6 191.08 2.41
2 6 7 38.92 0.64
2 6 8 131.60 3.47
2 6 9 11.52 0.45
2 6 10 4.96 0.24
2 6 11 19.02 0.27
2 6 12 5.22 0.22
2 6 13 3.28 0.15
2 6 14 4.08 0.23
2 6 15 0.72 0.16
2 6 16 8.80 0.40
2 6 17 6.36 0.31
2 6 18 12.52 0.39
2 6 19 0.07 0.19
2 6 20 5.17 0.32
2 6 21 0.09 0.21
2 6 22 2.26 0.25
2 6 23 0.81 0.22
2 6 24 1.77 0.26
2 6 25 0.03 0.24
2 6 26 1.84 0.27
2 6 27 0.21 0.29
2 6 28 0.01 0.27
2 6 29 0.01 0.27
2 8 0 0.64 0.09
2 8 1 0.05 0.11
2 8 2 26.01 0.57
2 8 3 70.81 1.44
2 8 4 0.40 0.09
2 8 5 10.70 0.57
2 8 6 56.50 0.92
2 8 7 1.47 0.22
2 8 8 0.42 0.12
2 8 9 86.86 1.81
2 8 10 0.37 0.15
2 8 11 28.23 1.52
2 8 12 0.78 0.14
2 8 13 76.80 1.44
2 8 14 0.58 0.21
2 8 15 36.90 0.79
2 8 16 0.70 0.17
2 8 17 2.51 0.24
2 8 18 3.74 0.23
2 8 19 12.26 0.42
2 8 20 0.21 0.20
2 8 21 1.97 0.23
2 8 22 0.58 0.22
2 8 23 1.84 0.24
2 8 24 1.66 0.25
2 8 25 1.15 0.26
2 8 26 0.81 0.26
2 8 27 0.04 0.26
2 8 28 0.00 0.31
2 8 29 0.00 0.32
2 10 0 84.12 1.90
2 10 1 0.11 0.09
2 10 2 41.70 0.36
2 10 3 13.06 0.28
2 10 4 0.03 0.09
2 10 5 93.42 1.71
2 10 6 2.19 0.18
2 10 7 0.64 0.18
2 10 8 31.85 0.73
2 10 9 19.22 0.48
2 10 10 19.17 0.56
2 10 11 1.77 0.14
2 10 12 0.41 0.19
2 10 13 1.99 0.19
2 10 14 9.26 0.31
2 10 15 3.66 0.26
2 10 16 0.94 0.17
2 10 17 0.51 0.29
2 10 18 6.98 0.34
2 10 19 0.00 0.19
2 10 20 0.45 0.20
2 10 21 0.01 0.21
2 10 22 0.02 0.27
2 10 23 0.54 0.23
2 10 24 0.00 0.23
2 10 25 1.27 0.31
2 10 26 0.74 0.45
2 10 27 0.61 0.32
2 10 28 3.38 0.76
2 12 0 26.74 0.42
2 12 1 4.64 0.11
2 12 2 39.30 0.55
2 12 3 1.06 0.10
2 12 4 2.53 0.14
2 12 5 0.34 0.14
2 12 6 0.22 0.10
2 12 7 1.55 0.15
2 12 8 30.23 0.82
2 12 9 4.36 0.20
2 12 10 55.70 0.91
2 12 11 69.04 1.45
2 12 12 31.30 0.78
2 12 13 0.44 0.14
2 12 14 11.53 0.41
2 12 15 0.04 0.16
2 12 16 0.62 0.18
2 12 17 0.00 0.19
2 12 18 13.07 0.41
2 12 19 7.11 0.30
2 12 20 0.64 0.21
2 12 21 0.03 0.21
2 12 22 0.94 0.27
2 12 23 0.03 0.27
2 12 24 1.75 0.31
2 12 25 0.43 0.31
2 12 26 1.37 0.34
2 12 27 0.61 0.33
2 14 0 15.64 0.35
2 14 1 6.41 0.15
2 14 2 13.25 0.21
2 14 3 28.17 0.73
2 14 4 3.88 0.11
2 14 5 23.48 0.34
2 14 6 2.01 0.09
2 14 7 25.82 0.46
2 14 8 0.06 0.10
2 14 9 19.46 0.40
2 14 10 6.95 0.27
2 14 11 6.65 0.45
2 14 12 2.25 0.23
2 14 13 27.04 0.59
2 14 14 1.65 0.22
2 14 15 9.18 0.30
2 14 16 0.67 0.16
2 14 17 1.83 0.23
2 14 18 1.43 0.27
2 14 19 0.12 0.24
2 14 20 1.14 0.27
2 14 21 2.36 0.30
2 14 22 2.35 0.40
2 14 23 4.89 0.50
2 14 24 0.10 0.29
2 14 25 4.08 0.69
2 14 26 1.23 0.46
2 14 27 0.38 0.33
2 16 0 10.55 0.32
2 16 1 9.23 0.29
2 16 2 58.62 1.10
2 16 3 6.34 0.22
2 16 4 1.80 0.18
2 16 5 3.03 0.37
2 16 6 4.48 0.17
2 16 7 10.33 0.26
2 16 8 0.51 0.10
2 16 9 3.99 0.25
2 16 10 4.40 0.19
2 16 11 2.44 0.23
2 16 12 12.34 0.37
2 16 13 0.12 0.17
2 16 14 2.00 0.19
2 16 15 0.71 0.19
2 16 16 2.50 0.30
2 16 17 5.16 0.34
2 16 18 7.26 0.34
2 16 19 0.88 0.22
2 16 20 11.57 0.43
2 16 21 0.56 0.24
2 16 22 1.05 0.25
2 16 23 2.35 0.29
2 16 24 0.00 0.25
2 16 25 0.04 0.26
2 16 26 2.31 0.31
2 18 0 61.22 1.05
2 18 1 0.44 0.13
2 18 2 26.70 0.57
2 18 3 16.09 0.39
2 18 4 0.96 0.14
2 18 5 5.92 0.24
2 18 6 0.82 0.14
2 18 7 1.33 0.22
2 18 8 10.68 0.35
2 18 9 0.08 0.14
2 18 10 8.06 0.34
2 18 11 40.96 0.92
2 18 12 1.68 0.19
2 18 13 10.60 0.66
2 18 14 2.94 0.25
2 18 15 1.99 0.30
2 18 16 11.17 0.40
2 18 17 3.30 0.32
2 18 18 0.48 0.25
2 18 19 0.86 0.26
2 18 20 0.36 0.27
2 18 21 4.46 0.55
2 18 22 0.01 0.39
2 18 23 0.01 0.29
2 18 24 0.02 0.30
2 18 25 0.02 0.53
2 20 0 21.91 0.53
2 20 1 10.00 0.31
2 20 2 14.31 0.40
2 20 3 63.72 1.20
2 20 4 6.19 0.37
2 20 5 0.86 0.16
2 20 6 4.05 0.23
2 20 7 4.08 0.33
2 20 8 1.19 0.17
2 20 9 0.56 0.19
2 20 10 4.41 0.38
2 20 11 24.97 0.91
2 20 12 1.30 0.29
2 20 13 1.74 0.32
2 20 14 2.58 0.44
2 20 15 2.42 0.44
2 20 16 2.50 0.29
2 20 17 1.18 0.26
2 20 18 2.25 0.29
2 20 19 3.41 0.45
2 20 20 3.04 0.31
2 20 21 1.23 0.30
2 20 22 0.39 0.29
2 20 23 0.30 0.31
2 22 0 31.26 0.65
2 22 1 1.56 0.16
2 22 2 64.26 1.35
2 22 3 25.57 0.60
2 22 4 6.57 0.29
2 22 5 0.15 0.15
2 22 6 26.08 0.64
2 22 7 1.04 0.18
2 22 8 11.31 0.38
2 22 9 4.23 0.58
2 22 10 16.17 0.49
2 22 11 10.74 0.48
2 22 12 0.42 0.32
2 22 13 0.97 0.23
2 22 14 0.33 0.24
2 22 15 0.67 0.30
2 22 16 0.02 0.25
2 22 17 0.02 0.25
2 22 18 1.90 0.30
2 22 19 0.94 0.29
2 22 20 4.26 0.41
2 22 21 0.13 0.29
2 22 22 0.04 0.30
2 24 0 1.73 0.21
2 24 1 7.23 0.46
2 24 2 1.87 0.20
2 24 3 25.16 0.59
2 24 4 0.43 0.19
2 24 5 28.52 0.96
2 24 6 6.33 0.48
2 24 7 44.20 0.94
2 24 8 2.06 0.21
2 24 9 5.97 0.56
2 24 10 14.13 0.46
2 24 11 7.92 0.38
2 24 12 0.04 0.23
2 24 13 17.16 0.59
2 24 14 1.20 0.26
2 24 15 2.34 0.44
2 24 16 1.11 0.27
2 24 17 1.03 0.28
2 24 18 4.94 0.43
2 24 19 0.05 0.28
2 24 20 0.18 0.29
2 26 0 4.02 0.27
2 26 1 2.17 0.17
2 26 2 0.46 0.20
2 26 3 6.88 0.29
2 26 4 16.53 0.49
2 26 5 5.42 0.26
2 26 6 0.08 0.17
2 26 7 0.24 0.19
2 26 8 0.46 0.19
2 26 9 1.71 0.28
2 26 10 0.35 0.21
2 26 11 16.08 0.59
2 26 12 1.20 0.25
2 26 13 3.54 0.29
2 26 14 1.83 0.27
2 26 15 1.98 0.30
2 26 16 3.42 0.32
2 26 17 2.84 0.32
2 26 18 0.49 0.28
2 28 0 6.90 0.39
2 28 1 3.59 0.40
2 28 2 5.15 0.48
2 28 3 1.86 0.36
2 28 4 0.31 0.33
2 28 5 0.50 0.24
2 28 6 3.97 0.31
2 28 7 1.19 0.28
2 28 8 5.73 0.51
2 28 9 1.47 0.27
2 28 10 5.20 0.39
2 28 11 2.09 0.35
2 28 12 1.55 0.35
2 28 13 0.42 0.34
2 28 14 0.62 0.35
2 28 15 0.27 0.36
2 30 0 2.25 0.39
2 30 1 1.46 0.39
2 30 2 5.55 0.57
2 30 3 9.08 0.59
2 30 4 3.01 0.41
2 30 5 16.91 0.80
2 30 6 1.52 0.40
2 30 7 0.88 0.39
2 30 8 3.90 0.57
2 30 9 0.66 0.26
2 30 10 3.08 0.53
2 30 11 0.55 0.34
2 30 12 0.10 0.34
2 32 0 10.38 0.68
2 32 1 0.26 0.38
2 32 2 0.09 0.37
2 32 3 8.39 0.66
2 32 4 0.45 0.39
2 32 5 9.07 0.96
2 32 6 3.02 0.53
3 1 0 4.93 0.13
3 1 1 313.08 3.66
3 1 2 72.68 2.07
3 1 3 0.05 0.28
3 1 4 152.59 1.97
3 1 5 96.81 3.29
3 1 6 4.40 0.48
3 1 7 0.02 0.22
3 1 8 34.68 0.73
3 1 9 13.28 0.38
3 1 10 4.39 0.22
3 1 11 4.83 0.25
3 1 12 36.24 0.88
3 1 13 32.44 0.66
3 1 14 7.06 0.30
3 1 15 8.95 0.33
3 1 16 16.04 0.49
3 1 17 7.17 0.28
3 1 18 1.24 0.20
3 1 19 1.35 0.36
3 1 20 0.58 0.22
3 1 21 1.51 0.25
3 1 22 7.58 0.39
3 1 23 0.00 0.23
3 1 24 14.18 0.54
3 1 25 1.61 0.27
3 1 26 0.23 0.25
3 1 27 0.25 0.26
3 1 28 0.00 0.27
3 1 29 0.01 0.27
3 3 0 20.41 0.57
3 3 1 21.88 0.33
3 3 2 13.12 0.23
3 3 3 7.52 0.28
3 3 4 84.21 1.72
3 3 5 1.22 0.27
3 3 6 94.50 1.80
3 3 7 3.81 0.21
3 3 8 2.89 0.59
3 3 9 172.96 3.44
3 3 10 6.45 0.20
3 3 11 3.35 0.22
3 3 12 2.64 0.19
3 3 13 12.36 0.29
3 3 14 3.46 0.78
3 3 15 1.58 0.14
3 3 16 0.18 0.09
3 3 17 26.93 0.56
3 3 18 0.90 0.22
3 3 19 12.60 0.45
3 3 20 0.93 0.23
3 3 21 8.64 0.37
3 3 22 0.52 0.25
3 3 23 0.19 0.23
3 3 24 0.23 0.24
3 3 25 2.11 0.26
3 3 26 0.84 0.26
3 3 27 4.12 0.78
3 3 28 0.14 0.27
3 3 29 0.00 0.28
3 5 0 2.13 0.44
3 5 1 15.74 0.23
3 5 2 64.92 2.16
3 5 3 11.12 0.25
3 5 4 124.84 2.81
3 5 5 1.27 0.29
3 5 6 9.05 0.30
3 5 7 19.10 0.60
3 5 8 10.91 0.70
3 5 9 26.09 0.57
3 5 10 60.17 1.10
3 5 11 2.40 0.18
3 5 12 47.07 1.02
3 5 13 3.25 0.80
3 5 14 61.03 1.26
3 5 15 3.85 0.19
3 5 16 46.32 1.13
3 5 17 12.83 0.39
3 5 18 0.49 0.19
3 5 19 0.09 0.21
3 5 20 13.18 0.42
3 5 21 2.19 0.24
3 5 22 1.27 0.24
3 5 23 2.06 0.27
3 5 24 0.49 0.24
3 5 25 0.15 0.25
3 5 26 1.28 0.29
3 5 27 1.09 0.28
3 5 28 0.11 0.27
3 5 29 0.01 0.28
3 7 0 0.44 0.06
3 7 1 0.04 0.11
3 7 2 52.95 0.63
3 7 3 5.60 0.17
3 7 4 46.07 0.69
3 7 5 20.89 0.71
3 7 6 63.79 1.43
3 7 7 58.99 0.95
3 7 8 143.53 2.26
3 7 9 1.01 0.19
3 7 10 44.25 0.69
3 7 11 33.37 0.83
3 7 12 15.23 0.42
3 7 13 2.93 0.18
3 7 14 0.15 0.16
3 7 15 5.76 0.32
3 7 16 3.22 0.26
3 7 17 18.64 0.53
3 7 18 0.37 0.20
3 7 19 9.67 0.35
3 7 20 9.41 0.37
3 7 21 5.23 0.78
3 7 22 7.97 0.38
3 7 23 0.77 0.24
3 7 24 0.37 0.25
3 7 25 0.00 0.26
3 7 26 0.24 0.26
3 7 27 0.29 0.27
3 7 28 0.75 0.29
3 9 0 1.67 0.07
3 9 1 51.33 0.50
3 9 2 44.28 0.76
3 9 3 23.22 0.55
3 9 4 9.55 0.35
3 9 5 5.78 0.14
3 9 6 28.55 0.30
3 9 7 176.04 3.73
3 9 8 0.75 0.12
3 9 9 58.31 1.64
3 9 10 9.25 0.55
3 9 11 28.91 0.56
3 9 12 23.49 0.50
3 9 13 3.58 0.27
3 9 14 21.26 0.62
3 9 15 0.30 0.18
3 9 16 5.11 0.28
3 9 17 4.53 0.28
3 9 18 0.70 0.21
3 9 19 0.00 0.19
3 9 20 1.96 0.24
3 9 21 0.32 0.22
3 9 22 0.01 0.22
3 9 23 0.71 0.23
3 9 24 1.00 0.26
3 9 25 4.02 0.42
3 9 26 0.29 0.26
3 9 27 0.92 0.42
3 9 28 0.71 0.34
3 11 0 2.32 0.07
3 11 1 9.58 0.20
3 11 2 31.05 0.27
3 11 3 48.65 0.84
3 11 4 123.41 1.90
3 11 5 0.53 0.10
3 11 6 0.55 0.09
3 11 7 0.00 0.11
3 11 8 24.41 0.76
3 11 9 10.20 0.42
3 11 10 0.03 0.12
3 11 11 3.94 0.16
3 11 12 73.66 1.59
3 11 13 12.64 0.54
3 11 14 19.67 0.47
3 11 15 0.05 0.17
3 11 16 12.80 0.42
3 11 17 5.35 0.30
3 11 18 2.47 0.24
3 11 19 0.05 0.21
3 11 20 7.60 0.34
3 11 21 0.89 0.23
3 11 22 0.07 0.23
3 11 23 1.35 0.25
3 11 24 0.22 0.30
3 11 25 0.93 0.33
3 11 26 1.69 0.34
3 11 27 0.01 0.33
3 13 0 31.24 0.51
3 13 1 20.95 0.75
3 13 2 6.62 0.20
3 13 3 0.51 0.07
3 13 4 2.15 0.13
3 13 5 2.29 0.18
3 13 6 0.40 0.10
3 13 7 19.25 0.85
3 13 8 0.29 0.13
3 13 9 32.53 0.71
3 13 10 9.04 0.49
3 13 11 27.86 0.87
3 13 12 14.03 0.32
3 13 13 0.19 0.14
3 13 14 0.03 0.15
3 13 15 6.50 0.37
3 13 16 4.35 0.22
3 13 17 8.25 0.50
3 13 18 2.06 0.22
3 13 19 4.68 0.39
3 13 20 1.56 0.28
3 13 21 0.22 0.27
3 13 22 6.69 0.44
3 13 23 0.10 0.30
3 13 24 3.88 0.58
3 13 25 0.00 0.30
3 13 26 0.01 0.31
3 13 27 0.35 0.32
3 15 0 0.02 0.11
3 15 1 25.05 0.77
3 15 2 27.44 0.67
3 15 3 1.61 0.20
3 15 4 0.11 0.07
3 15 5 9.76 0.25
3 15 6 7.02 0.22
3 15 7 1.71 0.10
3 15 8 0.43 0.10
3 15 9 0.53 0.12
3 15 10 0.66 0.14
3 15 11 17.69 0.40
3 15 12 11.20 0.27
3 15 13 0.98 0.15
3 15 14 10.39 0.33
3 15 15 3.27 0.25
3 15 16 1.41 0.21
3 15 17 9.11 0.36
3 15 18 3.04 0.26
3 15 19 7.49 0.39
3 15 20 1.03 0.26
3 15 21 1.19 0.24
3 15 22 5.08 0.37
3 15 23 0.02 0.25
3 15 24 0.99 0.27
3 15 25 0.00 0.26
3 15 26 0.30 0.28
3 17 0 4.62 0.17
3 17 1 4.56 0.12
3 17 2 7.56 0.23
3 17 3 2.58 0.13
3 17 4 89.07 1.58
3 17 5 17.03 0.41
3 17 6 24.56 0.39
3 17 7 22.35 0.43
3 17 8 0.20 0.17
3 17 9 35.56 0.67
3 17 10 13.98 0.41
3 17 11 1.63 0.26
3 17 12 0.93 0.18
3 17 13 5.53 0.36
3 17 14 5.95 0.31
3 17 15 0.98 0.21
3 17 16 2.38 0.22
3 17 17 0.40 0.21
3 17 18 0.06 0.22
3 17 19 1.89 0.32
3 17 20 1.96 0.26
3 17 21 2.91 0.32
3 17 22 2.02 0.32
3 17 23 0.54 0.33
3 17 24 1.14 0.31
3 17 25 0.07 0.32
3 19 0 47.46 0.79
3 19 1 31.59 0.75
3 19 2 16.85 0.49
3 19 3 58.38 1.19
3 19 4 7.75 0.27
3 19 5 21.57 0.44
3 19 6 13.06 0.36
3 19 7 14.27 0.33
3 19 8 0.41 0.17
3 19 9 3.19 0.26
3 19 10 5.35 0.31
3 19 11 5.48 0.62
3 19 12 1.54 0.23
3 19 13 0.00 0.22
3 19 14 0.67 0.37
3 19 15 5.47 0.34
3 19 16 0.07 0.24
3 19 17 0.22 0.32
3 19 18 0.01 0.29
3 19 19 4.67 0.42
3 19 20 2.07 0.30
3 19 21 7.68 0.47
3 19 22 1.22 0.31
3 19 23 0.37 0.31
3 21 0 4.50 0.41
3 21 1 0.39 0.22
3 21 2 5.14 0.44
3 21 3 24.34 0.57
3 21 4 44.48 0.87
3 21 5 3.18 0.31
3 21 6 10.23 0.46
3 21 7 2.27 0.28
3 21 8 5.40 0.41
3 21 9 0.97 0.29
3 21 10 0.02 0.21
3 21 11 12.19 0.46
3 21 12 3.31 0.31
3 21 13 1.35 0.25
3 21 14 6.23 0.37
3 21 15 11.36 0.47
3 21 16 3.22 0.47
3 21 17 2.75 0.30
3 21 18 0.08 0.28
3 21 19 2.93 0.33
3 21 20 0.40 0.29
3 21 21 0.91 0.31
3 21 22 0.34 0.31
3 23 0 0.98 0.23
3 23 1 4.13 0.24
3 23 2 1.65 0.26
3 23 3 3.07 0.41
3 23 4 36.44 0.81
3 23 5 9.45 0.33
3 23 6 64.06 1.41
3 23 7 4.80 0.26
3 23 8 4.11 0.22
3 23 9 7.55 0.35
3 23 10 0.62 0.23
3 23 11 1.05 0.23
3 23 12 7.15 0.38
3 23 13 0.94 0.24
3 23 14 6.23 0.57
3 23 15 0.01 0.25
3 23 16 0.52 0.27
3 23 17 0.72 0.28
3 23 18 0.02 0.27
3 23 19 0.00 0.28
3 23 20 0.02 0.28
3 25 0 0.01 0.20
3 25 1 1.46 0.22
3 25 2 0.09 0.15
3 25 3 14.69 0.47
3 25 4 12.03 0.39
3 25 5 0.16 0.18
3 25 6 0.06 0.18
3 25 7 9.34 0.36
3 25 8 1.32 0.46
3 25 9 11.20 0.37
3 25 10 4.49 0.57
3 25 11 6.75 0.40
3 25 12 0.25 0.24
3 25 13 1.62 0.35
3 25 14 1.46 0.32
3 25 15 1.57 0.29
3 25 16 0.00 0.26
3 25 17 2.62 0.31
3 25 18 0.56 0.29
3 27 0 2.48 0.28
3 27 1 0.00 0.21
3 27 2 5.70 0.35
3 27 3 0.42 0.22
3 27 4 3.58 0.34
3 27 5 4.38 0.28
3 27 6 0.96 0.19
3 27 7 7.85 0.35
3 27 8 3.09 0.28
3 27 9 0.91 0.22
3 27 10 1.26 0.27
3 27 11 4.86 0.45
3 27 12 0.91 0.26
3 27 13 1.03 0.27
3 27 14 1.63 0.29
3 27 15 0.19 0.27
3 27 16 2.04 0.30
3 29 0 1.13 0.23
3 29 1 4.35 0.42
3 29 2 0.51 0.34
3 29 3 0.01 0.35
3 29 4 14.32 0.70
3 29 5 1.10 0.35
3 29 6 3.21 0.44
3 29 7 0.00 0.36
3 29 8 1.10 0.27
3 29 9 4.90 0.54
3 29 10 0.67 0.33
3 29 11 1.63 0.41
3 29 12 1.09 0.35
3 29 13 0.00 0.33
3 31 0 2.02 0.40
3 31 1 3.97 0.45
3 31 2 1.88 0.40
3 31 3 0.23 0.37
3 31 4 0.84 0.39
3 31 5 0.29 0.37
3 31 6 0.89 0.39
3 31 7 5.96 0.62
3 31 8 3.37 0.45
4 0 0 1.26 0.36
4 0 2 94.99 7.92
4 0 4 28.50 3.73
4 0 6 35.59 1.71
4 0 8 53.49 1.26
4 0 10 42.79 1.55
4 0 12 8.27 0.35
4 0 14 0.76 0.44
4 0 16 9.31 0.53
4 0 18 18.92 0.64
4 0 20 15.77 0.98
4 0 22 0.28 0.33
4 0 24 4.07 0.58
4 0 26 1.92 0.41
4 0 28 1.54 0.44
4 2 0 161.82 3.60
4 2 1 170.23 3.11
4 2 2 566.03 9.98
4 2 3 109.81 1.45
4 2 4 287.42 3.84
4 2 5 70.18 1.07
4 2 6 1.17 0.19
4 2 7 8.24 0.13
4 2 8 24.34 0.63
4 2 9 11.84 0.24
4 2 10 11.34 0.38
4 2 11 1.07 0.16
4 2 12 10.90 0.33
4 2 13 26.27 0.57
4 2 14 4.54 0.25
4 2 15 11.83 0.52
4 2 16 0.52 0.18
4 2 17 3.65 0.30
4 2 18 2.89 0.26
4 2 19 0.27 0.20
4 2 20 6.17 0.34
4 2 21 6.04 0.35
4 2 22 5.32 0.36
4 2 23 3.71 0.30
4 2 24 1.08 0.26
4 2 25 0.00 0.25
4 2 26 0.46 0.26
4 2 27 0.80 0.27
4 2 28 0.40 0.28
4 4 0 444.86 8.47
4 4 1 264.04 5.20
4 4 2 431.30 5.19
4 4 3 69.98 0.77
4 4 4 28.95 0.84
4 4 5 45.19 0.43
4 4 6 69.23 2.15
4 4 7 3.20 0.16
4 4 8 7.64 0.16
4 4 9 110.39 1.93
4 4 10 10.50 0.22
4 4 11 5.79 0.21
4 4 12 1.06 0.16
4 4 13 92.34 2.13
4 4 14 0.72 0.17
4 4 15 6.24 0.27
4 4 16 0.62 0.23
4 4 17 3.28 0.22
4 4 18 8.44 0.35
4 4 19 0.62 0.22
4 4 20 11.54 0.41
4 4 21 1.81 0.24
4 4 22 0.44 0.34
4 4 23 1.04 0.24
4 4 24 0.87 0.25
4 4 25 2.33 0.29
4 4 26 1.17 0.28
4 4 27 0.93 0.28
4 4 28 0.01 0.28
4 6 0 4.82 0.17
4 6 1 53.74 1.17
4 6 2 15.27 0.57
4 6 3 8.01 0.26
4 6 4 6.08 0.11
4 6 5 26.61 1.12
4 6 6 9.48 0.33
4 6 7 0.01 0.13
4 6 8 0.00 0.18
4 6 9 0.80 0.19
4 6 10 85.06 2.01
4 6 11 4.34 0.39
4 6 12 4.02 0.23
4 6 13 1.89 0.16
4 6 14 5.19 0.29
4 6 15 5.16 0.30
4 6 16 2.21 0.21
4 6 17 2.93 0.22
4 6 18 6.41 0.32
4 6 19 0.39 0.22
4 6 20 12.23 0.49
4 6 21 2.44 0.26
4 6 22 2.61 0.27
4 6 23 0.19 0.24
4 6 24 2.34 0.28
4 6 25 0.11 0.25
4 6 26 0.30 0.26
4 6 27 0.01 0.33
4 6 28 0.23 0.27
4 8 0 38.83 0.63
4 8 1 19.97 0.21
4 8 2 9.64 0.18
4 8 3 0.07 0.09
4 8 4 2.58 0.38
4 8 5 194.64 3.03
4 8 6 46.56 0.96
4 8 7 6.01 0.23
4 8 8 72.80 1.43
4 8 9 6.47 0.34
4 8 10 25.06 0.68
4 8 11 104.99 1.99
4 8 12 9.03 0.28
4 8 13 26.83 0.95
4 8 14 8.43 0.33
4 8 15 25.79 0.65
4 8 16 2.67 0.24
4 8 17 0.22 0.19
4 8 18 3.19 0.28
4 8 19 4.51 0.26
4 8 20 0.50 0.25
4 8 21 0.46 0.35
4 8 22 0.50 0.23
4 8 23 0.99 0.25
4 8 24 1.80 0.27
4 8 25 1.22 0.27
4 8 26 0.83 0.36
4 8 27 0.49 0.29
4 8 28 0.67 0.29
4 10 0 22.44 0.29
4 10 1 2.21 0.12
4 10 2 4.82 0.13
4 10 3 0.12 0.11
4 10 4 52.59 1.01
4 10 5 3.10 0.13
4 10 6 102.90 1.62
4 10 7 2.35 0.23
4 10 8 195.95 3.46
4 10 9 1.94 0.13
4 10 10 19.61 0.48
4 10 11 34.26 0.68
4 10 12 12.82 0.45
4 10 13 14.23 0.41
4 10 14 1.77 0.24
4 10 15 7.80 0.30
4 10 16 9.64 0.34
4 10 17 7.49 0.58
4 10 18 1.74 0.22
4 10 19 7.48 0.37
4 10 20 6.23 0.43
4 10 21 1.48 0.27
4 10 22 4.91 0.35
4 10 23 0.03 0.24
4 10 24 0.04 0.25
4 10 25 1.74 0.27
4 10 26 0.38 0.33
4 10 27 0.10 0.32
4 12 0 92.70 1.60
4 12 1 92.79 1.68
4 12 2 15.22 0.48
4 12 3 7.97 0.23
4 12 4 21.46 0.47
4 12 5 66.64 1.11
4 12 6 52.94 0.97
4 12 7 2.34 0.12
4 12 8 33.04 0.56
4 12 9 5.75 0.20
4 12 10 3.49 0.23
4 12 11 24.39 0.52
4 12 12 2.22 0.15
4 12 13 12.95 0.42
4 12 14 0.69 0.16
4 12 15 18.48 0.35
4 12 16 17.11 0.79
4 12 17 0.26 0.18
4 12 18 12.53 0.43
4 12 19 0.80 0.23
4 12 20 2.99 0.29
4 12 21 0.09 0.22
4 12 22 0.13 0.28
4 12 23 0.02 0.29
4 12 24 0.13 0.31
4 12 25 0.07 0.31
4 12 26 0.00 0.31
4 14 0 6.66 0.45
4 14 1 35.95 0.57
4 14 2 27.41 0.53
4 14 3 58.35 0.89
4 14 4 3.73 0.14
4 14 5 29.43 0.94
4 14 6 1.94 0.11
4 14 7 25.59 0.44
4 14 8 8.32 0.36
4 14 9 0.30 0.18
4 14 10 0.02 0.14
4 14 11 0.37 0.14
4 14 12 0.33 0.19
4 14 13 8.36 0.36
4 14 14 5.82 0.24
4 14 15 20.53 0.53
4 14 16 1.47 0.21
4 14 17 0.06 0.18
4 14 18 0.98 0.23
4 14 19 6.39 0.36
4 14 20 3.79 0.46
4 14 21 17.58 0.62
4 14 22 0.38 0.34
4 14 23 2.64 0.28
4 14 24 2.11 0.29
4 14 25 0.02 0.27
4 14 26 0.41 0.28
4 16 0 85.16 1.35
4 16 1 8.01 0.20
4 16 2 2.00 0.18
4 16 3 39.85 0.80
4 16 4 1.95 0.13
4 16 5 21.09 0.37
4 16 6 0.25 0.10
4 16 7 0.17 0.11
4 16 8 8.91 0.26
4 16 9 0.89 0.14
4 16 10 26.27 0.49
4 16 11 2.13 0.15
4 16 12 6.93 0.26
4 16 13 33.63 0.85
4 16 14 3.25 0.34
4 16 15 1.16 0.22
4 16 16 6.11 0.38
4 16 17 0.90 0.22
4 16 18 2.36 0.25
4 16 19 0.09 0.22
4 16 20 0.72 0.26
4 16 21 0.06 0.24
4 16 22 0.75 0.26
4 16 23 1.30 0.41
4 16 24 1.38 0.32
4 16 25 0.26 0.33
4 18 0 52.17 0.90
4 18 1 4.73 0.19
4 18 2 0.52 0.11
4 18 3 0.98 0.25
4 18 4 0.04 0.11
4 18 5 0.51 0.14
4 18 6 5.21 0.26
4 18 7 5.03 0.26
4 18 8 14.19 0.41
4 18 9 5.03 0.39
4 18 10 2.55 0.22
4 18 11 12.29 0.45
4 18 12 0.00 0.21
4 18 13 0.00 0.22
4 18 14 2.83 0.32
4 18 15 10.08 0.49
4 18 16 5.37 0.39
4 18 17 3.81 0.60
4 18 18 5.42 0.43
4 18 19 0.02 0.52
4 18 20 1.21 0.44
4 18 21 0.02 0.29
4 18 22 0.24 0.30
4 18 23 2.32 0.38
4 20 0 1.89 0.14
4 20 1 9.92 0.32
4 20 2 0.70 0.18
4 20 3 8.17 0.48
4 20 4 1.21 0.16
4 20 5 7.83 0.27
4 20 6 26.98 0.72
4 20 7 45.51 1.06
4 20 8 5.88 0.55
4 20 9 4.60 0.29
4 20 10 4.25 0.34
4 20 11 0.00 0.22
4 20 12 6.20 0.37
4 20 13 0.01 0.23
4 20 14 4.36 0.38
4 20 15 6.83 0.42
4 20 16 2.90 0.29
4 20 17 0.37 0.34
4 20 18 1.93 0.31
4 20 19 4.37 0.44
4 20 20 2.94 0.33
4 20 21 0.87 0.31
4 20 22 0.29 0.35
4 22 0 26.17 0.71
4 22 1 1.89 0.16
4 22 2 1.91 0.29
4 22 3 2.85 0.21
4 22 4 8.01 0.40
4 22 5 10.25 0.40
4 22 6 4.04 0.22
4 22 7 6.20 0.29
4 22 8 10.84 0.39
4 22 9 1.04 0.19
4 22 10 9.52 0.43
4 22 11 0.06 0.23
4 22 12 0.29 0.23
4 22 13 4.58 0.29
4 22 14 2.72 0.34
4 22 15 0.19 0.33
4 22 16 1.00 0.28
4 22 17 0.00 0.27
4 22 18 0.37 0.28
4 22 19 0.03 0.43
4 22 20 0.12 0.30
4 22 21 1.55 0.40
4 24 0 5.84 0.50
4 24 1 2.14 0.29
4 24 2 8.24 0.43
4 24 3 13.40 0.54
4 24 4 0.99 0.38
4 24 5 31.91 0.67
4 24 6 1.16 0.20
4 24 7 2.22 0.24
4 24 8 26.36 0.60
4 24 9 3.97 0.29
4 24 10 0.65 0.24
4 24 11 3.79 0.31
4 24 12 0.27 0.25
4 24 13 0.34 0.25
4 24 14 2.43 0.28
4 24 15 0.23 0.27
4 24 16 4.24 0.35
4 24 17 1.44 0.30
4 24 18 1.13 0.31
4 24 19 0.06 0.30
4 26 0 5.84 0.37
4 26 1 11.68 0.45
4 26 2 3.17 0.45
4 26 3 0.04 0.22
4 26 4 8.77 0.34
4 26 5 0.45 0.23
4 26 6 0.60 0.19
4 26 7 1.10 0.20
4 26 8 1.43 0.21
4 26 9 1.16 0.26
4 26 10 6.88 0.50
4 26 11 8.25 0.42
4 26 12 0.26 0.26
4 26 13 2.53 0.35
4 26 14 0.06 0.27
4 26 15 5.45 0.42
4 26 16 0.77 0.29
4 28 0 9.91 0.37
4 28 1 0.67 0.24
4 28 2 0.98 0.32
4 28 3 1.29 0.25
4 28 4 0.32 0.24
4 28 5 0.57 0.25
4 28 6 2.53 0.31
4 28 7 0.50 0.22
4 28 8 5.10 0.29
4 28 9 6.77 0.36
4 28 10 4.50 0.38
4 28 11 0.04 0.25
4 28 12 0.80 0.27
4 28 13 7.23 0.66
4 28 14 0.00 0.29
4 30 0 7.59 0.42
4 30 1 1.24 0.38
4 30 2 0.84 0.38
4 30 3 10.12 0.66
4 30 4 0.14 0.39
4 30 5 13.50 0.72
4 30 6 0.64 0.40
4 30 7 0.53 0.38
4 30 8 0.86 0.40
4 30 9 0.24 0.40
4 30 10 0.03 0.48
4 32 0 0.23 0.39
4 32 1 2.67 0.43
4 32 2 3.70 0.46
4 32 3 2.02 0.46
5 1 0 174.89 5.23
5 1 1 163.38 3.78
5 1 2 171.24 2.22
5 1 3 27.19 0.85
5 1 4 55.21 1.15
5 1 5 9.95 0.53
5 1 6 39.68 0.48
5 1 7 23.53 0.72
5 1 8 12.59 0.50
5 1 9 64.13 1.14
5 1 10 1.82 0.16
5 1 11 0.75 0.19
5 1 12 2.39 0.22
5 1 13 0.63 0.18
5 1 14 24.17 0.74
5 1 15 0.00 0.18
5 1 16 12.83 0.36
5 1 17 1.23 0.21
5 1 18 0.01 0.20
5 1 19 2.63 0.22
5 1 20 1.33 0.23
5 1 21 6.16 0.46
5 1 22 9.04 0.49
5 1 23 0.30 0.29
5 1 24 2.41 0.31
5 1 25 1.10 0.29
5 1 26 0.00 0.26
5 1 27 0.02 0.28
5 1 28 0.21 0.29
5 3 1 161.00 3.50
5 3 2 132.20 2.25
5 3 3 30.51 0.24
5 3 4 85.49 1.10
5 3 5 41.03 0.52
5 3 6 2.89 0.14
5 3 7 210.79 4.72
5 3 8 22.89 0.75
5 3 9 50.09 0.96
5 3 10 21.26 1.29
5 3 11 8.94 0.26
5 3 12 12.61 0.27
5 3 13 6.16 0.26
5 3 14 0.56 0.17
5 3 15 13.10 0.37
5 3 16 0.49 0.20
5 3 17 23.12 1.51
5 3 18 1.33 0.27
5 3 19 0.04 0.21
5 3 20 1.50 0.23
5 3 21 5.52 0.39
5 3 22 0.67 0.23
5 3 23 0.00 0.24
5 3 24 0.86 0.26
5 3 25 1.00 0.28
5 3 26 1.17 0.28
5 3 27 0.84 0.28
5 3 28 0.00 0.27
5 5 0 38.20 0.43
5 5 1 9.48 0.20
5 5 2 7.47 0.14
5 5 3 27.45 0.73
5 5 4 45.67 1.13
5 5 5 36.86 0.68
5 5 6 213.07 3.56
5 5 7 33.05 1.18
5 5 8 39.10 0.93
5 5 9 28.14 0.58
5 5 10 26.92 0.68
5 5 11 0.85 0.16
5 5 12 17.32 0.42
5 5 13 1.07 0.16
5 5 14 20.30 0.51
5 5 15 7.97 0.27
5 5 16 3.44 0.25
5 5 17 4.41 0.30
5 5 18 4.13 0.45
5 5 19 1.14 0.34
5 5 20 0.08 0.22
5 5 21 3.14 0.25
5 5 22 0.30 0.24
5 5 23 0.26 0.26
5 5 24 0.84 0.26
5 5 25 0.72 0.50
5 5 26 0.51 0.27
5 5 27 1.38 0.30
5 5 28 0.65 0.34
5 7 0 15.07 0.16
5 7 1 7.42 0.22
5 7 2 0.35 0.16
5 7 3 8.12 0.19
5 7 4 10.07 0.30
5 7 5 1.08 0.12
5 7 6 81.62 1.45
5 7 7 94.72 2.32
5 7 8 1.99 0.13
5 7 9 20.49 0.50
5 7 10 57.14 1.35
5 7 11 35.75 1.21
5 7 12 0.07 0.17
5 7 13 0.00 0.17
5 7 14 29.79 0.72
5 7 15 2.04 0.23
5 7 16 0.42 0.28
5 7 17 2.38 0.25
5 7 18 6.53 0.33
5 7 19 0.07 0.21
5 7 20 3.86 0.30
5 7 21 0.06 0.23
5 7 22 0.60 0.24
5 7 23 2.06 0.25
5 7 24 0.02 0.25
5 7 25 0.05 0.25
5 7 26 0.81 0.28
5 7 27 0.04 0.27
5 9 0 14.04 0.28
5 9 1 51.86 0.91
5 9 2 36.79 0.47
5 9 3 0.91 0.18
5 9 4 16.77 0.39
5 9 5 7.91 0.20
5 9 6 41.29 0.68
5 9 7 39.12 1.44
5 9 8 33.62 0.58
5 9 9 33.48 0.71
5 9 10 33.88 0.64
5 9 11 23.79 0.73
5 9 12 12.56 0.74
5 9 13 0.25 0.23
5 9 14 3.01 0.21
5 9 15 5.09 0.25
5 9 16 0.92 0.21
5 9 17 0.03 0.20
5 9 18 7.75 0.37
5 9 19 0.24 0.22
5 9 20 8.69 0.39
5 9 21 1.56 0.25
5 9 22 0.00 0.25
5 9 23 0.42 0.26
5 9 24 0.22 0.25
5 9 25 0.24 0.26
5 9 26 0.00 0.27
5 9 27 1.49 0.35
5 11 0 13.83 0.30
5 11 1 13.91 0.21
5 11 2 0.90 0.17
5 11 3 7.02 0.21
5 11 4 11.40 0.36
5 11 5 0.83 0.14
5 11 6 6.59 0.32
5 11 7 7.91 0.37
5 11 8 2.85 0.15
5 11 9 16.92 0.32
5 11 10 3.71 0.25
5 11 11 0.53 0.21
5 11 12 37.19 0.70
5 11 13 21.27 0.43
5 11 14 8.60 0.30
5 11 15 6.12 0.28
5 11 16 36.59 0.72
5 11 17 4.12 0.29
5 11 18 3.32 0.26
5 11 19 0.79 0.23
5 11 20 0.16 0.23
5 11 21 1.20 0.25
5 11 22 3.74 0.34
5 11 23 3.08 0.32
5 11 24 0.56 0.32
5 11 25 1.00 0.32
5 11 26 0.38 0.33
5 13 0 0.37 0.09
5 13 1 40.84 0.83
5 13 2 46.09 0.72
5 13 3 5.11 0.15
5 13 4 17.14 0.38
5 13 5 16.73 0.38
5 13 6 11.51 0.24
5 13 7 7.05 0.17
5 13 8 1.50 0.14
5 13 9 47.30 0.90
5 13 10 4.19 0.23
5 13 11 40.35 0.92
5 13 12 3.49 0.56
5 13 13 0.16 0.16
5 13 14 2.55 0.21
5 13 15 1.54 0.19
5 13 16 2.20 0.21
5 13 17 5.11 0.33
5 13 18 3.93 0.27
5 13 19 2.16 0.22
5 13 20 1.12 0.24
5 13 21 1.93 0.27
5 13 22 0.74 0.27
5 13 23 1.50 0.27
5 13 24 0.00 0.26
5 13 25 0.14 0.28
5 15 0 1.11 0.10
5 15 1 4.78 0.19
5 15 2 42.20 0.88
5 15 3 18.25 0.42
5 15 4 42.30 0.68
5 15 5 1.12 0.11
5 15 6 1.28 0.12
5 15 7 0.49 0.11
5 15 8 0.02 0.15
5 15 9 8.69 0.24
5 15 10 4.37 0.22
5 15 11 10.84 0.44
5 15 12 3.72 0.24
5 15 13 0.27 0.16
5 15 14 9.30 0.30
5 15 15 0.53 0.18
5 15 16 4.77 0.33
5 15 17 10.59 0.40
5 15 18 0.13 0.23
5 15 19 7.16 0.37
5 15 20 2.27 0.26
5 15 21 1.50 0.41
5 15 22 0.04 0.26
5 15 23 0.41 0.27
5 15 24 0.02 0.28
5 17 0 5.45 0.19
5 17 1 5.07 0.18
5 17 2 21.70 0.45
5 17 3 0.40 0.16
5 17 4 31.86 0.65
5 17 5 0.33 0.13
5 17 6 1.55 0.36
5 17 7 0.78 0.23
5 17 8 0.83 0.14
5 17 9 1.27 0.17
5 17 10 0.00 0.20
5 17 11 2.09 0.42
5 17 12 9.49 0.69
5 17 13 1.74 0.27
5 17 14 0.24 0.24
5 17 15 0.51 0.35
5 17 16 2.34 0.38
5 17 17 6.52 0.52
5 17 18 0.35 0.28
5 17 19 3.05 0.34
5 17 20 5.79 0.45
5 17 21 1.86 0.33
5 17 22 6.79 0.67
5 17 23 0.81 0.32
5 19 0 1.31 0.15
5 19 1 56.82 1.19
5 19 2 0.64 0.16
5 19 3 5.64 0.59
5 19 4 5.13 0.27
5 19 5 9.99 0.32
5 19 6 2.38 0.19
5 19 7 0.08 0.17
5 19 8 3.09 0.25
5 19 9 0.38 0.20
5 19 10 0.16 0.21
5 19 11 2.05 0.26
5 19 12 2.23 0.28
5 19 13 0.17 0.24
5 19 14 0.81 0.25
5 19 15 1.38 0.39
5 19 16 0.22 0.26
5 19 17 8.23 0.55
5 19 18 0.88 0.29
5 19 19 4.36 0.40
5 19 20 0.00 0.29
5 19 21 1.21 0.38
5 19 22 0.48 0.32
5 21 0 5.12 0.23
5 21 1 3.52 0.21
5 21 2 5.75 0.25
5 21 3 7.27 0.29
5 21 4 2.51 0.26
5 21 5 1.47 0.21
5 21 6 0.43 0.17
5 21 7 0.97 0.18
5 21 8 2.19 0.27
5 21 9 22.32 0.63
5 21 10 0.37 0.23
5 21 11 12.43 0.45
5 21 12 5.75 0.56
5 21 13 0.58 0.41
5 21 14 0.46 0.26
5 21 15 0.23 0.26
5 21 16 0.08 0.32
5 21 17 0.01 0.28
5 21 18 1.27 0.38
5 21 19 2.29 0.32
5 21 20 0.42 0.33
5 21 21 0.18 0.31
5 23 0 2.26 0.18
5 23 1 7.97 0.37
5 23 2 21.64 0.54
5 23 3 3.54 0.32
5 23 4 35.84 0.80
5 23 5 7.18 0.33
5 23 6 0.73 0.19
5 23 7 7.21 0.33
5 23 8 0.47 0.20
5 23 9 7.70 0.34
5 23 10 3.39 0.43
5 23 11 0.41 0.25
5 23 12 11.15 0.46
5 23 13 0.70 0.27
5 23 14 0.03 0.26
5 23 15 0.03 0.27
5 23 16 3.28 0.33
5 23 17 0.28 0.29
5 23 18 0.88 0.30
5 23 19 1.39 0.71
5 25 0 0.16 0.22
5 25 1 5.71 0.36
5 25 2 11.98 0.38
5 25 3 5.83 0.28
5 25 4 5.16 0.30
5 25 5 0.21 0.19
5 25 6 11.57 0.39
5 25 7 0.48 0.21
5 25 8 2.25 0.23
5 25 9 0.88 0.22
5 25 10 3.10 0.30
5 25 11 9.61 0.43
5 25 12 0.94 0.27
5 25 13 0.05 0.31
5 25 14 0.16 0.27
5 25 15 4.12 0.67
5 25 16 0.24 0.29
5 25 17 3.03 0.34
5 27 0 2.96 0.41
5 27 1 0.93 0.25
5 27 2 0.69 0.24
5 27 3 0.71 0.32
5 27 4 1.67 0.26
5 27 5 9.38 0.53
5 27 6 2.20 0.26
5 27 7 2.20 0.24
5 27 8 0.96 0.22
5 27 9 0.01 0.22
5 27 10 0.09 0.39
5 27 11 1.91 0.29
5 27 12 0.17 0.27
5 27 13 1.24 0.30
5 27 14 0.59 0.35
5 29 0 0.11 0.21
5 29 1 2.63 0.29
5 29 2 4.95 0.46
5 29 3 0.80 0.32
5 29 4 18.32 0.64
5 29 5 1.20 0.28
5 29 6 0.06 0.26
5 29 7 4.71 0.52
5 29 8 0.01 0.27
5 29 9 0.74 0.23
5 29 10 0.27 0.26
5 29 11 0.00 0.26
5 31 0 0.67 0.28
5 31 1 5.52 0.61
5 31 2 2.68 0.45
5 31 3 0.98 0.38
5 31 4 0.00 0.36
5 31 5 0.62 0.61
5 31 6 3.52 1.10
6 0 0 21.04 0.66
6 0 2 62.63 2.12
6 0 4 14.27 0.19
6 0 6 79.00 1.08
6 0 8 163.53 5.79
6 0 10 31.10 0.81
6 0 12 0.04 0.23
6 0 14 59.87 1.76
6 0 16 8.68 0.52
6 0 18 0.13 0.30
6 0 20 4.31 0.38
6 0 22 0.23 0.34
6 0 24 0.00 0.45
6 0 26 3.36 0.46
6 2 0 38.02 0.49
6 2 1 73.67 1.44
6 2 2 17.26 0.56
6 2 3 189.40 2.74
6 2 4 5.89 0.20
6 2 5 5.65 0.21
6 2 6 2.50 0.12
6 2 7 16.61 0.30
6 2 8 24.60 0.62
6 2 9 32.39 0.86
6 2 10 20.28 0.44
6 2 11 2.11 0.19
6 2 12 2.81 0.19
6 2 13 6.29 0.37
6 2 14 4.10 0.36
6 2 15 1.52 0.20
6 2 16 1.82 0.23
6 2 17 0.93 0.44
6 2 18 0.01 0.20
6 2 19 8.66 0.52
6 2 20 0.46 0.27
6 2 21 0.02 0.23
6 2 22 0.01 0.23
6 2 23 0.12 0.25
6 2 24 0.70 0.26
6 2 25 0.63 0.29
6 2 26 1.04 0.28
6 2 27 0.08 0.28
6 4 0 34.94 0.42
6 4 1 1.43 0.09
6 4 2 10.86 0.14
6 4 3 100.85 1.27
6 4 4 2.62 0.20
6 4 5 110.68 2.55
6 4 6 59.71 0.91
6 4 7 25.32 0.40
6 4 8 9.23 0.32
6 4 9 0.62 0.15
6 4 10 82.63 1.66
6 4 11 44.21 1.07
6 4 12 4.34 0.25
6 4 13 0.45 0.17
6 4 14 0.76 0.19
6 4 15 0.04 0.19
6 4 16 0.83 0.23
6 4 17 0.16 0.21
6 4 18 4.58 0.28
6 4 19 1.22 0.23
6 4 20 8.90 0.39
6 4 21 0.36 0.24
6 4 22 0.00 0.24
6 4 23 0.44 0.25
6 4 24 1.28 0.28
6 4 25 0.01 0.35
6 4 26 0.98 0.43
6 4 27 0.00 0.28
6 6 0 8.60 0.20
6 6 1 31.35 0.40
6 6 2 181.08 2.81
6 6 3 2.51 0.22
6 6 4 16.52 1.07
6 6 5 0.55 0.17
6 6 6 30.18 0.63
6 6 7 0.83 0.13
6 6 8 34.73 0.74
6 6 9 2.17 0.30
6 6 10 107.08 2.01
6 6 11 0.73 0.24
6 6 12 1.80 0.25
6 6 13 0.01 0.17
6 6 14 1.00 0.18
6 6 15 14.47 0.77
6 6 16 0.47 0.25
6 6 17 4.83 0.43
6 6 18 6.55 0.55
6 6 19 9.25 0.37
6 6 20 1.09 0.24
6 6 21 4.42 0.36
6 6 22 0.16 0.24
6 6 23 1.84 0.27
6 6 24 0.00 0.25
6 6 25 0.26 0.27
6 6 26 2.47 0.31
6 6 27 0.00 0.28
6 8 0 37.86 0.67
6 8 1 97.95 1.95
6 8 2 0.14 0.11
6 8 3 1.18 0.15
6 8 4 2.80 0.43
6 8 5 15.87 0.65
6 8 6 0.04 0.12
6 8 7 16.64 0.33
6 8 8 12.13 0.31
6 8 9 10.22 0.30
6 8 10 42.32 0.77
6 8 11 42.24 0.97
6 8 12 6.19 0.23
6 8 13 34.23 0.61
6 8 14 0.23 0.18
6 8 15 7.20 0.37
6 8 16 24.24 0.68
6 8 17 0.22 0.21
6 8 18 0.00 0.21
6 8 19 1.35 0.24
6 8 20 1.05 0.25
6 8 21 0.03 0.24
6 8 22 2.36 0.28
6 8 23 0.01 0.25
6 8 24 0.00 0.36
6 8 25 0.00 0.27
6 8 26 0.11 0.28
6 10 0 6.65 0.70
6 10 1 69.86 1.11
6 10 2 5.53 0.43
6 10 3 11.62 0.37
6 10 4 2.92 0.12
6 10 5 3.20 0.12
6 10 6 19.89 0.41
6 10 7 3.79 0.20
6 10 8 22.53 0.45
6 10 9 3.19 0.24
6 10 10 3.74 0.38
6 10 11 18.90 0.43
6 10 12 3.07 0.21
6 10 13 1.34 0.17
6 10 14 2.91 0.25
6 10 15 27.04 0.70
6 10 16 2.24 0.30
6 10 17 10.84 0.74
6 10 18 1.73 0.20
6 10 19 0.00 0.24
6 10 20 3.16 0.61
6 10 21 1.15 0.25
6 10 22 0.00 0.24
6 10 23 0.20 0.32
6 10 24 1.07 0.27
6 10 25 0.59 0.34
6 10 26 1.62 0.36
6 12 0 37.69 0.78
6 12 1 6.06 0.18
6 12 2 6.74 0.24
6 12 3 15.90 0.41
6 12 4 4.18 0.18
6 12 5 22.73 0.35
6 12 6 6.06 0.20
6 12 7 1.52 0.14
6 12 8 9.39 0.26
6 12 9 1.84 0.23
6 12 10 6.93 0.23
6 12 11 22.31 0.75
6 12 12 0.09 0.16
6 12 13 7.82 0.29
6 12 14 1.16 0.27
6 12 15 12.80 0.41
6 12 16 7.43 0.45
6 12 17 0.01 0.19
6 12 18 4.89 0.52
6 12 19 0.29 0.20
6 12 20 1.31 0.22
6 12 21 5.82 0.31
6 12 22 0.00 0.27
6 12 23 0.01 0.26
6 12 24 0.00 0.26
6 12 25 0.61 0.36
6 14 0 0.38 0.15
6 14 1 17.86 0.42
6 14 2 9.04 0.22
6 14 3 4.44 0.16
6 14 4 11.73 0.27
6 14 5 23.38 0.41
6 14 6 1.69 0.14
6 14 7 0.89 0.17
6 14 8 3.06 0.15
6 14 9 0.17 0.14
6 14 10 1.44 0.15
6 14 11 1.97 0.34
6 14 12 0.24 0.17
6 14 13 37.25 0.74
6 14 14 2.79 0.30
6 14 15 16.65 0.41
6 14 16 0.31 0.18
6 14 17 1.36 0.20
6 14 18 0.70 0.23
6 14 19 0.00 0.24
6 14 20 0.01 0.24
6 14 21 7.08 0.40
6 14 22 4.89 0.46
6 14 23 1.14 0.28
6 14 24 0.00 0.32
6 16 0 84.33 1.50
6 16 1 0.84 0.13
6 16 2 38.00 0.75
6 16 3 4.51 0.22
6 16 4 0.12 0.13
6 16 5 9.16 0.24
6 16 6 35.28 0.61
6 16 7 1.69 0.16
6 16 8 16.90 0.40
6 16 9 1.92 0.16
6 16 10 0.26 0.15
6 16 11 1.04 0.16
6 16 12 7.92 0.27
6 16 13 1.07 0.21
6 16 14 0.00 0.20
6 16 15 0.14 0.21
6 16 16 1.77 0.23
6 16 17 1.34 0.25
6 16 18 5.89 0.43
6 16 19 0.19 0.29
6 16 20 4.07 0.52
6 16 21 1.48 0.32
6 16 22 0.42 0.30
6 16 23 0.39 0.42
6 18 0 46.11 0.89
6 18 1 20.95 0.47
6 18 2 0.70 0.13
6 18 3 8.94 0.26
6 18 4 4.16 0.21
6 18 5 34.23 0.63
6 18 6 2.05 0.18
6 18 7 5.77 0.30
6 18 8 0.21 0.18
6 18 9 0.45 0.22
6 18 10 1.41 0.23
6 18 11 0.13 0.37
6 18 12 10.58 0.50
6 18 13 0.16 0.24
6 18 14 1.30 0.27
6 18 15 1.41 0.30
6 18 16 4.13 0.33
6 18 17 0.02 0.27
6 18 18 0.00 0.27
6 18 19 2.28 0.32
6 18 20 0.76 0.31
6 18 21 2.56 0.35
6 18 22 0.07 0.31
6 20 0 0.48 0.15
6 20 1 30.50 0.68
6 20 2 5.33 0.37
6 20 3 23.61 0.57
6 20 4 1.10 0.26
6 20 5 45.67 1.05
6 20 6 1.75 0.40
6 20 7 33.47 0.70
6 20 8 0.28 0.19
6 20 9 0.58 0.23
6 20 10 0.03 0.23
6 20 11 4.45 0.30
6 20 12 3.34 0.29
6 20 13 4.50 0.40
6 20 14 0.47 0.26
6 20 15 2.80 0.28
6 20 16 1.16 0.37
6 20 17 0.59 0.29
6 20 18 0.72 0.30
6 20 19 0.00 0.29
6 20 20 0.03 0.30
6 20 21 0.72 0.35
6 22 0 0.37 0.15
6 22 1 1.83 0.22
6 22 2 1.77 0.20
6 22 3 1.35 0.18
6 22 4 0.68 0.18
6 22 5 4.96 0.30
6 22 6 11.20 0.39
6 22 7 3.29 0.23
6 22 8 1.66 0.23
6 22 9 0.10 0.23
6 22 10 0.81 0.25
6 22 11 0.00 0.24
6 22 12 7.00 0.42
6 22 13 3.21 0.30
6 22 14 0.20 0.27
6 22 15 0.02 0.27
6 22 16 12.24 0.54
6 22 17 0.55 0.30
6 22 18 7.06 0.48
6 22 19 0.05 0.42
6 24 0 2.88 0.28
6 24 1 2.24 0.21
6 24 2 5.40 0.44
6 24 3 0.36 0.18
6 24 4 1.87 0.21
6 24 5 0.67 0.19
6 24 6 0.17 0.19
6 24 7 0.08 0.20
6 24 8 0.63 0.21
6 24 9 1.60 0.26
6 24 10 0.52 0.25
6 24 11 0.68 0.26
6 24 12 0.82 0.26
6 24 13 4.16 0.60
6 24 14 1.13 0.28
6 24 15 4.66 0.43
6 24 16 4.93 0.61
6 24 17 1.10 0.31
6 26 0 4.25 0.69
6 26 1 0.72 0.26
6 26 2 0.33 0.26
6 26 3 0.78 0.25
6 26 4 0.41 0.19
6 26 5 17.45 0.52
6 26 6 4.46 0.54
6 26 7 1.69 0.33
6 26 8 9.98 0.55
6 26 9 1.25 0.27
6 26 10 2.79 0.29
6 26 11 0.55 0.27
6 26 12 6.74 0.43
6 26 13 4.22 0.41
6 26 14 1.96 0.31
6 26 15 6.57 0.46
6 28 0 24.66 0.74
6 28 1 0.20 0.25
6 28 2 0.67 0.29
6 28 3 1.96 0.28
6 28 4 0.24 0.26
6 28 5 2.39 0.30
6 28 6 1.32 0.28
6 28 7 4.45 0.33
6 28 8 2.41 0.25
6 28 9 2.61 0.29
6 28 10 0.32 0.27
6 28 11 0.61 0.28
6 28 12 0.00 0.35
6 30 0 1.73 0.24
6 30 1 0.63 0.27
6 30 2 1.02 0.28
6 30 3 0.25 0.26
6 30 4 0.00 0.26
6 30 5 0.39 0.28
6 30 6 2.62 0.31
6 30 7 0.10 0.30
7 1 0 0.01 0.17
7 1 1 5.00 0.58
7 1 2 45.88 1.18
7 1 3 16.03 0.31
7 1 4 109.52 1.69
7 1 5 19.96 0.55
7 1 6 89.53 1.70
7 1 7 22.07 0.32
7 1 8 0.71 0.10
7 1 9 5.26 0.34
7 1 10 1.21 0.18
7 1 11 22.72 0.49
7 1 12 23.65 0.55
7 1 13 1.92 0.44
7 1 14 0.00 0.19
7 1 15 10.64 0.36
7 1 16 1.75 0.21
7 1 17 0.52 0.28
7 1 18 0.27 0.23
7 1 19 2.07 0.33
7 1 20 0.00 0.23
7 1 21 0.01 0.24
7 1 22 6.06 0.39
7 1 23 0.02 0.26
7 1 24 0.81 0.28
7 1 25 0.21 0.27
7 1 26 1.60 0.45
7 3 0 207.53 2.27
7 3 1 191.77 2.39
7 3 2 52.28 1.09
7 3 3 133.60 3.02
7 3 4 52.43 1.29
7 3 5 0.04 0.15
7 3 6 12.89 0.33
7 3 7 42.37 0.64
7 3 8 1.72 0.32
7 3 9 20.08 0.99
7 3 10 1.71 0.24
7 3 11 2.93 0.18
7 3 12 12.97 0.59
7 3 13 9.47 0.35
7 3 14 9.73 0.41
7 3 15 1.04 0.22
7 3 16 38.74 1.07
7 3 17 4.18 0.39
7 3 18 0.79 0.22
7 3 19 0.13 0.24
7 3 20 0.99 0.25
7 3 21 0.04 0.25
7 3 22 0.54 0.26
7 3 23 2.06 0.39
7 3 24 0.08 0.27
7 3 25 1.94 0.32
7 3 26 0.00 0.28
7 5 0 1.66 0.23
7 5 1 11.06 0.25
7 5 2 29.10 0.77
7 5 3 52.59 0.72
7 5 4 94.36 1.67
7 5 5 41.02 1.05
7 5 6 31.10 1.02
7 5 7 8.04 0.25
7 5 8 5.49 0.20
7 5 9 1.38 0.16
7 5 10 23.41 0.50
7 5 11 7.45 0.41
7 5 12 7.58 0.30
7 5 13 0.00 0.18
7 5 14 22.40 0.57
7 5 15 10.43 0.44
7 5 16 2.42 0.45
7 5 17 0.01 0.21
7 5 18 2.24 0.30
7 5 19 15.37 0.93
7 5 20 7.40 0.39
7 5 21 0.06 0.24
7 5 22 9.32 0.44
7 5 23 0.06 0.25
7 5 24 0.19 0.27
7 5 25 0.01 0.27
7 5 26 0.32 0.35
7 7 0 6.21 0.20
7 7 1 2.03 0.09
7 7 2 0.17 0.09
7 7 3 2.42 0.11
7 7 4 66.41 0.86
7 7 5 15.71 0.52
7 7 6 22.07 1.62
7 7 7 0.84 0.14
7 7 8 8.55 0.34
7 7 9 20.15 0.62
7 7 10 30.61 0.54
7 7 11 19.20 0.44
7 7 12 7.81 0.34
7 7 13 0.06 0.15
7 7 14 7.38 0.25
7 7 15 10.60 0.57
7 7 16 2.07 0.24
7 7 17 14.33 0.44
7 7 18 14.13 0.47
7 7 19 0.10 0.23
7 7 20 0.22 0.24
7 7 21 0.00 0.24
7 7 22 0.63 0.26
7 7 23 0.12 0.26
7 7 24 0.12 0.27
7 7 25 1.52 0.29
7 7 26 0.37 0.29
7 9 0 0.35 0.13
7 9 1 18.54 0.36
7 9 2 2.21 0.13
7 9 3 2.93 0.14
7 9 4 6.09 0.22
7 9 5 4.93 0.20
7 9 6 1.51 0.18
7 9 7 12.72 0.30
7 9 8 2.45 0.21
7 9 9 9.24 0.28
7 9 10 7.15 0.26
7 9 11 12.97 0.38
7 9 12 1.58 0.22
7 9 13 2.18 0.33
7 9 14 8.73 0.32
7 9 15 7.38 0.31
7 9 16 1.93 0.25
7 9 17 5.38 0.50
7 9 18 0.31 0.20
7 9 19 11.73 0.44
7 9 20 0.22 0.21
7 9 21 12.18 0.54
7 9 22 0.09 0.25
7 9 23 0.42 0.27
7 9 24 0.00 0.27
7 9 25 0.00 0.28
7 11 0 6.01 0.15
7 11 1 9.32 0.24
7 11 2 41.70 0.76
7 11 3 63.67 1.15
7 11 4 10.44 0.73
7 11 5 0.02 0.10
7 11 6 0.89 0.14
7 11 7 1.89 0.20
7 11 8 2.44 0.26
7 11 9 6.85 0.25
7 11 10 3.17 0.22
7 11 11 0.14 0.16
7 11 12 15.11 0.38
7 11 13 0.26 0.18
7 11 14 8.15 0.52
7 11 15 4.85 0.29
7 11 16 4.93 0.30
7 11 17 1.22 0.21
7 11 18 0.33 0.22
7 11 19 0.09 0.21
7 11 20 2.93 0.25
7 11 21 0.74 0.24
7 11 22 2.08 0.25
7 11 23 0.42 0.24
7 11 24 1.85 0.30
7 11 25 0.00 0.28
7 13 0 2.49 0.13
7 13 1 6.49 0.19
7 13 2 0.46 0.10
7 13 3 4.35 0.26
7 13 4 10.78 0.23
7 13 5 1.28 0.12
7 13 6 11.98 0.28
7 13 7 32.75 0.73
7 13 8 0.22 0.14
7 13 9 22.71 0.46
7 13 10 1.41 0.16
7 13 11 7.39 0.29
7 13 12 0.52 0.17
7 13 13 3.84 0.20
7 13 14 0.80 0.24
7 13 15 1.68 0.19
7 13 16 0.54 0.19
7 13 17 12.46 0.52
7 13 18 0.84 0.21
7 13 19 0.01 0.21
7 13 20 0.25 0.25
7 13 21 0.27 0.25
7 13 22 2.59 0.30
7 13 23 0.02 0.26
7 13 24 0.00 0.27
7 15 0 2.18 0.20
7 15 1 13.93 0.28
7 15 2 10.84 0.50
7 15 3 1.33 0.13
7 15 4 1.51 0.12
7 15 5 0.14 0.16
7 15 6 0.12 0.12
7 15 7 0.00 0.14
7 15 8 3.85 0.22
7 15 9 4.12 0.30
7 15 10 0.03 0.15
7 15 11 11.25 0.32
7 15 12 1.60 0.20
7 15 13 1.29 0.19
7 15 14 1.30 0.19
7 15 15 0.01 0.18
7 15 16 2.50 0.26
7 15 17 13.74 0.48
7 15 18 0.23 0.24
7 15 19 1.42 0.26
7 15 20 0.20 0.39
7 15 21 0.22 0.29
7 15 22 0.11 0.38
7 15 23 1.10 0.33
7 17 0 3.25 0.20
7 17 1 29.32 0.57
7 17 2 82.43 1.49
7 17 3 1.52 0.15
7 17 4 23.50 0.50
7 17 5 3.40 0.29
7 17 6 5.52 0.23
7 17 7 1.14 0.15
7 17 8 1.10 0.19
7 17 9 1.46 0.19
7 17 10 3.89 0.35
7 17 11 5.20 0.36
7 17 12 0.09 0.23
7 17 13 0.34 0.24
7 17 14 1.97 0.27
7 17 15 0.00 0.25
7 17 16 4.94 0.41
7 17 17 0.23 0.27
7 17 18 2.60 0.32
7 17 19 0.16 0.44
7 17 20 0.99 0.31
7 17 21 1.30 0.33
7 17 22 3.00 0.35
7 19 0 0.62 0.14
7 19 1 1.06 0.24
7 19 2 1.19 0.17
7 19 3 8.96 0.38
7 19 4 5.66 0.39
7 19 5 5.99 0.33
7 19 6 6.89 0.31
7 19 7 4.14 0.24
7 19 8 0.58 0.22
7 19 9 14.88 0.61
7 19 10 0.02 0.23
7 19 11 8.84 0.39
7 19 12 0.02 0.24
7 19 13 0.48 0.26
7 19 14 0.03 0.27
7 19 15 0.00 0.26
7 19 16 0.63 0.46
7 19 17 2.42 0.38
7 19 18 1.79 0.31
7 19 19 3.61 0.65
7 19 20 0.46 0.31
7 21 0 0.14 0.16
7 21 1 16.56 0.80
7 21 2 11.94 0.36
7 21 3 3.13 0.20
7 21 4 0.17 0.18
7 21 5 1.67 0.20
7 21 6 8.87 0.37
7 21 7 1.25 0.20
7 21 8 0.55 0.20
7 21 9 6.04 0.36
7 21 10 1.20 0.26
7 21 11 2.27 0.52
7 21 12 2.06 0.50
7 21 13 3.02 0.30
7 21 14 2.56 0.31
7 21 15 0.02 0.28
7 21 16 5.37 0.46
7 21 17 1.93 0.33
7 21 18 0.28 0.30
7 21 19 0.00 0.30
7 23 0 0.03 0.17
7 23 1 0.08 0.17
7 23 2 0.77 0.18
7 23 3 1.24 0.20
7 23 4 0.72 0.19
7 23 5 0.06 0.19
7 23 6 6.49 0.32
7 23 7 0.00 0.20
7 23 8 0.62 0.25
7 23 9 4.08 0.33
7 23 10 4.65 0.39
7 23 11 3.70 0.31
7 23 12 3.89 0.40
7 23 13 1.47 0.29
7 23 14 0.01 0.28
7 23 15 1.87 0.31
7 23 16 1.07 0.31
7 23 17 0.66 0.39
7 25 0 0.31 0.24
7 25 1 1.47 0.51
7 25 2 0.34 0.19
7 25 3 2.12 0.21
7 25 4 4.42 0.52
7 25 5 0.64 0.20
7 25 6 1.42 0.28
7 25 7 14.99 0.81
7 25 8 2.15 0.25
7 25 9 24.81 0.77
7 25 10 0.42 0.33
7 25 11 0.61 0.28
7 25 12 0.56 0.28
7 25 13 0.54 0.30
7 25 14 0.85 0.31
7 25 15 0.02 0.31
7 27 0 0.18 0.26
7 27 1 0.07 0.29
7 27 2 3.38 0.31
7 27 3 0.79 0.27
7 27 4 10.01 0.46
7 27 5 0.92 0.27
7 27 6 2.37 0.24
7 27 7 0.33 0.22
7 27 8 3.09 0.27
7 27 9 1.05 0.28
7 27 10 0.05 0.28
7 27 11 0.33 0.28
7 27 12 13.79 0.59
7 29 0 0.59 0.27
7 29 1 5.40 0.52
7 29 2 1.13 0.28
7 29 3 0.46 0.36
7 29 4 3.01 0.33
7 29 5 1.58 0.30
7 29 6 0.79 0.33
7 29 7 1.02 0.30
7 29 8 0.66 0.31
8 0 0 63.38 1.72
8 0 2 12.77 0.54
8 0 4 55.05 1.69
8 0 6 18.22 0.34
8 0 8 7.84 0.15
8 0 10 8.74 0.53
8 0 12 26.53 1.19
8 0 14 3.38 0.35
8 0 16 37.97 1.71
8 0 18 2.16 0.36
8 0 20 0.07 0.33
8 0 22 1.73 0.66
8 0 24 1.44 0.40
8 0 26 8.80 0.85
8 2 0 14.85 0.45
8 2 1 22.47 0.39
8 2 2 4.76 0.12
8 2 3 29.54 0.72
8 2 4 0.97 0.13
8 2 5 14.23 0.23
8 2 6 20.67 0.42
8 2 7 5.95 0.21
8 2 8 18.02 0.37
8 2 9 1.35 0.18
8 2 10 4.04 0.20
8 2 11 0.58 0.26
8 2 12 0.46 0.19
8 2 13 8.41 0.34
8 2 14 1.46 0.25
8 2 15 1.92 0.23
8 2 16 11.66 0.50
8 2 17 3.28 0.48
8 2 18 0.11 0.23
8 2 19 4.57 0.37
8 2 20 0.00 0.25
8 2 21 7.75 0.51
8 2 22 0.15 0.26
8 2 23 5.32 0.44
8 2 24 0.03 0.28
8 2 25 0.21 0.46
8 2 26 0.00 0.37
8 4 0 8.02 0.22
8 4 1 77.47 1.42
8 4 2 1.22 0.26
8 4 3 67.84 1.24
8 4 4 23.73 0.39
8 4 5 35.43 0.50
8 4 6 25.06 0.60
8 4 7 55.11 1.16
8 4 8 3.18 0.20
8 4 9 1.19 0.20
8 4 10 4.57 0.23
8 4 11 24.14 0.70
8 4 12 0.00 0.16
8 4 13 1.41 0.22
8 4 14 14.95 0.44
8 4 15 3.22 0.23
8 4 16 0.40 0.22
8 4 17 4.71 0.42
8 4 18 14.44 0.87
8 4 19 6.05 0.39
8 4 20 5.58 0.38
8 4 21 0.17 0.26
8 4 22 0.00 0.26
8 4 23 2.72 0.30
8 4 24 0.27 0.28
8 4 25 0.54 0.29
8 6 0 71.98 1.30
8 6 1 76.88 1.53
8 6 2 25.97 0.39
8 6 3 61.55 1.05
8 6 4 51.35 1.36
8 6 5 15.45 0.31
8 6 6 0.23 0.12
8 6 7 5.77 0.22
8 6 8 55.14 1.04
8 6 9 11.64 0.33
8 6 10 13.11 0.43
8 6 11 1.69 0.16
8 6 12 6.19 0.27
8 6 13 0.48 0.16
8 6 14 10.18 0.31
8 6 15 0.73 0.18
8 6 16 2.96 0.26
8 6 17 0.68 0.23
8 6 18 1.50 0.25
8 6 19 1.24 0.26
8 6 20 1.84 0.27
8 6 21 2.09 0.27
8 6 22 0.89 0.46
8 6 23 0.18 0.28
8 6 24 0.15 0.28
8 6 25 0.13 0.29
8 8 0 0.49 0.11
8 8 1 4.92 0.25
8 8 2 7.88 0.59
8 8 3 20.41 0.48
8 8 4 6.76 0.20
8 8 5 5.67 0.22
8 8 6 0.20 0.14
8 8 7 15.91 0.41
8 8 8 0.32 0.17
8 8 9 9.76 0.31
8 8 10 15.01 0.36
8 8 11 2.15 0.17
8 8 12 9.70 0.45
8 8 13 1.00 0.29
8 8 14 0.36 0.17
8 8 15 22.17 0.56
8 8 16 3.20 0.23
8 8 17 2.29 0.23
8 8 18 14.82 0.57
8 8 19 3.38 0.38
8 8 20 0.15 0.21
8 8 21 2.45 0.25
8 8 22 0.10 0.22
8 8 23 0.77 0.24
8 8 24 0.00 0.27
8 8 25 0.30 0.29
8 10 0 25.83 0.41
8 10 1 20.18 0.34
8 10 2 43.21 0.88
8 10 3 1.80 0.26
8 10 4 12.30 0.27
8 10 5 0.29 0.15
8 10 6 0.01 0.13
8 10 7 17.43 0.37
8 10 8 2.27 0.22
8 10 9 0.91 0.15
8 10 10 5.41 0.29
8 10 11 20.14 0.46
8 10 12 2.10 0.19
8 10 13 0.12 0.17
8 10 14 1.29 0.20
8 10 15 2.52 0.24
8 10 16 0.67 0.19
8 10 17 0.01 0.19
8 10 18 0.65 0.21
8 10 19 0.11 0.21
8 10 20 4.97 0.33
8 10 21 0.10 0.22
8 10 22 0.70 0.23
8 10 23 3.15 0.29
8 10 24 0.00 0.24
8 12 0 23.61 0.41
8 12 1 0.71 0.14
8 12 2 20.45 0.46
8 12 3 1.88 0.14
8 12 4 2.94 0.12
8 12 5 1.31 0.17
8 12 6 30.42 0.61
8 12 7 16.73 0.36
8 12 8 6.39 0.27
8 12 9 6.61 0.26
8 12 10 0.44 0.16
8 12 11 5.99 0.28
8 12 12 6.23 0.27
8 12 13 3.82 0.21
8 12 14 3.08 0.35
8 12 15 1.47 0.20
8 12 16 3.16 0.42
8 12 17 0.30 0.20
8 12 18 4.40 0.28
8 12 19 0.01 0.21
8 12 20 6.51 0.66
8 12 21 4.52 0.37
8 12 22 0.90 0.28
8 12 23 0.38 0.27
8 14 0 0.07 0.10
8 14 1 12.76 0.28
8 14 2 1.71 0.15
8 14 3 28.86 0.50
8 14 4 8.60 0.26
8 14 5 14.67 0.36
8 14 6 3.60 0.20
8 14 7 1.72 0.16
8 14 8 0.95 0.15
8 14 9 0.45 0.16
8 14 10 0.06 0.16
8 14 11 7.95 0.28
8 14 12 5.02 0.26
8 14 13 10.52 0.36
8 14 14 1.31 0.19
8 14 15 7.47 0.40
8 14 16 0.29 0.20
8 14 17 1.25 0.30
8 14 18 0.00 0.24
8 14 19 0.02 0.25
8 14 20 0.09 0.26
8 14 21 2.24 0.34
8 14 22 0.00 0.31
8 16 0 34.68 0.76
8 16 1 0.10 0.14
8 16 2 15.77 0.34
8 16 3 0.65 0.14
8 16 4 0.53 0.14
8 16 5 1.77 0.15
8 16 6 1.97 0.20
8 16 7 1.53 0.19
8 16 8 1.80 0.20
8 16 9 2.38 0.23
8 16 10 12.89 0.42
8 16 11 2.65 0.22
8 16 12 2.50 0.22
8 16 13 0.36 0.24
8 16 14 4.64 0.39
8 16 15 0.64 0.26
8 16 16 0.01 0.26
8 16 17 0.70 0.29
8 16 18 1.80 0.31
8 16 19 0.01 0.29
8 16 20 0.90 0.31
8 16 21 3.70 0.35
8 18 0 4.09 0.32
8 18 1 10.99 0.30
8 18 2 0.37 0.18
8 18 3 11.13 0.33
8 18 4 12.93 0.67
8 18 5 13.65 0.35
8 18 6 6.46 0.39
8 18 7 0.32 0.18
8 18 8 0.98 0.28
8 18 9 2.86 0.31
8 18 10 0.89 0.28
8 18 11 0.51 0.24
8 18 12 1.71 0.27
8 18 13 0.78 0.27
8 18 14 2.13 0.29
8 18 15 0.04 0.26
8 18 16 0.11 0.41
8 18 17 0.17 0.29
8 18 18 5.53 0.53
8 18 19 1.59 0.32
8 18 20 0.30 0.31
8 20 0 2.03 0.18
8 20 1 3.69 0.30
8 20 2 10.80 0.35
8 20 3 1.51 0.19
8 20 4 0.84 0.18
8 20 5 8.37 0.33
8 20 6 0.44 0.19
8 20 7 0.38 0.19
8 20 8 1.16 0.24
8 20 9 0.39 0.25
8 20 10 0.05 0.25
8 20 11 4.53 0.34
8 20 12 0.00 0.26
8 20 13 14.68 0.57
8 20 14 1.26 0.29
8 20 15 3.45 0.81
8 20 16 2.11 0.32
8 20 17 2.41 0.41
8 20 18 0.25 0.31
8 20 19 0.01 0.31
8 22 0 12.75 0.40
8 22 1 0.04 0.18
8 22 2 11.49 0.44
8 22 3 1.51 0.37
8 22 4 0.60 0.19
8 22 5 0.70 0.19
8 22 6 9.09 0.38
8 22 7 1.94 0.22
8 22 8 18.44 0.60
8 22 9 1.37 0.27
8 22 10 28.78 0.81
8 22 11 1.40 0.29
8 22 12 0.76 0.29
8 22 13 0.21 0.28
8 22 14 5.67 0.44
8 22 15 0.22 0.29
8 22 16 0.83 0.31
8 22 17 2.92 0.35
8 24 0 3.55 0.45
8 24 1 0.30 0.19
8 24 2 24.14 0.70
8 24 3 4.64 0.29
8 24 4 2.00 0.22
8 24 5 13.31 0.44
8 24 6 17.05 0.49
8 24 7 5.79 0.34
8 24 8 0.02 0.25
8 24 9 0.00 0.26
8 24 10 0.01 0.37
8 24 11 4.95 0.42
8 24 12 0.84 0.29
8 24 13 11.36 0.53
8 24 14 1.51 0.32
8 24 15 2.03 0.33
8 26 0 0.51 0.26
8 26 1 2.92 0.29
8 26 2 0.84 0.27
8 26 3 0.37 0.26
8 26 4 0.15 0.21
8 26 5 5.19 0.31
8 26 6 3.83 0.33
8 26 7 9.22 0.40
8 26 8 4.29 0.36
8 26 9 0.37 0.27
8 26 10 0.82 0.29
8 26 11 12.34 0.54
8 26 12 3.91 0.37
8 28 0 1.53 0.29
8 28 1 4.50 0.38
8 28 2 0.22 0.27
8 28 3 0.00 0.26
8 28 4 1.34 0.29
8 28 5 3.00 0.32
8 28 6 0.91 0.29
8 28 7 4.10 0.36
8 28 8 4.68 0.42
8 30 0 2.41 0.32
8 30 1 5.93 0.45
8 30 2 0.05 0.28
9 1 0 1.76 0.12
9 1 1 1.22 0.14
9 1 2 54.57 0.78
9 1 3 6.00 0.32
9 1 4 12.81 0.36
9 1 5 2.28 0.15
9 1 6 0.46 0.12
9 1 7 29.57 0.65
9 1 8 3.54 0.20
9 1 9 17.31 0.35
9 1 10 14.00 0.36
9 1 11 1.46 0.17
9 1 12 4.40 0.36
9 1 13 9.09 0.34
9 1 14 0.25 0.21
9 1 15 2.74 0.30
9 1 16 14.88 0.55
9 1 17 0.16 0.23
9 1 18 0.14 0.24
9 1 19 1.98 0.27
9 1 20 6.01 0.40
9 1 21 0.15 0.26
9 1 22 3.98 0.52
9 1 23 0.23 0.28
9 1 24 0.75 0.29
9 1 25 0.89 0.30
9 3 0 1.02 0.12
9 3 1 2.77 0.20
9 3 2 0.82 0.19
9 3 3 38.32 0.95
9 3 4 1.90 0.16
9 3 5 12.11 0.20
9 3 6 3.42 0.12
9 3 7 0.97 0.11
9 3 8 0.76 0.12
9 3 9 49.82 0.86
9 3 10 0.10 0.14
9 3 11 53.93 2.44
9 3 12 10.80 0.76
9 3 13 0.07 0.16
9 3 14 0.02 0.17
9 3 15 6.81 0.34
9 3 16 2.16 0.40
9 3 17 9.60 0.41
9 3 18 0.00 0.23
9 3 19 6.43 0.37
9 3 20 0.00 0.25
9 3 21 0.02 0.26
9 3 22 0.41 0.27
9 3 23 0.01 0.27
9 3 24 0.00 0.33
9 5 0 19.16 1.02
9 5 1 46.22 2.00
9 5 2 26.11 0.61
9 5 3 36.99 0.55
9 5 4 56.27 0.88
9 5 5 3.17 0.15
9 5 6 18.15 0.35
9 5 7 9.90 0.26
9 5 8 5.32 0.44
9 5 9 12.92 0.32
9 5 10 14.67 0.37
9 5 11 13.60 0.40
9 5 12 8.20 0.48
9 5 13 8.62 0.55
9 5 14 3.77 0.31
9 5 15 0.24 0.18
9 5 16 0.08 0.18
9 5 17 1.02 0.20
9 5 18 0.08 0.20
9 5 19 0.42 0.25
9 5 20 2.68 0.28
9 5 21 0.00 0.26
9 5 22 6.24 0.42
9 5 23 0.02 0.27
9 5 24 0.01 0.28
9 7 0 4.84 0.15
9 7 1 21.98 0.52
9 7 2 9.01 0.18
9 7 3 67.82 1.07
9 7 4 0.68 0.30
9 7 5 0.14 0.22
9 7 6 1.49 0.19
9 7 7 27.13 0.50
9 7 8 4.07 0.34
9 7 9 12.03 0.79
9 7 10 7.42 0.29
9 7 11 4.93 0.24
9 7 12 21.25 0.52
9 7 13 13.77 0.56
9 7 14 21.52 0.65
9 7 15 9.42 0.35
9 7 16 3.16 0.21
9 7 17 0.61 0.26
9 7 18 2.16 0.22
9 7 19 0.05 0.21
9 7 20 0.01 0.25
9 7 21 0.00 0.25
9 7 22 0.65 0.28
9 7 23 0.00 0.28
9 7 24 0.37 0.40
9 9 0 25.23 0.34
9 9 1 39.33 0.68
9 9 2 13.47 0.74
9 9 3 1.07 0.12
9 9 4 0.24 0.13
9 9 5 5.01 0.23
9 9 6 2.48 0.21
9 9 7 2.89 0.18
9 9 8 0.19 0.15
9 9 9 5.78 0.25
9 9 10 9.20 0.31
9 9 11 5.90 0.28
9 9 12 1.52 0.18
9 9 13 3.93 0.27
9 9 14 2.02 0.26
9 9 15 5.12 0.29
9 9 16 0.49 0.20
9 9 17 3.32 0.25
9 9 18 0.33 0.21
9 9 19 9.10 0.43
9 9 20 1.18 0.24
9 9 21 5.33 0.56
9 9 22 0.36 0.28
9 9 23 0.41 0.28
9 11 0 1.45 0.12
9 11 1 4.53 0.17
9 11 2 4.07 0.17
9 11 3 13.75 0.31
9 11 4 33.48 0.64
9 11 5 27.91 0.53
9 11 6 15.53 0.40
9 11 7 0.93 0.15
9 11 8 7.86 0.29
9 11 9 1.73 0.21
9 11 10 14.73 0.38
9 11 11 0.83 0.17
9 11 12 0.00 0.18
9 11 13 0.10 0.18
9 11 14 2.25 0.31
9 11 15 0.41 0.25
9 11 16 4.77 0.30
9 11 17 0.01 0.21
9 11 18 0.87 0.22
9 11 19 0.66 0.23
9 11 20 4.47 0.32
9 11 21 0.63 0.27
9 11 22 7.89 0.44
9 11 23 0.56 0.53
9 13 0 0.59 0.15
9 13 1 0.06 0.11
9 13 2 0.00 0.11
9 13 3 0.16 0.12
9 13 4 0.06 0.12
9 13 5 0.00 0.12
9 13 6 8.73 0.28
9 13 7 1.96 0.22
9 13 8 1.43 0.23
9 13 9 3.04 0.19
9 13 10 4.32 0.25
9 13 11 0.92 0.17
9 13 12 10.39 0.33
9 13 13 0.22 0.18
9 13 14 6.88 0.31
9 13 15 3.09 0.22
9 13 16 0.59 0.21
9 13 17 14.88 0.51
9 13 18 1.37 0.23
9 13 19 0.83 0.23
9 13 20 0.28 0.26
9 13 21 1.53 0.29
9 13 22 0.32 0.42
9 15 0 5.99 0.29
9 15 1 2.09 0.21
9 15 2 3.10 0.18
9 15 3 0.00 0.19
9 15 4 2.65 0.20
9 15 5 2.51 0.27
9 15 6 7.22 0.32
9 15 7 21.07 1.03
9 15 8 0.05 0.19
9 15 9 5.14 0.27
9 15 10 3.12 0.26
9 15 11 0.08 0.20
9 15 12 1.28 0.22
9 15 13 1.27 0.22
9 15 14 4.00 0.32
9 15 15 2.12 0.28
9 15 16 0.52 0.28
9 15 17 3.63 0.56
9 15 18 1.52 0.31
9 15 19 2.50 0.34
9 15 20 0.61 0.32
9 15 21 0.10 0.31
9 17 0 27.80 0.57
9 17 1 22.65 0.59
9 17 2 34.97 0.70
9 17 3 13.65 0.54
9 17 4 35.09 0.71
9 17 5 5.34 0.27
9 17 6 1.16 0.17
9 17 7 10.23 0.37
9 17 8 1.15 0.20
9 17 9 3.56 0.26
9 17 10 0.73 0.25
9 17 11 0.00 0.23
9 17 12 0.02 0.25
9 17 13 3.60 0.38
9 17 14 3.50 0.43
9 17 15 0.74 0.28
9 17 16 2.57 0.42
9 17 17 0.27 0.29
9 17 18 0.00 0.29
9 17 19 0.12 0.30
9 17 20 0.84 0.32
9 19 0 0.72 0.16
9 19 1 0.49 0.18
9 19 2 1.11 0.19
9 19 3 1.85 0.19
9 19 4 0.76 0.18
9 19 5 2.05 0.20
9 19 6 1.56 0.20
9 19 7 19.59 0.60
9 19 8 3.07 0.52
9 19 9 12.89 0.49
9 19 10 2.72 0.61
9 19 11 10.54 0.68
9 19 12 5.77 0.49
9 19 13 2.87 0.31
9 19 14 0.30 0.27
9 19 15 5.34 0.63
9 19 16 0.11 0.29
9 19 17 1.61 0.32
9 19 18 1.42 0.33
9 21 0 0.14 0.18
9 21 1 3.41 0.21
9 21 2 2.89 0.25
9 21 3 5.83 0.30
9 21 4 7.28 0.33
9 21 5 2.45 0.21
9 21 6 17.17 0.47
9 21 7 16.80 0.86
9 21 8 1.54 0.28
9 21 9 5.00 0.40
9 21 10 0.93 0.27
9 21 11 0.37 0.27
9 21 12 2.18 0.30
9 21 13 0.00 0.27
9 21 14 0.77 0.29
9 21 15 1.19 0.31
9 21 16 0.09 0.30
9 21 17 1.05 0.61
9 23 0 5.22 0.40
9 23 1 0.68 0.26
9 23 2 0.74 0.20
9 23 3 3.64 0.32
9 23 4 3.31 0.29
9 23 5 6.57 0.37
9 23 6 18.98 0.72
9 23 7 0.23 0.22
9 23 8 0.00 0.26
9 23 9 0.88 0.28
9 23 10 4.67 0.64
9 23 11 0.53 0.28
9 23 12 4.95 0.42
9 23 13 0.20 0.38
9 23 14 6.90 0.47
9 25 0 2.62 0.28
9 25 1 1.72 0.26
9 25 2 0.15 0.20
9 25 3 0.75 0.24
9 25 4 4.71 0.33
9 25 5 0.10 0.21
9 25 6 8.65 0.39
9 25 7 3.67 0.29
9 25 8 0.05 0.27
9 25 9 7.63 0.46
9 25 10 1.25 0.29
9 25 11 4.41 0.38
9 25 12 0.20 0.32
9 27 0 1.14 0.28
9 27 1 0.15 0.31
9 27 2 1.05 0.29
9 27 3 3.00 0.74
9 27 4 15.63 0.66
9 27 5 2.81 0.32
9 27 6 17.49 0.53
9 27 7 0.91 0.25
9 27 8 4.44 0.37
9 29 0 0.94 0.30
9 29 1 3.78 0.35
9 29 2 0.16 0.29
9 29 3 0.00 0.28
10 0 0 4.62 0.23
10 0 2 0.25 0.22
10 0 4 0.30 0.17
10 0 6 29.73 0.64
10 0 8 0.03 0.28
10 0 10 10.60 0.47
10 0 12 40.09 1.46
10 0 14 1.44 0.32
10 0 16 6.78 0.60
10 0 18 4.54 0.42
10 0 20 0.80 0.38
10 0 22 0.03 0.39
10 0 24 2.36 0.45
10 2 0 0.33 0.14
10 2 1 6.73 0.27
10 2 2 16.39 0.34
10 2 3 6.60 0.20
10 2 4 13.99 0.30
10 2 5 0.58 0.14
10 2 6 3.93 0.22
10 2 7 0.27 0.13
10 2 8 9.18 0.28
10 2 9 4.44 0.17
10 2 10 2.23 0.14
10 2 11 8.87 0.39
10 2 12 4.46 0.31
10 2 13 15.56 0.69
10 2 14 4.65 0.34
10 2 15 22.07 1.04
10 2 16 0.02 0.23
10 2 17 0.05 0.26
10 2 18 0.49 0.25
10 2 19 0.05 0.25
10 2 20 0.11 0.26
10 2 21 5.77 0.58
10 2 22 0.55 0.28
10 2 23 2.95 0.32
10 4 0 0.73 0.16
10 4 1 30.28 0.71
10 4 2 0.73 0.15
10 4 3 37.66 0.72
10 4 4 0.78 0.10
10 4 5 17.33 0.41
10 4 6 0.54 0.10
10 4 7 3.91 0.43
10 4 8 5.25 0.24
10 4 9 3.71 0.23
10 4 10 5.02 0.22
10 4 11 0.82 0.19
10 4 12 0.62 0.19
10 4 13 14.89 0.36
10 4 14 6.13 0.36
10 4 15 3.52 0.34
10 4 16 0.22 0.24
10 4 17 0.43 0.24
10 4 18 1.45 0.44
10 4 19 0.81 0.27
10 4 20 1.22 0.28
10 4 21 1.32 0.29
10 4 22 0.00 0.27
10 4 23 0.00 0.28
10 6 0 7.26 0.16
10 6 1 1.45 0.14
10 6 2 48.44 1.02
10 6 3 28.15 0.54
10 6 4 0.39 0.13
10 6 5 3.36 0.21
10 6 6 22.83 0.49
10 6 7 0.06 0.13
10 6 8 26.09 0.56
10 6 9 0.66 0.16
10 6 10 1.50 0.28
10 6 11 0.82 0.16
10 6 12 1.78 0.32
10 6 13 2.29 0.22
10 6 14 0.83 0.19
10 6 15 0.58 0.23
10 6 16 7.49 0.38
10 6 17 0.18 0.24
10 6 18 0.97 0.27
10 6 19 3.52 0.33
10 6 20 0.19 0.27
10 6 21 0.00 0.42
10 6 22 0.58 0.28
10 6 23 0.76 0.30
10 8 0 0.75 0.11
10 8 1 0.06 0.09
10 8 2 0.27 0.13
10 8 3 0.32 0.13
10 8 4 0.16 0.13
10 8 5 30.59 0.63
10 8 6 0.05 0.15
10 8 7 11.99 0.33
10 8 8 0.54 0.15
10 8 9 4.98 0.24
10 8 10 2.31 0.20
10 8 11 22.81 0.52
10 8 12 0.24 0.18
10 8 13 15.87 0.54
10 8 14 0.22 0.19
10 8 15 1.74 0.21
10 8 16 2.51 0.26
10 8 17 0.06 0.24
10 8 18 3.38 0.30
10 8 19 0.40 0.27
10 8 20 1.33 0.29
10 8 21 1.16 0.29
10 8 22 0.00 0.28
10 8 23 3.44 1.45
10 10 0 31.28 0.53
10 10 1 0.03 0.15
10 10 2 3.59 0.15
10 10 3 8.11 0.24
10 10 4 4.36 0.25
10 10 5 11.70 0.45
10 10 6 0.00 0.15
10 10 7 0.05 0.16
10 10 8 6.06 0.26
10 10 9 2.02 0.17
10 10 10 3.10 0.20
10 10 11 0.02 0.17
10 10 12 4.09 0.23
10 10 13 11.45 0.36
10 10 14 1.74 0.23
10 10 15 10.62 0.42
10 10 16 2.56 0.28
10 10 17 0.08 0.25
10 10 18 7.61 0.70
10 10 19 2.25 0.38
10 10 20 3.07 0.33
10 10 21 0.13 0.44
10 10 22 2.09 0.31
10 12 0 41.37 1.07
10 12 1 1.34 0.31
10 12 2 1.04 0.13
10 12 3 31.79 0.53
10 12 4 0.78 0.21
10 12 5 3.02 0.22
10 12 6 9.07 0.28
10 12 7 3.08 0.26
10 12 8 16.07 0.38
10 12 9 1.35 0.23
10 12 10 3.12 0.38
10 12 11 0.01 0.21
10 12 12 0.14 0.18
10 12 13 0.02 0.18
10 12 14 0.05 0.19
10 12 15 1.12 0.21
10 12 16 3.54 0.28
10 12 17 0.22 0.21
10 12 18 0.32 0.26
10 12 19 0.85 0.27
10 12 20 2.33 0.30
10 12 21 2.08 0.36
10 14 0 3.11 0.17
10 14 1 11.16 0.33
10 14 2 0.00 0.14
10 14 3 31.43 0.67
10 14 4 15.57 0.42
10 14 5 7.96 0.28
10 14 6 20.75 0.51
10 14 7 4.59 0.26
10 14 8 0.01 0.17
10 14 9 0.01 0.17
10 14 10 1.22 0.19
10 14 11 2.17 0.35
10 14 12 2.71 0.25
10 14 13 0.12 0.21
10 14 14 3.02 0.27
10 14 15 0.04 0.22
10 14 16 0.15 0.24
10 14 17 2.86 0.30
10 14 18 0.21 0.54
10 14 19 1.17 0.40
10 14 20 0.28 0.38
10 16 0 57.92 1.13
10 16 1 56.35 1.13
10 16 2 16.92 0.57
10 16 3 18.26 0.51
10 16 4 1.05 0.20
10 16 5 0.05 0.16
10 16 6 1.51 0.21
10 16 7 0.88 0.19
10 16 8 1.44 0.21
10 16 9 0.40 0.22
10 16 10 1.64 0.32
10 16 11 0.37 0.22
10 16 12 0.01 0.22
10 16 13 0.24 0.26
10 16 14 0.01 0.26
10 16 15 2.55 0.30
10 16 16 0.98 0.29
10 16 17 0.08 0.29
10 16 18 3.88 0.35
10 16 19 0.26 0.39
10 18 0 1.78 0.19
10 18 1 0.78 0.24
10 18 2 1.05 0.17
10 18 3 0.14 0.16
10 18 4 0.05 0.16
10 18 5 1.09 0.18
10 18 6 15.34 0.57
10 18 7 3.59 0.29
10 18 8 20.22 0.64
10 18 9 0.00 0.25
10 18 10 7.81 0.42
10 18 11 3.27 0.30
10 18 12 1.55 0.48
10 18 13 3.31 0.42
10 18 14 0.03 0.28
10 18 15 3.61 0.34
10 18 16 0.19 0.31
10 18 17 0.42 0.31
10 18 18 0.69 0.31
10 20 0 3.20 0.29
10 20 1 0.27 0.24
10 20 2 0.00 0.18
10 20 3 1.11 0.20
10 20 4 0.20 0.19
10 20 5 6.64 0.33
10 20 6 0.91 0.20
10 20 7 13.21 0.53
10 20 8 0.76 0.27
10 20 9 0.01 0.36
10 20 10 3.50 0.31
10 20 11 7.23 0.45
10 20 12 0.07 0.30
10 20 13 1.17 0.29
10 20 14 1.42 0.36
10 20 15 1.31 0.31
10 20 16 0.00 0.30
10 22 0 19.28 0.50
10 22 1 0.52 0.24
10 22 2 5.59 0.40
10 22 3 0.68 0.20
10 22 4 0.28 0.20
10 22 5 5.77 0.33
10 22 6 0.20 0.21
10 22 7 2.98 0.48
10 22 8 1.35 0.29
10 22 9 0.00 0.27
10 22 10 6.65 0.44
10 22 11 0.28 0.28
10 22 12 0.02 0.28
10 22 13 0.22 0.30
10 22 14 0.79 0.31
10 24 0 5.12 0.43
10 24 1 0.04 0.21
10 24 2 0.04 0.21
10 24 3 2.13 0.23
10 24 4 1.56 0.23
10 24 5 0.33 0.22
10 24 6 0.75 0.27
10 24 7 2.73 0.54
10 24 8 1.90 0.30
10 24 9 0.72 0.29
10 24 10 6.24 0.44
10 24 11 3.32 0.51
10 24 12 0.01 0.30
10 26 0 0.01 0.27
10 26 1 1.49 0.29
10 26 2 0.03 0.26
10 26 3 9.04 0.49
10 26 4 0.49 0.35
10 26 5 2.83 0.32
10 26 6 2.30 0.30
10 26 7 0.98 0.29
10 26 8 1.47 0.31
10 28 0 8.36 1.49
10 28 1 0.44 0.29
10 28 2 3.71 0.44
10 28 3 0.98 0.38
11 1 0 0.33 0.15
11 1 1 0.38 0.15
11 1 2 29.59 0.71
11 1 3 8.08 0.47
11 1 4 4.28 0.19
11 1 5 1.89 0.15
11 1 6 15.54 0.37
11 1 7 13.89 0.34
11 1 8 2.06 0.13
11 1 9 4.78 0.28
11 1 10 0.50 0.21
11 1 11 1.03 0.27
11 1 12 0.51 0.22
11 1 13 0.05 0.25
11 1 14 3.07 0.26
11 1 15 7.47 0.40
11 1 16 8.54 0.42
11 1 17 2.65 0.31
11 1 18 0.34 0.26
11 1 19 0.26 0.27
11 1 20 3.21 0.31
11 1 21 0.22 0.28
11 1 22 0.92 0.30
11 3 0 7.23 0.25
11 3 1 5.23 0.24
11 3 2 8.97 0.30
11 3 3 1.13 0.16
11 3 4 0.54 0.15
11 3 5 0.84 0.15
11 3 6 2.01 0.18
11 3 7 2.36 0.18
11 3 8 26.86 0.63
11 3 9 19.63 0.61
11 3 10 1.44 0.24
11 3 11 9.67 0.41
11 3 12 0.03 0.21
11 3 13 1.29 0.24
11 3 14 0.50 0.23
11 3 15 0.20 0.24
11 3 16 0.01 0.24
11 3 17 13.06 0.48
11 3 18 0.10 0.26
11 3 19 4.07 0.48
11 3 20 0.00 0.34
11 3 21 0.61 0.28
11 3 22 2.43 0.32
11 5 0 30.81 0.51
11 5 1 12.59 0.27
11 5 2 44.12 0.81
11 5 3 3.95 0.17
11 5 4 0.01 0.15
11 5 5 7.13 0.24
11 5 6 4.28 0.30
11 5 7 0.00 0.13
11 5 8 0.17 0.20
11 5 9 1.06 0.21
11 5 10 6.54 0.34
11 5 11 0.54 0.22
11 5 12 2.93 0.26
11 5 13 0.01 0.22
11 5 14 7.46 0.54
11 5 15 0.30 0.24
11 5 16 2.74 0.28
11 5 17 0.02 0.25
11 5 18 0.52 0.26
11 5 19 1.71 0.54
11 5 20 1.08 0.28
11 5 21 0.84 0.29
11 5 22 0.02 0.28
11 7 0 3.52 0.20
11 7 1 25.18 0.47
11 7 2 2.82 0.29
11 7 3 1.00 0.32
11 7 4 8.44 0.35
11 7 5 20.04 1.02
11 7 6 5.85 0.27
11 7 7 18.49 0.45
11 7 8 1.36 0.16
11 7 9 14.75 0.45
11 7 10 0.02 0.21
11 7 11 11.70 0.40
11 7 12 0.01 0.21
11 7 13 1.31 0.27
11 7 14 0.02 0.23
11 7 15 2.73 0.27
11 7 16 3.38 0.46
11 7 17 0.01 0.26
11 7 18 0.07 0.27
11 7 19 0.36 0.30
11 7 20 2.97 0.37
11 7 21 1.99 0.38
11 7 22 1.10 0.30
11 9 0 82.62 1.41
11 9 1 10.50 0.26
11 9 2 7.64 0.35
11 9 3 1.51 0.39
11 9 4 33.45 0.90
11 9 5 19.08 0.76
11 9 6 2.84 0.33
11 9 7 0.88 0.17
11 9 8 4.61 0.32
11 9 9 6.26 0.28
11 9 10 11.03 0.40
11 9 11 0.44 0.18
11 9 12 1.15 0.24
11 9 13 0.01 0.22
11 9 14 0.21 0.23
11 9 15 3.72 0.33
11 9 16 0.21 0.25
11 9 17 11.75 0.53
11 9 18 0.83 0.27
11 9 19 2.86 0.32
11 9 20 0.53 0.29
11 9 21 0.00 0.28
11 11 0 0.76 0.13
11 11 1 2.93 0.26
11 11 2 23.36 0.56
11 11 3 7.57 0.28
11 11 4 22.65 0.62
11 11 5 0.01 0.16
11 11 6 0.09 0.19
11 11 7 1.19 0.19
11 11 8 0.94 0.18
11 11 9 0.34 0.18
11 11 10 2.31 0.20
11 11 11 0.82 0.19
11 11 12 11.07 0.41
11 11 13 0.75 0.24
11 11 14 1.82 0.25
11 11 15 2.61 0.27
11 11 16 0.00 0.24
11 11 17 0.01 0.25
11 11 18 0.29 0.28
11 11 19 0.47 0.27
11 11 20 0.00 0.27
11 13 0 2.19 0.21
11 13 1 13.17 0.34
11 13 2 25.38 0.52
11 13 3 51.03 0.82
11 13 4 29.52 1.11
11 13 5 1.16 0.22
11 13 6 19.49 0.44
11 13 7 28.76 0.60
11 13 8 0.59 0.20
11 13 9 10.16 0.34
11 13 10 0.84 0.19
11 13 11 3.98 0.29
11 13 12 0.67 0.22
11 13 13 0.11 0.20
11 13 14 0.06 0.24
11 13 15 2.53 0.32
11 13 16 1.29 0.31
11 13 17 3.43 0.40
11 13 18 0.01 0.29
11 13 19 1.22 0.42
11 15 0 2.04 0.17
11 15 1 16.67 0.39
11 15 2 2.67 0.22
11 15 3 1.17 0.18
11 15 4 21.88 0.92
11 15 5 13.12 0.95
11 15 6 0.92 0.24
11 15 7 12.51 0.41
11 15 8 6.85 0.33
11 15 9 14.33 0.64
11 15 10 4.42 0.32
11 15 11 6.12 0.33
11 15 12 1.58 0.24
11 15 13 0.17 0.23
11 15 14 0.55 0.28
11 15 15 0.25 0.41
11 15 16 0.39 0.51
11 15 17 0.26 0.42
11 15 18 1.44 0.41
11 17 0 5.30 0.26
11 17 1 5.63 0.26
11 17 2 2.83 0.25
11 17 3 19.22 0.47
11 17 4 16.20 0.57
11 17 5 0.50 0.20
11 17 6 6.54 0.34
11 17 7 1.36 0.23
11 17 8 1.50 0.23
11 17 9 1.23 0.26
11 17 10 0.55 0.26
11 17 11 0.27 0.26
11 17 12 7.91 0.45
11 17 13 1.40 0.29
11 17 14 3.05 0.35
11 17 15 2.02 0.41
11 17 16 0.00 0.38
11 17 17 1.36 0.54
11 19 0 0.10 0.17
11 19 1 3.19 0.19
11 19 2 2.98 0.22
11 19 3 0.99 0.25
11 19 4 3.24 0.35
11 19 5 4.62 0.36
11 19 6 2.58 0.28
11 19 7 1.06 0.27
11 19 8 1.66 0.28
11 19 9 0.04 0.38
11 19 10 0.26 0.27
11 19 11 1.16 0.32
11 19 12 0.22 0.28
11 19 13 0.03 0.28
11 19 14 0.22 0.29
11 19 15 0.00 0.38
11 21 0 0.14 0.20
11 21 1 0.04 0.19
11 21 2 1.11 0.25
11 21 3 0.23 0.34
11 21 4 0.38 0.25
11 21 5 3.14 0.41
11 21 6 0.23 0.25
11 21 7 0.59 0.26
11 21 8 2.46 0.35
11 21 9 4.78 0.42
11 21 10 0.42 0.28
11 21 11 2.29 0.32
11 21 12 3.40 0.35
11 21 13 0.13 0.30
11 23 0 0.17 0.21
11 23 1 0.13 0.21
11 23 2 2.48 0.29
11 23 3 1.29 0.26
11 23 4 11.37 0.52
11 23 5 1.39 0.29
11 23 6 2.48 0.30
11 23 7 0.17 0.34
11 23 8 0.73 0.28
11 23 9 0.83 0.30
11 23 10 0.44 0.29
11 23 11 0.44 0.30
11 25 0 1.26 0.29
11 25 1 0.62 0.27
11 25 2 0.39 0.31
11 25 3 3.22 0.31
11 25 4 1.24 0.29
11 25 5 2.67 0.52
11 25 6 0.54 0.29
11 25 7 11.04 0.51
11 25 8 1.09 0.30
11 27 0 1.16 0.38
11 27 1 1.07 0.38
11 27 2 7.71 0.68
11 27 3 0.12 0.55
12 0 0 7.50 0.22
12 0 2 0.36 0.30
12 0 4 1.66 0.22
12 0 6 27.18 0.79
12 0 8 42.36 1.09
12 0 10 22.34 1.31
12 0 12 5.71 0.55
12 0 14 0.16 0.34
12 0 16 0.02 0.35
12 0 18 0.84 0.39
12 0 20 1.09 0.42
12 2 0 5.50 0.24
12 2 1 2.44 0.17
12 2 2 0.13 0.15
12 2 3 20.42 0.92
12 2 4 9.47 0.48
12 2 5 5.37 0.22
12 2 6 2.69 0.31
12 2 7 1.31 0.14
12 2 8 2.84 0.25
12 2 9 6.60 0.34
12 2 10 8.77 0.53
12 2 11 4.35 0.26
12 2 12 3.20 0.27
12 2 13 9.85 0.47
12 2 14 0.04 0.24
12 2 15 5.63 0.38
12 2 16 1.74 0.27
12 2 17 0.52 0.28
12 2 18 0.06 0.27
12 2 19 0.23 0.28
12 2 20 0.73 0.29
12 2 21 4.64 0.49
12 4 0 8.72 0.36
12 4 1 0.08 0.16
12 4 2 0.13 0.19
12 4 3 0.57 0.17
12 4 4 11.33 0.38
12 4 5 6.58 0.27
12 4 6 5.23 0.26
12 4 7 0.64 0.22
12 4 8 0.36 0.21
12 4 9 0.07 0.22
12 4 10 0.01 0.22
12 4 11 11.65 0.43
12 4 12 5.97 0.38
12 4 13 7.98 0.52
12 4 14 0.11 0.24
12 4 15 0.69 0.25
12 4 16 5.07 0.37
12 4 17 0.60 0.27
12 4 18 2.90 0.31
12 4 19 0.27 0.27
12 4 20 0.26 0.28
12 4 21 0.71 0.30
12 6 0 1.45 0.21
12 6 1 8.12 0.50
12 6 2 11.94 0.29
12 6 3 7.91 0.33
12 6 4 12.12 0.47
12 6 5 5.34 0.31
12 6 6 5.51 0.34
12 6 7 13.33 0.43
12 6 8 1.18 0.22
12 6 9 20.90 0.78
12 6 10 2.65 0.47
12 6 11 8.08 0.38
12 6 12 0.04 0.26
12 6 13 0.11 0.24
12 6 14 3.08 0.28
12 6 15 0.21 0.26
12 6 16 1.41 0.27
12 6 17 0.33 0.26
12 6 18 3.66 0.40
12 6 19 0.88 0.28
12 6 20 4.04 0.48
12 8 0 3.19 0.25
12 8 1 8.51 0.34
12 8 2 6.99 0.33
12 8 3 43.83 0.85
12 8 4 2.21 0.20
12 8 5 16.50 0.69
12 8 6 0.57 0.21
12 8 7 4.70 0.31
12 8 8 5.82 0.35
12 8 9 0.73 0.23
12 8 10 1.33 0.25
12 8 11 0.67 0.24
12 8 12 0.86 0.24
12 8 13 3.45 0.28
12 8 14 0.02 0.24
12 8 15 4.04 0.30
12 8 16 2.14 0.30
12 8 17 0.29 0.31
12 8 18 1.39 0.28
12 8 19 1.28 0.30
12 8 20 0.02 0.28
12 10 0 14.82 0.46
12 10 1 6.86 0.57
12 10 2 13.23 0.66
12 10 3 1.86 0.27
12 10 4 23.47 0.54
12 10 5 2.78 0.28
12 10 6 0.32 0.16
12 10 7 0.18 0.17
12 10 8 8.12 0.38
12 10 9 1.22 0.24
12 10 10 3.31 0.26
12 10 11 4.00 0.31
12 10 12 0.00 0.28
12 10 13 1.33 0.27
12 10 14 2.63 0.27
12 10 15 0.48 0.26
12 10 16 0.05 0.26
12 10 17 0.04 0.26
12 10 18 0.01 0.26
12 10 19 0.00 0.28
12 12 0 12.22 0.38
12 12 1 0.21 0.25
12 12 2 8.86 0.35
12 12 3 1.10 0.23
12 12 4 3.86 0.24
12 12 5 8.46 0.31
12 12 6 3.13 0.25
12 12 7 11.68 0.36
12 12 8 2.17 0.22
12 12 9 8.11 0.38
12 12 10 0.51 0.23
12 12 11 6.45 0.37
12 12 12 0.06 0.23
12 12 13 0.05 0.23
12 12 14 0.68 0.26
12 12 15 0.70 0.26
12 12 16 4.67 0.94
12 12 17 0.45 0.31
12 12 18 1.70 0.34
12 14 0 1.83 0.36
12 14 1 2.28 0.32
12 14 2 0.00 0.19
12 14 3 8.21 0.54
12 14 4 0.67 0.30
12 14 5 9.51 0.38
12 14 6 1.46 0.22
12 14 7 3.97 0.26
12 14 8 2.21 0.39
12 14 9 0.65 0.22
12 14 10 1.29 0.28
12 14 11 1.18 0.28
12 14 12 0.19 0.27
12 14 13 6.01 0.43
12 14 14 0.16 0.29
12 14 15 0.55 0.31
12 14 16 1.05 0.40
12 14 17 0.02 0.39
12 16 0 5.67 0.30
12 16 1 3.15 0.23
12 16 2 3.95 0.27
12 16 3 4.18 0.47
12 16 4 0.94 0.21
12 16 5 1.96 0.23
12 16 6 6.95 0.35
12 16 7 5.52 0.34
12 16 8 14.83 0.48
12 16 9 0.53 0.22
12 16 10 1.93 0.24
12 16 11 2.04 0.30
12 16 12 0.00 0.39
12 16 13 2.86 0.43
12 16 14 0.15 0.37
12 16 15 0.11 0.46
12 16 16 0.33 0.47
12 18 0 29.76 0.73
12 18 1 9.69 0.37
12 18 2 14.63 0.42
12 18 3 3.30 0.27
12 18 4 0.01 0.21
12 18 5 0.88 0.26
12 18 6 2.85 0.29
12 18 7 0.22 0.26
12 18 8 2.99 0.32
12 18 9 1.10 0.28
12 18 10 1.68 0.29
12 18 11 0.16 0.35
12 18 12 3.72 0.44
12 18 13 1.23 0.39
12 18 14 0.00 0.37
12 18 15 5.53 0.58
12 20 0 6.18 0.39
12 20 1 0.60 0.25
12 20 2 2.61 0.34
12 20 3 2.17 0.28
12 20 4 6.53 0.40
12 20 5 7.75 0.43
12 20 6 1.09 0.33
12 20 7 0.35 0.27
12 20 8 0.04 0.28
12 20 9 0.85 0.28
12 20 10 2.04 0.31
12 20 11 0.44 0.29
12 20 12 3.46 0.44
12 20 13 1.65 0.69
12 22 0 7.86 0.43
12 22 1 3.07 0.30
12 22 2 0.86 0.27
12 22 3 0.02 0.34
12 22 4 0.43 0.27
12 22 5 0.01 0.27
12 22 6 2.11 0.31
12 22 7 0.25 0.28
12 22 8 9.64 0.50
12 22 9 0.01 0.28
12 22 10 0.70 0.30
12 24 0 6.96 0.42
12 24 1 3.81 0.34
12 24 2 0.88 0.28
12 24 3 1.00 0.29
12 24 4 0.00 0.27
12 24 5 0.19 0.28
12 24 6 1.93 0.31
12 24 7 0.01 0.29
12 26 0 0.46 0.70
12 26 1 10.18 1.03
12 26 2 1.47 0.55
13 1 0 2.35 0.22
13 1 1 0.75 0.18
13 1 2 2.47 0.22
13 1 3 0.00 0.15
13 1 4 0.18 0.15
13 1 5 7.48 0.25
13 1 6 1.19 0.25
13 1 7 4.25 0.20
13 1 8 2.29 0.24
13 1 9 0.03 0.22
13 1 10 1.32 0.25
13 1 11 0.44 0.24
13 1 12 3.14 0.27
13 1 13 3.18 0.27
13 1 14 1.63 0.27
13 1 15 0.06 0.26
13 1 16 0.00 0.26
13 1 17 1.79 0.29
13 1 18 0.00 0.27
13 1 19 0.85 0.29
13 1 20 0.00 0.29
13 3 0 2.48 0.30
13 3 1 1.18 0.23
13 3 2 1.78 0.21
13 3 3 0.62 0.17
13 3 4 0.72 0.17
13 3 5 2.45 0.40
13 3 6 4.81 0.25
13 3 7 9.63 0.29
13 3 8 0.83 0.24
13 3 9 14.47 0.47
13 3 10 0.03 0.23
13 3 11 16.19 0.56
13 3 12 1.34 0.26
13 3 13 0.15 0.25
13 3 14 0.00 0.25
13 3 15 2.43 0.31
13 3 16 0.63 0.28
13 3 17 0.71 0.27
13 3 18 0.54 0.28
13 3 19 0.81 0.30
13 5 0 2.16 0.17
13 5 1 1.15 0.18
13 5 2 2.30 0.19
13 5 3 0.01 0.17
13 5 4 17.16 0.41
13 5 5 2.03 0.19
13 5 6 5.37 0.34
13 5 7 3.10 0.40
13 5 8 8.11 0.42
13 5 9 0.73 0.24
13 5 10 8.28 0.40
13 5 11 0.39 0.24
13 5 12 0.01 0.24
13 5 13 0.44 0.26
13 5 14 2.11 0.29
13 5 15 0.45 0.26
13 5 16 1.64 0.28
13 5 17 0.04 0.27
13 5 18 0.07 0.28
13 5 19 0.01 0.28
13 7 0 7.41 0.27
13 7 1 0.03 0.17
13 7 2 0.99 0.18
13 7 3 5.68 0.45
13 7 4 4.09 0.33
13 7 5 4.86 0.28
13 7 6 22.14 0.54
13 7 7 12.27 0.52
13 7 8 0.50 0.25
13 7 9 4.17 0.30
13 7 10 0.25 0.24
13 7 11 3.10 0.31
13 7 12 2.24 0.26
13 7 13 0.04 0.24
13 7 14 0.51 0.26
13 7 15 0.00 0.25
13 7 16 1.98 0.30
13 7 17 2.87 0.40
13 7 18 1.86 0.31
13 7 19 1.31 0.38
13 9 0 1.39 0.18
13 9 1 5.82 0.61
13 9 2 16.38 0.54
13 9 3 1.17 0.22
13 9 4 19.13 0.48
13 9 5 3.39 0.24
13 9 6 0.84 0.23
13 9 7 0.59 0.22
13 9 8 6.51 0.44
13 9 9 7.92 0.58
13 9 10 3.13 0.40
13 9 11 1.58 0.26
13 9 12 7.11 0.45
13 9 13 1.86 0.27
13 9 14 0.21 0.25
13 9 15 5.19 0.56
13 9 16 1.63 0.31
13 9 17 5.55 0.42
13 9 18 0.70 0.29
13 11 0 0.29 0.21
13 11 1 0.41 0.20
13 11 2 5.62 0.31
13 11 3 1.84 0.19
13 11 4 12.31 0.49
13 11 5 2.02 0.24
13 11 6 5.80 0.39
13 11 7 0.00 0.22
13 11 8 0.02 0.22
13 11 9 0.91 0.25
13 11 10 2.26 0.26
13 11 11 0.01 0.24
13 11 12 1.74 0.26
13 11 13 0.40 0.29
13 11 14 3.06 0.35
13 11 15 0.52 0.27
13 11 16 3.78 0.33
13 11 17 0.96 0.33
13 13 0 0.02 0.48
13 13 1 16.19 0.75
13 13 2 7.97 0.33
13 13 3 0.60 0.21
13 13 4 0.00 0.19
13 13 5 6.28 0.42
13 13 6 0.04 0.25
13 13 7 2.63 0.58
13 13 8 1.36 0.32
13 13 9 10.37 0.57
13 13 10 0.01 0.27
13 13 11 3.45 0.41
13 13 12 2.79 0.33
13 13 13 0.25 0.30
13 13 14 0.14 0.30
13 13 15 1.15 0.33
13 13 16 0.00 0.31
13 15 0 7.59 0.42
13 15 1 0.16 0.20
13 15 2 21.09 0.51
13 15 3 0.10 0.21
13 15 4 4.79 0.33
13 15 5 3.26 0.35
13 15 6 2.84 0.33
13 15 7 6.77 0.43
13 15 8 4.28 0.56
13 15 9 0.79 0.29
13 15 10 0.01 0.28
13 15 11 0.67 0.29
13 15 12 0.06 0.29
13 15 13 0.21 0.39
13 15 14 0.69 0.53
13 15 15 0.11 0.39
13 17 0 0.73 0.21
13 17 1 1.97 0.25
13 17 2 6.92 0.48
13 17 3 0.08 0.21
13 17 4 4.78 0.32
13 17 5 2.01 0.27
13 17 6 0.97 0.23
13 17 7 0.09 0.27
13 17 8 0.00 0.35
13 17 9 0.97 0.38
13 17 10 5.57 0.56
13 17 11 0.02 0.37
13 17 12 10.15 0.65
13 17 13 0.18 0.39
13 17 14 3.02 0.60
13 19 0 1.12 0.29
13 19 1 7.56 0.44
13 19 2 0.39 0.28
13 19 3 0.72 0.26
13 19 4 0.03 0.25
13 19 5 0.01 0.26
13 19 6 2.92 0.30
13 19 7 0.21 0.35
13 19 8 2.25 0.44
13 19 9 10.26 0.66
13 19 10 0.07 0.37
13 19 11 6.47 0.58
13 19 12 0.59 0.40
13 21 0 1.31 0.28
13 21 1 9.82 0.75
13 21 2 8.64 0.47
13 21 3 5.76 0.44
13 21 4 6.40 0.57
13 21 5 0.01 0.27
13 21 6 0.00 0.27
13 21 7 1.23 0.30
13 21 8 0.36 0.37
13 21 9 0.81 0.38
13 23 0 0.68 0.28
13 23 1 2.68 0.30
13 23 2 8.50 0.47
13 23 3 0.55 0.28
13 23 4 5.51 0.45
13 23 5 1.66 0.54
13 23 6 0.08 0.29
13 25 0 0.86 0.34
14 0 0 27.29 0.78
14 0 2 0.01 0.22
14 0 4 21.11 0.72
14 0 6 5.65 0.35
14 0 8 0.06 0.32
14 0 10 0.17 0.33
14 0 12 6.45 0.58
14 0 14 0.03 0.37
14 0 16 2.75 0.44
14 0 18 0.15 0.58
14 2 0 0.35 0.18
14 2 1 7.59 0.30
14 2 2 0.67 0.18
14 2 3 13.72 0.31
14 2 4 0.62 0.16
14 2 5 9.19 0.34
14 2 6 8.18 0.27
14 2 7 8.56 0.38
14 2 8 12.75 0.57
14 2 9 1.09 0.24
14 2 10 0.01 0.24
14 2 11 7.09 0.40
14 2 12 0.18 0.25
14 2 13 1.91 0.29
14 2 14 0.49 0.27
14 2 15 1.53 0.29
14 2 16 0.10 0.28
14 2 17 0.47 0.28
14 2 18 0.47 0.30
14 4 0 0.47 0.19
14 4 1 28.21 0.69
14 4 2 5.86 0.28
14 4 3 14.71 0.40
14 4 4 0.47 0.25
14 4 5 0.85 0.19
14 4 6 0.60 0.19
14 4 7 1.18 0.43
14 4 8 13.24 0.48
14 4 9 1.24 0.25
14 4 10 5.72 0.35
14 4 11 7.76 0.42
14 4 12 0.16 0.26
14 4 13 3.97 0.33
14 4 14 0.16 0.26
14 4 15 0.82 0.29
14 4 16 0.00 0.27
14 4 17 0.01 0.29
14 4 18 0.19 0.29
14 6 0 11.51 0.39
14 6 1 1.40 0.19
14 6 2 2.59 0.21
14 6 3 6.99 0.71
14 6 4 10.66 0.39
14 6 5 1.00 0.23
14 6 6 2.11 0.24
14 6 7 2.83 0.27
14 6 8 3.34 0.30
14 6 9 0.94 0.25
14 6 10 5.16 0.38
14 6 11 0.00 0.24
14 6 12 0.17 0.26
14 6 13 4.66 0.58
14 6 14 0.01 0.28
14 6 15 2.33 0.35
14 6 16 0.53 0.29
14 6 17 0.94 0.29
14 8 0 11.91 0.42
14 8 1 5.49 0.29
14 8 2 6.14 0.73
14 8 3 9.60 0.61
14 8 4 6.98 0.36
14 8 5 24.36 0.61
14 8 6 2.27 0.29
14 8 7 12.58 0.69
14 8 8 1.80 0.26
14 8 9 0.91 0.25
14 8 10 1.12 0.26
14 8 11 6.27 0.40
14 8 12 2.77 0.31
14 8 13 1.63 0.28
14 8 14 0.01 0.27
14 8 15 0.00 0.27
14 8 16 0.02 0.31
14 8 17 0.01 0.29
14 10 0 3.93 0.28
14 10 1 0.01 0.21
14 10 2 2.13 0.28
14 10 3 2.18 0.24
14 10 4 0.31 0.22
14 10 5 0.89 0.23
14 10 6 9.03 0.40
14 10 7 0.88 0.24
14 10 8 5.54 0.37
14 10 9 1.88 0.27
14 10 10 0.64 0.25
14 10 11 0.00 0.25
14 10 12 1.13 0.27
14 10 13 3.65 0.37
14 10 14 0.08 0.27
14 10 15 1.20 0.29
14 10 16 0.93 0.38
14 12 0 13.76 0.50
14 12 1 0.19 0.25
14 12 2 3.99 0.34
14 12 3 2.08 0.40
14 12 4 0.46 0.26
14 12 5 1.51 0.29
14 12 6 6.89 0.59
14 12 7 0.28 0.28
14 12 8 6.27 0.53
14 12 9 0.00 0.28
14 12 10 3.43 0.36
14 12 11 0.00 0.29
14 12 12 0.01 0.31
14 12 13 2.15 0.34
14 12 14 0.54 0.31
14 12 15 0.00 0.32
14 14 0 4.44 0.56
14 14 1 11.82 0.51
14 14 2 0.76 0.27
14 14 3 4.73 0.33
14 14 4 0.00 0.26
14 14 5 11.86 0.53
14 14 6 0.23 0.28
14 14 7 1.70 0.31
14 14 8 0.06 0.29
14 14 9 1.74 0.32
14 14 10 0.03 0.29
14 14 11 0.21 0.41
14 14 12 0.80 0.32
14 14 13 1.01 0.32
14 14 14 0.01 0.30
14 16 0 0.03 0.26
14 16 1 0.74 0.27
14 16 2 0.74 0.27
14 16 3 0.15 0.26
14 16 4 5.16 0.40
14 16 5 0.47 0.28
14 16 6 3.40 0.54
14 16 7 0.29 0.28
14 16 8 0.06 0.28
14 16 9 0.30 0.30
14 16 10 2.66 0.92
14 16 11 2.49 0.44
14 16 12 2.28 0.44
14 18 0 0.60 0.27
14 18 1 0.12 0.22
14 18 2 5.66 0.35
14 18 3 1.23 0.37
14 18 4 0.63 0.35
14 18 5 1.91 0.39
14 18 6 2.11 0.76
14 18 7 0.00 0.36
14 18 8 5.39 0.57
14 18 9 0.04 0.38
14 18 10 0.49 0.40
14 20 0 0.00 0.32
14 20 1 0.28 0.27
14 20 2 0.00 0.27
14 20 3 3.68 0.34
14 20 4 0.48 0.36
14 20 5 2.01 0.40
14 20 6 0.13 0.36
14 20 7 0.16 0.53
14 20 8 0.00 0.37
14 22 0 1.47 0.30
14 22 1 0.99 0.29
14 22 2 0.01 0.28
14 22 3 0.20 0.29
14 22 4 0.09 0.36
15 1 0 0.19 0.17
15 1 1 0.59 0.17
15 1 2 5.39 0.28
15 1 3 0.44 0.17
15 1 4 19.79 0.45
15 1 5 0.35 0.17
15 1 6 2.44 0.27
15 1 7 0.03 0.24
15 1 8 0.33 0.25
15 1 9 6.13 0.40
15 1 10 1.46 0.26
15 1 11 5.76 0.39
15 1 12 3.92 0.50
15 1 13 0.01 0.27
15 1 14 1.11 0.29
15 1 15 0.16 0.29
15 1 16 0.89 0.30
15 3 0 0.23 0.19
15 3 1 4.85 0.26
15 3 2 0.57 0.20
15 3 3 0.41 0.17
15 3 4 0.65 0.17
15 3 5 15.31 0.40
15 3 6 1.85 0.26
15 3 7 11.14 0.43
15 3 8 0.11 0.24
15 3 9 0.58 0.26
15 3 10 0.93 0.27
15 3 11 0.88 0.33
15 3 12 0.57 0.29
15 3 13 0.02 0.27
15 3 14 0.00 0.33
15 3 15 1.15 0.30
15 3 16 0.01 0.29
15 5 0 3.16 0.21
15 5 1 1.39 0.20
15 5 2 1.45 0.21
15 5 3 0.90 0.19
15 5 4 5.01 0.30
15 5 5 3.63 0.35
15 5 6 2.64 0.27
15 5 7 1.28 0.25
15 5 8 0.33 0.25
15 5 9 0.60 0.27
15 5 10 2.65 0.29
15 5 11 0.17 0.26
15 5 12 2.18 0.29
15 5 13 0.79 0.27
15 5 14 0.01 0.28
15 5 15 0.00 0.28
15 5 16 0.77 0.29
15 7 0 0.45 0.20
15 7 1 5.10 0.31
15 7 2 25.83 0.58
15 7 3 0.68 0.24
15 7 4 33.34 0.92
15 7 5 2.92 0.31
15 7 6 2.35 0.28
15 7 7 0.57 0.25
15 7 8 2.65 0.28
15 7 9 0.47 0.26
15 7 10 0.11 0.26
15 7 11 0.48 0.27
15 7 12 0.00 0.27
15 7 13 0.06 0.27
15 7 14 0.00 0.27
15 7 15 0.99 0.30
15 9 0 2.57 0.22
15 9 1 8.87 0.39
15 9 2 3.89 0.29
15 9 3 14.91 0.49
15 9 4 1.18 0.45
15 9 5 0.65 0.25
15 9 6 0.05 0.24
15 9 7 7.10 0.39
15 9 8 0.13 0.25
15 9 9 4.64 0.40
15 9 10 1.42 0.30
15 9 11 0.43 0.28
15 9 12 0.28 0.27
15 9 13 0.30 0.27
15 9 14 0.18 0.28
15 11 0 0.58 0.27
15 11 1 0.53 0.26
15 11 2 2.65 0.30
15 11 3 0.13 0.28
15 11 4 1.08 0.28
15 11 5 0.92 0.29
15 11 6 11.66 0.57
15 11 7 0.26 0.29
15 11 8 5.91 0.45
15 11 9 1.02 0.42
15 11 10 1.83 0.33
15 11 11 1.96 0.34
15 11 12 4.74 0.51
15 11 13 1.79 0.56
15 13 0 1.05 0.27
15 13 1 4.38 0.37
15 13 2 0.86 0.29
15 13 3 0.29 0.28
15 13 4 0.51 0.28
15 13 5 1.53 0.29
15 13 6 1.91 0.32
15 13 7 0.43 0.47
15 13 8 2.69 0.34
15 13 9 0.49 0.31
15 13 10 0.00 0.30
15 13 11 0.27 0.31
15 13 12 0.34 0.36
15 15 0 0.28 0.28
15 15 1 0.85 0.28
15 15 2 8.72 0.56
15 15 3 0.88 0.35
15 15 4 2.70 0.31
15 15 5 0.02 0.29
15 15 6 0.77 0.30
15 15 7 0.54 0.31
15 15 8 0.50 0.31
15 15 9 4.81 0.45
15 15 10 0.03 0.31
15 15 11 1.38 0.34
15 17 0 1.48 0.29
15 17 1 2.50 0.32
15 17 2 5.53 0.50
15 17 3 2.34 0.32
15 17 4 0.47 0.29
15 17 5 1.00 0.30
15 17 6 2.21 0.41
15 17 7 0.31 0.43
15 17 8 0.01 0.38
15 17 9 0.99 0.42
15 19 0 0.33 0.36
15 19 1 5.31 0.56
15 19 2 0.77 0.43
15 19 3 0.00 0.35
15 19 4 0.00 0.36
15 19 5 3.24 0.44
15 19 6 0.56 0.38
15 21 0 0.73 0.35
15 21 1 0.04 0.36
15 21 2 0.81 0.66
16 0 0 26.96 0.84
16 0 2 8.72 0.42
16 0 4 0.74 0.27
16 0 6 10.50 0.65
16 0 8 7.63 0.59
16 0 10 0.02 0.37
16 0 12 0.92 0.39
16 0 14 2.15 0.45
16 2 0 4.34 0.33
16 2 1 1.52 0.20
16 2 2 0.68 0.18
16 2 3 1.60 0.32
16 2 4 0.13 0.18
16 2 5 2.24 0.26
16 2 6 0.33 0.25
16 2 7 2.86 0.42
16 2 8 1.04 0.27
16 2 9 0.01 0.26
16 2 10 0.04 0.27
16 2 11 1.57 0.29
16 2 12 0.76 0.29
16 2 13 5.89 0.51
16 2 14 0.41 0.29
16 4 0 13.00 0.44
16 4 1 1.36 0.21
16 4 2 0.05 0.20
16 4 3 1.62 0.23
16 4 4 3.60 0.30
16 4 5 12.26 0.46
16 4 6 1.00 0.30
16 4 7 3.18 0.37
16 4 8 0.48 0.27
16 4 9 0.40 0.26
16 4 10 0.75 0.28
16 4 11 0.00 0.27
16 4 12 0.29 0.42
16 4 13 0.33 0.28
16 4 14 0.70 0.29
16 6 0 16.90 0.45
16 6 1 1.08 0.21
16 6 2 3.91 0.34
16 6 3 0.27 0.21
16 6 4 0.31 0.30
16 6 5 3.98 0.37
16 6 6 2.90 0.31
16 6 7 0.59 0.26
16 6 8 4.44 0.31
16 6 9 0.16 0.27
16 6 10 1.36 0.31
16 6 11 0.14 0.27
16 6 12 0.01 0.27
16 6 13 0.00 0.28
16 8 0 5.17 0.47
16 8 1 10.27 0.37
16 8 2 1.01 0.25
16 8 3 11.67 0.46
16 8 4 0.20 0.25
16 8 5 2.24 0.28
16 8 6 2.70 0.30
16 8 7 0.46 0.26
16 8 8 2.08 0.28
16 8 9 0.59 0.46
16 8 10 0.44 0.28
16 8 11 4.49 0.34
16 8 12 0.12 0.29
16 8 13 3.72 0.48
16 10 0 0.34 0.28
16 10 1 0.97 0.40
16 10 2 0.51 0.29
16 10 3 3.43 0.33
16 10 4 0.01 0.29
16 10 5 8.51 0.85
16 10 6 4.91 0.45
16 10 7 3.91 0.97
16 10 8 1.89 0.41
16 10 9 0.42 0.31
16 10 10 0.34 0.32
16 10 11 0.53 0.33
16 10 12 0.72 0.33
16 12 0 7.03 0.47
16 12 1 0.21 0.29
16 12 2 0.01 0.28
16 12 3 7.00 0.46
16 12 4 1.36 0.37
16 12 5 11.47 0.54
16 12 6 1.79 0.33
16 12 7 6.00 0.47
16 12 8 1.11 0.33
16 12 9 0.25 0.32
16 12 10 0.61 0.33
16 14 0 3.89 0.47
16 14 1 7.12 0.90
16 14 2 0.26 0.29
16 14 3 2.50 0.34
16 14 4 1.35 0.32
16 14 5 0.27 0.30
16 14 6 0.05 0.30
16 14 7 0.05 0.30
16 14 8 1.94 0.37
16 14 9 0.07 0.31
16 16 0 0.02 0.29
16 16 1 0.00 0.29
16 16 2 1.91 0.37
16 16 3 0.02 0.29
16 16 4 0.03 0.30
16 16 5 1.07 0.32
16 16 6 1.69 0.33
16 16 7 1.38 0.34
16 18 0 2.97 0.41
16 18 1 0.09 0.36
16 18 2 0.32 0.65
16 18 3 1.37 0.39
16 18 4 3.60 0.59
17 1 0 3.71 0.41
17 1 1 15.78 0.42
17 1 2 7.96 0.44
17 1 3 0.35 0.21
17 1 4 1.46 0.32
17 1 5 0.74 0.27
17 1 6 0.02 0.32
17 1 7 0.00 0.27
17 1 8 0.18 0.27
17 1 9 0.46 0.40
17 1 10 2.76 0.33
17 1 11 0.72 0.31
17 1 12 3.35 0.42
17 3 0 0.00 0.19
17 3 1 0.36 0.19
17 3 2 0.01 0.19
17 3 3 0.02 0.22
17 3 4 0.26 0.26
17 3 5 0.24 0.25
17 3 6 1.60 0.28
17 3 7 4.01 0.35
17 3 8 0.31 0.27
17 3 9 3.94 0.33
17 3 10 0.41 0.28
17 3 11 0.43 0.29
17 5 0 0.13 0.21
17 5 1 3.45 0.25
17 5 2 9.20 0.36
17 5 3 0.84 0.26
17 5 4 9.07 0.45
17 5 5 2.07 0.27
17 5 6 0.47 0.26
17 5 7 0.26 0.27
17 5 8 0.37 0.28
17 5 9 0.50 0.28
17 5 10 0.24 0.28
17 5 11 1.86 0.31
17 7 0 1.21 0.23
17 7 1 3.66 0.26
17 7 2 2.70 0.24
17 7 3 0.06 0.26
17 7 4 1.93 0.28
17 7 5 0.33 0.26
17 7 6 0.78 0.27
17 7 7 0.01 0.26
17 7 8 0.01 0.27
17 7 9 0.15 0.27
17 7 10 0.88 0.37
17 9 0 1.59 0.32
17 9 1 5.44 0.45
17 9 2 4.03 0.56
17 9 3 0.02 0.29
17 9 4 0.68 0.61
17 9 5 2.25 0.34
17 9 6 0.86 0.34
17 9 7 6.12 0.58
17 9 8 0.04 0.31
17 9 9 1.69 0.35
17 11 0 0.27 0.30
17 11 1 0.29 0.31
17 11 2 13.54 0.60
17 11 3 2.23 0.33
17 11 4 16.24 0.64
17 11 5 0.23 0.51
17 11 6 6.65 0.49
17 11 7 0.17 0.34
17 11 8 0.70 0.34
17 13 0 1.86 0.38
17 13 1 0.00 0.29
17 13 2 0.03 0.31
17 13 3 0.35 0.31
17 13 4 0.03 0.30
17 13 5 0.68 0.33
17 13 6 0.00 0.31
17 15 0 4.38 0.37
17 15 1 1.95 0.33
17 15 2 0.00 0.30
17 15 3 0.31 0.32
17 15 4 0.51 0.31
17 17 0 0.56 0.32
18 0 0 14.41 0.56
18 0 2 0.01 0.37
18 0 4 0.82 0.40
18 0 6 0.30 0.39
18 0 8 0.08 0.39
18 2 0 0.01 0.20
18 2 1 0.52 0.21
18 2 2 3.01 0.29
18 2 3 1.59 0.45
18 2 4 0.07 0.27
18 2 5 1.89 0.30
18 2 6 1.19 0.28
18 2 7 0.20 0.28
18 2 8 0.01 0.28
18 2 9 0.20 0.29
18 4 0 0.39 0.21
18 4 1 2.65 0.23
18 4 2 0.95 0.26
18 4 3 0.03 0.27
18 4 4 0.02 0.27
18 4 5 0.95 0.29
18 4 6 1.90 0.30
18 4 7 0.58 0.28
18 4 8 0.19 0.28
18 6 0 5.32 0.34
18 6 1 0.00 0.27
18 6 2 0.56 0.27
18 6 3 0.12 0.27
18 6 4 0.02 0.27
18 6 5 0.00 0.27
18 6 6 1.03 0.29
18 6 7 0.58 0.28
18 6 8 1.28 0.42
18 8 0 0.72 0.27
18 8 1 0.22 0.30
18 8 2 0.08 0.34
18 8 3 1.00 0.32
18 8 4 0.13 0.32
18 8 5 0.92 0.33
18 8 6 2.63 0.35
18 8 7 0.00 0.46
18 10 0 11.97 0.56
18 10 1 4.99 0.78
18 10 2 4.24 0.64
18 10 3 6.35 0.54
18 10 4 0.00 0.32
18 10 5 4.77 0.45
18 12 0 3.47 0.39
18 12 1 1.84 0.35
18 12 2 0.00 0.41
18 12 3 0.49 0.33
18 14 0 0.24 0.38
19 1 0 0.35 0.26
19 1 1 0.01 0.27
19 1 2 1.19 0.35
19 1 3 0.13 0.28
19 1 4 0.08 0.28
19 1 5 0.01 0.28
19 3 0 0.06 0.21
19 3 1 3.77 0.39
19 3 2 0.36 0.28
19 3 3 0.02 0.28
19 3 4 0.01 0.27
19 3 5 1.44 0.42
19 5 0 0.16 0.21
19 5 1 0.00 0.27
19 5 2 1.10 0.29
19 5 3 0.00 0.29
19 5 4 0.03 0.29
19 7 0 0.38 0.27
19 7 1 0.56 0.33
19 7 2 4.88 0.61
19 7 3 1.82 0.43
19 9 0 0.04 0.31
19 9 1 0.83 0.41
0 0 0 0.00 0.00
;
_shelx_hkl_checksum              80371
#END Tags that were not found in dictionaries
loop_
_space_group_symop_operation_xyz
'x, y, z'
'-x, y, -z+1/2'
'x+1/2, y+1/2, z'
'-x+1/2, y+1/2, -z+1/2'
'-x, -y, -z'
'x, -y, z-1/2'
'-x+1/2, -y+1/2, -z'
'x+1/2, -y+1/2, z-1/2'
loop_
_atom_site_label
_atom_site_type_symbol
_atom_site_fract_x
_atom_site_fract_y
_atom_site_fract_z
_atom_site_U_iso_or_equiv
_atom_site_adp_type
_atom_site_occupancy
_atom_site_site_symmetry_order
_atom_site_calc_flag
_atom_site_refinement_flags_posn
_atom_site_refinement_flags_adp
_atom_site_refinement_flags_occupancy
_atom_site_disorder_assembly
_atom_site_disorder_group
C1 C 0.8078(3) 0.24949(15) 0.15945(16) 0.0440(9) Uani 1 1 d D U . . .
H1A H 0.7606 0.2745 0.1581 0.066 Uiso 1 1 calc R U . . .
H1B H 0.8601 0.2636 0.1821 0.066 Uiso 1 1 calc R U . . .
H1C H 0.7918 0.2171 0.1762 0.066 Uiso 1 1 calc R U . . .
C2 C 0.8243(2) 0.23926(12) 0.10172(14) 0.0326(7) Uani 1 1 d D U . . .
C3 C 0.8047(2) 0.19216(12) 0.07529(14) 0.0298(7) Uani 1 1 d D U . . .
C4 C 0.81986(19) 0.18367(11) 0.01980(14) 0.0285(6) Uani 1 1 d D U . . .
C5 C 0.8551(2) 0.22468(12) -0.00777(14) 0.0295(6) Uani 1 1 d D U . . .
H5 H 0.8669 0.2202 -0.0447 0.035 Uiso 1 1 calc R U . . .
C6 C 0.8720(2) 0.27080(12) 0.01943(15) 0.0321(7) Uani 1 1 d D U . . .
H6 H 0.8952 0.2986 0.0008 0.039 Uiso 1 1 calc R U . . .
C7 C 0.8809(2) 0.32874(12) 0.09933(17) 0.0375(8) Uani 1 1 d D U . . .
H7A H 0.8384 0.3385 0.1235 0.045 Uiso 1 1 calc R U . . .
H7B H 0.8796 0.3556 0.0701 0.045 Uiso 1 1 calc R U . . .
N1 N 0.85660(17) 0.27809(10) 0.07259(12) 0.0306(6) Uani 1 1 d D U . . .
O1 O 0.79985(14) 0.13860(8) -0.00197(10) 0.0309(5) Uani 1 1 d D U . . .
O2 O 0.76932(17) 0.15370(9) 0.09990(10) 0.0394(6) Uani 1 1 d D U . . .
C8 C 0.9689(2) 0.32672(13) 0.13364(15) 0.0354(7) Uani 1 1 d D U . . .
C9 C 1.0823(2) 0.35001(13) 0.19449(15) 0.0393(8) Uani 1 1 d D U . . .
C10 C 1.1335(3) 0.37812(16) 0.23706(16) 0.0494(10) Uani 1 1 d D U . . .
H10 H 1.1110 0.4076 0.2533 0.059 Uiso 1 1 calc R U . . .
C11 C 1.2176(3) 0.36210(19) 0.25503(18) 0.0582(12) Uani 1 1 d D U . . .
H11 H 1.2537 0.3813 0.2832 0.070 Uiso 1 1 calc R U . . .
C12 C 1.2494(3) 0.3189(2) 0.2326(2) 0.0640(13) Uani 1 1 d D U . . .
H12 H 1.3078 0.3092 0.2450 0.077 Uiso 1 1 calc R U . . .
C13 C 1.1999(3) 0.2897(2) 0.1932(2) 0.0672(13) Uani 1 1 d D U . . .
H13 H 1.2221 0.2590 0.1792 0.081 Uiso 1 1 calc R U . . .
C14 C 1.1165(3) 0.30564(16) 0.17407(18) 0.0481(9) Uani 1 1 d D U . . .
N2 N 0.9971(2) 0.36179(11) 0.17129(14) 0.0416(7) Uani 1 1 d D U . . .
S1 S 1.03945(7) 0.27691(5) 0.12440(6) 0.0591(3) Uani 1 1 d D U . . .
C15 C 0.5798(3) -0.01323(15) 0.15855(19) 0.0503(10) Uani 1 1 d . U . . .
H15A H 0.5799 -0.0503 0.1496 0.075 Uiso 1 1 calc R U . . .
H15B H 0.5417 -0.0070 0.1861 0.075 Uiso 1 1 calc R U . . .
H15C H 0.6386 -0.0022 0.1741 0.075 Uiso 1 1 calc R U . . .
C16 C 0.5483(2) 0.01679(13) 0.10673(16) 0.0379(8) Uani 1 1 d . U . . .
C17 C 0.6054(2) 0.04752(12) 0.08178(15) 0.0321(7) Uani 1 1 d . U . . .
C18 C 0.5744(2) 0.07592(12) 0.03261(14) 0.0315(7) Uani 1 1 d . U . . .
C19 C 0.4856(2) 0.07344(13) 0.01049(16) 0.0357(7) Uani 1 1 d . U . . .
H19 H 0.4624 0.0940 -0.0210 0.043 Uiso 1 1 calc R U . . .
C20 C 0.4338(2) 0.04170(14) 0.03441(17) 0.0395(8) Uani 1 1 d . U . . .
H20 H 0.3746 0.0387 0.0182 0.047 Uiso 1 1 calc R U . . .
C21 C 0.4023(2) -0.02118(13) 0.10222(17) 0.0415(9) Uani 1 1 d . U . . .
H21A H 0.4338 -0.0518 0.1199 0.050 Uiso 1 1 calc R U . . .
H21B H 0.3597 -0.0336 0.0702 0.050 Uiso 1 1 calc R U . . .
C22 C 0.3551(2) 0.00447(13) 0.14404(16) 0.0370(8) Uani 1 1 d . U . . .
C23 C 0.2550(3) 0.01506(15) 0.19733(15) 0.0420(9) Uani 1 1 d . U . . .
C24 C 0.1823(3) 0.00403(18) 0.22091(17) 0.0545(11) Uani 1 1 d . U . . .
H24 H 0.1495 -0.0265 0.2111 0.065 Uiso 1 1 calc R U . . .
C25 C 0.1590(4) 0.0388(2) 0.2591(2) 0.0715(15) Uani 1 1 d . U . . .
H25 H 0.1100 0.0318 0.2763 0.086 Uiso 1 1 calc R U . . .
C26 C 0.2063(5) 0.0840(2) 0.2729(2) 0.0801(17) Uani 1 1 d . U . . .
H26 H 0.1889 0.1069 0.2997 0.096 Uiso 1 1 calc R U . . .
C27 C 0.2768(4) 0.0967(2) 0.2493(2) 0.0747(15) Uani 1 1 d . U . . .
H27 H 0.3081 0.1279 0.2587 0.090 Uiso 1 1 calc R U . . .
C28 C 0.3009(3) 0.06114(16) 0.21015(17) 0.0515(10) Uani 1 1 d . U . . .
C29 C 0.8234(4) -0.0626(2) -0.0479(3) 0.0369(12) Uani 0.772(5) 1 d D U P A 1
H29A H 0.7690 -0.0436 -0.0578 0.055 Uiso 0.772(5) 1 calc R U P A 1
H29B H 0.8112 -0.0987 -0.0393 0.055 Uiso 0.772(5) 1 calc R U P A 1
H29C H 0.8554 -0.0616 -0.0793 0.055 Uiso 0.772(5) 1 calc R U P A 1
C30 C 0.8768(2) -0.03784(15) 0.00272(18) 0.0286(9) Uani 0.772(5) 1 d D U P A 1
C31 C 0.8491(4) 0.0066(2) 0.0266(3) 0.0271(13) Uani 0.772(5) 1 d D U P A 1
C32 C 0.9009(3) 0.02775(18) 0.07536(19) 0.0289(9) Uani 0.772(5) 1 d D U P A 1
C33 C 0.9798(3) 0.0040(2) 0.0975(2) 0.0367(11) Uani 0.772(5) 1 d D U P A 1
H33 H 1.0150 0.0177 0.1299 0.044 Uiso 0.772(5) 1 calc R U P A 1
C34 C 1.0048(3) -0.03905(19) 0.0716(2) 0.0378(11) Uani 0.772(5) 1 d D U P A 1
H34 H 1.0585 -0.0550 0.0859 0.045 Uiso 0.772(5) 1 calc R U P A 1
C35 C 0.9846(4) -0.1079(2) 0.0019(2) 0.0407(12) Uani 0.772(5) 1 d D U P A 1
H35A H 0.9757 -0.1042 -0.0393 0.049 Uiso 0.772(5) 1 calc R U P A 1
H35B H 1.0475 -0.1112 0.0150 0.049 Uiso 0.772(5) 1 calc R U P A 1
N5 N 0.9547(4) -0.0597(2) 0.0257(3) 0.0324(10) Uani 0.772(5) 1 d D U P A 1
O5 O 0.8712(2) 0.06836(13) 0.09735(16) 0.0344(8) Uani 0.772(5) 1 d D U P A 1
O6 O 0.7750(2) 0.03012(12) 0.00781(16) 0.0302(8) Uani 0.772(5) 1 d D U P A 1
C36 C 0.9461(19) -0.1534(9) 0.0144(10) 0.0341(17) Uani 0.254(7) 1 d D U P A 1
C37 C 0.899(2) -0.2167(9) 0.0671(8) 0.040(2) Uani 0.254(7) 1 d D U P A 1
C38 C 0.8745(14) -0.2413(8) 0.1136(8) 0.053(2) Uani 0.254(7) 1 d D U P A 1
H38 H 0.8770 -0.2246 0.1488 0.064 Uiso 0.254(7) 1 calc R U P A 1
C39 C 0.845(2) -0.2943(12) 0.1036(11) 0.055(2) Uani 0.254(7) 1 d D U P A 1
H39 H 0.8420 -0.3173 0.1339 0.066 Uiso 0.254(7) 1 calc R U P A 1
C40 C 0.8208(16) -0.3104(8) 0.0482(10) 0.047(2) Uani 0.254(7) 1 d D U P A 1
H40 H 0.7847 -0.3400 0.0409 0.057 Uiso 0.254(7) 1 calc R U P A 1
C41 C 0.8467(18) -0.2857(8) 0.0041(9) 0.057(3) Uani 0.254(7) 1 d D U P A 1
H41 H 0.8395 -0.3016 -0.0318 0.069 Uiso 0.254(7) 1 calc R U P A 1
C42 C 0.8837(15) -0.2369(7) 0.0124(8) 0.049(3) Uani 0.254(7) 1 d D U P A 1
N6 N 0.9335(14) -0.1636(8) 0.0678(7) 0.0245(18) Uani 0.254(7) 1 d D U P A 1
S3 S 0.9152(7) -0.1984(4) -0.0345(4) 0.0581(11) Uani 0.254(7) 1 d D U P A 1
N3 N 0.46432(19) 0.01389(10) 0.08120(14) 0.0369(7) Uani 1 1 d . U . . .
N4 N 0.2886(2) -0.01609(11) 0.15869(13) 0.0372(7) Uani 1 1 d . U . . .
O3 O 0.63122(14) 0.10253(9) 0.01163(10) 0.0337(5) Uani 1 1 d . U . . .
O4 O 0.68850(16) 0.05100(9) 0.10317(11) 0.0396(6) Uani 1 1 d . U . . .
O7 O 0.80937(17) 0.10594(11) -0.10987(11) 0.0422(6) Uani 1 1 d G U . . .
H7C H 0.7817 0.0777 -0.1172 0.063 Uiso 1 1 d G U . . .
H7D H 0.7990 0.1181 -0.0791 0.063 Uiso 1 1 d G U . . .
S2 S 0.38724(8) 0.06415(4) 0.17444(5) 0.0544(3) Uani 1 1 d . U . . .
Fe1 Fe 0.75434(3) 0.08957(2) 0.05392(2) 0.03119(14) Uani 1 1 d . U . . .
C43 C 0.7487(3) -0.09097(17) 0.09641(19) 0.0502(10) Uani 1 1 d . U . . .
C44 C 0.7986(3) -0.06420(18) 0.14277(17) 0.0534(11) Uani 1 1 d . U . . .
H44A H 0.7914 -0.0267 0.1373 0.080 Uiso 1 1 calc R U . . .
H44B H 0.8597 -0.0733 0.1451 0.080 Uiso 1 1 calc R U . . .
H44C H 0.7788 -0.0744 0.1775 0.080 Uiso 1 1 calc R U . . .
N7 N 0.7078(3) -0.11042(19) 0.0596(2) 0.0836(14) Uani 1 1 d . U . . .
C29B C 1.0052(10) -0.0216(8) 0.1015(7) 0.041(4) Uani 0.228(5) 1 d D U P A 2
H29D H 1.0625 -0.0192 0.0906 0.062 Uiso 0.228(5) 1 calc R U P A 2
H29E H 1.0032 -0.0519 0.1256 0.062 Uiso 0.228(5) 1 calc R U P A 2
H29F H 0.9939 0.0098 0.1218 0.062 Uiso 0.228(5) 1 calc R U P A 2
C30B C 0.9380(7) -0.0270(5) 0.0501(5) 0.029(3) Uani 0.228(5) 1 d D U P A 2
C31B C 0.8706(12) 0.0082(8) 0.0387(9) 0.024(5) Uani 0.228(5) 1 d D U P A 2
C32B C 0.8060(8) 0.0016(5) -0.0103(6) 0.032(3) Uani 0.228(5) 1 d D U P A 2
C33B C 0.8142(10) -0.0414(6) -0.0453(7) 0.030(4) Uani 0.228(5) 1 d D U P A 2
H33B H 0.7719 -0.0472 -0.0775 0.036 Uiso 0.228(5) 1 calc R U P A 2
C34B C 0.8815(9) -0.0743(5) -0.0333(6) 0.034(3) Uani 0.228(5) 1 d D U P A 2
H34B H 0.8867 -0.1026 -0.0577 0.041 Uiso 0.228(5) 1 calc R U P A 2
C35B C 1.0084(12) -0.1085(7) 0.0251(9) 0.0407(12) Uani 0.228(5) 1 d D U P A 2
H35C H 1.0470 -0.1035 0.0614 0.049 Uiso 0.228(5) 1 calc R U P A 2
H35D H 1.0429 -0.1124 -0.0053 0.049 Uiso 0.228(5) 1 calc R U P A 2
N5B N 0.9424(15) -0.0677(8) 0.0135(9) 0.0324(10) Uani 0.228(5) 1 d D U P A 2
O5B O 0.7450(7) 0.0352(4) -0.0182(5) 0.024(2) Uani 0.228(5) 1 d D U P A 2
O6B O 0.8627(8) 0.0487(4) 0.0695(5) 0.031(2) Uani 0.228(5) 1 d D U P A 2
C36B C 0.9404(11) -0.1561(5) 0.0268(4) 0.0341(17) Uani 0.477(8) 1 d D U P A 2
C37B C 0.9034(11) -0.2151(5) 0.0849(5) 0.040(2) Uani 0.477(8) 1 d D U P A 2
C38B C 0.8962(10) -0.2374(5) 0.1385(5) 0.053(2) Uani 0.477(8) 1 d D U P A 2
H38B H 0.9160 -0.2196 0.1725 0.064 Uiso 0.477(8) 1 calc R U P A 2
C39B C 0.8587(8) -0.2863(5) 0.1379(5) 0.055(2) Uani 0.477(8) 1 d D U P A 2
H39B H 0.8534 -0.3029 0.1722 0.066 Uiso 0.477(8) 1 calc R U P A 2
C40B C 0.8290(7) -0.3107(4) 0.0875(6) 0.047(2) Uani 0.477(8) 1 d D U P A 2
H40B H 0.8012 -0.3434 0.0881 0.057 Uiso 0.477(8) 1 calc R U P A 2
C41B C 0.8378(8) -0.2902(4) 0.0377(5) 0.057(3) Uani 0.477(8) 1 d D U P A 2
H41B H 0.8190 -0.3090 0.0042 0.069 Uiso 0.477(8) 1 calc R U P A 2
C42B C 0.8750(9) -0.2405(4) 0.0352(5) 0.049(3) Uani 0.477(8) 1 d D U P A 2
N6B N 0.9460(6) -0.1660(3) 0.0839(4) 0.0245(18) Uani 0.477(8) 1 d D U P A 2
S3B S 0.8964(4) -0.20275(17) -0.0176(2) 0.0581(11) Uani 0.477(8) 1 d D U P A 2
C36C C 0.9669(10) -0.1574(6) 0.0389(6) 0.0341(17) Uani 0.267(6) 1 d D U P B 3
C37C C 0.8982(15) -0.2323(7) 0.0405(7) 0.054(5) Uani 0.267(6) 1 d D U P B 3
C38C C 0.8613(16) -0.2810(8) 0.0193(8) 0.055(5) Uani 0.267(6) 1 d D U P B 3
H38C H 0.8525 -0.2906 -0.0191 0.066 Uiso 0.267(6) 1 calc R U P B 3
C39C C 0.8400(12) -0.3128(7) 0.0622(8) 0.038(4) Uani 0.267(6) 1 d D U P B 3
H39C H 0.8216 -0.3472 0.0529 0.046 Uiso 0.267(6) 1 calc R U P B 3
C40C C 0.8440(19) -0.2973(9) 0.1161(8) 0.047(5) Uani 0.267(6) 1 d D U P B 3
H40C H 0.8136 -0.3165 0.1400 0.057 Uiso 0.267(6) 1 calc R U P B 3
C41C C 0.8903(19) -0.2552(8) 0.1367(9) 0.068(6) Uani 0.267(6) 1 d D U P B 3
H41C H 0.9058 -0.2496 0.1759 0.081 Uiso 0.267(6) 1 calc R U P B 3
C42C C 0.9141(17) -0.2204(7) 0.0979(7) 0.048(5) Uani 0.267(6) 1 d D U P B 3
N6C N 0.9279(9) -0.1942(5) 0.0061(6) 0.053(3) Uani 0.267(6) 1 d D U P B 3
S3C S 0.9688(5) -0.1634(3) 0.1087(4) 0.083(3) Uani 0.267(6) 1 d D U P B 3
loop_
_atom_site_aniso_label
_atom_site_aniso_U_11
_atom_site_aniso_U_22
_atom_site_aniso_U_33
_atom_site_aniso_U_23
_atom_site_aniso_U_13
_atom_site_aniso_U_12
C1 0.047(2) 0.041(2) 0.046(2) -0.0073(17) 0.0133(17) -0.0065(16)
C2 0.0264(15) 0.0289(16) 0.0418(18) -0.0017(14) 0.0039(13) -0.0029(12)
C3 0.0246(14) 0.0227(14) 0.0412(18) 0.0019(13) 0.0027(13) -0.0019(11)
C4 0.0202(14) 0.0225(14) 0.0415(18) -0.0003(13) 0.0012(12) 0.0041(11)
C5 0.0273(15) 0.0257(15) 0.0363(17) 0.0032(13) 0.0077(13) 0.0041(12)
C6 0.0257(15) 0.0233(15) 0.0478(19) 0.0057(13) 0.0073(14) 0.0013(12)
C7 0.0365(18) 0.0190(14) 0.056(2) -0.0033(14) 0.0038(16) 0.0002(13)
N1 0.0263(13) 0.0217(12) 0.0432(16) -0.0035(11) 0.0033(11) -0.0003(10)
O1 0.0299(11) 0.0209(10) 0.0426(13) -0.0019(9) 0.0084(9) 0.0007(8)
O2 0.0492(15) 0.0295(12) 0.0394(13) 0.0015(10) 0.0067(11) -0.0110(10)
C8 0.0397(18) 0.0265(15) 0.0412(18) -0.0049(14) 0.0101(15) -0.0063(13)
C9 0.046(2) 0.0325(17) 0.0414(19) 0.0047(15) 0.0121(16) -0.0120(15)
C10 0.060(2) 0.048(2) 0.040(2) 0.0027(17) 0.0061(18) -0.0183(19)
C11 0.062(3) 0.069(3) 0.041(2) 0.016(2) 0.0003(19) -0.028(2)
C12 0.040(2) 0.080(3) 0.070(3) 0.016(3) 0.003(2) -0.012(2)
C13 0.047(2) 0.076(3) 0.079(3) 0.002(3) 0.010(2) 0.005(2)
C14 0.042(2) 0.052(2) 0.050(2) -0.0037(18) 0.0068(17) -0.0061(17)
N2 0.0468(17) 0.0246(14) 0.0505(18) -0.0008(13) 0.0000(14) -0.0104(12)
S1 0.0395(5) 0.0544(6) 0.0801(8) -0.0258(6) -0.0001(5) 0.0084(5)
C15 0.057(2) 0.036(2) 0.061(3) 0.0105(18) 0.018(2) -0.0068(17)
C16 0.0396(18) 0.0241(15) 0.051(2) -0.0021(14) 0.0098(16) -0.0060(13)
C17 0.0284(15) 0.0222(14) 0.0462(19) -0.0054(13) 0.0071(14) -0.0046(12)
C18 0.0337(16) 0.0237(14) 0.0380(17) -0.0066(13) 0.0084(13) 0.0003(12)
C19 0.0350(17) 0.0294(16) 0.0430(19) -0.0038(14) 0.0071(14) 0.0013(13)
C20 0.0340(17) 0.0333(17) 0.052(2) -0.0101(16) 0.0105(16) -0.0012(14)
C21 0.044(2) 0.0272(16) 0.059(2) -0.0073(16) 0.0232(17) -0.0102(14)
C22 0.0428(19) 0.0236(15) 0.0452(19) -0.0037(14) 0.0090(15) -0.0004(13)
C23 0.054(2) 0.0414(19) 0.0322(18) 0.0055(15) 0.0132(16) 0.0162(17)
C24 0.067(3) 0.058(2) 0.042(2) 0.0118(19) 0.0217(19) 0.021(2)
C25 0.092(4) 0.080(3) 0.051(3) 0.016(2) 0.036(3) 0.040(3)
C26 0.120(5) 0.079(4) 0.046(3) -0.001(2) 0.029(3) 0.035(3)
C27 0.107(4) 0.058(3) 0.060(3) -0.015(2) 0.014(3) 0.020(3)
C28 0.074(3) 0.041(2) 0.041(2) -0.0045(17) 0.0126(19) 0.0115(19)
C29 0.033(3) 0.027(3) 0.051(3) -0.005(3) 0.006(2) 0.006(2)
C30 0.0256(19) 0.0220(18) 0.040(2) 0.0047(16) 0.0095(16) 0.0022(15)
C31 0.023(3) 0.019(2) 0.039(4) 0.006(2) 0.003(3) 0.0011(19)
C32 0.030(2) 0.020(2) 0.037(2) 0.0045(18) 0.0061(19) -0.0037(17)
C33 0.029(2) 0.030(2) 0.049(3) 0.006(2) 0.001(2) -0.0019(19)
C34 0.025(2) 0.031(2) 0.057(3) 0.011(2) 0.006(2) 0.0045(18)
C35 0.036(3) 0.037(2) 0.051(3) 0.000(2) 0.012(2) 0.013(2)
N5 0.026(2) 0.029(2) 0.044(3) 0.0062(17) 0.0100(18) 0.0064(19)
O5 0.0316(16) 0.0244(16) 0.046(2) 0.0013(15) 0.0043(14) 0.0005(13)
O6 0.0280(18) 0.0222(15) 0.039(2) -0.0014(14) 0.0018(15) 0.0045(13)
C36 0.020(3) 0.031(2) 0.052(4) -0.003(3) 0.009(3) 0.012(2)
C37 0.037(3) 0.035(3) 0.049(5) 0.003(4) 0.013(5) 0.007(2)
C38 0.050(4) 0.049(4) 0.063(5) -0.006(4) 0.015(4) -0.002(4)
C39 0.047(4) 0.055(4) 0.064(5) 0.010(4) 0.011(4) -0.003(4)
C40 0.044(4) 0.035(4) 0.062(5) 0.007(4) 0.003(4) -0.005(3)
C41 0.054(5) 0.045(4) 0.070(5) -0.001(4) 0.000(4) -0.001(4)
C42 0.048(4) 0.029(3) 0.065(5) -0.005(4) -0.003(4) 0.009(3)
N6 0.022(4) 0.023(2) 0.026(5) 0.010(4) -0.003(4) 0.001(2)
S3 0.076(3) 0.0439(13) 0.054(3) -0.0112(17) 0.0093(16) 0.0146(14)
N3 0.0338(15) 0.0241(13) 0.0560(18) -0.0063(13) 0.0165(13) -0.0080(11)
N4 0.0428(16) 0.0310(14) 0.0410(16) -0.0001(12) 0.0165(13) 0.0042(12)
O3 0.0263(11) 0.0318(12) 0.0447(13) 0.0012(10) 0.0111(10) 0.0001(9)
O4 0.0358(13) 0.0314(12) 0.0506(15) 0.0073(11) 0.0045(11) -0.0052(10)
O7 0.0386(14) 0.0443(15) 0.0437(15) -0.0034(12) 0.0071(11) -0.0048(11)
S2 0.0726(7) 0.0288(5) 0.0636(7) -0.0139(4) 0.0168(6) -0.0076(4)
Fe1 0.0280(2) 0.0185(2) 0.0469(3) 0.00334(19) 0.00568(19) -0.00085(17)
C43 0.042(2) 0.048(2) 0.058(2) 0.013(2) 0.0020(18) -0.0015(18)
C44 0.059(3) 0.059(3) 0.041(2) 0.0112(19) 0.0070(18) -0.018(2)
N7 0.071(3) 0.072(3) 0.095(3) 0.002(3) -0.022(3) -0.006(2)
C29B 0.031(8) 0.028(9) 0.065(11) -0.010(9) 0.008(8) -0.001(7)
C30B 0.022(5) 0.025(5) 0.039(6) 0.005(5) 0.003(5) 0.005(4)
C31B 0.021(8) 0.022(6) 0.027(8) 0.017(6) -0.001(6) 0.006(6)
C32B 0.033(6) 0.030(6) 0.035(6) 0.012(5) 0.008(5) -0.010(5)
C33B 0.029(7) 0.022(7) 0.040(7) 0.002(6) 0.006(5) 0.001(6)
C34B 0.035(6) 0.026(6) 0.042(6) -0.001(5) 0.012(5) 0.000(5)
C35B 0.036(3) 0.037(2) 0.051(3) 0.000(2) 0.012(2) 0.013(2)
N5B 0.026(2) 0.029(2) 0.044(3) 0.0062(17) 0.0100(18) 0.0064(19)
O5B 0.021(5) 0.020(4) 0.031(5) -0.006(4) 0.001(4) 0.005(4)
O6B 0.042(5) 0.014(5) 0.038(5) 0.002(4) 0.006(5) 0.004(4)
C36B 0.020(3) 0.031(2) 0.052(4) -0.003(3) 0.009(3) 0.012(2)
C37B 0.037(3) 0.035(3) 0.049(5) 0.003(4) 0.013(5) 0.007(2)
C38B 0.050(4) 0.049(4) 0.063(5) -0.006(4) 0.015(4) -0.002(4)
C39B 0.047(4) 0.055(4) 0.064(5) 0.010(4) 0.011(4) -0.003(4)
C40B 0.044(4) 0.035(4) 0.062(5) 0.007(4) 0.003(4) -0.005(3)
C41B 0.054(5) 0.045(4) 0.070(5) -0.001(4) 0.000(4) -0.001(4)
C42B 0.048(4) 0.029(3) 0.065(5) -0.005(4) -0.003(4) 0.009(3)
N6B 0.022(4) 0.023(2) 0.026(5) 0.010(4) -0.003(4) 0.001(2)
S3B 0.076(3) 0.0439(13) 0.054(3) -0.0112(17) 0.0093(16) 0.0146(14)
C36C 0.020(3) 0.031(2) 0.052(4) -0.003(3) 0.009(3) 0.012(2)
C37C 0.043(7) 0.043(7) 0.076(8) -0.004(6) 0.012(6) 0.001(6)
C38C 0.048(7) 0.049(8) 0.069(8) 0.001(7) 0.017(6) -0.009(6)
C39C 0.035(7) 0.036(7) 0.043(8) 0.009(6) 0.004(6) -0.001(5)
C40C 0.049(7) 0.048(7) 0.046(8) 0.002(7) 0.013(7) 0.010(6)
C41C 0.056(8) 0.067(9) 0.083(8) 0.001(7) 0.022(7) 0.004(8)
C42C 0.046(7) 0.033(7) 0.070(8) 0.005(6) 0.019(7) -0.001(6)
N6C 0.041(6) 0.055(6) 0.067(7) 0.003(6) 0.014(5) 0.014(5)
S3C 0.086(5) 0.052(3) 0.126(6) -0.006(4) 0.063(4) -0.003(3)
loop_
_atom_type_symbol
_atom_type_description
_atom_type_scat_dispersion_real
_atom_type_scat_dispersion_imag
_atom_type_scat_source
C C 0.0033 0.0016 'International Tables Vol C Tables 4.2.6.8 and 6.1.1.4'
H H 0.0000 0.0000 'International Tables Vol C Tables 4.2.6.8 and 6.1.1.4'
Fe Fe 0.3463 0.8444 'International Tables Vol C Tables 4.2.6.8 and 6.1.1.4'
N N 0.0061 0.0033 'International Tables Vol C Tables 4.2.6.8 and 6.1.1.4'
O O 0.0106 0.0060 'International Tables Vol C Tables 4.2.6.8 and 6.1.1.4'
S S 0.1246 0.1234 'International Tables Vol C Tables 4.2.6.8 and 6.1.1.4'
loop_
_geom_angle_atom_site_label_1
_geom_angle_atom_site_label_2
_geom_angle_atom_site_label_3
_geom_angle
C2 C1 H1A 109.5
C2 C1 H1B 109.5
H1A C1 H1B 109.5
C2 C1 H1C 109.5
H1A C1 H1C 109.5
H1B C1 H1C 109.5
N1 C2 C3 118.5(3)
N1 C2 C1 119.4(3)
C3 C2 C1 122.1(3)
O2 C3 C2 121.8(3)
O2 C3 C4 117.3(3)
C2 C3 C4 120.9(3)
O1 C4 C5 124.6(3)
O1 C4 C3 117.2(3)
C5 C4 C3 118.2(3)
C6 C5 C4 119.0(3)
C6 C5 H5 120.5
C4 C5 H5 120.5
N1 C6 C5 121.7(3)
N1 C6 H6 119.1
C5 C6 H6 119.1
N1 C7 C8 111.2(3)
N1 C7 H7A 109.4
C8 C7 H7A 109.4
N1 C7 H7B 109.4
C8 C7 H7B 109.4
H7A C7 H7B 108.0
C6 N1 C2 121.7(3)
C6 N1 C7 117.5(3)
C2 N1 C7 120.7(3)
C4 O1 Fe1 111.7(2)
C3 O2 Fe1 113.0(2)
N2 C8 C7 122.7(3)
N2 C8 S1 116.9(3)
C7 C8 S1 120.4(2)
C14 C9 N2 115.9(3)
C14 C9 C10 118.7(4)
N2 C9 C10 125.4(4)
C11 C10 C9 118.6(4)
C11 C10 H10 120.7
C9 C10 H10 120.7
C12 C11 C10 120.7(4)
C12 C11 H11 119.7
C10 C11 H11 119.7
C13 C12 C11 121.8(5)
C13 C12 H12 119.1
C11 C12 H12 119.1
C12 C13 C14 118.2(5)
C12 C13 H13 120.9
C14 C13 H13 120.9
C13 C14 C9 121.9(4)
C13 C14 S1 128.6(4)
C9 C14 S1 109.5(3)
C8 N2 C9 108.7(3)
C14 S1 C8 88.92(19)
C16 C15 H15A 109.5
C16 C15 H15B 109.5
H15A C15 H15B 109.5
C16 C15 H15C 109.5
H15A C15 H15C 109.5
H15B C15 H15C 109.5
N3 C16 C17 118.3(3)
N3 C16 C15 121.0(3)
C17 C16 C15 120.7(3)
O4 C17 C16 121.8(3)
O4 C17 C18 118.3(3)
C16 C17 C18 120.0(3)
O3 C18 C19 125.3(3)
O3 C18 C17 116.2(3)
C19 C18 C17 118.5(3)
C20 C19 C18 119.5(3)
C20 C19 H19 120.3
C18 C19 H19 120.3
C19 C20 N3 121.6(3)
C19 C20 H20 119.2
N3 C20 H20 119.2
N3 C21 C22 112.8(3)
N3 C21 H21A 109.0
C22 C21 H21A 109.0
N3 C21 H21B 109.0
C22 C21 H21B 109.0
H21A C21 H21B 107.8
N4 C22 C21 121.5(3)
N4 C22 S2 116.3(3)
C21 C22 S2 122.2(3)
C24 C23 C28 120.8(4)
C24 C23 N4 125.7(4)
C28 C23 N4 113.5(3)
C25 C24 C23 118.0(5)
C25 C24 H24 121.0
C23 C24 H24 121.0
C24 C25 C26 121.0(5)
C24 C25 H25 119.5
C26 C25 H25 119.5
C27 C26 C25 122.4(5)
C27 C26 H26 118.8
C25 C26 H26 118.8
C26 C27 C28 116.7(5)
C26 C27 H27 121.6
C28 C27 H27 121.6
C23 C28 C27 121.0(5)
C23 C28 S2 110.2(3)
C27 C28 S2 128.7(4)
C30 C29 H29A 109.5
C30 C29 H29B 109.5
H29A C29 H29B 109.5
C30 C29 H29C 109.5
H29A C29 H29C 109.5
H29B C29 H29C 109.5
N5 C30 C31 119.2(4)
N5 C30 C29 119.5(4)
C31 C30 C29 121.3(4)
O6 C31 C30 123.7(5)
O6 C31 C32 117.2(4)
C30 C31 C32 119.1(5)
O5 C32 C33 123.3(4)
O5 C32 C31 117.0(5)
C33 C32 C31 119.6(5)
C34 C33 C32 118.8(4)
C34 C33 H33 120.6
C32 C33 H33 120.6
N5 C34 C33 121.5(4)
N5 C34 H34 119.3
C33 C34 H34 119.3
C36 C35 N5 116.9(13)
C36 C35 H35A 108.1
N5 C35 H35A 108.1
C36 C35 H35B 108.1
N5 C35 H35B 108.1
H35A C35 H35B 107.3
C34 N5 C30 121.7(4)
C34 N5 C35 118.0(4)
C30 N5 C35 120.3(4)
C32 O5 Fe1 111.1(3)
C31 O6 Fe1 112.5(3)
N6 C36 C35 120.7(19)
N6 C36 S3 117.7(14)
C35 C36 S3 121.6(16)
C38 C37 C42 124.2(17)
C38 C37 N6 124.2(17)
C42 C37 N6 111.2(14)
C37 C38 C39 114.6(18)
C37 C38 H38 122.7
C39 C38 H38 122.7
C40 C39 C38 118(2)
C40 C39 H39 121.0
C38 C39 H39 121.0
C41 C40 C39 123(2)
C41 C40 H40 118.4
C39 C40 H40 118.4
C40 C41 C42 119(2)
C40 C41 H41 120.6
C42 C41 H41 120.6
C41 C42 C37 118.4(17)
C41 C42 S3 127.8(16)
C37 C42 S3 113.7(13)
C36 N6 C37 106.2(15)
C42 S3 C36 90.9(9)
C20 N3 C16 122.0(3)
C20 N3 C21 116.6(3)
C16 N3 C21 121.3(3)
C22 N4 C23 111.4(3)
C18 O3 Fe1 111.7(2)
C17 O4 Fe1 112.3(2)
H7C O7 H7D 109.4
C28 S2 C22 88.62(19)
O6 Fe1 O4 95.90(12)
O4 Fe1 O6B 97.8(3)
O6 Fe1 O2 163.32(13)
O4 Fe1 O2 96.10(10)
O6B Fe1 O2 108.5(3)
O6 Fe1 O5 82.18(15)
O4 Fe1 O5 94.00(12)
O2 Fe1 O5 85.47(13)
O6 Fe1 O3 94.23(13)
O4 Fe1 O3 80.78(10)
O6B Fe1 O3 152.3(3)
O2 Fe1 O3 99.09(10)
O5 Fe1 O3 173.37(11)
O6 Fe1 O1 89.88(12)
O4 Fe1 O1 168.10(10)
O6B Fe1 O1 94.1(3)
O2 Fe1 O1 80.55(9)
O5 Fe1 O1 97.09(11)
O3 Fe1 O1 88.45(9)
O4 Fe1 O5B 100.6(3)
O6B Fe1 O5B 76.0(4)
O2 Fe1 O5B 162.0(3)
O3 Fe1 O5B 77.1(3)
O1 Fe1 O5B 81.7(3)
N7 C43 C44 177.5(5)
C43 C44 H44A 109.5
C43 C44 H44B 109.5
H44A C44 H44B 109.5
C43 C44 H44C 109.5
H44A C44 H44C 109.5
H44B C44 H44C 109.5
C30B C29B H29D 109.5
C30B C29B H29E 109.5
H29D C29B H29E 109.5
C30B C29B H29F 109.5
H29D C29B H29F 109.5
H29E C29B H29F 109.5
N5B C30B C31B 119.1(11)
N5B C30B C29B 120.0(12)
C31B C30B C29B 120.9(12)
O6B C31B C30B 123.6(13)
O6B C31B C32B 116.5(11)
C30B C31B C32B 119.8(12)
O5B C32B C33B 125.5(12)
O5B C32B C31B 116.8(11)
C33B C32B C31B 117.7(11)
C34B C33B C32B 120.8(13)
C34B C33B H33B 119.6
C32B C33B H33B 119.6
C33B C34B N5B 120.9(12)
C33B C34B H34B 119.5
N5B C34B H34B 119.5
N5B C35B C36B 95.8(17)
N5B C35B H35C 112.6
C36B C35B H35C 112.6
N5B C35B H35D 112.6
C36B C35B H35D 112.6
H35C C35B H35D 110.1
C34B N5B C30B 121.6(12)
C34B N5B C35B 116.2(13)
C30B N5B C35B 122.0(14)
C32B O5B Fe1 111.0(9)
C31B O6B Fe1 118.5(9)
N6B C36B C35B 103.3(11)
N6B C36B S3B 116.9(7)
C35B C36B S3B 136.3(10)
C42B C37B N6B 119.3(9)
C42B C37B C38B 122.3(9)
N6B C37B C38B 118.3(9)
C39B C38B C37B 116.7(10)
C39B C38B H38B 121.7
C37B C38B H38B 121.7
C40B C39B C38B 120.1(11)
C40B C39B H39B 119.9
C38B C39B H39B 119.9
C41B C40B C39B 122.7(10)
C41B C40B H40B 118.6
C39B C40B H40B 118.6
C40B C41B C42B 120.1(10)
C40B C41B H41B 120.0
C42B C41B H41B 120.0
C37B C42B C41B 118.0(10)
C37B C42B S3B 108.1(8)
C41B C42B S3B 133.8(9)
C36B N6B C37B 103.1(8)
C42B S3B C36B 92.4(5)
N6C C36C S3C 117.6(10)
C42C C37C N6C 114.2(12)
C42C C37C C38C 122.6(13)
N6C C37C C38C 123.1(14)
C39C C38C C37C 112.0(13)
C39C C38C H38C 124.0
C37C C38C H38C 124.0
C40C C39C C38C 124.1(16)
C40C C39C H39C 117.9
C38C C39C H39C 117.9
C41C C40C C39C 121.8(17)
C41C C40C H40C 119.1
C39C C40C H40C 119.1
C40C C41C C42C 117.0(16)
C40C C41C H41C 121.5
C42C C41C H41C 121.5
C41C C42C C37C 120.3(13)
C41C C42C S3C 129.6(14)
C37C C42C S3C 110.1(11)
C36C N6C C37C 108.0(12)
C36C S3C C42C 90.1(8)
loop_
_geom_bond_atom_site_label_1
_geom_bond_atom_site_label_2
_geom_bond_distance
C1 C2 1.487(5)
C1 H1A 0.9800
C1 H1B 0.9800
C1 H1C 0.9800
C2 N1 1.370(4)
C2 C3 1.384(4)
C3 O2 1.326(4)
C3 C4 1.420(5)
C4 O1 1.294(4)
C4 C5 1.412(4)
C5 C6 1.365(4)
C5 H5 0.9500
C6 N1 1.362(4)
C6 H6 0.9500
C7 N1 1.480(4)
C7 C8 1.490(5)
C7 H7A 0.9900
C7 H7B 0.9900
O1 Fe1 2.065(2)
O2 Fe1 1.986(2)
C8 N2 1.309(4)
C8 S1 1.735(4)
C9 C14 1.390(5)
C9 N2 1.396(5)
C9 C10 1.400(5)
C10 C11 1.383(6)
C10 H10 0.9500
C11 C12 1.368(7)
C11 H11 0.9500
C12 C13 1.357(7)
C12 H12 0.9500
C13 C14 1.377(6)
C13 H13 0.9500
C14 S1 1.726(4)
C15 C16 1.488(6)
C15 H15A 0.9800
C15 H15B 0.9800
C15 H15C 0.9800
C16 N3 1.363(5)
C16 C17 1.405(5)
C17 O4 1.325(4)
C17 C18 1.414(5)
C18 O3 1.295(4)
C18 C19 1.410(5)
C19 C20 1.351(5)
C19 H19 0.9500
C20 N3 1.360(5)
C20 H20 0.9500
C21 N3 1.480(4)
C21 C22 1.504(5)
C21 H21A 0.9900
C21 H21B 0.9900
C22 N4 1.273(5)
C22 S2 1.745(3)
C23 C24 1.388(6)
C23 C28 1.398(6)
C23 N4 1.401(4)
C24 C25 1.381(6)
C24 H24 0.9500
C25 C26 1.393(9)
C25 H25 0.9500
C26 C27 1.368(9)
C26 H26 0.9500
C27 C28 1.415(6)
C27 H27 0.9500
C28 S2 1.726(5)
C29 C30 1.507(7)
C29 H29A 0.9800
C29 H29B 0.9800
C29 H29C 0.9800
C30 N5 1.377(6)
C30 C31 1.385(6)
C31 O6 1.325(7)
C31 C32 1.428(7)
C32 O5 1.297(6)
C32 C33 1.406(7)
C33 C34 1.366(7)
C33 H33 0.9500
C34 N5 1.359(7)
C34 H34 0.9500
C35 C36 1.37(2)
C35 N5 1.481(6)
C35 H35A 0.9900
C35 H35B 0.9900
O5 Fe1 2.033(3)
O6 Fe1 1.955(3)
C36 N6 1.37(3)
C36 S3 1.67(2)
C37 C38 1.40(2)
C37 C42 1.41(3)
C37 N6 1.47(2)
C38 C39 1.45(3)
C38 H38 0.9500
C39 C40 1.40(3)
C39 H39 0.9500
C40 C41 1.36(3)
C40 H40 0.9500
C41 C42 1.39(2)
C41 H41 0.9500
C42 S3 1.646(19)
O3 Fe1 2.060(2)
O4 Fe1 1.972(2)
O7 H7C 0.8509
O7 H7D 0.8492
Fe1 O6B 1.984(12)
Fe1 O5B 2.227(10)
C43 N7 1.127(6)
C43 C44 1.435(6)
C44 H44A 0.9800
C44 H44B 0.9800
C44 H44C 0.9800
C29B C30B 1.500(14)
C29B H29D 0.9800
C29B H29E 0.9800
C29B H29F 0.9800
C30B N5B 1.382(13)
C30B C31B 1.387(13)
C31B O6B 1.303(14)
C31B C32B 1.438(13)
C32B O5B 1.282(12)
C32B C33B 1.415(14)
C33B C34B 1.349(13)
C33B H33B 0.9500
C34B N5B 1.368(15)
C34B H34B 0.9500
C35B N5B 1.472(14)
C35B C36B 1.63(2)
C35B H35C 0.9900
C35B H35D 0.9900
C36B N6B 1.394(11)
C36B S3B 1.685(11)
C37B C42B 1.377(12)
C37B N6B 1.434(12)
C37B C38B 1.441(13)
C38B C39B 1.392(12)
C38B H38B 0.9500
C39B C40B 1.384(13)
C39B H39B 0.9500
C40B C41B 1.346(13)
C40B H40B 0.9500
C41B C42B 1.413(13)
C41B H41B 0.9500
C42B S3B 1.684(10)
C36C N6C 1.322(12)
C36C S3C 1.691(11)
C37C C42C 1.403(14)
C37C N6C 1.416(12)
C37C C38C 1.444(15)
C38C C39C 1.407(16)
C38C H38C 0.9500
C39C C40C 1.356(16)
C39C H39C 0.9500
C40C C41C 1.356(17)
C40C H40C 0.9500
C41C C42C 1.395(16)
C41C H41C 0.9500
C42C S3C 1.701(12)
loop_
_geom_torsion_atom_site_label_1
_geom_torsion_atom_site_label_2
_geom_torsion_atom_site_label_3
_geom_torsion_atom_site_label_4
_geom_torsion
N1 C2 C3 O2 -176.7(3)
C1 C2 C3 O2 0.7(5)
N1 C2 C3 C4 1.7(5)
C1 C2 C3 C4 179.0(3)
O2 C3 C4 O1 -1.6(4)
C2 C3 C4 O1 180.0(3)
O2 C3 C4 C5 178.2(3)
C2 C3 C4 C5 -0.3(4)
O1 C4 C5 C6 178.8(3)
C3 C4 C5 C6 -0.9(4)
C4 C5 C6 N1 0.7(5)
C5 C6 N1 C2 0.8(5)
C5 C6 N1 C7 177.2(3)
C3 C2 N1 C6 -2.0(5)
C1 C2 N1 C6 -179.4(3)
C3 C2 N1 C7 -178.3(3)
C1 C2 N1 C7 4.3(5)
C8 C7 N1 C6 -94.3(4)
C8 C7 N1 C2 82.2(4)
C5 C4 O1 Fe1 178.0(2)
C3 C4 O1 Fe1 -2.3(3)
C2 C3 O2 Fe1 -176.8(2)
C4 C3 O2 Fe1 4.7(4)
N1 C7 C8 N2 -163.7(3)
N1 C7 C8 S1 16.9(4)
C14 C9 C10 C11 3.3(5)
N2 C9 C10 C11 -178.8(3)
C9 C10 C11 C12 -1.6(6)
C10 C11 C12 C13 -1.5(7)
C11 C12 C13 C14 2.7(8)
C12 C13 C14 C9 -0.8(7)
C12 C13 C14 S1 179.6(4)
N2 C9 C14 C13 179.8(4)
C10 C9 C14 C13 -2.2(6)
N2 C9 C14 S1 -0.6(4)
C10 C9 C14 S1 177.5(3)
C7 C8 N2 C9 -177.8(3)
S1 C8 N2 C9 1.6(4)
C14 C9 N2 C8 -0.6(4)
C10 C9 N2 C8 -178.5(3)
C13 C14 S1 C8 -179.2(5)
C9 C14 S1 C8 1.2(3)
N2 C8 S1 C14 -1.7(3)
C7 C8 S1 C14 177.8(3)
N3 C16 C17 O4 -177.9(3)
C15 C16 C17 O4 0.0(5)
N3 C16 C17 C18 2.3(5)
C15 C16 C17 C18 -179.9(3)
O4 C17 C18 O3 1.4(4)
C16 C17 C18 O3 -178.8(3)
O4 C17 C18 C19 -178.4(3)
C16 C17 C18 C19 1.4(5)
O3 C18 C19 C20 176.0(3)
C17 C18 C19 C20 -4.3(5)
C18 C19 C20 N3 3.4(5)
N3 C21 C22 N4 166.7(4)
N3 C21 C22 S2 -12.4(5)
C28 C23 C24 C25 -2.7(6)
N4 C23 C24 C25 179.0(4)
C23 C24 C25 C26 1.0(7)
C24 C25 C26 C27 0.8(8)
C25 C26 C27 C28 -0.9(8)
C24 C23 C28 C27 2.7(6)
N4 C23 C28 C27 -178.8(4)
C24 C23 C28 S2 -179.7(3)
N4 C23 C28 S2 -1.2(4)
C26 C27 C28 C23 -0.9(7)
C26 C27 C28 S2 -178.0(4)
N5 C30 C31 O6 -179.4(7)
C29 C30 C31 O6 0.7(11)
N5 C30 C31 C32 -1.8(10)
C29 C30 C31 C32 178.3(5)
O6 C31 C32 O5 0.0(9)
C30 C31 C32 O5 -177.8(5)
O6 C31 C32 C33 179.3(5)
C30 C31 C32 C33 1.5(9)
O5 C32 C33 C34 179.2(4)
C31 C32 C33 C34 -0.1(8)
C32 C33 C34 N5 -1.1(8)
C33 C34 N5 C30 0.8(10)
C33 C34 N5 C35 -176.9(5)
C31 C30 N5 C34 0.7(10)
C29 C30 N5 C34 -179.4(6)
C31 C30 N5 C35 178.3(7)
C29 C30 N5 C35 -1.8(10)
C36 C35 N5 C34 101.6(14)
C36 C35 N5 C30 -76.2(15)
C33 C32 O5 Fe1 -178.7(3)
C31 C32 O5 Fe1 0.6(6)
C30 C31 O6 Fe1 177.1(6)
C32 C31 O6 Fe1 -0.6(8)
N5 C35 C36 N6 -45(3)
N5 C35 C36 S3 136.3(18)
C42 C37 C38 C39 10(4)
N6 C37 C38 C39 -178(3)
C37 C38 C39 C40 -18(4)
C38 C39 C40 C41 20(5)
C39 C40 C41 C42 -13(4)
C40 C41 C42 C37 5(4)
C40 C41 C42 S3 -177(2)
C38 C37 C42 C41 -4(4)
N6 C37 C42 C41 -177(2)
C38 C37 C42 S3 177(2)
N6 C37 C42 S3 5(3)
C35 C36 N6 C37 -175(2)
S3 C36 N6 C37 4(3)
C38 C37 N6 C36 -178(3)
C42 C37 N6 C36 -5(3)
C41 C42 S3 C36 179(3)
C37 C42 S3 C36 -2(2)
N6 C36 S3 C42 -1(3)
C35 C36 S3 C42 177(2)
C19 C20 N3 C16 0.5(5)
C19 C20 N3 C21 -177.6(3)
C17 C16 N3 C20 -3.4(5)
C15 C16 N3 C20 178.8(3)
C17 C16 N3 C21 174.6(3)
C15 C16 N3 C21 -3.2(5)
C22 C21 N3 C20 -90.7(4)
C22 C21 N3 C16 91.2(4)
C21 C22 N4 C23 -179.2(3)
S2 C22 N4 C23 0.0(4)
C24 C23 N4 C22 179.1(4)
C28 C23 N4 C22 0.7(5)
C19 C18 O3 Fe1 -175.1(3)
C17 C18 O3 Fe1 5.2(3)
C16 C17 O4 Fe1 172.7(3)
C18 C17 O4 Fe1 -7.5(4)
C23 C28 S2 C22 1.0(3)
C27 C28 S2 C22 178.3(5)
N4 C22 S2 C28 -0.6(3)
C21 C22 S2 C28 178.6(3)
N5B C30B C31B O6B -177(2)
C29B C30B C31B O6B 3(4)
N5B C30B C31B C32B 1(4)
C29B C30B C31B C32B -178.8(18)
O6B C31B C32B O5B -2(3)
C30B C31B C32B O5B 179.5(18)
O6B C31B C32B C33B 178.5(18)
C30B C31B C32B C33B 0(3)
O5B C32B C33B C34B 179.5(15)
C31B C32B C33B C34B -1(3)
C32B C33B C34B N5B 2(3)
C33B C34B N5B C30B 0(4)
C33B C34B N5B C35B 174(2)
C31B C30B N5B C34B -1(4)
C29B C30B N5B C34B 179(2)
C31B C30B N5B C35B -175(2)
C29B C30B N5B C35B 4(4)
C36B C35B N5B C34B -57(3)
C36B C35B N5B C30B 118(3)
C33B C32B O5B Fe1 173.5(13)
C31B C32B O5B Fe1 -5.6(19)
C30B C31B O6B Fe1 -171.4(18)
C32B C31B O6B Fe1 10(3)
N5B C35B C36B N6B -103.4(15)
N5B C35B C36B S3B 99.7(19)
C42B C37B C38B C39B 0(2)
N6B C37B C38B C39B -176.7(13)
C37B C38B C39B C40B -1(2)
C38B C39B C40B C41B 3(2)
C39B C40B C41B C42B -3(2)
N6B C37B C42B C41B 176.4(13)
C38B C37B C42B C41B 0(2)
N6B C37B C42B S3B -2(2)
C38B C37B C42B S3B -178.9(14)
C40B C41B C42B C37B 2(2)
C40B C41B C42B S3B -179.9(12)
C35B C36B N6B C37B -166.4(12)
S3B C36B N6B C37B -4.1(16)
C42B C37B N6B C36B 4(2)
C38B C37B N6B C36B -179.3(15)
C37B C42B S3B C36B -0.2(13)
C41B C42B S3B C36B -178.7(15)
N6B C36B S3B C42B 2.7(13)
C35B C36B S3B C42B 157.4(16)
C42C C37C C38C C39C 3(4)
N6C C37C C38C C39C 178(2)
C37C C38C C39C C40C 7(3)
C38C C39C C40C C41C -18(4)
C39C C40C C41C C42C 17(4)
C40C C41C C42C C37C -7(4)
C40C C41C C42C S3C 178(2)
N6C C37C C42C C41C -178(2)
C38C C37C C42C C41C -3(4)
N6C C37C C42C S3C -2(3)
C38C C37C C42C S3C 173(2)
S3C C36C N6C C37C -2(2)
C42C C37C N6C C36C 2(3)
C38C C37C N6C C36C -173(2)
N6C C36C S3C C42C 0.5(17)
C41C C42C S3C C36C 177(3)
C37C C42C S3C C36C 1(2)
loop_
_platon_squeeze_void_nr
_platon_squeeze_void_average_x
_platon_squeeze_void_average_y
_platon_squeeze_void_average_z
_platon_squeeze_void_volume
_platon_squeeze_void_count_electrons
_platon_squeeze_void_content
1 0.000 0.693 0.250 163 39 ' '
2 0.000 0.158 0.250 154 42 ' '
3 0.000 0.893 0.250 69 22 ' '
4 0.000 0.307 0.750 164 39 ' '
5 0.000 0.842 0.750 154 42 ' '
6 0.000 0.107 0.750 68 22 ' '
7 0.500 0.658 0.250 154 42 ' '
8 0.500 0.342 0.750 154 42 ' '
9 0.500 0.193 0.250 163 39 ' '
10 0.500 0.807 0.750 164 39 ' '
11 0.500 0.393 0.250 69 22 ' '
12 0.500 0.607 0.750 68 22 ' '
