#------------------------------------------------------------------------------
#$Date: 2016-02-18 17:37:37 +0200 (Thu, 18 Feb 2016) $
#$Revision: 176729 $
#$URL: svn://www.crystallography.net/cod/cif/1/51/38/1513813.cif $
#------------------------------------------------------------------------------
#
# This file is available in the Crystallography Open Database (COD),
# http://www.crystallography.net/
#
# All data on this site have been placed in the public domain by the
# contributors.
#
data_1513813
loop_
_publ_author_name
'Cui, Jian'
'Jia, Qun'
'Feng, Ruo-Zhu'
'Liu, Shan-Shan'
'He, Tian'
'Zhang, Chi'
_publ_section_title
;
 Boron trifluoride etherate functioning as a fluorine source in an
 iodosobenzene-mediated intramolecular aminofluorination of homoallylic
 amines.
;
_journal_issue                   5
_journal_name_full               'Organic letters'
_journal_page_first              1442
_journal_page_last               1445
_journal_paper_doi               10.1021/ol500238k
_journal_volume                  16
_journal_year                    2014
_chemical_formula_moiety         'C15 H22 F N O2 S'
_chemical_formula_sum            'C15 H22 F N O2 S'
_chemical_formula_weight         299.39
_chemical_name_systematic
; 
 ? 
;
_space_group_crystal_system      monoclinic
_space_group_IT_number           14
_space_group_name_Hall           '-P 2yn'
_space_group_name_H-M_alt        'P 1 21/n 1'
_symmetry_space_group_name_Hall  '-P 2yn'
_symmetry_space_group_name_H-M   'P 1 21/n 1'
_atom_sites_solution_hydrogens   geom
_atom_sites_solution_primary     direct
_atom_sites_solution_secondary   difmap
_audit_creation_method           SHELXL-2013
_cell_angle_alpha                90
_cell_angle_beta                 94.544(5)
_cell_angle_gamma                90
_cell_formula_units_Z            4
_cell_length_a                   6.1890(10)
_cell_length_b                   12.1340(14)
_cell_length_c                   19.640(7)
_cell_measurement_reflns_used    5148
_cell_measurement_temperature    113(2)
_cell_measurement_theta_max      28.20
_cell_measurement_theta_min      1.70
_cell_volume                     1470.3(6)
_computing_cell_refinement       'CrystalClear-SM Expert 2.0 r4'
_computing_data_collection
'CrystalClear-SM Expert 2.0 r4 (Rigaku, 2009)'
_computing_data_reduction        'CrystalClear-SM Expert 2.0 r4'
_computing_molecular_graphics    'CrystalStructure 4.0'
_computing_publication_material  'CrystalStructure 4.0 (Rigaku, 2009)'
_computing_structure_refinement  'SHELXL-2013 (Sheldrick, 2013)'
_computing_structure_solution    'SHELXS97 (Sheldrick, 1997)'
_diffrn_ambient_temperature      113(2)
_diffrn_detector_area_resol_mean 14.222
_diffrn_measured_fraction_theta_full 1.000
_diffrn_measured_fraction_theta_max 0.997
_diffrn_measurement_device_type  'Rigaku Saturn724 CCD'
_diffrn_measurement_method       \w
_diffrn_radiation_type           MoK\a
_diffrn_radiation_wavelength     0.71075
_diffrn_reflns_av_R_equivalents  0.0797
_diffrn_reflns_av_unetI/netI     0.0745
_diffrn_reflns_Laue_measured_fraction_full 1.000
_diffrn_reflns_Laue_measured_fraction_max 0.997
_diffrn_reflns_limit_h_max       8
_diffrn_reflns_limit_h_min       -8
_diffrn_reflns_limit_k_max       15
_diffrn_reflns_limit_k_min       -15
_diffrn_reflns_limit_l_max       25
_diffrn_reflns_limit_l_min       -25
_diffrn_reflns_number            18484
_diffrn_reflns_point_group_measured_fraction_full 1.000
_diffrn_reflns_point_group_measured_fraction_max 0.997
_diffrn_reflns_theta_full        25.242
_diffrn_reflns_theta_max         27.904
_diffrn_reflns_theta_min         1.975
_exptl_absorpt_coefficient_mu    0.232
_exptl_absorpt_correction_T_max  0.955
_exptl_absorpt_correction_T_min  0.775
_exptl_absorpt_correction_type   multi-scan
_exptl_absorpt_process_details   'Jacobson, R. (1998) Private communication'
_exptl_crystal_colour            colorless
_exptl_crystal_density_diffrn    1.353
_exptl_crystal_density_method    'not measured'
_exptl_crystal_description       prism
_exptl_crystal_F_000             640
_exptl_crystal_size_max          0.240
_exptl_crystal_size_mid          0.220
_exptl_crystal_size_min          0.200
_refine_diff_density_max         0.324
_refine_diff_density_min         -0.442
_refine_diff_density_rms         0.063
_refine_ls_extinction_method     none
_refine_ls_goodness_of_fit_ref   0.979
_refine_ls_hydrogen_treatment    constr
_refine_ls_matrix_type           full
_refine_ls_number_parameters     185
_refine_ls_number_reflns         3498
_refine_ls_number_restraints     0
_refine_ls_restrained_S_all      0.979
_refine_ls_R_factor_all          0.0514
_refine_ls_R_factor_gt           0.0382
_refine_ls_shift/su_max          0.000
_refine_ls_shift/su_mean         0.000
_refine_ls_structure_factor_coef Fsqd
_refine_ls_weighting_details
; 
 w=1/[\s^2^(Fo^2^)+(0.0408P)^2^] 
 where P=(Fo^2^+2Fc^2^)/3 
;
_refine_ls_weighting_scheme      calc
_refine_ls_wR_factor_gt          0.0973
_refine_ls_wR_factor_ref         0.1001
_reflns_Friedel_coverage         0.000
_reflns_number_gt                2305
_reflns_number_total             3498
_reflns_threshold_expression     'I > 2\s(I)'
_cod_data_source_file            ol500238k_si_002.cif
_cod_data_source_block           shelxl
_cod_database_code               1513813
#BEGIN Tags that were not found in dictionaries:
_shelx_space_group_comment
; 
The symmetry employed for this shelxl refinement is uniquely defined 
by the following loop, which should always be used as a source of 
symmetry information in preference to the above space-group names. 
They are only intended as comments. 
;
_shelx_estimated_absorpt_t_min   0.946
_shelx_estimated_absorpt_t_max   0.955
_shelxl_version_number           2013-2
_shelx_res_file
; 
TITL  _m130429e 
CELL  0.71075 6.18900 12.13400 19.64000 90.000 94.544 90.000 
ZERR  4 0.00100 0.00140 0.00700 0.000 0.005 0.000 
LATT 1 
SYMM .50-X, .50+Y, .50-Z 
SFAC C H N O F S 
UNIT 60 88 4 8 4 4 
SHEL 99999.000000 0.000000 
L.S. 5 
FMAP 2 
PLAN -5 
WPDB -2 
HTAB 
bond $h 
conf 
EQIV $1 x+1, y, z 
HTAB C1 O2_$1 
EQIV $2 -x+3/2, y+1/2, -z+1/2 
HTAB C10 F1_$2 
TEMP -160.0 
ACTA 
SIZE 0.240 0.220 0.200 
WGHT    0.040800 
FVAR       0.58709 
S1    6    0.336932    0.513370    0.210543    11.00000    0.01315    0.01197 = 
         0.01398   -0.00005    0.00123    0.00156 
F1    5    0.601319    0.219583    0.363467    11.00000    0.03635    0.02960 = 
         0.03765    0.01236    0.00313    0.00238 
O1    4    0.422727    0.623167    0.213347    11.00000    0.02303    0.00992 = 
         0.01899    0.00044    0.00141    0.00194 
O2    4    0.107474    0.496004    0.209133    11.00000    0.01249    0.02274 = 
         0.01996    0.00000    0.00169    0.00368 
N1    3    0.442641    0.448790    0.278257    11.00000    0.01024    0.01154 = 
         0.01372    0.00107    0.00083   -0.00077 
C1    1    0.679413    0.463399    0.298174    11.00000    0.01079    0.01308 = 
         0.01394    0.00070    0.00263    0.00017 
AFIX  13 
H1    2    0.741511    0.512076    0.263564    11.00000   -1.20000 
AFIX   0 
C2    1    0.768299    0.345878    0.289708    11.00000    0.01753    0.01509 = 
         0.01630   -0.00063    0.00353    0.00326 
AFIX  23 
H2A   2    0.826823    0.338192    0.244474    11.00000   -1.20000 
H2B   2    0.886695    0.330974    0.325418    11.00000   -1.20000 
AFIX   0 
C3    1    0.587335    0.266379    0.295890    11.00000    0.02080    0.01544 = 
         0.02110   -0.00008    0.00430    0.00074 
AFIX  13 
H3    2    0.591089    0.207049    0.260665    11.00000   -1.20000 
AFIX   0 
C4    1    0.378102    0.331801    0.285627    11.00000    0.01682    0.01292 = 
         0.02173    0.00291    0.00329   -0.00277 
AFIX  23 
H4A   2    0.290975    0.306451    0.244126    11.00000   -1.20000 
H4B   2    0.290919    0.322807    0.325403    11.00000   -1.20000 
AFIX   0 
C5    1    0.722987    0.517547    0.369197    11.00000    0.01480    0.01652 = 
         0.01407   -0.00178    0.00016    0.00111 
C6    1    0.606424    0.629508    0.369776    11.00000    0.02586    0.01895 = 
         0.02070   -0.00663   -0.00014    0.00138 
AFIX 137 
H6A   2    0.637698    0.664842    0.414337    11.00000   -1.20000 
H6B   2    0.449778    0.618200    0.361434    11.00000   -1.20000 
H6C   2    0.657556    0.676792    0.333925    11.00000   -1.20000 
AFIX   0 
C7    1    0.967807    0.537740    0.381235    11.00000    0.01827    0.03383 = 
         0.02063   -0.00533   -0.00267   -0.00060 
AFIX 137 
H7A   2    1.016113    0.584104    0.344506    11.00000   -1.20000 
H7B   2    1.044512    0.467055    0.381691    11.00000   -1.20000 
H7C   2    0.999138    0.574956    0.425194    11.00000   -1.20000 
AFIX   0 
C8    1    0.645935    0.446395    0.427093    11.00000    0.02893    0.02746 = 
         0.01512   -0.00113    0.00630    0.00246 
AFIX 137 
H8A   2    0.718840    0.374685    0.427333    11.00000   -1.20000 
H8B   2    0.488834    0.435608    0.420015    11.00000   -1.20000 
H8C   2    0.680890    0.483423    0.470930    11.00000   -1.20000 
AFIX   0 
C9    1    0.428119    0.447956    0.137465    11.00000    0.01576    0.01287 = 
         0.01138    0.00109   -0.00005    0.00298 
C10   1    0.629050    0.475619    0.114918    11.00000    0.01464    0.01638 = 
         0.01529    0.00099   -0.00150   -0.00048 
AFIX  43 
H10   2    0.717246    0.529944    0.138231    11.00000   -1.20000 
AFIX   0 
C11   1    0.698505    0.422666    0.057904    11.00000    0.01617    0.02325 = 
         0.01626    0.00351    0.00253    0.00471 
AFIX  43 
H11   2    0.835427    0.441462    0.042484    11.00000   -1.20000 
AFIX   0 
C12   1    0.572874    0.342841    0.022790    11.00000    0.02715    0.01832 = 
         0.01284    0.00079    0.00042    0.00842 
C13   1    0.373013    0.317175    0.045954    11.00000    0.02690    0.01723 = 
         0.01840   -0.00310   -0.00358   -0.00177 
AFIX  43 
H13   2    0.284634    0.263136    0.022434    11.00000   -1.20000 
AFIX   0 
C14   1    0.299446    0.368793    0.102778    11.00000    0.01768    0.01845 = 
         0.01897   -0.00022    0.00111   -0.00180 
AFIX  43 
H14   2    0.162033    0.350179    0.117900    11.00000   -1.20000 
AFIX   0 
C15   1    0.651439    0.286268   -0.038992    11.00000    0.03860    0.02687 = 
         0.01648   -0.00314    0.00242    0.00895 
AFIX 137 
H15A  2    0.660414    0.206684   -0.030748    11.00000   -1.20000 
H15B  2    0.795098    0.314570   -0.047553    11.00000   -1.20000 
H15C  2    0.549870    0.300780   -0.078830    11.00000   -1.20000 
AFIX   0 
HKLF 4 
  
REM   _m130429e 
REM R1 =  0.0382 for    2305 Fo > 4sig(Fo)  and  0.0514 for all    3498 data 
REM    185 parameters refined using      0 restraints 
  
END 
  
WGHT      0.0408      0.0000 
  
REM Instructions for potential hydrogen bonds 
HTAB C1 O2_$1 
HTAB C10 F1_$2 
  
REM Highest difference peak  0.324,  deepest hole -0.442,  1-sigma level  0.063 
Q1    1   0.0803  0.5057  0.1894  11.00000  0.05    0.26 
Q2    1   0.5984  0.1985  0.2836  11.00000  0.05    0.25 
Q3    1   0.7040  0.4893  0.3385  11.00000  0.05    0.25 
Q4    1   0.8227  0.3448  0.2877  11.00000  0.05    0.24 
Q5    1   0.4042  0.3987  0.2836  11.00000  0.05    0.24 
;
_shelx_res_checksum              84002
_shelx_hkl_file
; 
   0   1   0    1.59    2.17 
   0   1   0    0.53    1.20 
   0  -1   0    1.61    0.75 
   0  -1   0    2.08    0.79 
   0   1   0    1.10    0.64 
   0  -1   0    1.13    0.68 
   0  -1  -1  220.75    8.83 
   0  -1   1  337.90    9.64 
   0   1   1  266.65    9.68 
   0   1   1  247.01    8.47 
   0  -1  -1  266.42    8.46 
   0  -1   1  318.64    9.81 
   0   1  -1  302.18    9.35 
   0   1   1  210.66    7.13 
   0  -1  -1  263.60    8.08 
   0   1  -1  295.51    8.19 
   0   1  -1  238.84    8.26 
   0   0  -2 4877.98   83.17 
   0   0  -2 4311.60   75.04 
   0   0   2 4404.66   76.63 
   0  -1   2  143.31    7.22 
   0  -1   2  150.27    8.61 
   0  -1  -2  176.74    7.09 
   0   1  -2  144.96    6.13 
   0  -1   2  143.48    6.26 
   0  -1  -2  160.81    7.95 
   0   1   2  129.51    6.34 
   0   1   2  230.79   10.36 
   0  -1  -2  151.28    7.79 
   0  -1  -2  150.81    6.78 
   0   1  -2  137.17    9.34 
   0   1  -2  144.21    8.02 
   0   0  -3    2.11    3.31 
   0   0   3    1.52    2.32 
   0   0  -3    1.30    2.05 
   0   0   3    1.42    2.66 
   0   0   3    1.77    2.53 
   0   0  -3    1.20    1.94 
  -1   0   0    0.88    2.05 
   1   0   0    1.43    2.44 
   1   0   0    1.43    1.93 
  -1   0   0    1.24    1.82 
  -1   0   0    0.30    1.61 
   1   0   0    0.77    1.23 
   0  -2   0 4207.12   76.93 
   0  -2   0 3465.11   66.90 
   0  -2   0 4340.61   81.00 
   0   2   0 4178.47   76.39 
   0   2   0 4684.79   84.23 
   0   2   0 3990.80   74.67 
   1   0  -1  462.42   13.20 
  -1   0   1  506.43   13.91 
   1   0  -1  506.76   13.84 
  -1   0   1  437.64   13.24 
   1   0  -1  525.44   12.60 
  -1   0   1  493.44   12.73 
   0  -2  -1  472.35   14.92 
   0  -2   1  548.58   17.25 
   0   2   1  519.13   16.00 
   0   2  -1  550.55   17.29 
   0  -2  -1  580.00   16.48 
   0  -2   1  517.91   16.10 
   0  -2   1  619.34   18.01 
   0  -2  -1  383.32   13.91 
   0   2   1  455.25   15.18 
   0   2  -1  516.66   17.74 
   0   2   1  448.18   14.61 
   0   2  -1  548.58   15.49 
   1   0   1  865.22   21.49 
   1   0   1 1018.48   19.61 
  -1   0  -1  968.96   18.51 
  -1   0  -1  761.85   16.31 
  -1   0  -1  916.09   24.45 
   1   0   1  925.50   18.46 
   0   1   3    1.42    2.81 
   0  -1  -3    2.11    1.43 
   0  -1  -3    2.21    3.31 
   0   1   3    2.42    4.93 
   0  -1   3    5.28    8.26 
   0   1   3    2.13    3.76 
   0  -1  -3   26.50    6.48 
   0   1  -3    5.35    8.36 
   0  -1   3    3.44    1.21 
   0  -1   3    4.45    2.11 
   0   1  -3    8.05    2.36 
   0   1  -3    4.06    1.33 
   1   1   0 3821.19   69.82 
  -1   1   0 4661.96   86.30 
  -1  -1   0 3781.91   70.12 
   1  -1   0 5239.42   95.49 
   1  -1   0 4486.37   82.13 
   1   1   0 3997.05   75.62 
  -1  -1   0 5094.62   95.73 
  -1   1   0 4923.62   91.24 
   1   0  -2    1.35    2.55 
  -1   0   2    0.52    1.09 
   1   0  -2    1.08    2.25 
   1   0  -2    0.63    0.99 
   1   0  -2    0.85    1.21 
  -1   0   2    0.57    1.22 
   1   1  -1  489.92   19.05 
   1   1  -1  481.31   12.88 
  -1  -1   1  602.72   20.27 
   1  -1  -1  498.43   15.52 
  -1  -1   1  496.21   14.02 
   1  -1  -1  491.95   16.28 
  -1  -1   1  521.30    9.70 
   1  -1  -1  413.96   12.31 
  -1   1   1  549.44   17.14 
  -1   1   1  466.56   12.50 
   1   1  -1  520.65   10.46 
  -1  -1  -1  319.37   12.96 
  -1   1  -1  490.11   17.11 
  -1   1  -1  425.94   17.26 
   1   1   1  405.65   13.81 
  -1  -1  -1  609.80   18.18 
   1   1   1  504.19   18.87 
   1  -1   1  464.58   15.92 
   1  -1   1  331.41   15.32 
   1   1   1  504.14    8.37 
   0   2  -2 2419.56   43.83 
   0  -2  -2 2521.89   45.34 
   0   2  -2 2247.42   38.92 
   0  -2   2 2030.16   34.38 
   0   2   2 2492.07   45.03 
   0  -2  -2 2368.14   41.97 
   0   2  -2 2813.26   48.58 
   0  -2   2 2166.83   39.08 
   0   2   2 2127.65   40.35 
   0   2   2 3119.59   60.19 
   0  -2   2 2339.97   42.71 
   0  -2  -2 2633.12   46.15 
  -1   0  -2    0.45    0.91 
   1   0   2    0.59    0.94 
  -1   0  -2    0.78    1.49 
   1   0   2    0.56    0.95 
  -1   0  -2   -0.26    3.29 
   1   0   2    0.43    1.03 
   1  -1  -2 4019.78   75.57 
   1   1  -2 4924.04   86.36 
  -1   1   2 4336.88   79.36 
   1  -1  -2 4902.90   88.26 
   1   1  -2 3878.96   82.79 
  -1   1   2 4125.59   77.51 
  -1   1   2 4075.66   76.26 
   1  -1  -2 4816.55   90.25 
  -1  -1   2 4297.33   74.39 
   1   1  -2 4179.88   72.39 
   1   1  -2 5111.43   95.28 
   0   0  -4   18.51    2.88 
   0   0   4   17.69    2.73 
   0   0  -4   19.57    4.00 
   0   0   4   18.24    3.32 
   0   0   4   17.33    3.86 
   0   0  -4   19.90    4.25 
   1   0  -3 4786.00   85.32 
   1   0  -3 5510.15  100.33 
  -1   0   3 4490.12   80.22 
  -1   0   3 4782.79   89.90 
  -1  -1  -2 1196.45   21.27 
  -1   1  -2 1140.14   27.53 
  -1   1  -2 1168.47   30.29 
   1  -1   2 1085.73   26.18 
  -1  -1  -2 1075.23   28.35 
   1   1   2 1081.95   18.65 
   1  -1   2 1111.39   17.03 
  -1   1  -2  999.60   15.32 
   1  -1   2 1060.85   27.32 
  -1  -1  -2  960.68   53.18 
   1   1   2 1212.43   27.05 
   1   1   2 1085.76   27.49 
   0   1   4 3082.78   59.52 
   0  -1   4 2962.15   54.80 
   0   1   4 2731.36   48.70 
   0  -1  -4 2934.05   51.42 
   0   1  -4 3019.35   60.76 
   0   1  -4 2898.60   51.67 
   0  -1  -4 3239.90   66.38 
   0  -1   4 3020.99   62.89 
   0   1   4 2976.73   59.01 
   0  -1   4 2867.31   42.46 
   0  -1  -4 3036.99   58.62 
   0   1  -4 3000.08   60.73 
   0  -2   3   97.30    9.29 
   0   2  -3  102.43   10.93 
   0  -2   3  128.17    7.62 
   0   2   3  146.77    9.08 
   0  -2  -3  146.84    9.13 
   0   2  -3  108.25    8.46 
   0   2   3  127.37    9.74 
   0   2  -3  107.36    8.89 
   0  -2   3  100.37    6.86 
   0  -2  -3  136.72   10.56 
   0  -2  -3  161.76   10.43 
   0   2   3  147.92    9.09 
  -1  -1   3   73.87    5.61 
   1   1  -3   73.00    7.16 
  -1  -1   3   64.64    6.99 
   1   1  -3   64.13    3.19 
   1   1  -3   56.84    5.44 
   1  -1  -3   54.58    5.94 
   1  -1  -3   40.36    4.36 
  -1   1   3   46.69    4.69 
  -1   1   3   63.25    6.28 
  -1   1   3   49.67    5.85 
   1  -1  -3   53.44    5.82 
   1   2   0   73.49    3.91 
  -1  -2   0   79.10    8.19 
  -1  -2   0   84.82    4.14 
   1   2   0   92.37    9.36 
  -1   2   0   52.98    7.78 
   1  -2   0   58.82    7.95 
  -1   2   0   64.39    4.16 
   1  -2   0   56.59    4.19 
   1  -2   0   36.52    5.58 
   1   2   0   66.93    6.05 
   1  -2   0   56.68    6.87 
  -1  -2   0   72.33    7.02 
   1   0   3  221.95   11.72 
   1   0   3  288.70   14.05 
  -1   0  -3  308.11   11.68 
  -1   0  -3  272.64   12.76 
   1   0   3  291.87   11.14 
  -1   0  -3  261.04   13.72 
   1  -2  -1  148.24   10.59 
  -1  -2   1  165.58    8.67 
   1  -2  -1  122.77    9.54 
  -1  -2   1  135.05    6.11 
   1   2  -1  205.94   13.81 
  -1   2   1  187.87   11.61 
   1   2  -1  147.33    8.04 
   1   2  -1  135.28    6.33 
  -1  -2   1  124.37   10.17 
  -1   2   1  128.30    9.89 
   1  -2  -1  141.55    7.42 
  -1   2   1  134.73    7.21 
  -1  -2  -1  673.17   22.86 
   1   2   1  813.71   22.10 
   1   2   1  685.43   12.96 
  -1   2  -1  717.42   24.29 
   1  -2   1  647.96   13.11 
   1   2   1  808.92   24.93 
  -1  -2  -1  750.90   22.22 
   1  -2   1  876.45   27.56 
  -1  -2  -1  694.24   13.85 
  -1   2  -1  845.90   29.43 
   1  -2   1  880.84   26.39 
   1   1   3  808.17   23.23 
  -1  -1  -3  621.67   17.03 
  -1   1  -3  593.33   21.25 
  -1  -1  -3  588.99   40.60 
   1   1   3  605.76   20.10 
   1   1   3  626.05   15.56 
  -1  -1  -3  549.17   21.30 
   1  -1   3  590.75   23.10 
  -1   1  -3  623.50   13.95 
  -1   1  -3  762.45   24.67 
   1  -1   3  537.81   18.67 
   1  -1   3  735.36   16.73 
   0  -3   0    2.40    3.54 
   0   3   0    1.95    3.58 
   0   3   0    2.18    3.87 
   0  -3   0    3.49    4.10 
   0  -3   0    2.13    3.15 
   0   3   0    3.10    3.15 
   1  -2  -2   45.88    5.59 
  -1   2   2   55.64    8.86 
   1   2  -2   82.19   14.75 
   1   2  -2   69.61    4.90 
  -1  -2   2   67.61    5.13 
  -1   2   2   64.89    6.03 
  -1   2   2   51.06    6.50 
   1  -2  -2   54.62    6.48 
  -1  -2   2   71.80   11.12 
   1   2  -2   61.60    5.17 
  -1  -2   2   54.32    4.66 
   1  -2  -2   44.24    4.79 
  -1   0   4    0.98    1.51 
   1   0  -4    1.40    2.56 
   1   0  -4    1.28    1.88 
   1   0  -4    1.04    1.72 
  -1   0   4    1.10    1.40 
  -1   0   4   18.71    4.76 
   0  -3  -1  773.12   22.52 
   0  -3   1  810.69   24.18 
   0   3   1  893.86   26.08 
   0   3  -1  859.73   25.61 
   0  -3  -1  783.93   23.27 
   0   3   1  767.09   23.25 
   0  -3   1  833.59   24.56 
   0   3   1  913.91   25.48 
   0   3  -1  849.07   26.12 
   0  -3   1  880.33   25.87 
   0  -3  -1  776.24   25.53 
   0   3  -1  762.03   22.99 
   0   0  -5    1.24    1.74 
   0   0   5    1.20    2.66 
   0   0   5    1.22    3.87 
   0   0  -5    2.27    4.31 
   0   0  -5    1.11    2.12 
   1   2   2   55.40    6.23 
   1  -2   2   28.02    5.90 
  -1   2  -2   32.82    2.69 
   1   2   2   49.65    6.65 
  -1   2  -2   35.57    5.97 
  -1  -2  -2   50.88    6.57 
  -1  -2  -2   57.95    8.38 
  -1  -2  -2   48.87    3.61 
  -1  -2  -2   45.46    4.62 
  -1   2  -2   32.00    6.03 
   1  -2   2   32.71    6.01 
   0   2   4  191.44   15.81 
   0  -2  -4  180.42   10.44 
   0   2  -4  181.81   11.33 
   0  -2   4  174.59   11.74 
   0   2  -4  167.21   15.58 
   0  -2   4  175.99    8.94 
   0  -2  -4  101.26    9.91 
   0  -2   4  181.83   14.39 
   0   2   4  178.45   10.36 
   0  -2  -4  197.40   12.06 
   0  -2  -4  171.69   10.26 
   0  -2   4  188.84    9.33 
   1  -1  -4 2534.57   51.39 
   1   1  -4 3162.09   67.81 
   1  -1  -4 2870.82   45.59 
  -1  -1   4 2782.82   53.68 
  -1   1   4 2565.50   41.70 
   1   1  -4 2595.87   45.42 
  -1  -1   4 2803.12   46.80 
   1  -1  -4 2757.34   53.69 
   1  -1  -4 2453.61   49.12 
  -1   1   4 2687.90   57.11 
   0   3  -2 1927.54   42.77 
   0   3   2 1846.98   38.31 
   0  -3  -2 1889.33   39.47 
   0  -3  -2 1952.47   40.15 
   0   3   2 1899.13   42.95 
   0  -3  -2 1859.43   41.41 
   0   3  -2 1722.71   39.27 
   0  -3   2 1779.12   40.62 
   0  -3   2 1796.29   40.23 
   0   3   2 1768.21   36.95 
   0  -3   2 1922.13   38.78 
   0   3  -2 1591.56   33.81 
   0  -1   5  915.97   27.05 
   0   1  -5  826.09   24.81 
   0  -1  -5 1132.09   30.51 
   0   1  -5  611.47   23.25 
   0   1   5  831.19   22.65 
   0   1  -5  825.49   21.06 
   0  -1  -5  911.38   24.21 
   0   1   5  952.65   23.67 
   0   1   5  959.11   27.70 
   0  -1   5  842.68   25.06 
   0  -1  -5  953.74   25.96 
   0  -1   5  859.40   20.31 
  -1  -2   3  209.36    7.65 
   1   2  -3  167.95   14.00 
  -1   2   3  214.55   12.88 
  -1  -2   3  216.38   11.35 
   1   2  -3  195.49   12.31 
   1  -2  -3  245.60   12.62 
   1  -2  -3  177.59   10.09 
   1   2  -3  211.27   14.93 
   1   2  -3  224.88    8.61 
  -1   2   3  144.98    9.99 
  -1   2   3  172.70   10.44 
   1  -2  -3  193.45   12.07 
   1   0   4    1.91    2.98 
   1   0   4    2.56    2.84 
   1   0   4    1.66    2.12 
  -1   0  -4    2.33    3.23 
  -1   0  -4    2.39    4.19 
  -1   0  -4    1.17    6.04 
  -1   1  -4  720.04   28.23 
   1  -1   4  780.59   24.49 
  -1  -1  -4  671.45   22.31 
  -1   1  -4  664.72   17.50 
  -1  -1  -4  652.23   20.19 
   1   1   4  723.00   23.04 
   1  -1   4  592.97   20.07 
   1  -1   4  747.49   24.57 
   1   1   4  707.92   22.92 
  -1  -1  -4  642.11   22.91 
   1   1   4  674.26   18.57 
  -1   1  -4  672.46   24.69 
  -1   2  -3 7786.00  144.36 
   1  -2   3 7878.78  144.37 
   1   2   311076.64  194.99 
  -1  -2  -3 9709.49  189.82 
   1   2   3 6970.87  151.18 
  -1   2  -3 8644.46  165.63 
   1  -2   3 7590.26  187.79 
  -1  -2  -3 7574.32  164.27 
   0  -3  -3 2187.68   46.51 
   0   3  -3 2310.66   50.15 
   0  -3   3 2278.08   47.42 
   0   3   3 2234.90   44.76 
   0  -3   3 2528.99   45.89 
   0   3  -3 2337.09   45.10 
   0  -3  -3 2346.21   50.64 
   0  -3   3 2613.75   52.08 
   0   3   3 2154.12   48.96 
   0  -3  -3 2105.74   43.78 
   0   3  -3 2636.86   53.20 
   0   3   3 1752.82   42.20 
   1   0  -5 1369.29   23.04 
  -1   0   5 1557.63   34.29 
  -1   0   5 1707.46   42.18 
   1   0  -5 1652.50   36.50 
  -1   0   5 1550.77   24.81 
   1   0  -5 1654.27   40.75 
   1  -3   0  279.84   11.69 
   1   3   0  331.71   15.03 
  -1  -3   0  283.89   13.59 
  -1   3   0  350.74   12.92 
  -1  -3   0  301.26   17.49 
  -1   3   0  295.13   18.94 
   1   3   0  284.62   11.02 
   1   3   0  240.76   17.29 
  -1  -3   0  327.17   12.86 
  -1   3   0  251.73   14.98 
   1  -3   0  310.86   17.10 
   1  -3   0  343.71   17.70 
  -1   3   1  121.84   11.25 
  -1  -3   1  112.29   11.72 
   1  -3  -1  113.37    8.06 
   1   3  -1  142.11   13.23 
  -1   3   1  160.59   11.98 
  -1   3   1  158.40    9.96 
   1   3  -1  131.41    9.09 
  -1  -3   1  152.08    9.71 
   1   3  -1  128.47    8.29 
   1  -3  -1  127.28   11.48 
   1  -3  -1   96.06    9.96 
  -1  -3   1  134.04   12.97 
   1   2  -4   55.13    3.44 
   1   2  -4   58.81    7.16 
  -1   2   4   81.66    8.12 
   1  -2  -4   89.04    8.15 
  -1   2   4   71.48    6.82 
  -1  -2   4   46.40    5.48 
   1   2  -4   54.70    8.99 
   1   2  -4   56.02    7.79 
   1  -2  -4   99.70    9.35 
  -1   2   4   89.19    9.00 
   1  -2  -4   87.05    8.68 
  -1   3  -1    7.16    9.63 
   1  -3   1    6.18   12.06 
   1  -3   1    3.81    5.46 
   1   3   1   10.19    4.79 
   1  -3   1    4.51    6.05 
  -1  -3  -1    8.26    3.31 
   1   3   1   10.06    3.26 
  -1   3  -1    8.06    2.93 
   1   3   1    9.01    2.30 
   1  -3   1    3.82    6.05 
  -1  -3  -1    8.18    3.24 
  -1  -3  -1    9.55    5.04 
   1   1  -5   66.31    7.28 
  -1   1   5   76.97    8.99 
  -1  -1   5   58.06    8.07 
  -1  -1   5   59.81    6.41 
   1   1  -5   43.19    6.65 
  -1   1   5   77.74    6.07 
   1  -1  -5   86.04    9.90 
   1  -1  -5   72.11    7.43 
   1  -1  -5   70.31    7.19 
   1  -1  -5   77.99    5.96 
   0   2   5 1730.45   36.70 
   0   2  -5 1514.11   40.08 
   0   2  -5 1389.77   33.41 
   0  -2   5 1534.79   31.22 
   0  -2   5 1506.89   36.58 
   0  -2  -5 1676.13   39.26 
   0   2   5 1270.24   35.69 
   0  -2  -5 1357.49   35.17 
   0  -2   5 1495.46   37.16 
   0   2  -5 1464.66   31.27 
   0  -2  -5 1565.64   37.08 
   0  -2  -5 1251.62   37.65 
   0   0   6  535.95   22.50 
   0   0   6  497.12   19.91 
   0   0  -6  476.19   20.68 
   0   0   6  537.04   19.25 
   0   0  -6  503.71   19.55 
   0   0  -6  594.57   22.95 
   1   3  -2  348.75   14.53 
   1  -3  -2  431.72   20.55 
  -1   3   2  428.40   20.13 
  -1  -3   2  385.33   19.41 
   1  -3  -2  423.04   23.97 
  -1   3   2  449.53   19.52 
   1   3  -2  420.27   15.09 
  -1   3   2  465.99   19.32 
   1   3  -2  444.60   22.57 
  -1  -3   2  366.23   15.59 
  -1  -3   2  357.05   13.77 
   1  -3  -2  404.26   17.74 
  -1   0  -5  424.10   18.07 
  -1   0  -5  414.32   19.94 
   1   0   5  438.68   19.86 
   1   0   5  434.23   16.99 
   1   0   5  328.51   15.58 
  -1   0  -5  368.21   19.98 
  -1  -2  -4 3336.17   75.65 
  -1  -3  -2   64.32    5.40 
  -1   2  -4 3051.85   72.32 
   1   3   2   59.88    4.82 
  -1  -3  -2   72.95    8.86 
   1  -3   2   36.34    6.67 
  -1  -2  -4 2552.88   55.11 
  -1   3  -2   41.62    4.47 
   1  -2   4 2876.99   57.64 
  -1   3  -2   47.88    7.62 
   1   3   2   64.47    8.60 
   1  -3   2   41.77    6.64 
  -1   2  -4 3518.27   65.69 
   1   2   4 3106.93   67.07 
   1   2   4 3082.11   70.83 
   1  -2   4 2977.16   67.95 
   1  -2   4 3061.65   62.21 
   1  -3   2   48.40    8.14 
   1   3   2   72.79    7.58 
  -1   2  -4 3356.32   75.04 
  -1  -2  -4 2565.84   47.53 
   1  -3   2   49.32    7.30 
  -1  -3  -2   64.80    8.08 
   1   2   4 2879.31   46.87 
   0   1  -6 1814.94   42.99 
   0  -1  -6 1805.50   38.32 
   0  -1   6 2199.48   39.32 
   0   1   6 2155.02   48.80 
   0   1  -6 1931.70   39.48 
   0   1  -6 1916.27   45.77 
   0  -1  -6 1929.70   46.29 
   0  -1   6 2020.64   46.75 
   0   1   6 1806.35   39.34 
   0   1   6 2070.69   39.43 
   0  -1  -6 2092.71   44.07 
   0  -1   6 2009.50   44.19 
   0  -3   4  497.48   21.22 
   0   3  -4  553.14   23.58 
   0  -3  -4  546.74   21.62 
   0   3   4  555.55   21.65 
   0   3  -4  553.44   22.58 
   0   3  -4  527.31   22.25 
   0  -3  -4  563.74   20.96 
   0  -3   4  519.82   18.49 
   0  -3   4  557.23   20.82 
   0   3   4  472.66   18.89 
   0  -3  -4  484.60   21.45 
   0   3   4  554.30   26.60 
  -1  -1  -5  162.22   12.41 
   1   1   5  134.88   12.41 
  -1  -1  -5  126.33   12.45 
  -1   1  -5  135.78   15.92 
   1  -1   5  127.60   10.69 
   1   1   5  121.52   10.22 
  -1   1  -5   83.95    6.87 
   1  -1   5  129.28    9.45 
  -1  -1  -5  149.67   12.31 
   1   1   5  140.07    9.14 
  -1   1  -5  135.64   11.71 
   1  -1   5  105.31   10.30 
   2   0  -1    0.15    1.40 
  -2   0   0  136.17    8.29 
   2   0   0  146.34    9.15 
  -2   0   0  210.33   11.49 
   2   0  -1    0.32    2.67 
  -2   0   0  130.58   11.59 
  -2   0   1    0.26    1.74 
   2   0   0  128.04   11.14 
   2   0   0  114.03    9.71 
   2   0  -1    0.27    1.99 
   2   0  -1    0.26    1.33 
  -2   0   1    0.38    3.08 
  -1   3   3 1088.46   29.93 
  -1   3   3 1193.47   36.78 
   1  -3  -3 1146.59   33.49 
  -1  -3   3 1261.27   39.37 
  -1   3   3 1002.08   31.36 
  -1  -3   3 1355.50   33.56 
   1   3  -3 1289.93   40.04 
   1  -3  -3 1179.49   31.36 
  -1  -3   3 1219.17   26.17 
   1  -3  -3  949.28   29.52 
   1   3  -3 1210.88   30.42 
   1   3  -3 1109.87   25.64 
   0  -4   0 1927.22   42.54 
   0   4   0 1852.84   45.15 
   0   4   0 1596.78   41.37 
   0   4   0 1965.98   45.23 
   0  -4   0 1872.08   47.80 
   0  -4   0 1777.06   44.43 
   2   0  -2 2751.91   50.01 
  -2   0   2 2672.37   51.31 
   2   0  -2 2655.57   46.96 
  -2   0   2 2174.10   57.41 
   2   0  -2 2781.05   51.82 
   2   0  -2 1937.94   42.56 
  -2   0  -1    0.50    0.93 
   2   0   1   -0.24    3.05 
  -2   0  -1    0.29    1.79 
  -2   0  -1    0.44    0.78 
   2   0   1    0.71    1.59 
   2   0   1    0.22    1.35 
   0   4  -1   28.27    5.00 
   0  -4  -1   31.12    6.03 
   0  -4   1   26.37    5.97 
   0   4   1   26.23    5.55 
   0   4   1   30.67    5.77 
   0  -4   1   27.83    5.95 
   0  -4   1   28.42    5.47 
   0   4  -1   24.29    5.47 
   0   4   1   37.88    6.42 
   0   4  -1   22.99    5.64 
   0  -4  -1   32.75    5.68 
   0  -4  -1   32.44    5.47 
  -2   1   0  373.10   15.92 
  -2   1   0  328.30   19.73 
   2   1   0  291.66   16.23 
   2  -1   0  358.25   15.87 
  -2  -1   0  454.85   19.28 
  -2  -1   1  653.83   23.85 
   2   1  -1  569.24   23.10 
   2   1   0  349.34    9.97 
   2  -1   0  473.78   14.54 
   2   1  -1  551.01   13.71 
   2   1  -1  532.07   12.92 
   2  -1   0  447.32   20.46 
  -2  -1   0  470.91   20.69 
  -2  -1   1  535.10   21.54 
   2   1  -1  689.53   22.11 
   2  -1   0  417.45   12.46 
   2   1   0  366.44   17.47 
  -2   1   1  705.84   23.38 
  -2   1   1  621.44   26.91 
   2  -1  -1  614.75   25.50 
  -2   1   1  610.11   17.93 
   2  -1  -1  623.97   17.91 
   2  -1  -1  550.93   24.44 
   1  -2  -5   64.57    6.66 
  -1   2   5   63.12    7.77 
   1   2  -5   58.74    7.54 
  -1  -2   5   71.19    7.37 
   1  -2  -5   64.58    7.85 
   1  -2  -5   58.30    7.11 
  -1  -2   5   55.19    7.98 
   1   2  -5   55.78    7.80 
  -1   2   5   79.18    9.27 
  -1   2   5   61.33    6.82 
  -1   0   6    1.09    1.34 
   1   0  -6    3.11    5.33 
   1   0  -6    1.87    2.28 
  -1   0   6    1.11    2.02 
   1   0  -6   12.79    4.31 
  -1   0   6    1.37    2.67 
   1   3   3  115.72   10.18 
  -1  -3  -3   73.01    9.31 
  -1   3  -3   60.06    7.50 
   1  -3   3   80.01    9.41 
  -1  -3  -3   91.11    6.39 
   1   3   3   82.21    9.70 
  -1   3  -3   81.21    6.00 
  -1   3  -3   82.94   11.42 
   1  -3   3   96.71   10.01 
   1  -3   3   82.20    8.91 
  -1  -3  -3   82.90   11.27 
  -1  -3  -3   96.09    7.20 
  -2   1  -1  104.94   11.10 
   2   1  -2   67.26    4.88 
   2   1  -2   50.40    6.15 
  -2   1   2   55.30    7.27 
   2   1  -2   40.42    6.09 
   2  -1  -2   51.93    5.74 
   2  -1   1  103.81    9.85 
   2   1   1  142.26    6.54 
   2   1   1  102.36    9.58 
   2  -1  -2   46.14    8.41 
  -2  -1  -1  110.61    9.65 
   2  -1  -2   47.52    6.53 
  -2  -1   2   57.66    6.86 
   2  -1   1  104.61    9.63 
   2  -1   1  110.52    7.52 
   2   1  -2   53.20    5.05 
  -2  -1  -1  123.23   11.48 
  -2   1   2   54.50    6.67 
  -2   1   2   50.08    6.88 
   2   1   1  148.00   10.91 
  -2   1  -1  107.28   10.21 
   2   1  -2   66.62    8.67 
   2  -1   1  110.19    5.54 
   1  -1  -6 1521.14   29.61 
  -1   1   6 1505.97   30.65 
   0   4  -2  943.70   28.33 
   1   1  -6 1382.60   38.47 
   0   4   2  927.78   31.47 
   0  -4   2 1040.56   31.93 
   0  -4  -2 1035.94   30.54 
   0   4  -2  946.68   31.44 
   1  -1  -6 1485.79   36.69 
   0   4   2  967.01   30.24 
   1  -1  -6 1685.80   42.89 
   0   4   2  932.44   29.36 
  -1   1   6 1661.51   54.14 
  -1  -1   6 1511.87   36.03 
   0  -4   2  868.67   30.09 
   0  -4  -2  983.00   33.32 
   0  -4   2 1015.90   32.42 
  -1  -1   6 1115.17   35.23 
   0  -4  -2  921.84   30.15 
   0   4  -2  921.80   31.18 
   1   1  -6 1408.52   36.05 
  -2   0   3    1.03    2.21 
   2   0  -3    0.58    1.20 
  -2   0   3    0.85    1.76 
   2   0  -3    1.24    2.25 
   2   0  -3    1.01    1.37 
  -2   0  -2 1954.37   48.93 
  -2   0  -2 1785.89   35.81 
   2   0   2 1764.32   35.07 
   2   0   2 1621.39   41.01 
  -2   0  -2 1691.70   36.89 
   2   0   2 1665.32   33.03 
   0  -2   6  592.00   24.22 
   0   2  -6  524.50   23.65 
   0  -2  -6  495.16   21.57 
   0  -2  -6  473.70   20.42 
   0  -2   6  489.97   24.31 
   0  -2  -6  486.04   19.71 
   0   2   6  461.60   18.37 
   0   2  -6  527.76   18.01 
   0   2   6  446.87   21.37 
   0   2   6  331.29   15.44 
   0  -2   6  531.57   17.27 
   0   2  -6  490.38   20.43 
  -1   3   4  546.82   22.26 
   1  -3  -4  509.70   21.70 
   1   3  -4  525.63   25.40 
  -1   3   4  589.49   25.49 
   1  -3  -4  643.45   25.62 
  -1  -3   4  552.74   15.69 
  -1  -3   4  424.43   17.73 
  -1   3   4  502.90   24.91 
   1   3  -4  517.88   29.96 
   1   3  -4  572.22   16.67 
   1  -3  -4  692.28   24.06 
   1   3  -4  485.31   19.65 
   1  -2   5  827.64   23.20 
  -1  -2  -5  907.97   24.69 
   1  -2   5  843.12   31.81 
  -1  -2  -5  864.39   29.64 
   1   2   5  905.33   28.28 
  -1   2  -5  898.72   32.28 
  -1   2  -5  852.28   31.61 
   1   2   5 1001.93   24.73 
   1   2   5  902.71   30.66 
  -1  -2  -5  991.47   34.58 
   1  -2   5  842.42   27.69 
  -1   2  -5  853.21   23.87 
   0   3  -5 1528.88   45.23 
   0  -3   5 1455.19   39.39 
   0  -3  -5 1883.34   53.80 
   0  -3  -5 1424.30   38.69 
   0   3  -5 1475.18   42.03 
   0  -3   5 1375.05   33.81 
   0   3  -5 1398.20   37.48 
   0   3   5 1500.25   42.05 
   0  -3   5 1303.59   33.39 
   0   3   5 1464.87   36.06 
   0  -3  -5 1255.15   34.21 
  -2  -1  -2    2.48    4.28 
   2   1  -3 1087.14   26.55 
   2  -1   2    5.88    7.59 
  -2   1  -2    3.25    1.26 
  -2  -1   3 1027.71   26.53 
  -2   1   3  988.67   28.40 
  -2   1  -2    5.73    9.40 
   2  -1  -3 1012.45   30.01 
  -2   1   3 1047.84   29.26 
  -2  -1  -2    2.54    5.05 
   2  -1  -3 1144.81   31.42 
   2   1  -3  979.64   32.83 
   2   1   2    2.38    3.42 
   2  -1  -3 1010.29   29.15 
   2   1  -3  979.01   28.25 
   2   1   2    1.90    2.87 
   2   1  -3  903.02   30.86 
   2   1  -3  927.46   25.38 
   2  -1   2    4.78    3.27 
  -2  -1  -2    3.58    5.37 
  -2   1  -2    4.78    7.49 
   2  -1   2    3.66    4.99 
   2   1   2    2.48    4.13 
   0   0  -7    1.15    5.49 
   0   0  -7    1.93    2.94 
   0   0   7    1.28    3.01 
   0   0   7    1.09    1.56 
   0   0   7    0.91    6.43 
   0   0  -7    1.17    1.96 
   1   0   6    0.72    1.68 
  -1   0  -6    0.39    1.83 
  -1   0  -6   -0.50    4.35 
  -1   0  -6    0.57    3.29 
   1   0   6    4.60    6.72 
   1   0   6    0.45    2.39 
   2   2  -1 1013.84   16.49 
   2  -2  -1 1092.80   32.29 
   2  -2  -1  878.35   30.07 
   0  -4  -3  668.70   24.71 
  -2   2   1 1094.26   34.71 
  -2  -2   0   95.38   17.81 
  -2   2   0  121.32   11.49 
   0   4   3  558.09   26.64 
   0   4  -3  665.42   27.10 
   0  -4   3  612.30   24.67 
  -2   2   1 1075.46   33.09 
   2   2   0   80.89    9.72 
  -2  -2   0  136.65   12.42 
   0  -4  -3  645.87   26.39 
   0  -4  -3  561.72   25.89 
  -2   2   0  104.77   11.54 
  -2   2   1 1022.06   26.81 
   0   4   3  650.72   26.66 
   2  -2   0  112.97   12.71 
   2   2  -1 1047.27   17.96 
   0  -4   3  658.39   25.79 
   2  -2   0  105.46   10.37 
   2  -2  -1  892.67   20.12 
   2   2  -1  849.53   32.84 
  -2  -2   1 1268.83   39.08 
   0   4  -3  598.79   22.61 
   2  -2   0  101.68    5.59 
   0   4   3  490.57   20.53 
   2   2   0  116.63    9.95 
   0   4  -3  730.73   29.08 
  -2   2   0  125.31    6.24 
   2   2  -1 1002.34   27.48 
  -2  -2   1 1137.59   31.94 
   0  -4   3  726.78   24.68 
  -1  -3  -4 2352.16   43.61 
  -1   3  -4 2189.84   48.16 
  -1   3  -4 2418.79   59.73 
  -1  -3  -4 2651.14   59.64 
   1   3   4 2530.84   57.34 
  -1  -3  -4 1889.12   49.02 
  -1   3  -4 2368.97   42.18 
   1   3   4 2116.00   55.63 
   1  -3   4 2320.26   68.36 
   1  -3   4 2297.02   56.70 
  -1   3  -4 2713.67   64.69 
  -1  -3  -4 2227.82   43.56 
   0   1   7  468.77   25.88 
   0  -1   7  446.00   25.20 
   0  -1  -7  429.94   22.32 
   0  -1  -7  561.14   23.77 
   0  -1   7  431.79   15.63 
   0   1  -7  493.39   24.23 
   0   1   7  481.52   24.61 
   0   1  -7  463.70   17.18 
   0   1  -7  495.98   26.88 
   0   1   7  415.74   18.51 
   0  -1  -7  430.96   19.78 
   0  -1   7  443.50   21.75 
   1   4   0  620.81   21.89 
  -1   4   0  749.09   29.31 
  -1  -1  -6  373.13   21.43 
  -1  -1  -6  462.29   21.22 
  -1  -4   0  462.27   23.19 
  -1   4   0  737.53   28.55 
   1   1   6  377.85   21.61 
   1   1   6  386.01   19.08 
   1   4   0  555.13   26.36 
  -1   1  -6  446.37   23.16 
   1  -1   6  513.87   22.07 
  -1   1  -6  532.09   19.16 
   1  -4   0  714.91   27.82 
   1  -4   0  830.95   30.36 
   1  -1   6  449.73   20.34 
   1  -4   0  693.46   27.98 
  -1  -4   0  706.36   21.23 
   1  -1   6  494.10   19.21 
  -1   4   0  798.94   24.16 
   1   4   0  686.34   23.05 
  -1  -1  -6  353.60   20.70 
   1   1   6  362.62   15.93 
  -1  -4   0  522.75   21.05 
  -1   1  -6  435.76   23.99 
   1   4  -1   45.63    5.94 
  -1   4   1   57.90    8.94 
  -1  -4   1   49.50    6.43 
   1  -4  -1   43.29    7.39 
   1   4  -1   49.91    6.25 
   1  -4  -1   63.86    6.97 
  -1   4   1   48.53    6.66 
  -1  -4   1   53.88    8.19 
   1  -4  -1   63.93    8.58 
  -1   4   1   63.71   10.02 
  -1  -4   1   34.76    7.47 
   1   4  -1   42.51    8.25 
  -2   0   4    1.79    3.59 
   2   0  -4    1.39    3.80 
  -2   0   4    1.62    3.13 
   2   0  -4    2.00    3.01 
   2   0  -4    2.15    3.20 
   2   0  -4    2.37    4.39 
   2   0   3   -0.14    1.84 
   2   0   3    0.36    0.79 
   2   0   3    0.54    2.57 
  -2   0  -3   -0.79    4.81 
  -2   0  -3    0.70    1.46 
  -2   0  -3    0.05    1.77 
  -2   2   2  379.79   15.93 
   2  -2  -2  358.01   14.08 
   2   2  -2  372.31   21.90 
  -2   2  -1   57.33    8.66 
  -2   2  -1   60.80    9.16 
   2  -2  -2  356.03   22.57 
  -2  -2   2  413.43   10.77 
   2  -2   1   57.40    8.73 
   2   2  -2  424.73   16.12 
  -2  -2  -1  114.03   10.65 
   2   2   1  108.90   10.53 
   2  -2  -2  361.06   19.52 
  -2  -2   2  341.48   16.54 
  -2  -2  -1  100.45   10.32 
  -2  -2   2  397.58   20.83 
   2  -2  -2  511.26   23.41 
   2  -2   1   59.93    7.73 
   2   2  -2  416.66   12.61 
  -2   2   2  367.93   19.80 
   2   2   1  112.97    9.93 
  -1  -4  -1    1.98    2.77 
   1  -4   1    3.24    4.01 
   1   4   1    0.75    4.07 
  -1   4  -1    2.87    5.26 
   1  -4   1    2.26    2.89 
  -1   4  -1    2.83    4.83 
   1   4   1    1.67    2.18 
  -1  -4  -1    2.84    5.26 
   1   4   1    2.01    3.12 
  -1  -4  -1    4.15    4.91 
  -1   4  -1    2.86    3.94 
   1  -4   1    1.62    2.23 
   1  -2  -6  919.72   27.37 
  -1  -2   6 1017.99   34.88 
  -1   2   6  848.52   31.25 
   1  -2  -6  949.16   30.34 
  -1   2   6  814.68   24.81 
   1  -2  -6  833.47   31.87 
  -1  -2   6 1005.21   29.79 
   1   2  -6  999.91   34.81 
   1  -2  -6  974.69   31.14 
   1   2  -6  965.79   31.46 
   1   4  -2  366.15   15.28 
  -1  -4   2  396.90   16.83 
   1  -4  -2  345.21   22.35 
   1   4  -2  396.35   17.66 
   1   4  -2  439.72   29.52 
  -1   4   2  280.07   17.30 
   1  -4  -2  354.03   20.97 
  -1  -4   2  415.51   26.53 
  -1  -4   2  430.07   17.92 
  -1   4   2  323.69   16.76 
   1  -4  -2  326.17   16.79 
  -1   4   2  385.99   23.64 
   2  -1  -4    6.73    2.80 
   2   1  -4    8.22    2.54 
  -2  -1   4    8.85   13.27 
  -2   1   4    7.42    3.16 
   2  -1  -4    7.56    3.09 
   2   1  -4    7.33    2.64 
   2   1  -4    9.15    2.38 
  -2  -1   4    8.29    2.72 
   2   1  -4    9.95   11.94 
   2  -1  -4    7.01    2.78 
   2  -1  -4    7.30    9.12 
  -2   1   4    7.48    3.27 
  -2   1  -3 1066.27   32.27 
  -2  -1  -3 1231.83   39.11 
   2  -1   3 1265.50   40.54 
   2   1   3 1376.63   38.63 
  -2   1  -3 1218.92   23.30 
   2  -1   3 1122.06   32.68 
  -2  -1  -3 1157.85   31.84 
   2  -1   3 1222.52   21.99 
   2   1   3 1408.04   28.39 
  -2   1  -3 1120.19   40.69 
  -2  -1  -3 1201.02   26.74 
   2   1   3 1351.18   34.36 
   1   0  -7    2.12    3.78 
  -1   0   7    2.97    4.09 
  -1   0   7    4.62    6.13 
   1   0  -7    1.55    3.40 
  -1   0   7    2.91    1.21 
   1   0  -7    1.78    2.85 
   1   3  -5   13.08    4.04 
   1  -3  -5   12.18    3.79 
   1   3  -5   16.29    5.44 
   1   3  -5   15.65    2.60 
  -1   3   5   11.78    4.47 
  -1   3   5   12.54    4.28 
  -1  -3   5   15.80    4.93 
  -1  -3   5   16.69    2.58 
   1   3  -5   14.82    5.26 
  -1   3   5    9.59    3.35 
   1  -3  -5   12.33    4.04 
   1  -3  -5   12.41    4.27 
   2   2   2   93.72    9.95 
   2  -2   2   71.10    8.66 
   2  -2  -3  200.08   13.91 
   2   2  -3  168.22    9.70 
  -2  -2  -2   85.71   10.64 
  -2  -2   3  161.12   10.76 
  -2   2  -2   73.63   10.08 
   2   2   2   92.71    3.70 
   2   2   2   76.44   12.88 
   2  -2  -3  178.47   13.51 
   2  -2  -3  217.25   15.61 
  -2  -2   3  174.97    8.65 
   2   2  -3  176.02   14.63 
  -2   2  -2   68.09    8.93 
   2  -2   2   73.40    9.54 
   2  -2  -3  174.47   10.77 
  -2  -2  -2   87.54   15.82 
   2   2  -3  144.67   13.43 
  -2   2   3  198.96   12.94 
   2   2  -3  162.91    8.48 
  -2   2   3  195.74   14.92 
   1  -4   2  152.76   13.73 
   1  -4   2  229.11   15.51 
   1  -4   2  183.65   15.81 
  -1   4  -2  189.60   18.03 
  -1  -4  -2  181.47   15.10 
  -1   4  -2  192.83   11.72 
   1   4   2  201.50   13.88 
   1  -4   2  166.08   10.51 
  -1  -4  -2  220.81   11.92 
   1   4   2  223.48   11.47 
  -1  -4  -2  175.36   14.73 
   1   4   2  197.05   15.85 
   0   4  -4    0.39    3.02 
   0   4   4    0.16    2.27 
   0  -4  -4    0.48    1.17 
   0  -4   4    0.91    1.94 
   0  -4   4    0.50    1.62 
   0   4  -4    0.62    2.95 
   0  -4   4    0.88    1.62 
   0   4   4    0.05    2.02 
   0   4  -4    0.92    1.93 
   0  -4  -4    0.37    4.84 
   1  -1  -7   15.35    4.95 
  -1  -1   7   16.31    4.34 
   1  -1  -7   20.13    5.50 
  -1   1   7   16.49    3.24 
  -1   1   7   15.97    5.27 
   1   1  -7   17.50    7.62 
   1   1  -7   14.40    4.60 
  -1  -1   7   18.42    2.18 
   1  -1  -7   20.74    6.34 
  -1   1   7   17.02    4.32 
  -1  -1   7   16.99    5.47 
   1   1  -7   17.21    1.65 
  -1  -4   3  862.21   25.25 
  -1   4   3  910.88   32.54 
   1   4  -3  881.33   27.30 
  -1  -4   3  761.14   24.86 
   1  -4  -3  908.95   31.91 
   1   4  -3 1028.34   31.09 
  -1  -4   3  854.24   33.32 
   1  -4  -3  913.18   31.93 
  -1   4   3 1057.79   33.17 
  -1   4   3  924.92   32.07 
   1  -4  -3  832.32   28.36 
   0  -3   6 2155.62   51.28 
   0   2   7  112.45   12.54 
   0  -3  -6 2102.84   45.42 
   0  -3  -6 2129.55   53.57 
   0  -2   7  138.90   13.97 
   0   2  -7  132.78   11.54 
   0  -2  -7  103.48   10.52 
   0   2  -7  140.30   16.05 
   0   2   7   98.26   12.63 
   0  -2   7  137.45   13.85 
   0  -3   6 2211.39   46.09 
   0  -3   6 2387.81   48.65 
   0   2  -7  150.67    9.84 
   0  -2  -7  105.75    9.90 
   0   3  -6 2288.69   57.37 
   0   3   6 2057.14   45.60 
   0   2   7  115.28   10.01 
   0  -2   7  136.93    8.99 
   0   3   6 2405.02   60.23 
   0  -3  -6 2274.25   49.85 
   0  -3  -6 1900.71   49.74 
   0  -3   6 2137.44   64.97 
   0   3  -6 2062.73   63.27 
   0  -2  -7  114.04   10.58 
  -1   2  -6 1576.37   45.80 
   1   2   6 1326.01   32.96 
   1  -2   6 1458.63   41.13 
  -1  -2  -6 1200.75   36.74 
   1  -2   6 1321.14   33.45 
   1   2   6 1394.40   40.75 
  -1  -2  -6 1251.45   34.08 
  -1   2  -6 1125.26   30.17 
   1  -2   6 1101.28   35.12 
  -1  -2  -6 1104.12   34.84 
   1   2   6 1313.85   55.94 
  -1   2  -6 1398.73   42.59 
   2   0  -5    1.22    2.09 
   2   0  -5    0.72    1.12 
   2   0  -5    0.51    1.01 
   2   0  -5    0.77    1.07 
   2   0  -5    0.74    1.46 
  -2   0   5    0.78    1.62 
   2   0   4  218.54   11.67 
  -2   0  -4  183.98   12.83 
  -2   0  -4  188.85   16.26 
  -2   0  -4  154.05   12.89 
   2   0   4  205.45   12.01 
   2   0   4  181.17   14.40 
  -1   3  -5  322.65   15.15 
  -1   3  -5  326.16   14.14 
   1   3   5  254.03   17.65 
  -1  -3  -5  339.84   20.68 
  -1  -3  -5  313.43   14.69 
  -1   3  -5  322.29   19.04 
  -1   3  -5  330.38   26.08 
   1   3   5  295.44   17.40 
   1  -3   5  298.13   21.48 
  -1  -3  -5  282.11   19.19 
   1  -3   5  319.86   19.18 
  -1  -3  -5  271.63   15.36 
  -1   4  -3  289.69   25.26 
   1  -4   3  427.01   23.43 
   1   4   3  356.82   21.63 
   1  -4   3  345.40   19.91 
  -1  -4  -3  455.06   24.49 
   1  -4   3  390.09   24.87 
   1   4   3  468.69   17.29 
   1  -4   3  421.70   17.33 
   1   4   3  355.95   21.04 
  -1  -4  -3  463.63   18.37 
  -1   4  -3  402.27   19.35 
   1   0   7  393.69   19.65 
   1   0   7  430.06   20.31 
  -1   0  -7  468.49   22.24 
  -1   0  -7  377.13   19.38 
   1   0   7  410.36   19.54 
  -1   0  -7  366.34   20.56 
   2   2  -4  157.05   14.72 
  -2  -2   4  161.94    8.87 
   2  -2  -4  167.03   13.24 
   2  -2  -4  135.88   10.51 
   2   2  -4  132.87   15.41 
   2   2  -4  164.83    9.95 
  -2   2   4  133.68   12.35 
   2  -2  -4  135.55   11.30 
   2  -2  -4  128.42   12.15 
   2   2  -4  128.36    7.80 
  -2  -2   4  143.78    8.71 
  -2   2   4  113.93   11.70 
   2   2   3  508.68   28.10 
  -2  -2  -3  655.04   17.29 
   2  -2   3  560.11   24.40 
   2   2   3  593.16   14.20 
  -2   2  -3  490.36   27.05 
   2   2   3  583.28   23.80 
  -2   2  -3  611.22   26.86 
  -2  -2  -3  658.14   26.89 
   2  -2   3  577.32   25.54 
  -2  -1   5    9.75   13.27 
   2   1  -5   11.14    2.42 
   2   1   4   24.52    7.09 
   2  -1  -5   18.24    4.70 
   2  -1   4   18.45    4.47 
  -2   1  -4   25.67    5.50 
   2  -1   4   25.29    3.38 
   2  -1  -5   15.45    3.61 
   2   1  -5   11.54    6.92 
   2  -1  -5   19.54    4.73 
  -2   1   5   20.89    5.75 
   2  -1  -5   16.03    4.45 
  -2   1  -4   38.07    8.17 
  -2  -1  -4   29.25    5.20 
  -2  -1   5   10.30    2.60 
  -2  -1   5    8.43    2.60 
   2  -1  -5   14.66    4.31 
  -2   1  -4   24.04    3.59 
  -2  -1  -4   26.48    5.26 
   2  -1   4   25.38    5.93 
   2   1   4   21.11    6.60 
   2   1  -5    9.65   13.92 
   2   1   4   28.75    5.10 
  -2  -1  -4   30.79   16.51 
  -2  -3   1  267.97    8.03 
  -2   3   1  370.99   16.21 
   2   3   0   22.42    4.66 
  -2   3   0   24.19    5.90 
  -2  -3   0   21.36    6.69 
   2   3  -1  244.25   23.62 
  -2  -3   0   27.74   10.00 
   2  -3   0   28.53    6.87 
  -2  -3   1  219.74   17.80 
   2   3  -1  284.90    9.93 
   2  -3  -1  340.22   13.51 
   2   3   0   26.70    8.19 
  -2   3   1  309.74   21.50 
   2  -3  -1  349.12   23.95 
   2  -3   0   25.85    6.36 
   2  -3   0   26.23    6.68 
  -2  -3   1  303.97   16.90 
   2  -3   0   24.96    3.02 
   2  -3  -1  311.59   19.80 
   2  -3  -1  306.58   21.24 
   2   3  -1  293.01   16.10 
  -2   3   0   24.32    3.25 
   0   0  -8    8.83    8.95 
   0   0  -8    8.26   11.91 
   0   0  -8   12.97    4.83 
   0   0   8    7.55    9.92 
   0   0   8    7.34    8.39 
   0   0   8    8.33   11.58 
   0  -5   0    1.58    2.11 
   0   5   0    0.84    2.36 
   0   5   0    0.77    1.33 
   0  -5   0    1.70    2.51 
   0   5   0    1.23    2.92 
   0  -5   0    0.85    1.98 
   1   1   7    1.38    4.00 
  -1  -1  -7    1.34    2.52 
   1   1   7    0.25    3.01 
   1  -1   7    0.27    1.78 
   1  -1   7    1.20    1.53 
  -1   1  -7   -0.53    4.57 
  -1   1  -7   -0.10    2.76 
   1  -1   7    0.37    1.38 
  -1  -1  -7   -0.10    8.01 
   1   1   7    1.68    2.45 
  -1   1  -7   -0.68    4.00 
  -1  -1  -7    0.85    3.47 
   2  -3  -2   16.46    4.83 
   1   4  -4    0.99    1.39 
   1   4  -4    1.60    2.39 
  -1   4   4    2.93    4.13 
  -2   3   2   21.35    6.07 
   2   3  -2    9.62    3.44 
  -1  -4   4    0.56    2.82 
  -1   4   4    2.49    4.34 
   2   3  -2   10.36    2.89 
   1  -4  -4    3.57    5.84 
  -2  -3   2   10.08    1.96 
   2  -3  -2   11.89    4.37 
  -2  -3   2   11.87   16.31 
   2   3  -2   10.36   13.71 
  -1  -4   4    0.93    2.05 
   2  -3   1  409.43   10.61 
  -2   3   2   20.29    4.98 
   1  -4  -4    2.77    3.31 
   2   3   1  431.02   22.73 
   2  -3   1  401.19   22.98 
  -2  -3   2   13.66    6.46 
  -1  -4   4    0.84    1.77 
   1  -4  -4    2.26    6.62 
   1   4  -4    1.15    7.37 
  -2   3  -1  456.70   25.76 
  -2   3  -1  426.89   26.51 
   2  -3  -2   27.28    4.20 
   2  -3   1  509.16   25.08 
  -2  -3  -1  456.52   27.42 
   2  -3  -2   19.86    5.51 
  -1   4   4    0.09    2.75 
   2   3   1  518.90   29.47 
  -2  -3  -1  492.50   23.82 
  -1  -2   7  545.99   26.99 
  -1   2   7  528.28   22.82 
   1  -2  -7  542.40   26.19 
   1  -2  -7  504.01   24.52 
   1  -2  -7  625.09   22.71 
   1  -2  -7  413.05   21.05 
   1   2  -7  560.46   26.45 
   1   2  -7  451.81   24.85 
  -1  -2   7  573.04   28.63 
   0   5  -1  317.38   24.79 
   0  -5   1  432.00   22.26 
   0   5  -1  385.34   24.76 
   0   5   1  307.24   18.75 
   0   5   1  353.15   20.13 
   0  -5  -1  296.78   24.71 
   0   5   1  305.40   18.72 
   0   5  -1  339.45   18.90 
   0  -5  -1  322.47   21.67 
   0  -5   1  329.62   22.17 
   0  -5   1  369.42   21.10 
   0  -5  -1  409.50   26.29 
  -1   3   6  384.40   22.55 
  -1   3   6  391.10   20.06 
  -1  -3   6  448.26   13.78 
  -1   3   6  397.34   21.95 
   1  -3  -6  376.06   20.34 
  -1  -3   6  405.07   13.52 
   1   3  -6  411.64   22.98 
   1  -3  -6  448.87   21.80 
   1  -3  -6  418.29   23.32 
   1   3  -6  513.94   24.67 
  -1  -3   6  392.85   23.34 
   0  -4   5    4.30    6.55 
   0   1  -8  825.05   36.80 
   0  -4  -5    8.60   11.82 
   0   1   8 1133.37   38.15 
   0  -4   5    6.60    8.81 
   0  -1   8  941.16   35.43 
   0  -1   8  891.32   27.49 
   0  -4  -5    8.69    3.67 
   0   4  -5    8.80   11.43 
   0   4  -5    6.70    8.17 
   0   1  -8  861.87   28.17 
   0  -1  -8  900.72   29.48 
   0   1   8  962.71   37.28 
   0  -4  -5    6.48    9.32 
   0   1   8  958.16   33.87 
   0  -1  -8 1158.32   39.36 
   0   4   5    7.72    3.50 
   0   4  -5    4.86    6.78 
   0  -1   8  797.15   30.71 
   0   1  -8  901.47   40.27 
   0   4   5    7.58    9.91 
   0  -4   5    6.69    9.25 
   0  -1  -8  884.33   32.92 
   0   5   2  124.51   11.98 
   0  -5   2  106.32   12.96 
   0  -5   2  119.96   12.42 
   0   5  -2  117.67   10.86 
   0   5  -2  120.33   12.57 
   0  -5  -2  112.73   12.13 
   0   5  -2  112.28   12.52 
   0   5   2  113.34   11.23 
   0   5   2  168.20   14.98 
   0  -5  -2  144.02   12.89 
   0  -5  -2  124.18   12.03 
   0  -5   2  128.05   12.42 
  -2  -3   3  189.20   11.99 
   2   3  -3  192.26   10.78 
   2  -3  -3  164.95   10.78 
   2  -3  -3  177.41   15.65 
   2   3  -3  156.78   15.83 
  -2   3   3  209.23   13.70 
   2  -3  -3  205.08   15.17 
  -2   3   3  210.25   16.30 
  -2  -3   3  200.25   11.46 
   2   3  -3  181.89   12.61 
   2  -3  -3  151.84   13.41 
  -2  -3   3  199.31   17.09 
  -1  -4  -4    2.86    4.47 
   1   4   4    2.08    3.66 
  -2  -3  -2   95.94    4.90 
  -1   4  -4    5.55    7.62 
   1  -4   4    4.69    5.44 
   1  -4   4    3.36    4.34 
  -2  -3  -2   79.43   10.63 
   2   3   2   92.30    9.82 
   1   4   4    2.69    4.14 
  -2   3  -2  108.09   13.34 
   2   3   2   97.28   11.49 
   2  -3   2  102.06   13.57 
  -1  -4  -4    2.71    4.69 
   2  -3   2   98.87   11.36 
  -1   4  -4    5.32    6.84 
   1   4   4    2.62    4.32 
  -2  -3  -2   95.57   10.56 
  -2   3  -2  114.53   15.48 
  -1   4  -4    5.34    7.29 
   1  -4   4    5.93    8.15 
  -1  -4  -4    2.37    3.73 
   1   0  -8    0.39    1.22 
  -1   0   8    5.53    8.70 
  -1   0   8    0.31    0.86 
   1   0  -8    0.25    2.71 
  -1   0   8    0.55    5.69 
   1   0  -8    0.27    3.00 
   2   0  -6    4.79    3.27 
   2   0  -6    3.77    6.81 
   2   0  -6    3.71    5.89 
   2   0  -6    5.02    7.91 
   2   0  -6    4.51    6.23 
  -2   0   6    5.32    8.45 
  -2   0  -5    0.48    2.35 
   2   0   5    0.49    1.84 
  -2   0  -5   -0.67    4.35 
  -2   0  -5    0.27    3.07 
   2   0   5    0.39    2.47 
   2   0   5    0.26    2.39 
   2   2  -5  793.75   37.35 
   2  -2  -5  859.26   29.66 
   2   2  -5  768.78   19.53 
  -2   2   5  811.79   32.51 
   2  -2  -5  790.54   41.66 
   2   2  -5  644.33   28.82 
   2   2  -5  807.17   26.29 
   2  -2  -5  740.74   32.11 
  -2  -2   5  734.38   20.52 
  -2  -2   5  672.91   23.13 
  -2   2   5  885.73   33.30 
  -2  -2  -4  263.51   17.66 
  -2   2  -4  245.05   20.05 
   2   2   4  266.04   10.99 
  -2   2  -4  229.79   18.42 
   2   2   4  216.23   16.89 
  -2   2  -4  239.44    8.02 
   2   2   4  245.17   18.30 
   2  -2   4  232.75    7.68 
   2  -2   4  191.72   14.51 
   2  -2   4  227.73   17.22 
  -2  -2  -4  262.29   22.68 
  -2  -2  -4  281.19   13.41 
   0  -3   7  859.07   34.45 
   0  -3  -7  872.60   33.95 
   0  -3  -7  754.52   29.37 
   0  -3   7  867.56   28.10 
   0  -3  -7  997.70   40.89 
   0  -3  -7  841.90   31.98 
   0   3  -7  832.92   35.34 
   0  -3   7  877.06   29.07 
   0   3   7  684.40   35.98 
   0   3   7  769.94   28.25 
   0   3  -7  795.00   36.02 
   0  -3   7 1014.42   40.29 
   1  -3   6  256.82   16.70 
  -1   3  -6  250.41   17.32 
  -1   3  -6  255.55   22.45 
  -1  -3  -6  356.67   24.04 
  -1  -3  -6  285.57   16.85 
  -1  -3  -6  356.92   17.19 
   1  -3   6  298.08   18.08 
   1   3   6  289.07   20.61 
   1   3   6  201.74   16.60 
  -1  -3  -6  340.15   21.23 
   1  -3   6  233.28   17.31 
  -1   3  -6  265.25   13.92 
  -1   1   8  960.15   28.27 
   1   1  -8  896.75   35.90 
  -1   1   8 1127.79   43.52 
  -1  -1   8  975.60   20.16 
   1   1  -8  988.09   21.24 
   1  -1  -8  938.38   43.47 
   1   1  -8  929.33   35.95 
   1  -1  -8 1015.38   28.41 
  -1   1   8 1025.61   34.20 
  -1  -1   8  951.98   35.70 
  -1  -1   8 1015.38   41.06 
   1  -1  -8 1122.10   47.64 
   2  -1  -6   13.50    4.41 
  -2  -1  -5  221.64   20.34 
   2   1  -6   12.47    3.87 
   2   1  -6   12.16    2.18 
  -2  -1   6   12.23    3.35 
  -2   1  -5  288.85   25.13 
   2  -1  -6   10.91    3.16 
  -2   1  -5  261.20   12.67 
   2   1   5  282.35   19.93 
  -2  -1  -5  278.43   15.48 
   2   1   5  240.52   15.42 
   2  -1  -6   11.12   13.41 
   2  -1   5  216.17   16.83 
  -2   1  -5  287.62   21.10 
   2   1   5  249.12   13.04 
  -2  -1  -5  215.91   14.76 
   2  -1   5  246.51   15.61 
   2  -1  -6   12.32   12.00 
   2   1  -6   12.39    2.05 
   2  -1  -6   11.15    2.99 
   2  -1   5  312.09   13.16 
  -2  -1   6   18.29   15.15 
   2   1  -6   10.63   12.67 
  -2   1   6   12.99    5.02 
  -1   2  -7  408.57   22.01 
   1  -2   7  386.98   21.61 
   1   2   7  318.23   15.48 
   1   2   7  386.81   22.79 
   1  -2   7  342.42   18.38 
  -1   2  -7  467.23   27.02 
  -1  -2  -7  468.00   24.39 
  -1  -2  -7  341.27   18.48 
   1  -2   7  442.14   20.82 
  -1  -2  -7  327.53   19.73 
   1   2   7  378.05   25.86 
  -1   2  -7  390.27   19.12 
   0   5  -3   51.09    8.64 
   0   5   3   55.41   10.70 
   0  -5  -3   55.24    9.28 
   0  -5   3   49.45    8.11 
   0   5   3   45.12    7.32 
   0  -5   3   55.53    7.84 
   0  -5   3   47.53    7.63 
   0   5  -3   50.82    8.84 
   0  -5  -3   50.56    7.91 
   0   5  -3   50.55    7.82 
   0   5   3   52.41    8.61 
   0  -5  -3   49.70    7.88 
  -1  -4   5 2352.42   58.32 
   1  -4  -5 1959.94   53.84 
   1   4  -5 2466.23   70.39 
  -1   4   5 2480.19   69.34 
   1   4  -5 2234.37   62.53 
   1  -4  -5 2575.07  512.05 
  -1  -4   5 2435.82   55.62 
  -1   4   5 1890.29   69.96 
   1   4  -5 2197.38   49.74 
   1  -4  -5 2346.18   81.37 
  -1   4   5 2217.94   71.25 
   1   4  -5 2424.87   63.08 
   0   2  -8    2.04    2.83 
   0   2  -8    3.00    4.70 
   0   2  -8    2.35    4.02 
   0  -2  -8    3.36    6.41 
   0  -2   8    2.45    3.48 
   0   2   8    2.77    3.94 
   0  -2  -8    2.46    4.08 
   0  -2   8    3.71    4.16 
   0   2   8    2.26    3.75 
   0  -2   8    3.03    4.30 
   0  -2  -8    1.83    2.37 
   0   2   8    2.67    3.68 
  -1   5   0    6.62    6.39 
   1   5   0    6.20    9.97 
   1   5   0    7.30   10.47 
   1  -5   0    6.09    8.15 
  -1   5   0    4.72    6.84 
   1  -5   0    5.90    8.76 
  -1  -5   0    4.56    6.59 
  -1  -5   0    4.39    5.40 
  -1   5   0    7.70    7.76 
   1  -5   0    7.40   11.69 
   1   5   0    3.65    5.58 
  -1  -5   0    5.62    7.65 
  -1  -5   1 1072.35   35.24 
  -1  -5   1 1040.86   33.24 
  -2  -3   4  761.39   24.13 
  -2  -3   4  572.68   21.15 
   1   5  -1 1041.07   33.09 
   2   3  -4  558.82   24.37 
   2   3  -4  814.57   37.05 
   1  -5  -1 1044.15   44.46 
   2  -3  -4  676.21   33.59 
  -1   5   1 1085.88   40.43 
   1  -5  -1 1027.35   39.11 
  -2   3   4  732.86   28.92 
   2   3  -4  679.81   20.80 
  -1  -5   1  861.13   43.62 
  -2   3   4  708.84   31.20 
   1   5  -1 1137.06   35.43 
  -2   3   4  752.55   34.47 
   2   3  -4  698.07   31.24 
   1  -5  -1 1174.73   37.85 
   2  -3  -4  667.19   30.09 
   1   5  -1 1042.74   42.20 
  -1   5   1 1180.12   37.00 
   2  -3  -4  601.50   23.37 
   2   3   3   14.27    5.42 
   2   3   3   11.24    4.55 
  -2   3  -3   26.64    7.42 
  -2  -3  -3   12.53    4.89 
  -2   3  -3   25.31   20.47 
  -2  -3  -3   13.80   16.97 
  -2  -3  -3   12.66    2.29 
   2  -3   3   27.37    6.68 
   2  -3   3   25.15    6.41 
  -2  -3  -3   10.52    3.08 
   1   5   1 1524.40   41.34 
   1   5   1 1471.68   42.92 
  -1  -5  -1 1430.85   39.70 
  -1   5  -1 1562.84   53.34 
  -1   5  -1 1383.39   39.15 
  -1  -5  -1 1630.91   47.16 
  -1   5  -1 1719.97   76.32 
   1  -5   1 1483.51   43.73 
   1   5   1 1427.67   50.52 
   1  -5   1 1553.43   53.95 
   0  -4  -6   38.38    7.12 
   0   4  -6   42.37    7.09 
   0   4   6   50.82   15.53 
   0  -4   6   48.17    6.73 
   0   4   6   36.73    6.88 
   0   4  -6   49.45    8.23 
   0   4  -6   46.25    9.47 
   0  -4   6   42.23    7.68 
   0  -4  -6   42.02    7.44 
   0   4   6   26.02    5.59 
   0  -4   6   43.03    6.19 
   1   0   8    6.19   10.73 
  -1   0  -8    0.32    1.76 
  -1   0  -8    0.72    3.22 
  -1   0  -8   -0.35    5.27 
   1   0   8    2.38    3.83 
   1   0   8    0.22    2.64 
  -1  -5   2   12.82    3.79 
   1  -5  -2    6.92    9.08 
  -1  -5   2   17.88    4.97 
   1   5  -2   16.30    4.48 
   1  -5  -2    7.08    8.64 
  -1   5   2    7.02    4.42 
   1   5  -2   15.01    4.14 
   1  -5  -2    7.51   10.90 
   1   5  -2   15.01    8.72 
  -1   5   2    9.45   14.68 
  -1  -5   2   17.81   22.20 
   1   3  -7   10.04    4.75 
   1  -3  -7    6.89    7.38 
   1  -3  -7   10.26   13.60 
   1  -3  -7    6.46    3.02 
  -1   3   7    8.20   10.97 
  -1  -3   7   12.00    2.16 
  -1   3   7    8.25   11.96 
  -1  -3   7   12.69   14.95 
  -1  -3   7   12.04    2.30 
  -1  -3   7   14.59   21.73 
   1   3  -7   11.01   10.51 
   1  -4   5    9.11    4.02 
  -1   4  -5    9.41   10.81 
  -1  -4  -5    2.85    4.76 
   1   4   5    1.96    3.98 
   1  -4   5    7.46    8.45 
  -1  -4  -5    2.34    3.57 
  -1   4  -5    9.41   11.88 
  -1  -4  -5    3.27    6.93 
  -1   4  -5    7.81    3.19 
   1  -5   2  307.18   17.04 
  -1   5  -2  365.77   27.03 
   1   5   2  399.91   18.57 
   1  -5   2  356.42   22.90 
   1   5   2  362.35   22.79 
  -1   5  -2  410.21   23.98 
  -1   5  -2  426.90   20.24 
  -1  -5  -2  337.36   17.32 
  -1  -5  -2  368.42   21.28 
  -1  -2   8 4078.81  806.45 
  -1   2   8 4599.27  908.70 
   1  -2  -8 3591.45  709.35 
   1   2  -8 3815.44  753.76 
  -1  -2   8 3946.66  776.95 
  -1  -2   8 4136.53  816.65 
   1  -2  -8 3708.46  733.27 
  -1   2   8 3720.24  733.98 
   2  -2  -6  201.19   14.04 
  -2   2   6  220.44   16.91 
   2   2  -6  250.09    9.34 
  -2  -2   6  247.98   14.06 
   2   2  -6  250.33   15.21 
   2  -2  -6  207.97   15.81 
  -2  -2   6  233.56   18.55 
   2  -2  -6  243.36   17.39 
  -2   2   6  251.83   18.16 
  -2   2   6  286.70   17.36 
   1  -1   8 1349.89   44.88 
  -1   1  -8 1330.60   45.08 
  -2  -2  -5  394.34   17.81 
   1   1   8 1387.72   40.42 
  -1  -1  -8 1421.15   45.26 
   1   1   8 1390.60   44.14 
  -2   2  -5  395.95   27.14 
   1   1   8 1432.36   44.81 
  -2  -2  -5  621.82   28.21 
  -2   2  -5  428.19   14.22 
   1  -1   8 1301.55   40.90 
  -1  -1  -8 1466.80   46.58 
   1  -1   8 1177.86   54.10 
   2  -2   5  390.67   13.35 
  -1  -1  -8 1313.05   41.65 
   2  -2   5  317.13   19.40 
   2   2   5  408.92   15.48 
  -1   1  -8 1773.93   55.11 
   2   2   5  480.89   23.65 
  -2  -2  -5  508.90   33.76 
  -2   2  -5  330.75   26.72 
  -1   1  -8 1592.71   44.88 
   0   0  -9    0.65    3.64 
   0   0  -9    0.40    3.55 
   0   0   9    0.54    0.66 
   0   0   9   -0.23    4.84 
   0   0  -9    0.60    1.62 
   0   5  -4   22.40    6.99 
   0  -5  -4   39.81    7.51 
   0   5   4   35.48    6.85 
   0   5  -4   19.45    6.08 
   0  -5   4   22.24    9.81 
   0  -5   4   27.72    7.56 
   0  -5   4   23.53    6.75 
   0   5  -4   22.73    5.15 
   0   5   4   29.75    7.24 
   0  -5  -4   32.60    6.56 
  -2   4   1  632.18   21.63 
   2   4   0   61.45   10.96 
   2   4   0   56.63    7.48 
   2  -4   0   22.65    6.61 
   2   4   0   55.97    4.30 
   2  -4   0   32.86    4.53 
   2   4  -1  689.19   34.53 
  -2   4   0   38.83    4.55 
   2   4  -1  772.06   32.59 
  -2  -4   0   53.84    8.28 
  -2  -4   0   51.85    4.43 
   2  -4  -1  602.45   30.92 
  -2  -4   1  777.47   29.67 
  -2  -4   1  618.81   18.16 
   2   4  -1  705.11   21.74 
   2  -4  -1  822.19   25.54 
  -2   4   1  644.25   35.69 
  -2   4   0   31.66    7.57 
   2   0  -7    1.01    1.95 
  -2   0   7    0.65    3.37 
   2   0  -7    3.03    7.72 
   2   0  -7    1.37    3.46 
   2   0  -7    1.30    2.61 
   2   0  -7    1.33    1.80 
  -2   0  -6  349.44   23.59 
  -2   0  -6  309.24   20.31 
   2   0   6  269.53   15.95 
  -2   0  -6  337.99   18.08 
   2   0   6  282.49   16.40 
  -1   5   3    2.36    3.41 
  -1  -5   3    2.20    3.68 
  -1   5   3    3.51    5.71 
  -1  -5   3    1.53    2.48 
   1   5  -3    2.45    3.65 
   1  -5  -3    1.58    2.38 
   1   5  -3   10.02   10.15 
   1   5  -3    2.14    3.42 
   1  -5  -3    2.01    4.74 
   0  -1  -9  107.65   10.31 
   0  -1   9  140.46   14.85 
   0   1  -9  146.67   11.11 
   0   1   9  120.57   13.97 
   0  -1  -9  122.76   15.73 
   0   1   9  114.06   10.40 
   0  -1   9  146.17   10.25 
   0   1  -9  142.99   14.79 
   0   1  -9  133.74   13.67 
   2  -3  -5  190.92   13.49 
  -2  -3  -4   26.23    7.48 
   2   3  -5  183.94   17.24 
  -2   3   5  186.97   15.03 
  -2   3   5  262.64   20.65 
  -2   3  -4   30.35    9.72 
   2   3   4   26.10   10.41 
  -2   3   5  194.76   16.04 
  -2  -3  -4   21.86    3.33 
   2   3  -5  200.06   10.31 
   2  -3   4   20.24    5.64 
  -2  -3   5  215.84   12.67 
   2  -3  -5  240.51   16.93 
   2   3  -5  193.55   13.19 
  -2  -3  -4   20.40    6.34 
  -2   3  -4   23.84    2.30 
  -2  -3   5  184.60   12.14 
  -2   3  -4   25.75    7.60 
  -2  -3  -4   23.45    3.37 
   2   4  -2    1.36    2.78 
   2   4  -2    1.29    2.80 
  -2   4   2    3.46    4.59 
  -2  -4   2    1.87    2.39 
  -2  -4   2    1.54    3.83 
  -2   4   2    2.33    4.12 
   2   4  -2    1.32    2.10 
   2  -4  -2    3.17    6.64 
   2  -4  -2    2.31    5.29 
   2  -4   1    0.17    3.00 
   2   4   1    1.11    2.11 
   2   4   1    2.14    2.60 
  -2   4  -1    0.97    2.97 
  -2  -4  -1    2.83    4.07 
  -2   4  -1    1.34    2.03 
   2   4   1    3.14    4.96 
   2  -4   1    0.91    1.65 
  -2  -4  -1    1.79    0.97 
   1  -4  -6   16.91   11.18 
   1   4  -6   18.17    5.55 
   1   4  -6   16.85    3.42 
  -1   4   6   17.46   19.11 
  -1  -4   6   14.99    4.50 
  -1   4   6   15.90    4.79 
  -1   4   6   17.12   19.00 
  -1  -4   6   15.98    3.28 
   1  -4  -6   12.69   16.68 
   1   4  -6   21.13   25.46 
   2  -1  -7  150.46   14.16 
  -2   1   7  138.29   15.14 
   2   1  -7  169.35    7.04 
   2  -1  -7  129.16   12.23 
   2   1  -7  194.25   15.73 
   2   1  -7  173.59    6.69 
   2  -1  -7  109.31    8.70 
   2  -1  -7   79.33    7.76 
   2  -1  -7  130.91   11.84 
  -2  -1   7  156.88   11.83 
  -2  -1   7  182.38   17.41 
   2  -1   6  112.15   10.52 
  -2  -1  -6  114.19   13.26 
  -2  -1  -6  116.71   11.18 
   2   1   6  117.48   11.42 
  -2  -1  -6   88.87    9.56 
  -2   1  -6  118.84   13.87 
  -2   1  -6  113.79    8.94 
  -2   1  -6  113.76   12.90 
   2  -1   6  111.59   11.09 
   2   1   6   90.65    8.45 
   1   5   3   64.53    7.52 
   1  -5   3   54.61    9.00 
  -1  -5  -3   61.51    7.89 
   1  -5   3   59.80   10.03 
   1  -5   3   69.38    8.16 
  -1   5  -3   65.75   11.66 
  -1   5  -3   72.56    8.58 
   1   5   3   53.47   10.02 
  -1  -5  -3   60.95    9.11 
   1  -3   7   16.28    4.44 
   1   3   7   18.11   23.28 
  -1  -3  -7   17.78    7.16 
  -1   3  -7   23.47    6.04 
   1  -3   7   13.09    4.31 
  -1   3  -7   12.46    3.57 
  -1   3  -7   17.39    6.80 
  -1  -3  -7   11.79    4.15 
  -1  -3  -7   15.45    4.17 
  -1   0   9  201.24   10.00 
  -1   0   9  266.77   20.99 
   1   0  -9  213.38   20.00 
   1   0  -9  196.72   10.08 
   0   3   8 1328.77   40.56 
   0   3   8 1086.26   47.56 
   0  -3   8 1285.01   45.23 
   0  -3  -8 1184.01   38.73 
   0  -3   8 1072.30   31.56 
   0   3  -8 1158.99   44.99 
   0   3  -8 1082.16   41.02 
   0   3  -8 1182.73   36.77 
   0  -3  -8 1161.48   41.57 
   2  -4  -3  766.48   34.41 
  -2   4  -2  123.19   15.23 
  -2  -4   3  444.33   19.51 
   2   4  -3  592.17   21.65 
   2  -4   2   96.12    5.58 
  -2   4  -2  130.49    6.55 
   2   4  -3  554.36   35.43 
  -2  -4  -2  147.47    6.49 
   2   4   2  124.92   14.62 
  -2   4   3  766.35   27.58 
  -2  -4  -2  112.97   12.57 
   2   4  -3  581.87   24.60 
  -2  -4  -2  140.22    7.57 
  -2   4   3  749.43   33.93 
  -2  -4   3  683.71   25.50 
   2  -4   2  181.95   16.15 
   2  -4  -3  600.87   25.96 
   1  -2   8   69.06    8.63 
  -1   2  -8   70.31   10.88 
  -1   2  -8   67.51    9.37 
  -1  -2  -8   76.75    9.69 
   1   2   8   95.48    8.91 
   1   2   8   97.06   10.75 
  -1  -2  -8   77.36   10.31 
   1  -2   8   75.27   10.14 
   1   2   8   81.74   11.03 
  -1   2  -8   84.68    9.77 
  -1  -2  -8   88.29   11.29 
   1  -1  -9  148.40   17.75 
   1   1  -9  152.67    8.67 
  -1  -5   4  585.06   22.66 
  -1   1   9  127.00    9.26 
   1   5  -4  570.72   23.83 
  -1  -1   9  200.57   18.16 
  -1  -1   9  163.76    7.31 
   1   5  -4  551.54   29.77 
  -1   5   4  519.72   26.55 
   1  -5  -4  394.94   23.80 
   1   1  -9  147.91   16.13 
  -1   1   9  139.25   15.16 
   1  -1  -9  138.29   12.05 
   1   5  -4  488.78   35.78 
  -1  -5   4  510.40   23.64 
  -1   5   4  520.16   30.64 
   1  -5  -4  549.74   38.35 
   0   5  -5  119.57   14.06 
   0   5   5  127.06   14.34 
   0  -5  -5  157.49   14.64 
   0   5  -5  131.34   11.95 
   0  -5  -5  182.08   16.35 
   0   5  -5  139.91   14.07 
   0   5  -5  137.71   14.20 
   0   5   5  167.05   15.03 
   0  -5   5  136.33   13.33 
  -3   0   1 1054.08   31.89 
   3   0  -1  929.18   34.29 
   3   0  -1 1006.38   35.54 
  -3   0   1  983.84   38.24 
   3   0  -1  998.67   30.98 
   3   0  -1  880.92   33.71 
  -3   0   0    0.32    1.05 
   0   4   7   28.67    7.96 
   0   4  -7   27.56    6.33 
   0  -4   7   28.18    5.31 
   3   0   0    0.45    1.50 
   0   4  -7   31.75    7.30 
   0  -4  -7   25.27    5.92 
   0  -4  -7   21.03    6.08 
  -3   0   0    0.61    5.78 
   3   0   0    0.68    3.03 
   0  -4   7   32.07   15.45 
   0  -4  -7   25.00    6.89 
   0   4  -7   31.66    8.56 
   3   0   0    0.37    2.27 
  -1   4  -6  649.23   25.98 
  -1   4  -6  628.02   23.87 
   1   4   6  597.10   30.36 
  -1  -4  -6  541.73   34.06 
   1  -4   6  514.78   26.76 
   1  -4   6  557.96   28.52 
  -1  -4  -6  572.71   22.49 
  -1   4  -6  603.42   32.38 
  -1  -4  -6  601.50   25.47 
   0   2  -9  130.90   15.19 
   0  -2  -9  146.35   13.65 
   0   2   9  123.10   12.53 
   0  -2   9  134.17    9.73 
   0  -2   9  154.04   15.02 
   0   2   9  132.43   17.90 
   0  -2  -9  133.06   13.31 
   0   2  -9  146.98   11.03 
   0   2  -9  131.92   16.47 
  -3   0   2    1.22    4.30 
  -3   0   2    2.26    3.48 
   3   0  -2    1.81    3.26 
   3   0  -2    2.07    3.62 
   3   0  -2    1.19    1.94 
   3   0  -2    1.84    2.57 
  -2  -2   7  187.50   17.24 
  -2   2   7  212.27   17.84 
   2  -2  -7  195.17   13.53 
   2   2  -7  156.51   13.94 
   2  -2  -7  165.72   16.18 
  -2  -2   7  191.88   13.30 
  -2   2   7  142.82   12.48 
   2  -2  -7  206.49   15.64 
  -3  -1   1   49.00    5.06 
   2  -2   6   56.53    8.74 
  -2  -2  -6   72.35    8.31 
   2   2   6   62.07    6.53 
   3   1  -1   41.30    6.99 
  -3   1   1   33.71    6.05 
  -2   2  -6   54.57   10.08 
  -2  -2  -6   63.57    9.20 
  -2   2  -6   56.23   10.13 
   3   1  -1   49.69    8.63 
   3   1  -1   49.26    7.57 
   3  -1  -1   27.22    5.49 
   3  -1  -1   34.74    5.15 
  -2   2  -6   66.34    6.00 
  -3   1   1   32.43    7.74 
   2  -2   6   65.30    8.61 
   3  -1  -1   39.95    6.94 
  -2  -2  -6   71.66   10.99 
   2   2   6   63.43    9.11 
  -3  -1   1   51.59    9.44 
   3   1  -1   46.18    5.83 
   3  -1  -1   33.31    9.03 
   3   0   1  557.09   21.49 
  -1  -5  -4   15.77   20.42 
   1  -5   4   13.99    5.30 
   1   5   4   16.68    4.29 
  -1   5  -4   13.67   19.56 
  -3   0  -1  829.10   36.60 
  -3   0  -1  569.28   21.47 
   3   0   1  625.31   24.07 
   1  -5   4   11.55   15.02 
  -1  -5  -4   16.26    4.40 
  -1   5  -4   10.62    4.94 
   1   5   4   11.66   15.26 
   1  -5   4   13.24   11.02 
  -3   0  -1  512.39   21.79 
  -3   1   0 2540.79   74.75 
   3  -1   0 2651.49  523.95 
  -3  -1   0 2552.88  505.64 
  -3  -1   0 2780.67  548.29 
  -3  -1   0 2409.65   63.54 
   3   1   0 3261.60  644.60 
   3   1   0 2262.21   48.47 
   3  -1   0 2302.27   49.83 
   3  -1   0 2317.69   52.35 
  -3   1   0 2474.53   69.61 
   3   1   0 2827.28  558.97 
  -1  -3   8  322.74   23.08 
  -1  -3   8  328.38   11.47 
   1  -3  -8  306.25   19.75 
  -1   3   8  339.06   27.92 
   1   3  -8  326.53   21.74 
   1  -3  -8  289.60   20.47 
  -1   3   8  364.14   20.03 
  -2   3  -5  723.44   35.90 
  -2   3   6    6.73    9.93 
   2   3   5  784.09   33.61 
   2  -3  -6    5.71   12.03 
  -2   3  -5  589.18   17.35 
   0   6   0 2278.57   64.63 
   0  -6   0 2029.55   60.88 
  -2  -3  -5  744.22   35.52 
   2  -3  -6    6.51    9.22 
   2   3  -6    3.68    1.20 
  -2   3  -5  954.87   40.82 
  -2  -3   6    6.53    2.40 
  -2  -3   6    6.76    7.12 
   0   6   0 2213.76   63.94 
   0  -6   0 2128.03   60.09 
   2   3  -6    6.80   10.10 
   2   3  -6    4.08    6.54 
  -2  -3  -5  791.54   24.61 
  -2  -3  -5  830.90   29.59 
  -2   3   6    6.56    8.03 
  -2  -3  -5  922.72   42.31 
  -2   3  -5  722.78   19.16 
  -2   3   6    4.60    6.76 
   2  -4  -4   13.77    9.88 
   2   4  -4    5.73    9.11 
   2  -4  -4   11.52   13.14 
   2   4  -4    7.34    6.52 
  -2  -4   4    8.44    2.90 
  -2  -4   4    7.99    8.32 
  -2   4   4   12.51    8.95 
   2   4  -4    7.49   10.57 
  -2   4   4   10.88    4.78 
  -2  -4  -3   54.36    7.22 
  -2  -4  -3   56.33    4.84 
  -2  -4  -3   61.82   10.80 
  -2   4  -3   60.55    4.16 
  -2   4  -3   68.24   11.09 
   2  -4   3   66.95   10.35 
   2   4   3   62.76   26.30 
   3   1  -2    2.06    3.08 
   3   1  -2   -0.03    1.80 
  -3   1   2    0.75    4.32 
  -3  -1   2    2.18    3.49 
  -3   1   2    0.43    2.04 
   3  -1  -2    3.69    7.56 
   3  -1  -2    1.83    2.71 
   3   1  -2    1.92    2.48 
   3  -1  -2    0.33    1.78 
   3  -1  -2    0.87    1.45 
   3   1  -2    1.81    4.68 
   3   1  -2    1.26    1.80 
   0   6   1  209.63   22.01 
   0   6  -1  202.11   17.18 
   0  -6   1  190.91   15.53 
   0   6  -1  180.14   20.05 
   0  -6   1  190.59   17.08 
   0  -6  -1  197.93   16.10 
   0  -6  -1  206.89   16.58 
   0   6   1  191.04   18.83 
  -3   0   3  592.69   33.20 
   3   0  -3  482.72   25.66 
   3   0  -3  592.65   25.69 
   3   0  -3  669.59   29.58 
  -3   0   3  616.60   22.82 
   3   0  -3  486.66   24.88 
  -1   0  -9  327.36   20.01 
   1   0   9  336.94   20.13 
   1   0   9  311.69   20.18 
  -1   0  -9  327.66   19.89 
  -1   0  -9  294.54   31.99 
   3   1   1    7.12    3.28 
  -3  -1  -1   11.90   20.73 
  -3   1  -1    5.80   10.07 
   3   1   1   11.72   14.48 
   3  -1   1    4.59    2.57 
   3  -1   1    4.38    4.54 
  -3   1  -1    4.78    8.42 
  -3  -1  -1    6.86    4.76 
  -3  -1  -1    8.44    9.64 
   3  -1   1    4.81    5.79 
   2   0  -8  297.53   18.84 
  -2   0   8  279.81   27.92 
   2   0  -8  295.29   12.23 
   2   0  -8  276.42   14.74 
   2   0   7    0.10    1.33 
  -2   0  -7    0.46    4.31 
   2   0   7    0.36    1.09 
  -2   0  -7    1.03    4.35 
  -2   0  -7    0.18    2.25 
  -1  -2   9 1177.97   45.13 
  -1   2   9 1139.35   44.07 
  -1   2   9 1362.86   37.01 
   1  -2  -9 1191.70   36.05 
   1  -2  -9 1308.91   44.46 
  -1  -2   9 1176.53   20.23 
   1   2  -9 1518.74   60.76 
   1   4  -7   50.91   14.43 
  -1   4   7   28.21    8.84 
   1   4  -7   53.33   13.85 
  -1  -4   7   38.55    8.77 
  -1  -4   7   43.70   11.42 
  -1   4   7   35.03   11.13 
   1  -4  -7   23.74    8.08 
  -1  -4   7   40.19    9.29 
  -1   4   7   33.58    9.56 
   0  -6  -2 1001.89   37.22 
  -3  -1   3   63.26   16.95 
   0  -6   2  844.48   36.86 
  -3   1   3   70.89   10.02 
   0  -6   2  722.09   33.16 
  -3   0  -2    0.02    2.02 
   3   1  -3   74.86    6.71 
   0  -6  -2  902.67   46.20 
   3  -1  -3   61.51   14.53 
   0   6  -2  832.98   35.83 
   1  -5  -5  100.60   12.63 
   0   6  -2  960.22   43.06 
   3   1  -3   73.07    7.29 
  -3   0  -2    0.55    1.05 
   0   6   2  844.66   35.99 
  -1  -5   5   70.87    7.74 
  -3   0  -2    1.15    6.11 
  -3   1   3   61.16   14.63 
   3   0   2    0.17    2.30 
   3  -1  -3   72.25    9.34 
   0   6   2  951.17   35.75 
   1   5  -5   78.72    8.04 
   3  -1  -3   66.70    7.84 
   3   1  -3   42.07   11.70 
   3   1  -3   65.58    8.02 
  -3   1   3   56.57   13.78 
   1   5  -5   78.63   12.56 
   3   1  -3   68.27    9.33 
   1   5  -5   79.83   10.54 
  -1   5   5   81.19   11.90 
   3   0   2    0.71    2.72 
  -1   5   5   85.97   11.99 
  -1  -5   5   78.78   10.17 
  -1  -1  -9   17.03    6.20 
   1   1   9   19.73    6.56 
   1   1   9   17.20    7.16 
   1  -1   9   17.11   19.89 
  -1  -1  -9   17.56    6.96 
  -1   1  -9   15.47    5.47 
  -1   1  -9   15.06    5.55 
  -1   1  -9   17.68    7.37 
   1  -1   9   20.84    7.33 
  -1  -1  -9   18.13    7.13 
  -2   1   8  127.17   13.35 
  -2   1   8  133.80   14.98 
   2   1  -8  139.39    4.04 
  -2  -1   8  124.37   11.06 
   2  -1  -8  132.01    9.36 
   2   1  -8  143.17    4.61 
  -2  -1   8  130.61   15.56 
   2  -1  -8  135.33   13.77 
   2   1  -8  135.52   13.03 
  -2   1  -7  125.54   15.61 
   2  -1   7  108.08   11.51 
   2  -1   7  133.96   10.77 
   2   1   7  147.61   18.61 
  -2   1  -7  136.63   12.68 
  -2  -1  -7  117.01   15.23 
  -2  -1  -7  156.08   13.57 
   2   1   7  138.56   11.23 
  -2  -1  -7  118.05   15.98 
  -2   1  -7  153.95   16.50 
   0   0  10  906.67   29.91 
   0   0 -10  874.59   35.51 
   0   0  10  889.14   46.40 
   0   0 -10  892.73   31.79 
  -3  -1  -2  124.82    8.15 
  -3  -1  -2  128.91   15.93 
  -3   1  -2  114.84   14.91 
   3   1   2  156.82   13.10 
  -3  -1  -2  117.08   11.73 
   3   1   2  120.53    8.06 
   3  -1   2  122.51    8.05 
   3  -1   2  132.37   11.12 
   3  -1   2  113.36   10.96 
  -3   1  -2  141.44   12.34 
   3   2  -1  922.04   32.81 
   3  -2  -1  850.90   25.23 
   3   2  -1  850.56   44.32 
  -3   2   1  734.39   31.65 
  -3  -2   1  932.34   37.25 
  -3  -2   1  625.02   28.89 
   3   2  -1  836.84   17.31 
  -3   2   1  898.69   39.26 
   3  -2  -1  870.00   32.90 
   3  -2  -1  821.19   25.60 
   3   2  -1  785.50   15.44 
   3   0  -4    0.99    2.67 
   3   0  -4    0.83    1.72 
   3   0  -4    0.67    1.46 
  -3   0   4    0.64    3.33 
   3   0  -4    0.78    2.02 
   3   0  -4    2.13    2.69 
   3  -2   0  114.99    7.98 
   0   5  -6  331.08   29.33 
  -3  -2   0   97.47   11.79 
   0   5   6  316.09   19.72 
   3   2   0  114.87    3.89 
  -3   2   0   97.53   11.05 
   3   2   0  104.59    4.07 
   3   2   0   96.34   12.73 
   3   2   0   97.23   12.87 
   0   5   6  260.05   21.53 
   3  -2   0   96.04   11.30 
   3  -2   0  102.03    7.00 
   0   5  -6  297.50   21.92 
   0  -5   6  317.38   19.31 
  -3   2   0  135.39   15.87 
   0   5  -6  308.44   22.21 
  -3  -2   0  105.89   12.78 
   0  -5   6  327.26   18.93 
   0  -5  -6  302.82   19.52 
  -1  -3  -8   66.98   10.09 
  -1  -3  -8   73.52   11.97 
   1  -3   8   76.68   10.15 
   1  -3   8   76.54    9.38 
  -1   3  -8   74.87   10.53 
  -1   3  -8   77.69    9.03 
   1   3   8   83.62    8.90 
  -1   3  -8   75.95   12.24 
   1   3   8   73.97   11.79 
  -2   4   5  188.33   18.11 
   2  -4  -5  187.12   14.24 
  -2  -4   5  213.34   13.43 
  -2   4   5  176.99   15.90 
   2   4  -5  166.38   21.97 
  -2  -4  -4  405.83   15.40 
   2   4  -5  137.00   16.12 
  -2   4  -4  359.97   25.49 
  -2   4  -4  373.61   11.47 
   2   4   4  443.82   26.37 
  -2  -4  -4  370.62   23.89 
   2  -4  -5  180.43   17.18 
  -2   4  -4  443.33   27.36 
  -2  -4   5  219.72   12.50 
  -2   4  -4  373.80   11.79 
   2   4  -5  185.80   11.03 
  -2  -4  -4  274.65   11.72 
  -3  -2   2  327.91   20.42 
   3  -2  -2  325.55   16.54 
   3  -2  -2  346.24   19.93 
  -3   2   2  316.10   22.48 
   3   2  -2  292.80   10.60 
  -3  -2   2  294.79   20.61 
   3   2  -2  326.46   18.36 
   3   2  -2  369.50   23.97 
   3   2  -2  298.60   11.31 
  -3   2   2  289.41   18.11 
  -3   2   2  332.41   20.42 
   0   1 -10  117.96   14.97 
   0   1 -10  107.88   14.73 
   0  -1 -10  120.98   15.15 
   0   1  10  124.48   14.83 
   0   1  10  119.52   11.00 
   0  -1  10  129.61   14.11 
   0  -1 -10  125.45   12.46 
   0  -1  10  103.24    8.94 
  -1  -5  -5  437.25   30.36 
   0   6   3  195.81   17.14 
  -1   5  -5  463.10   28.38 
   1  -5   5  368.41   22.86 
   0   6  -3  198.69   15.83 
   1   5   5  399.00   25.27 
   0  -6  -3  220.03   17.60 
   0  -6   3  200.76   17.72 
   1   5   5  440.00   20.24 
   0  -6   3  247.24   18.40 
  -1  -5  -5  522.68   24.02 
   0   6  -3  245.88   19.60 
  -1   5  -5  426.00   20.04 
   0   6  -3  229.52   22.64 
   0   6   3  200.24   16.56 
  -1   5  -5  480.22   24.56 
   3  -1  -4  103.04   10.68 
   3  -1  -4  122.00   12.93 
   3   1  -4  139.43   10.42 
  -3   1   4  108.68   13.41 
  -3   1   4  114.99   12.57 
   3  -1  -4   93.79   10.68 
  -3  -1   4  167.33   16.50 
  -3   1   4  121.20   13.31 
   3   1  -4  164.37   11.97 
   3   1  -4  142.52   15.75 
   3   1  -4  156.55   13.92 
   3   1  -4  147.99   13.21 
  -3   2  -1 1648.42   43.80 
   3  -2   1 1536.81   20.43 
   3  -2   1 1507.37   55.97 
  -3   2  -1 1914.83   55.65 
  -3  -2  -1 1759.64   52.66 
   3   2   1 1067.66   44.92 
   3   2   1 1548.79   12.20 
  -3  -2  -1 1332.39   47.37 
   3  -2   1 1687.83   22.45 
   1   6   0   54.52   13.48 
  -1   6   0   70.72   22.36 
  -1  -6   0   64.21   15.69 
  -1   6   0   75.99   10.20 
   1  -6   0   52.76   18.06 
   1   6   0   71.70   12.93 
  -1  -6   0   60.75   14.85 
   1  -6   0   52.90   14.36 
  -3   0  -3 1676.02   52.86 
   3   0   3 2000.94   42.41 
  -3   0  -3 1744.78   40.96 
  -3   0  -3 1659.08   34.97 
   3   0   3 1991.73   39.42 
  -1   4  -7 1069.94   33.69 
  -1  -4  -7 1598.03   46.27 
  -1   4  -7 1388.84   44.11 
  -1  -4  -7 1266.80   39.64 
   1  -4   7 1235.04   40.20 
  -1   4  -7 1339.02   42.27 
  -1  -4  -7 1204.36   35.44 
   1   4   7 1376.85   52.91 
  -1   4  -7 1212.39   48.49 
   1  -6  -1   46.14   13.29 
  -1  -6   1   83.32    9.77 
   1   6  -1   74.49    9.29 
  -1   6   1   61.53   16.00 
  -1  -6   1   82.39   10.06 
   1  -6  -1   55.50   13.75 
   1   6  -1   60.04   16.59 
  -1   6   1   70.34   10.16 
   0  -3   9  415.84   25.95 
   0  -3   9  364.31   16.49 
   0  -3  -9  373.57   23.72 
   0  -3  -9  461.76   26.09 
   0   3  -9  389.00   19.31 
   0   3  -9  450.48   30.77 
   0   3   9  500.76   29.10 
  -1   0  10   -0.25    5.41 
   1   0 -10    0.99    4.16 
  -1   0  10    0.15    1.32 
   1   0 -10   -0.02    1.82 
   1  -6   1  673.33   35.58 
  -1   6  -1  805.80   41.51 
  -1  -6  -1  786.78   32.25 
   1  -6   1  810.43   31.55 
  -1  -6  -1  886.18   35.18 
   1   6   1  903.19   31.08 
   1   6   1 1110.90   45.27 
  -1   6  -1  744.68   32.57 
  -2  -5   0 1371.56   27.33 
   2   5   0 1211.97   47.16 
   2   5  -1    0.94    4.80 
   2  -5  -1    2.30    3.05 
  -2   5   0 1355.33   54.02 
   2   5   0 1379.97   27.47 
  -2   5   0 1239.49   32.95 
  -2  -5   0 1653.64   43.54 
   2   5  -1    0.36    1.54 
  -2   5   1    2.16    4.17 
   2  -5   0 1262.57   32.23 
   2  -5  -1    1.30    2.44 
  -2   5   1    1.43    2.48 
  -2  -5   1   -0.21    4.20 
   2   5  -1    0.25    0.88 
   2  -5   0 1445.88   45.66 
  -2  -5   1    0.52    2.21 
   3  -2  -3  632.92   27.32 
  -3   2   3  699.20   26.06 
   3  -2  -3  548.14   31.83 
   3   2  -3  728.32   20.67 
  -3  -2   3  751.96   28.86 
   3   2  -3  927.35   39.46 
   3  -2  -3  831.89   33.23 
   3   2  -3  771.66   27.71 
  -3   2   3  750.60   31.88 
   3  -2  -3  670.25   31.04 
   3   2  -3  736.05   22.38 
   0   4   8    0.48    6.30 
   0  -4  -8    0.50    3.36 
   0  -4  -8    0.52    2.79 
  -2   3   7  329.02   22.33 
   2   3  -7  259.64   21.84 
  -2   3   7  402.67   25.11 
   2  -3  -7  451.39   23.70 
   0   4  -8    0.52    3.05 
   0   4  -8    0.57    1.94 
   0  -4   8    2.13    3.54 
  -2   3   7  437.88   22.34 
  -2  -3   7  295.23   18.86 
   0  -4   8    0.40    1.20 
   2   3  -7  312.48    8.99 
   2   3  -7  287.21   18.14 
   0   4  -8    0.72    4.42 
   2   3   6  452.04   25.92 
   2  -3   6  458.84   16.02 
  -2   3  -6  428.51   26.89 
  -2  -3  -6  377.59   17.12 
  -2   3  -6  402.76   14.30 
   2   3   6  440.49   16.39 
  -2  -3  -6  449.42   27.18 
  -2   3  -6  433.70   34.80 
  -1  -2  -9    4.29    6.10 
   1  -2   9    3.57    6.38 
   1   2   9    4.61    6.67 
   1  -2   9    3.99    6.77 
  -1   2  -9    3.46    4.32 
  -1   2  -9    5.75    8.73 
   1   2   9    2.76    3.93 
  -1   2  -9    5.08    7.11 
  -1  -2  -9    4.29    6.78 
   2  -2  -8  423.81   23.63 
  -2  -2   8  442.07   27.96 
  -2   2   8  464.54   21.38 
   2  -2  -8  431.33   22.73 
  -2   2   8  417.59   25.91 
  -2  -2   8  443.22   27.23 
   2   2  -8  411.90   22.08 
  -3  -1  -3    4.59    6.55 
  -2   2  -7    2.62    3.34 
   2  -2   7    1.57    3.21 
  -3   1  -3    1.67    3.05 
   2   2   7    4.90    7.77 
   3  -1   3    2.16    2.98 
  -3   1  -3    1.16    2.76 
  -1  -6   2  106.72   11.46 
   3   1   3    2.58    3.42 
  -2  -2  -7    3.48    6.05 
   2   2   7    3.28    4.81 
   3  -1   3    1.09    2.06 
  -1  -6   2   90.66   10.93 
   1   6  -2   97.87   11.63 
  -3  -1  -3    3.62    4.35 
  -2   2  -7    1.80    3.93 
  -2  -2  -7    5.41    8.65 
  -3   1  -3    1.61    2.27 
   1   6  -2   81.69   22.22 
   1  -6  -2   95.74   12.95 
  -3  -1  -3    4.14    8.23 
  -1   6   2  104.90   13.14 
  -2   2  -7    1.96    4.65 
  -2  -2  -7    2.22    4.19 
  -1   6   2  100.29   11.84 
   1  -6  -2   97.11   15.38 
   3   1   3    4.82    7.49 
   1   6  -2   98.20   10.62 
  -2  -5  -1  343.18   22.08 
  -2  -5  -1  280.77   12.52 
  -2   5   2   97.40    9.44 
   2  -5  -2  117.10   13.58 
   2   5  -2   92.83   17.41 
   2  -5   1  296.02   21.90 
   2   5   1  279.98   11.87 
  -2  -5   2  124.81   11.94 
  -2   5  -1  273.62   13.22 
   2  -5  -2  104.45   10.01 
  -2   5  -1  260.87   21.73 
   2   5   1  280.52   45.09 
   2  -5   1  235.71   13.08 
   2   5  -2  108.11   10.15 
  -2  -5   2   90.78    8.04 
   2   5  -2  114.92    9.42 
  -2   5   2   97.88   13.01 
   1  -1 -10  195.67   18.25 
  -1   1  10  188.75   18.89 
   1   1 -10  170.05   15.83 
   1   1 -10  176.21   11.62 
  -1   1  10  156.90   10.65 
   1  -1 -10  183.52   13.20 
  -1  -1  10  180.04   19.53 
  -1  -1  10  185.33   10.05 
   3  -2   2   24.35    5.20 
   3  -2   2   26.52    5.60 
  -3  -2  -2   15.65   26.91 
  -3   2  -2   22.91    8.61 
   3   2   2   15.67    7.40 
  -3  -2  -2   10.52   12.35 
  -3   2  -2   22.06    8.62 
   3   2   2   13.85    3.69 
   3  -2   2   22.37    7.06 
   1  -5  -6 1851.01   47.14 
   3   0  -5 1373.52   43.29 
  -1   5   6 1907.81   56.48 
  -3   0   5 1322.21   41.84 
  -1   5   6 1803.13   53.51 
   1   5  -6 1529.86   48.60 
   1   5  -6 1786.19   56.59 
   3   0  -5 1360.04   37.72 
   1   5  -6 1692.62   36.72 
  -3   0   5 1300.48   49.59 
  -1  -5   6 1574.36   32.24 
   3   0  -5 1486.75   36.97 
   3   0  -5 1369.76   32.58 
  -1  -6  -2   10.03   10.08 
   1   6   2    8.39    3.89 
   1  -6   2   10.04   15.10 
  -1   6  -2    9.12   10.69 
  -1  -6  -2   10.51   15.58 
   1   6   2   12.51   13.99 
  -1   6  -2    9.12   12.69 
   1  -6   2    6.58    8.38 
   0  -6   4  373.04   22.47 
   0   6  -4  416.69   23.11 
   0  -6  -4  290.07   22.80 
   0   6   4  294.43   21.89 
   0   6  -4  369.03   28.23 
   0   6  -4  339.96   26.61 
   0   6   4  399.65   23.57 
   1  -3  -9   46.88   17.81 
  -1   3   9   39.78   10.53 
   1  -3  -9   54.86   14.22 
  -1  -3   9   52.70   11.18 
  -1  -3   9   54.62   15.38 
  -1  -3   9   46.38    9.82 
   1   3  -9   51.00   14.83 
  -1   3   9   52.13   14.95 
   0   2 -10 1064.93   43.10 
   0   2  10  921.63   31.30 
   0  -2 -10 1073.09   37.62 
   0  -2  10 1198.38   55.25 
   0   2  10 1130.53   45.64 
   0  -2  10 1053.46   32.42 
   0   2 -10 1118.54   33.89 
   0  -2 -10  919.97   44.75 
   3   1  -5  232.76   14.23 
   3  -1  -5  187.54   14.62 
   3  -1  -5  201.15   14.72 
   3   1  -5  158.55   11.00 
  -3   1   5  235.83   16.90 
   3  -1  -5  198.60   16.13 
   3   1  -5  209.39   18.99 
  -3  -1   5  194.73   13.48 
   3   1  -5  215.52   13.51 
  -3   1   5  247.20   18.86 
   3  -1  -5  242.52   16.42 
   3   2  -4  283.09   13.15 
   3   2  -4  293.91   16.34 
   3  -2  -4  261.84   20.92 
   3   2  -4  359.74   25.25 
   3  -2  -4  275.37   19.84 
  -3  -2   4  281.53   16.61 
  -3   2   4  346.77   27.64 
   3  -2  -4  229.40   20.95 
   3   2  -4  243.56   12.64 
  -3   2   4  277.77   18.65 
   1  -6  -3   98.12   12.03 
   1  -6  -3  152.89   15.71 
   1   6  -3  145.50   12.71 
  -1   6   3  121.39   21.03 
  -1   6   3  152.61   16.17 
  -1  -6   3  153.51   13.69 
  -1  -6   3  148.99   12.70 
   1   6  -3  159.77   16.75 
   1   6  -3  136.18   16.49 
  -2  -5   3   43.45   10.62 
  -2  -5   3   56.36   14.03 
   2   5  -3   48.90   11.89 
   2  -5   2   10.40    5.37 
  -2   5   3   40.19   14.28 
  -2   5  -2    8.74    5.17 
   2  -5  -3   46.81   13.42 
  -2  -5  -2    6.38    3.39 
  -2  -5  -2    9.96   16.29 
   2   5   2   11.57   13.27 
   2   5  -3   42.42   10.39 
   2   5  -3   44.63   14.31 
  -2   5  -2    8.00   16.07 
   2  -5   2    8.07    2.90 
   2   5   2    6.38    3.67 
  -2   5   3   34.55    9.73 
   2  -5  -3   34.41    9.40 
   1   4  -8  431.38   28.52 
  -1   4   8  411.51   26.05 
  -1  -4   8  426.16   15.47 
  -1  -4   8  385.22   13.88 
   1  -4  -8  416.57   22.27 
   1  -4  -8  388.99   23.37 
   1   4  -8  434.75   28.19 
   2   4  -6  771.62   38.30 
  -2   4   6  970.40   37.80 
   2  -4  -6  902.78   36.06 
   2   4  -6  970.43   24.29 
   2  -4  -6 1093.78   41.44 
  -2   4   6  838.85   38.69 
  -2  -4   6  895.51   31.41 
   2   4  -6  951.38   33.04 
  -2  -4   6  963.50   24.48 
  -2   4  -5    4.23    7.28 
   2   4   5    9.25   10.89 
  -2  -4  -5    9.08    4.21 
  -2   4  -5    3.51    4.02 
  -2   4  -5    5.48    5.97 
  -2  -4  -5    8.82   13.41 
  -2   4  -5    4.96    6.28 
  -2  -4  -5    9.25    3.29 
   2   0  -9    1.22    2.82 
   2   0  -9    0.77    1.14 
  -2   0   9    1.31    5.29 
   2   0  -9    0.89    1.58 
  -2   0  -8  322.32   21.00 
   2   0   8  346.92   19.02 
  -2   0  -8  397.84   23.98 
  -2   0  -8  303.85   25.91 
   2   0   8  304.58   17.96 
  -3   0  -4    0.62    1.12 
  -3   0  -4   -0.42    5.43 
   3   0   4    0.41    1.99 
  -3   0  -4    0.44    2.08 
   3   0   4    0.44    2.79 
  -3   3   1   10.97   15.92 
  -3   3   1    8.83    3.39 
   3  -3  -1   10.86   15.24 
  -3  -3   1    8.44   15.67 
   3   3  -1    5.17    7.13 
   3   3  -1    5.99    7.23 
   3  -3  -1    7.05    2.66 
   3   3   0  427.91   27.11 
   3  -3   0  481.69   14.43 
   0   5   7   27.10    8.58 
   3  -3   0  519.14   13.79 
   0  -5  -7   26.01    8.57 
  -3   3   0  534.18   32.14 
  -3   3   0  462.86   26.57 
  -3  -3   0  490.05   36.08 
   0   5  -7   21.08    8.53 
   0   5  -7   16.43    6.85 
   0   5   7   34.74   13.28 
   0  -5   7   20.60    6.61 
   0  -5   7   21.62    6.74 
  -1   5  -6 1500.23   39.78 
  -1  -5  -6 1606.80   45.74 
  -1   5  -6 1607.21   41.64 
  -1  -5  -6 1422.87   38.54 
   1  -5   6 1224.86   47.42 
   1   5   6 1254.14   48.05 
  -1   5  -6 1594.27   61.24 
  -1  -5  -6 1451.39   35.26 
  -1  -6  -3   61.04   17.32 
   1   6   3   67.25   16.47 
  -1   6  -3   68.97   10.26 
   1  -6   3   75.74    9.24 
  -1  -6  -3   60.33   14.61 
   1   6   3   64.08   11.07 
  -1   6  -3   74.12   12.25 
   1  -6   3   61.95   15.85 
  -3  -2  -3   17.64   17.55 
   3  -2   3   10.26   13.93 
  -3  -2  -3   17.32    7.18 
  -3  -2  -3   21.26    5.20 
   3   2   3   16.37    6.97 
  -3   2  -3   13.34    6.22 
  -3   2  -3   11.12   13.89 
   3   2   3   17.65    4.45 
   2  -1  -9   20.73    7.39 
  -2  -1   9   16.28   21.92 
   2   1  -9   16.48    6.51 
  -2   1   9   19.28   25.63 
   2  -1  -9   18.40    5.13 
  -2   1   9   18.88    5.65 
  -2  -1  -8   99.19   14.25 
   2   1   8   91.87   10.19 
  -2   1  -8   83.74   12.94 
   2   1   8   90.02   10.73 
   2  -1   8   75.68    8.67 
  -2  -1  -8   69.01    9.89 
  -2   1  -8   88.32   15.42 
  -2  -1  -8   76.28   10.43 
  -2   1  -8   77.13    8.72 
   3  -3  -2  174.28   10.63 
  -3  -3   2  222.91   17.42 
   3  -3  -2  197.61   17.66 
   3   3  -2  177.95   13.80 
  -3   3   2  201.10   12.56 
   3   3  -2  157.29   17.29 
   3   3  -2  166.61    6.76 
  -3   3   2  188.71   18.62 
   3   3  -2  165.60    6.46 
   1   0  10   -0.52    3.90 
  -1   0 -10   -0.44    5.97 
  -1   0 -10    0.22    2.22 
   1   0  10    0.65    2.87 
  -3   1  -4   13.33   12.16 
   3   1   4   18.36    5.97 
   3  -1   4   15.07    4.24 
  -3  -1  -4   21.97    6.24 
  -3   1  -4   18.83   22.66 
  -3  -1  -4   19.24   18.42 
  -3  -1  -4   22.54   24.48 
   3   1   4   19.60    5.55 
  -3   1  -4   12.90    4.16 
   3  -1   4    9.73   13.64 
   1   2 -10   19.31    4.63 
   1  -2 -10   33.74   15.99 
  -1  -2  10   19.63    5.65 
   1   2 -10   19.23    8.14 
  -1  -2  10   24.38   35.57 
   1  -2 -10   28.29    8.06 
  -1   2  10   24.17    7.03 
  -1   2  10   26.87    9.63 
  -3   3  -1  223.16   17.98 
  -3   3  -1  191.69   18.89 
  -3  -3  -1  269.33   21.41 
   3   3   1  217.10   19.81 
   2  -5  -4   93.34   12.58 
  -2   5  -3   48.45   11.72 
  -2   5   4   78.03   13.07 
  -2  -5  -3   38.46    9.13 
   2   5  -4   83.26   30.74 
  -2   5   4  100.26   11.46 
  -2   5  -3   53.41   15.38 
   2   5  -4   88.03    9.59 
   2   5   3   41.63   13.66 
   2  -5   3   55.09   14.99 
   2   5  -4   71.56    7.52 
   2  -5  -4   89.89   10.53 
  -2  -5  -3   59.87   15.51 
  -2  -5  -3   44.60   10.24 
  -2  -5   4   81.41    9.65 
  -2  -5   4   81.67    8.68 
   2  -5   3   49.11   10.99 
   3   0  -6    1.42    2.12 
   3   0  -6    0.40    2.18 
   3   0  -6    0.41    3.60 
   3   0  -6    0.38    1.97 
  -3   0   6    0.37    4.96 
   1  -1  10  587.96   28.21 
   1  -1  10  586.41   33.29 
  -1   1 -10  626.45   39.25 
  -1  -1 -10  676.54   32.64 
   1   1  10  629.13   31.34 
  -1   1 -10  610.60   35.05 
  -1  -1 -10  729.49   33.98 
  -1   1 -10  634.84   28.67 
  -1   6   4    2.90    4.93 
   1   6  -4    1.02    3.16 
   1  -6  -4    2.56    3.91 
  -1  -6   4    1.73    3.27 
   1   6  -4    1.75    3.65 
  -1   6   4    1.72    2.36 
   1   6  -4    1.85    4.73 
  -1  -6   4    1.44    2.31 
   3   2  -5   17.46    5.31 
  -3  -2   5   15.50    5.02 
  -3   2   5   19.24    7.07 
  -3   2   5   23.32    8.24 
   3  -2  -5   21.54    7.38 
   3   2  -5   21.59   24.87 
   3   2  -5   17.80    5.31 
   3   2  -5   17.61    5.35 
   3  -2  -5   19.96    6.95 
   3  -2  -5   23.85    7.64 
   3   3  -3   87.86    5.91 
  -3   3   3   88.87    9.60 
   3  -3  -3   72.80   10.84 
   3   3  -3   96.92   18.84 
   3  -3  -3   74.09    7.56 
   3   3  -3   87.96   11.98 
  -3  -3   3   82.88   11.10 
   3   3  -3   79.60    6.27 
  -3   3   3   85.40   11.75 
   0   6  -5   98.14   13.24 
   0   6   5  107.54   13.86 
   0   6  -5   91.26   13.17 
   0   6  -5   98.18   11.82 
   0  -6   5  100.02   11.71 
   0   6   5  126.18   15.42 
   0  -6  -5  112.04   14.01 
  -1   3  -9   87.30   14.36 
  -1   3  -9   81.72   10.75 
   1  -3   9   69.03    9.27 
  -1   3  -9   86.18   10.52 
  -1  -3  -9   92.33   12.23 
   1   3   9   93.09   13.53 
  -1  -3  -9   83.71   10.71 
   1  -3   9   87.40   17.64 
  -1   4  -8   84.57   13.49 
   1   4   8   93.15   17.82 
  -2   3   8  558.42   24.80 
   2   3  -8  674.30   36.42 
  -1  -4  -8   83.25   15.82 
  -1  -4  -8   92.79   10.55 
  -2  -3  -7  280.33   22.34 
  -1   4  -8   92.04   11.85 
   2   3  -8  702.74   30.47 
  -1   4  -8   91.34   11.20 
  -1   4  -8   87.20    9.88 
   2   3   7  281.47   14.67 
  -2   3   8  612.00   31.97 
  -2   3  -7  327.34   25.35 
  -2  -3  -7  262.85   15.70 
  -2   3  -7  283.91   23.21 
   2  -3   7  291.24   14.09 
  -1  -4  -8  106.78   13.35 
   1  -4   8   83.57   10.79 
  -2   3  -7  276.46   12.91 
   2  -3  -8  648.51   31.51 
   2  -3  -8  615.32   29.11 
   2   3   7  348.47   23.75 
   3   1  -6    6.40    8.35 
   3   1  -6    8.89    4.37 
   3  -1  -6   12.13    5.47 
   3   1  -6    7.84    3.53 
   3  -1  -6   14.58    5.08 
   3  -1  -6   13.80    5.20 
  -3  -1   6    6.54    3.07 
  -3   1   6   19.99   17.49 
  -1  -5   7   64.49    6.76 
   1  -5  -7   83.58   19.26 
  -1   5   7   77.86   11.12 
   1   5  -7   68.70   11.12 
   1   5  -7   60.70   13.86 
   1   5  -7   64.12   13.39 
  -1   5   7   82.26   14.46 
   0   0  11   12.96   14.16 
   0   0 -11    0.58    5.98 
   0   0 -11    0.25    3.14 
   0   0  11   -0.83    7.02 
  -3   3  -2  472.19   29.64 
   3   3   2  515.49   28.91 
  -3   3  -2  420.59   26.24 
  -3  -3  -2  501.10   38.14 
  -1  -6  -4    0.59    1.87 
  -1   6  -4    0.75    3.64 
   1   6   4    0.91    1.88 
   1  -6   4    0.49    2.83 
   1  -6   4    0.91    1.51 
  -1   6  -4    0.48    3.09 
  -1  -6  -4    1.20    2.57 
   1   6   4    1.08    2.30 
  -2   2   9   50.92   12.39 
   0  -4  -9   23.19   22.66 
   2   2  -9   60.93   16.85 
   0  -4   9   22.41    6.98 
   0  -4  -9   20.25    7.55 
  -2   2   9   46.23   13.26 
   0   4  -9   28.98   32.17 
   2  -2  -9   43.01   10.63 
   0   4   9   20.17    8.09 
   0  -4   9   22.04   17.74 
  -2  -2   9   52.99   15.33 
   0  -4   9   17.91    5.62 
   2  -2  -9   42.63   16.24 
   2   2   8   10.43   14.17 
  -2   2  -8   11.43    4.00 
  -2   2  -8   19.53   25.26 
  -2  -2  -8   14.63   11.25 
  -2   2  -8   20.37   16.67 
  -2  -2  -8   13.93   19.08 
   2   2   8   15.38   20.07 
   2  -2   8   13.38    4.66 
  -3   2  -4    5.02    7.10 
  -3  -2  -4    2.59    9.39 
  -3   2  -4    3.58    6.39 
   3   2   4    2.11    4.58 
   3  -2   4    3.11    6.37 
  -3  -2  -4    3.23    5.45 
   3   2   4    2.84    3.88 
   3  -2   4    3.59    1.13 
  -3  -2  -4    2.62    5.17 
   3  -2   4    3.88    1.02 
   3   0   5   74.27    8.59 
  -3   0  -5   69.38    9.11 
   3   0   5   74.21    7.98 
  -3   0  -5   73.43   12.26 
  -3   0  -5   64.70    7.87 
   0  -3  10  166.11   13.95 
   0  -3 -10  207.94   18.01 
   0   3 -10  192.59   13.70 
   0  -3 -10  185.61   19.77 
   0   3 -10  169.70   21.48 
   0   3  10  195.68   19.67 
   0  -3  10  162.16   16.54 
   0   1 -11  124.26   15.98 
   0   1  11  146.57   17.67 
   0  -1  11  118.24   14.25 
   0  -1  11  129.99   11.46 
   0  -1 -11  133.69   12.52 
   0   1  11  135.51   12.02 
   0   1 -11  120.92   11.40 
   0  -1 -11  114.60   16.20 
  -2  -4   7   26.74    8.06 
  -2   4   7   23.13    8.28 
   2  -4  -7   31.12   10.51 
  -2   4   7   28.45    9.69 
   2   4  -7   20.50    7.22 
   2   4  -7   21.18    5.28 
   2   4  -7   24.90   27.09 
  -2  -4   7   25.30    6.37 
  -2   4  -6  170.51    9.87 
  -2  -4  -6  145.71   17.23 
  -2   4  -6  178.70   18.76 
   2   4   6  160.50   16.34 
  -2   4  -6  162.24   10.60 
  -2   4  -6  155.38   17.32 
  -2  -4  -6  161.20   10.71 
  -2  -4  -6  191.84   12.43 
   3   3  -4   28.57    7.70 
   3  -3  -4   46.27   11.76 
   3  -3  -4   49.33   13.84 
   3   3  -4   35.04    8.61 
   3   3  -4   28.25   19.93 
  -3   3   4   44.91   12.28 
   3   3  -4   31.90    7.78 
  -3   3   4   41.95   12.11 
  -3  -3   4   37.41   10.14 
  -2  -5   5  565.81   23.95 
   2   5  -5  504.51   38.54 
   2   5  -5  476.76   20.66 
  -2  -5   5  454.87   21.00 
  -2   5  -4   99.70   14.48 
   2  -5  -5  534.51   30.72 
  -2  -5  -4  121.07    9.37 
   2   5  -5  522.28   24.63 
  -2   5  -4  100.95    7.36 
  -2   5  -4   96.03    7.49 
   2  -5  -5  502.73   26.80 
  -2  -5  -4  116.73   13.88 
  -2  -5  -4  124.39    8.44 
   2  -5   4   94.27   13.50 
  -2   5   5  426.95   24.08 
   2   5   4   95.21   14.63 
  -2   5   5  524.99   30.22 
   1   0 -11  447.50   17.18 
   1   2  10   53.18   14.59 
  -1  -2 -10   52.84   14.02 
  -1   2 -10   54.25   18.48 
  -1   2 -10   45.10   11.79 
   1  -2  10   45.19   13.16 
  -1   0  11  449.99   31.88 
  -1   0  11  385.76   21.69 
  -1  -2 -10   51.31   13.81 
   1   0 -11  512.73   29.34 
   1  -2  10   39.21   10.61 
  -1   2 -10   42.14   12.99 
  -3   1  -5   86.80    9.24 
  -3  -1  -5   89.22   10.66 
   3  -1   5   78.94    9.49 
   3   1   5   94.79   10.46 
  -3  -1  -5   98.56    9.91 
  -3   1  -5  106.37   13.11 
   3   1   5   93.29   10.82 
  -3  -1  -5   74.01   13.28 
   3  -1   5   92.09    8.15 
  -3   1  -5   64.01   12.32 
  -1   6   5  256.72   20.90 
   1   6  -5  145.07   12.38 
   1  -6  -5  155.85   15.69 
   1   6  -5  181.68   17.21 
  -1   6   5  186.43   19.55 
  -1  -6   5  166.06   13.17 
   1   6  -5  152.98   19.97 
  -3   3  -3  995.63   45.92 
   0   7   0    1.21    5.56 
   0   7   0    1.61    4.64 
  -3  -3  -3  851.76   13.77 
  -3   3  -3 1050.45   42.10 
   0  -7   0    2.03    3.11 
  -3  -3  -3 1118.57   44.24 
   3   3   3  914.70   37.43 
  -1   5  -7  650.60   30.60 
  -1  -5  -7  633.93   28.22 
   1   5   7  638.20   34.53 
   1  -5   7  823.09   38.56 
  -1   5  -7  587.53   25.25 
  -1  -5  -7  448.25   33.01 
  -1  -5  -7  550.55   24.64 
  -1   5  -7  637.51   36.40 
   3   2  -6   69.31    8.43 
  -3  -2   6   74.95    8.05 
  -3   2   6   86.78   11.25 
   3  -2  -6   88.36    9.96 
   3   2  -6   87.61   13.78 
   3   2  -6   73.28    8.03 
   3   2  -6   78.69    7.03 
   3  -2  -6   88.12   17.00 
   3  -2  -6   98.20   11.24 
  -3   2   6  104.79   12.81 
   1   1 -11   92.23   28.78 
   1  -1 -11   98.82    9.46 
  -1  -1  11   84.53    5.97 
   1   1 -11   86.86    6.68 
  -1  -1  11   82.21   12.82 
  -1   1  11   92.39    8.65 
   1  -1 -11   92.05   13.67 
  -1   1  11   87.38   13.56 
   1   4  -9   56.99   17.30 
  -1  -4   9   50.61   12.25 
   1  -4  -9   34.41   11.43 
   1  -4  -9   34.70   10.57 
  -1  -4   9   59.38   12.93 
  -1   4   9   46.09   14.25 
   1   4  -9   55.86   15.47 
  -1   3  10  272.38   17.51 
  -1   3  10  298.29   25.24 
  -1  -3  10  247.51   23.77 
   0   7  -1   17.34   18.81 
  -1  -3  10  200.61    8.13 
   1  -3 -10  255.89   16.96 
   0   7   1   14.98    7.01 
   0   7  -1   12.93   18.05 
   0   7   1   14.03    8.30 
   1  -3 -10  249.34   20.38 
   0  -7  -1   14.62   19.11 
   1   3 -10  242.75   22.16 
  -1  -3  10  239.10   10.13 
   0  -7   1   16.28   14.49 
   3   0  -7  134.50   10.56 
   3   0  -7  147.82   10.98 
   0   5   8   15.41   19.86 
   0  -5  -8   12.58   10.20 
   0  -5   8    3.28    5.75 
   0  -5   8    4.19    7.70 
   0   5  -8    3.17    5.74 
   3   0  -7  154.32   15.68 
  -3   0   7  128.32   14.96 
   0  -5  -8   10.16    5.01 
   0   5  -8    4.41    5.56 
   0   6   6    5.72    7.81 
   0   6   6    5.37    6.28 
   0   6  -6    3.77   10.10 
   0  -6   6    1.98    4.51 
   0  -6  -6    3.81    4.88 
   0   6  -6    6.69    7.98 
   0  -6   6    4.81    6.87 
   2   0 -10  241.71   10.01 
   2   0 -10  237.85   20.00 
   2   0 -10  196.52   10.40 
  -2   0  10  292.47   24.63 
   2   0   9    3.12    5.35 
  -2   0  -9    0.31    2.78 
  -2   0  -9    1.00    2.31 
  -2   0  -9    1.06    3.53 
  -1   6  -5  372.41   22.44 
  -1  -6  -5  343.33   23.49 
   1   6   5  462.72   34.53 
   1  -6   5  330.20   22.93 
  -1   6  -5  382.22   48.91 
  -1   6  -5  381.59   28.65 
   1   6   5  368.32   20.77 
  -1  -6  -5  393.11   21.88 
   0   2  11   10.81   14.92 
   0  -2  11   20.34   27.56 
   0  -2 -11   19.79   25.85 
   0   2 -11   14.70    5.39 
   0  -2  11   14.04    4.73 
   0   2  11   18.11   24.00 
   0  -2 -11   14.81    6.07 
   0   2 -11   19.23   25.20 
  -3  -3   5  532.69   22.20 
   0   7   2   24.42   24.57 
   3   3  -5  517.74   20.43 
  -3   3   5  545.18   28.41 
   0   7  -2   13.10   15.13 
   3   3  -5  410.83   19.00 
   3  -3  -5  514.22   26.77 
   0  -7   2   15.58    6.94 
   0   7  -2   14.25   20.01 
   0   7   2   27.84   11.01 
   0  -7  -2   18.34    7.81 
  -3  -3   5  437.91   16.17 
   3   3  -5  526.80   33.38 
  -3   3   5  518.11   26.59 
   3  -3  -5  572.40   28.52 
   3  -1  -7  292.67   19.97 
   3   1  -7  251.05   15.92 
   3  -1  -7  225.42   16.22 
   3   1  -7  234.39   12.03 
   3  -1  -7  248.41   17.43 
  -3   1   7  234.96   19.60 
   3   1  -7  260.92   13.46 
  -3  -1   7  287.13   22.97 
   3   1  -7  277.10   17.12 
   3  -4  -1   29.25    7.14 
   3  -4  -1   29.31   22.23 
  -3   4   1   27.65    9.40 
  -3   4   1   32.77    8.08 
  -3  -4   1   27.20    9.00 
   3   4  -1   33.22   11.57 
  -3   4   0    6.84   13.78 
   3  -4   0    6.42   10.64 
   3  -4   0    5.35    4.49 
   3   4   0    4.00    7.08 
  -3   4   0    6.13    2.19 
  -3  -4   0    3.85    6.93 
   2  -1 -10    3.56    5.64 
   2  -1 -10    2.61    4.00 
  -2   1  10    1.96    3.02 
   2   1 -10    1.48    3.44 
  -2   1  10    5.18   10.09 
  -2  -1  10    1.12    2.42 
   2   1   9   46.60   12.63 
  -2   1  -9   41.41   10.58 
  -2  -1  -9   45.99   13.07 
  -2   1  -9   45.07   13.22 
   2  -1   9   44.92   11.80 
  -2   1  -9   40.95   12.50 
  -2  -1  -9   40.42   12.38 
  -3   4   2   14.71   17.59 
  -3   4   2   11.39    5.17 
   3   4  -2    8.90    2.52 
   3   4  -2    6.94    9.89 
   3  -4  -2   16.55   19.66 
   3   4  -2    7.54   11.97 
  -3  -4   2   11.74   13.31 
   3  -4  -2   10.47    3.56 
   3   4  -2    9.09    2.33 
   3  -2   5  484.28   12.13 
  -3   2  -5  417.04   31.43 
  -3  -2  -5  458.37   29.03 
  -3   2  -5  442.96   30.86 
  -3   2  -5  505.26   12.86 
   3   2   5  486.88   16.39 
   3   2   5  462.65   25.20 
  -3  -2  -5  435.52   32.23 
  -3  -2  -5  427.15   21.19 
  -2  -6   0  417.28   18.16 
  -2   6   0  385.68   31.30 
  -2   6   1  440.71   21.87 
  -2  -6   0  325.54   20.67 
  -2  -6   1  351.30   21.28 
   2  -6  -1  389.10   20.70 
   2   6   0  356.69   16.07 
   2  -6   0  370.74   19.31 
  -2   6   0  372.80   24.13 
   2   6  -1  354.50   17.37 
   2   6   0  308.73   26.50 
   2  -6   0  402.07   27.34 
   2  -6  -1  365.47   26.25 
  -2  -6   1  376.88   17.94 
  -2   6   1  381.73   28.90 
   2   6  -1  433.87   31.55 
   3  -4   1   17.72   14.09 
  -3  -4  -1   10.16    5.59 
  -3   4  -1   14.82   21.85 
   3   4   1   14.44   15.40 
   1   5  -8   14.93   17.99 
  -1   5   8   10.93   16.43 
  -1  -5   8   10.47    3.70 
  -1   5   8   13.10   14.56 
   1   5  -8   14.48   12.79 
  -1  -5   8   10.37    3.56 
   1  -5  -8   14.78   21.43 
   2  -5  -6    4.35    7.23 
  -2  -5   6    5.25    7.45 
   2   5  -6    5.10    8.56 
   2   5  -6    5.13    8.07 
  -2  -5   6    6.95    9.41 
   2   5  -6    6.42    9.66 
  -2   5   6    4.17    5.58 
  -2   5   6    3.47    8.13 
   2  -5   5   46.57   13.54 
  -2   5  -5   64.04    6.64 
  -2  -5  -5   49.97   11.83 
  -2  -5  -5   49.47   11.52 
   2   5   5   43.88   13.56 
  -2   5  -5   55.67   15.92 
  -2  -5  -5   47.46   13.54 
  -2   5  -5   60.31   14.14 
  -2   3   9  203.54   15.03 
   2  -3  -9  272.11   17.90 
  -3   0  -6    0.69    2.11 
   2  -3  -9  234.75   18.78 
   3   0   6    0.65    1.13 
  -3   0  -6    4.05    5.54 
  -2  -3   9  160.28   18.49 
   2   3  -9  189.24   18.38 
   3   0   6    0.75    1.33 
  -2   3   9  246.59   21.12 
  -3   0  -6    0.98    2.26 
  -2   3  -8  190.65   28.15 
   2   3   8  202.60   13.48 
  -2  -3  -8  237.43   20.65 
  -2  -3  -8  237.18   16.54 
  -2   3  -8  207.56   21.18 
   2   3   8  220.99   19.19 
   2  -3   8  212.39   13.26 
  -2   3  -8  185.50   11.98 
   1  -2 -11  698.69   34.06 
  -2  -6  -1  266.17   14.51 
   2   6  -2  767.53   27.49 
   2   6  -2  729.86   40.64 
   1   2 -11  634.99   34.69 
   2  -6  -2  748.54   40.13 
  -2   6   2  844.86   41.66 
   1  -2 -11  567.64   28.23 
   2  -6   1  305.01   24.11 
   1   2 -11  599.42   17.29 
  -1   2  11  656.71   25.13 
  -2   6   2  863.63   33.77 
  -1  -2  11  631.50   17.01 
   2  -6  -2  797.80   39.31 
  -2  -6  -1  287.69   20.57 
   2  -6   1  273.04   20.68 
   2   6   1  295.06   14.20 
   2   6   1  333.57   26.80 
  -1  -2  11  565.13   39.35 
  -2  -6   2  691.65   24.77 
  -2   6  -1  265.05   21.25 
  -2   6  -1  289.21   24.80 
  -2  -6   2  754.22   30.65 
  -1   2  11  621.54   36.69 
  -3   3  -4   17.80   25.34 
  -3  -3  -4   21.68    9.07 
  -3  -3  -4   23.03    5.96 
  -3   3  -4   15.44   20.25 
  -3  -3  -4   25.01    5.85 
   3   3   4   19.65    8.31 
   0   7   3   95.81   13.53 
   0   7   3   97.66   12.87 
   0  -7  -3  101.73   13.16 
   0   7  -3  132.44   16.68 
   0   7  -3   82.39   12.58 
   0  -7   3  102.10   12.85 
  -1   0 -11  379.93   26.46 
   1   0  11  356.49   24.13 
  -1   0 -11  343.49   23.19 
   3   4  -3   12.54    3.73 
   3   4  -3   11.38   13.18 
  -3  -4   3   14.27    6.61 
   1   6  -6   74.96   14.34 
   1   6  -6   65.49   11.68 
  -3  -4   3   11.83    3.79 
  -1   6   6   51.74   14.06 
  -1   6   6   52.05   14.75 
   1  -6  -6   55.95   14.92 
  -1  -6   6   69.16    8.89 
  -3   4   3   14.71   19.00 
   3  -4  -3    9.45    9.74 
  -3   4   3   13.70   11.15 
   3  -4  -3    9.05    9.11 
   3   4  -3   14.04   22.80 
   1   6  -6   66.76    8.45 
  -1  -4  -9  116.30   14.34 
  -1  -4  -9  170.47   15.59 
   1   4   9  154.45   17.59 
  -1   4  -9  121.23   12.24 
  -1   4  -9  116.41   13.67 
  -1   4  -9  140.83   18.39 
   1  -4   9  105.60   11.54 
   1  -7   0   97.43   13.81 
   1   7   0  103.51   11.52 
  -1  -7   0  114.26   13.80 
  -1  -7   0  106.49   12.33 
   1   7   0  121.16   16.50 
  -1   7   0  109.76   16.47 
  -1   7   0   61.54   17.19 
  -2   4   8   35.58   11.75 
   2   4  -8   47.74   13.19 
  -2   4   8   32.10   10.47 
   2   4  -8   38.75   12.58 
   2   4  -8   43.55    9.36 
   2  -4  -8   34.87   14.66 
  -2  -4  -7  510.98   22.21 
   2   4   7  611.86   35.53 
  -2  -4  -7  796.73   38.37 
  -2   4  -7  666.04   22.25 
  -2  -4  -7  623.71   23.47 
  -2   4  -7  596.64   21.81 
  -2   4  -7  689.64   37.57 
  -2   4  -7  665.82   46.43 
  -1   7   1  166.80   18.20 
   1   7  -1  172.56   19.25 
  -1  -7   1  104.67   12.23 
  -1  -7   1  142.81   14.06 
   1   7  -1  148.34   14.74 
  -1   7   1  175.64   15.85 
   1  -7  -1  162.59   17.39 
  -3  -1  -6  223.23   21.26 
   3   1   6  262.52   19.14 
   3  -1   6  237.06   17.94 
   3   1   6  211.20   13.15 
  -3  -1  -6  224.01   19.51 
  -3   1  -6  246.56   13.75 
  -3   1  -6  278.30   21.11 
   3  -1   6  274.58   12.99 
  -3  -1  -6  218.88   15.39 
  -3   1  -6  231.24   23.91 
  -1  -3 -10   63.21   15.90 
  -1   3 -10   69.07   15.06 
   1  -3  10   74.24   12.70 
  -1  -3 -10   71.57   11.47 
   1   3  10   64.61   26.60 
  -1   3 -10   71.62   13.75 
  -1   3 -10   62.28   16.03 
   1  -7   1  396.31   27.72 
  -1  -1 -11    0.75    3.82 
  -1   7  -1  359.71   31.27 
  -1  -7  -1  463.89   27.32 
   1   1  11    0.60    3.83 
   1   7   1  409.01   22.88 
  -1   7  -1  329.51   22.11 
  -1  -1 -11    0.47    2.69 
  -1   1 -11   -0.39    6.53 
   1  -1  11    0.93    3.73 
   1  -7   1  302.20   19.99 
  -1  -7  -1  367.14   21.29 
  -1   1 -11   -1.05    4.62 
   1   7   1  435.27   28.74 
  -3   4  -2    1.34    2.71 
   3   4   2    0.73    3.67 
  -3   4  -2    3.12    5.70 
  -3  -4  -2    1.68    3.27 
   3   2  -7  121.65   11.60 
  -3   2   7  122.72   14.65 
   3   2  -7  121.30    8.14 
   3  -2  -7  133.96   18.41 
   3  -2  -7  141.48   12.80 
   3   2  -7  116.69   16.12 
   3  -2  -7  130.52   13.97 
  -3  -2   7  104.21   13.28 
   2   6  -3   30.53    8.64 
  -2  -6   3   28.98    9.50 
   2  -6  -3   31.52    9.26 
  -2   6   3   39.06   12.72 
   2  -6  -3   35.75   11.67 
   2   6  -3   30.91    8.62 
  -2  -6   3   37.12    9.72 
  -2   6   3   37.40   11.17 
   2   6  -3   36.70   38.39 
   2  -6   2  203.26   19.60 
   2   6   2  259.71   23.95 
  -2  -6  -2  244.17   20.18 
   2  -6   2  273.71   15.31 
   2   6   2  258.37   12.96 
  -2  -6  -2  298.37   15.28 
  -2   6  -2  320.86   16.04 
  -2   6  -2  254.99   22.56 
  -1  -7   2  675.79   30.06 
  -2   2  10   21.48    6.60 
   1   7  -2  664.83   30.88 
   1   7  -2  519.68   32.39 
   2  -2 -10   21.56    8.49 
  -2  -2  10   22.02   28.86 
  -2   2  10   21.10   10.70 
  -1   7   2  704.06   39.18 
   2  -2 -10   21.97    8.67 
  -1   7   2  629.95   31.56 
   1  -7  -2  628.41   35.71 
   2   2 -10   22.47    8.25 
  -2   2  -9  853.24   31.62 
  -2   2  -9  959.13   45.02 
  -2  -2  -9  888.04   36.08 
   2   2   9  792.88   41.83 
  -2   2  -9  874.69   52.35 
  -2  -2  -9  755.74   42.04 
   2   2   9  798.50   36.45 
   2  -2   9  947.82   32.51 
   3  -3  -6   62.16   15.95 
  -3   3   6   66.57   11.64 
   3   3  -6   47.51   11.11 
  -3  -3   6   47.16   14.71 
  -3  -3   6   54.21   12.57 
   3   3  -6   46.64   11.83 
   3   3  -6   50.34   15.67 
  -3   3   6   51.92   14.13 
   0  -4  10  141.62   13.10 
   0  -4 -10  138.85   15.65 
   0   4 -10  145.59   19.68 
   0  -4  10  144.92   18.06 
   0  -4 -10  153.22   16.76 
   0   4  10  164.79   20.11 
   0  -4  10  168.89   14.75 
   3   4  -4    0.85    1.95 
   3  -4  -4    0.92    3.49 
  -3  -4   4    1.21    2.44 
   3   4  -4    1.69    3.57 
   3  -4  -4    0.66    1.50 
  -3  -4   4    0.43    1.53 
   3   4  -4    0.30    2.38 
  -3   4   4    0.36    2.59 
  -3   4   4    1.50    4.55 
   3   0  -8    0.74    1.35 
  -3   0   8   -0.08    5.62 
   3   0  -8    0.21    1.72 
   1  -7   2  386.89   27.22 
  -1   7  -2  334.25   25.31 
   1  -7   2  359.99   39.80 
  -1  -7  -2  350.21   28.08 
   1   7   2  440.67   28.77 
  -1   7  -2  446.02   35.06 
  -1  -7  -2  428.86   31.49 
   1   7   2  353.31   33.13 
   0   6   7   11.94   13.46 
   0  -6   7   12.24    5.12 
   0  -6  -7    9.79   14.36 
   0   6  -7   19.42   26.98 
   0   6  -7   11.88   17.00 
   0   6   7   12.62   17.99 
   0  -6   7   10.72   13.82 
  -1   6  -6  561.23   33.09 
   1   6   6  365.65   30.63 
   1  -6   6  496.30   35.47 
   1   6   6  577.91   35.15 
  -1   6  -6  558.16   35.92 
  -1  -6  -6  433.21   31.33 
  -1   6  -6  575.59   50.26 
  -1   5  -8  343.43   33.73 
  -1  -5  -8  417.85   26.91 
   1  -5   8  305.81   25.23 
   1   5   8  423.02   32.99 
  -1   5  -8  302.20   21.74 
  -1   5  -8  287.55   22.57 
  -1  -5  -8  398.69   31.21 
   0  -7   4  225.23   20.94 
   0  -7  -4  183.42   20.08 
   0   7   4  207.86   19.79 
   0   7  -4  198.55   21.08 
   0   7   4  241.13   23.15 
   0   7  -4  210.32   22.86 
   0   0  12 7416.44   99.25 
   0   0 -12 7915.46  134.79 
   0   0  12 7525.17  142.74 
   0   0 -12 8972.19  137.04 
   0  -3  11    2.57    3.51 
   0  -3 -11    3.62    7.54 
   0  -3  11    1.42    2.14 
   0   3  11    5.18    6.16 
   0  -3 -11    2.92    5.05 
   0   3 -11    1.49    2.37 
   0   3 -11    4.09    5.89 
   1   7  -3  266.67   26.54 
  -1   7   3  222.37   22.56 
   1  -7  -3  146.46   17.15 
  -1  -7   3  214.36   19.03 
  -1   7   3  185.17   19.25 
   1   7  -3  243.99   21.69 
   3   1  -8   69.94   10.17 
  -3   1   8   71.34   12.91 
   3  -1  -8   71.38    9.73 
   3  -1  -8   71.10    9.28 
   3  -1  -8   71.68   10.26 
   3   1  -8   71.14    7.04 
  -3  -1   8   66.66   12.55 
   3   1  -8   75.40    7.46 
  -3   4  -3  100.32   15.77 
  -3   4  -3  139.52   21.24 
  -3  -4  -3  110.63   16.40 
   3   4   3  137.41   16.90 
  -2  -6   4   13.77    4.77 
   2  -6  -4   14.57   21.25 
   2   6  -4   12.88   13.89 
  -2   6   4   15.77   20.76 
   2  -6   3  141.15   18.31 
   2  -6  -4    7.94   14.23 
  -2  -6  -3  134.37   12.04 
   2  -6   3  135.25   11.23 
   2   6   3  108.65   16.02 
   2   6  -4   18.78    9.38 
  -2   6  -3  138.81   13.22 
  -2  -6   4   13.07   15.31 
   2   6   3  126.48   10.29 
  -2  -6  -3  147.79   17.41 
  -2   6  -3  130.41   17.47 
   2   6  -4   12.48   16.46 
  -2   6   4   14.07    6.42 
  -3  -2  -6  107.69   16.17 
   3  -2   6  132.57    9.01 
   0   5   9   36.79   32.47 
  -3   2  -6  133.68   18.90 
   0   5  -9   41.40   14.32 
  -3   2  -6  125.75   10.52 
   3   2   6  120.10   14.69 
   3   2   6   99.01    9.03 
   0  -5   9   34.33    6.35 
   0   5  -9   33.24    9.71 
   0  -5  -9   39.45    7.94 
  -3   2  -6  114.06   14.71 
  -3  -2  -6  125.25   12.58 
   0  -5  -9   39.06    9.70 
   0  -5   9   32.82   11.59 
   0   1  12  223.21   18.61 
   0  -1  12  218.04   24.18 
   0   1 -12  195.98   16.51 
  -3  -3  -5    0.43    1.85 
   0   1  12  189.99   23.45 
   0  -1 -12  187.47   17.60 
   0   1 -12  174.69   22.50 
  -3  -3  -5    1.36    3.45 
   3   3   5    0.27    2.66 
   0  -1  12  191.07   15.13 
   0  -1 -12  157.42   20.36 
  -3   3  -5    0.24    4.84 
  -3   3  -5    0.84    2.70 
   3   3   5    0.39    1.81 
  -1  -4  10   85.69    7.64 
   1  -4 -10   70.28   11.09 
  -1   4  10   67.30   13.48 
  -1  -4  10   61.62    5.83 
   1  -4 -10   83.64   11.82 
   1   4 -10   65.08   12.18 
  -1  -4  10   70.33   13.02 
  -1  -2 -11   48.83   11.53 
  -1   2 -11   60.73   12.36 
   1  -2  11   63.35   12.56 
  -1  -2 -11   63.78   11.56 
   1   2  11   63.88   11.99 
  -1   2 -11   60.75   10.23 
   2   5  -7   18.70    3.75 
  -2  -5   7   15.43    8.21 
   2  -5   6  329.13   27.49 
   2   5  -7   22.02    8.49 
   2  -5  -7   18.37   17.47 
   2   5  -7   16.18    5.57 
  -2  -5  -6  334.72   27.54 
  -2  -5  -6  387.49   23.04 
  -2   5   7   12.95    5.89 
  -2   5  -6  325.95   29.41 
  -2  -5  -6  368.44   23.04 
  -2  -5   7   17.97    4.38 
  -2   5   7   16.40   22.82 
  -2   5  -6  356.15   22.81 
  -2   5  -6  321.91   18.87 
   2   5   6  426.40   33.10 
  -1   0  12    1.01    1.89 
   1   0 -12    0.68    2.09 
   1   0 -12   -0.07    6.49 
  -1   0  12   -0.53    6.45 
  -1  -7  -3   11.48   18.56 
   1  -7   3    7.59    9.34 
  -1   7  -3    8.59   11.82 
  -1  -7  -3    8.08   12.43 
   1   7   3    8.58   13.21 
   1   7   3   10.83   16.77 
   1  -7   3    4.38    7.82 
  -1   7  -3    8.79   12.11 
  -1  -3  11   54.08    5.42 
   1  -3 -11   57.50   10.86 
  -1  -3  11   53.10    4.33 
  -1   3  11   57.59   12.63 
   1   3 -11   51.74   10.95 
  -1  -3  11   59.57   12.60 
   1  -3 -11   52.89    8.06 
  -1   6   7  108.96   14.46 
   1  -6  -7  130.89   42.87 
   1   6  -7  126.75   12.64 
  -1   6   7  108.34   15.72 
   1   6  -7  110.46   18.35 
  -1  -6   7  121.61   14.55 
   1   6  -7  128.53   16.58 
  -3   4   5  254.33   23.55 
   3  -4  -5  196.07   17.00 
  -3  -4   5  267.35   16.26 
   3   4  -5  238.16   18.78 
   3   4  -5  273.76   27.39 
  -3   4   5  211.96   18.57 
   3  -4  -5  296.41   24.28 
   3   4  -5  249.86   19.70 
  -3  -4   5  243.51   18.02 
  -2   0  11   -0.37    8.56 
  -2   0  11    0.10    0.77 
  -3   0  -7  980.34   60.44 
   3   0   7  937.88   48.54 
  -3   0  -7 1000.99   78.05 
  -3   0  -7  744.42   44.44 
   2   0 -11    0.97    7.08 
   2   0 -11    0.38    1.59 
   3   0   7 1085.41   31.65 
  -2   0 -10   47.49   10.09 
   2   0  10   46.48    8.90 
  -2   0 -10   59.06   21.28 
  -1   1  12  266.32   18.36 
  -1  -1  12  290.22   16.88 
   1  -1 -12  273.58   18.90 
   1   1 -12  297.61   29.77 
  -1  -1  12  281.81   27.66 
  -1   1  12  278.06   26.87 
   1  -1 -12  287.03   25.79 
   1   1 -12  283.19   17.17 
   1   7  -4  172.73   21.70 
   1   7  -4  160.22   20.79 
  -1  -5   9   27.57    4.59 
   1  -5  -9   33.04    8.63 
   1  -5  -9   32.70    8.34 
  -1   5   9   34.20   15.79 
  -1   7   4  182.83   19.98 
   1   5  -9   31.15   12.09 
  -1   7   4  194.21   19.69 
  -1  -5   9   27.55    5.01 
   1  -7  -4  169.79   20.34 
   1   5  -9   30.20   11.27 
  -1  -7   4  175.53   16.23 
  -3   3   7    6.93   11.90 
   0  -7   5 1019.47   55.15 
   3   3  -7    6.34    2.03 
   3  -3  -7    7.57   12.55 
   0   7  -5  883.64   53.36 
   0   7   5  895.24   51.55 
   0   7  -5  979.86   58.66 
   0  -7  -5 1001.94   60.37 
  -3  -3   7    7.03    3.82 
  -3  -3   7    4.27    9.17 
   3   3  -7    8.01   11.49 
  -3   3   7    9.74   19.32 
   0   7   5  866.82   53.00 
   3   3  -7    6.60   12.03 
  -2   1  11  100.24    9.95 
   2  -1 -11   87.96   10.15 
   2  -1 -11   93.64   14.30 
  -3   1  -7  108.56   16.76 
   2   1 -11  107.24   28.13 
  -2  -1  11   99.35   17.85 
  -3   1  -7  101.76   14.20 
  -3  -1  -7   81.96   14.99 
   3   1   7   93.08   10.31 
  -3   1  -7   95.90    9.96 
  -3  -1  -7   99.67   13.16 
  -2   1  11   79.47   14.66 
  -3  -1  -7  100.38   12.27 
   3  -1   7   89.61   10.09 
   3   1   7  120.85   14.00 
  -2  -1 -10   10.98   11.28 
  -2   1 -10    7.01    8.53 
   2   1  10   10.26   15.05 
   2  -1  10   10.49   15.83 
  -2  -1 -10   11.55   18.04 
  -2   1 -10   11.19   15.77 
  -2   1 -10    9.09   15.37 
   3  -2  -8    4.42    8.84 
   3   2  -8    4.88    3.91 
   3  -2  -8    1.24    2.15 
   3  -2  -8    1.04    3.69 
   3   2  -8    4.22    8.22 
   3   2  -8    6.23    9.30 
  -3   2   8    1.25    2.15 
   3   2  -8    3.84    3.30 
   2  -3 -10   94.16   11.05 
  -2  -3  10  120.33   17.88 
  -2   3  10   71.92   10.06 
   2  -3 -10   95.67   13.69 
  -2   3  10   81.96   14.63 
   2   3 -10  107.85   14.86 
   2  -3   9   76.01    9.95 
  -2   3  -9   87.46   15.56 
  -2  -3  -9   69.60   12.96 
  -2   3  -9   79.15   13.32 
   2   3   9   74.59   12.47 
  -2   3  -9   76.56    9.10 
  -2  -3  -9   84.01   11.84 
   2   3   9   67.26    8.35 
   2   4  -9    0.25    4.25 
  -2  -4  -8   37.53   10.37 
   2   6  -5   28.13    5.50 
   2   6  -5   30.22    7.55 
  -2  -6   5   20.06    5.22 
   2  -4  -9    0.74    3.08 
   2  -4  -9    1.25    3.72 
  -2   4  -8   35.01    9.12 
   2  -6  -5   26.72    8.25 
  -2   6   5   20.35    7.42 
   2   4  -9    0.98    5.57 
  -2   4   9    0.80    3.38 
   2   4   8   46.80   13.00 
   2   6  -5   27.42    9.32 
  -2   6   5   20.95    6.31 
  -2  -6   5   34.16    6.51 
  -2  -4  -8   26.55    5.67 
  -2   4  -8   36.97    9.84 
  -2  -4  -8   31.96    5.85 
  -2   4  -8   39.63    5.95 
  -2   4  -8   40.33    7.64 
  -2  -6  -4   20.85    6.27 
  -2   6  -4   29.05    5.54 
   2  -6   4   23.40    7.84 
  -2   6  -4   29.04    9.02 
  -2  -6  -4   22.08    4.97 
  -2   6  -4   30.62    5.10 
   2   6   4   20.65   29.31 
  -2  -6  -4   22.53   14.98 
  -3  -4  -4  164.84    9.59 
   3   4   4  139.88   17.94 
  -3   4  -4  161.39   22.30 
  -3  -4  -4  158.77   19.12 
  -3   4  -4  148.88   23.75 
   0  -2  12  751.68   51.65 
   0   2  12  699.24   48.11 
   0   2 -12  663.17   44.67 
   0  -2  12  673.05   36.49 
   0  -2 -12  606.76   39.66 
   0  -2 -12  669.80   46.63 
   3  -5  -1  510.61   29.52 
  -3  -5   1  508.73   40.82 
   3  -5  -1  724.81   46.89 
  -3   5   1  534.16   41.29 
  -3   5   1  568.00   30.17 
   3   5  -1  566.78   43.24 
  -1   7  -4  844.30   54.01 
  -3   5   0  566.92   27.88 
   1  -7   4  752.57   47.84 
  -1  -7  -4  794.17   48.23 
  -1   7  -4  710.64   52.94 
   3   5   0  551.82   40.74 
  -3  -5   0  584.68   44.62 
   1   7   4  857.02   46.33 
   3  -5   0  590.47   41.41 
   1   7   4  843.67   52.88 
   3  -5   0  475.90   24.99 
  -3   5   0  484.72   34.91 
   1  -7   4  710.11   45.88 
  -1  -6  -7   33.73    8.84 
  -1   6  -7   57.64   23.53 
   1  -6   7   57.95   12.83 
  -1  -6  -7   33.00    7.36 
   1   6   7   34.38    9.97 
  -1   6  -7   52.96    9.12 
  -1   6  -7   45.67    7.53 
  -1  -4 -10   39.41    8.67 
  -1   4 -10   37.80   10.65 
   3  -5  -2  558.63   30.93 
  -1   4 -10   39.59    8.38 
  -3  -5   2  579.17   36.85 
  -3   5   2  556.06   40.01 
   3   5  -2  570.94   26.55 
  -1  -4 -10   30.82    8.42 
   1   4  10   40.28   21.79 
   3  -5  -2  773.70   49.26 
  -1   4 -10   40.80    7.43 
   3   5  -2  584.86   44.21 
  -3  -5   2  604.58   27.39 
   1  -4  10   38.89    8.06 
  -3   5   2  666.95   35.74 
   0   6  -8    3.69    5.87 
   0  -6  -8    6.81   11.75 
   0  -6   8    8.61    9.86 
   0   6   8    3.45    5.71 
   0   6  -8    8.81   11.12 
   0  -6   8    4.23    7.53 
   3   0  -9   74.77    8.19 
   3   0  -9   82.60    8.46 
  -3   0   9   77.30   15.72 
   3   0  -9   82.81   12.69 
   3  -5   1   53.73   11.88 
   3  -5   1   52.62    4.36 
   3   5   1   49.73   11.80 
  -3  -5  -1   68.84   11.41 
  -3   5  -1   58.61   15.33 
  -1  -2  12  107.19    7.75 
   1  -2 -12  101.19   11.88 
  -1   2  12  102.43   11.08 
   1   2 -12  105.42    8.22 
  -1  -2  12  129.33   18.50 
   1  -2 -12   98.72   14.33 
   1   2 -12   97.99   15.17 
  -1   2  12  107.27   16.74 
  -3   3  -6   38.12   11.03 
  -3   3  -6   39.09    9.35 
  -3  -3  -6   42.13    6.45 
  -3  -3  -6   43.87   10.90 
   3   3   6   37.75    4.94 
   3   3   6   39.24    9.20 
  -3  -4   6   75.47    8.83 
   3   4  -6   82.28   10.32 
  -3   4   6   70.90   12.20 
  -3   4   6   73.73   11.70 
  -3  -4   6   86.20    9.29 
   3   4  -6   71.01    7.59 
   3   4  -6   55.77   12.64 
   3  -4  -6   71.28   11.88 
  -1  -3 -11  596.28   46.69 
  -1   3 -11  525.16   47.22 
   1  -3  11  557.23   36.52 
  -1   3 -11  544.53   36.51 
   1   3  11  610.47   42.35 
  -1  -3 -11  538.29   41.92 
  -3   5   3  438.70   33.21 
   3   5  -3  468.30   24.53 
   3   5  -3  374.66   24.49 
  -1  -7   5   19.36    6.21 
   3   5  -3  530.57   41.90 
  -3   5   3  441.93   36.89 
   3  -5  -3  462.96   28.12 
   4   0  -1    0.62    1.05 
  -4   0   1    0.90    2.92 
  -3  -5   3  470.23   30.69 
  -3  -5   3  437.79   22.92 
  -1   0 -12    0.46    2.71 
   3  -5  -3  424.64   36.57 
  -1   0 -12   -0.50    5.65 
   1   7  -5   22.48   25.97 
   1  -7  -5   14.90   18.18 
   1   0  12    0.85    4.26 
   4   0  -1    0.12    1.21 
   1   7  -5   17.82   23.76 
  -1   7   5   16.66   21.18 
   4   0  -1    0.12    3.06 
  -1   7   5   16.37   20.89 
  -4   0   1    0.65    2.03 
  -3   2  -7  173.86   23.53 
  -1   5  -9   33.53   13.00 
  -2   2  11  183.14   15.41 
   3   2   7  216.89   15.35 
   2   2 -11  158.64   23.63 
   2  -2 -11  164.49   15.30 
   1   5   9   34.21   10.13 
   3   1  -9  142.26   11.20 
  -1   5  -9   46.66    8.02 
  -1   5  -9   45.87    8.75 
  -1  -5  -9   39.69   10.57 
  -3  -2  -7  199.24   20.15 
   1  -5   9   33.69    8.23 
  -2   2  11  150.74   20.06 
  -3  -1   9  133.94   19.16 
  -1  -5  -9   47.31   15.53 
   3  -1  -9  124.82   13.02 
  -2  -2  11  151.17   20.69 
   2  -2 -11  165.43   19.11 
  -3   2  -7  192.97   21.43 
  -3  -2  -7  125.89   19.66 
   3   1  -9  136.93    9.68 
   3  -2   7  234.41   14.71 
   3   2   7  236.66   21.42 
  -3   2  -7  214.51   14.10 
   3  -1  -9  132.62   12.72 
  -3   1   9  137.33   18.24 
   3   1  -9  146.44   15.97 
   3  -1  -9  143.38   19.00 
  -2  -2 -10  124.48   17.26 
  -2   2 -10  115.02   15.68 
   2  -2  10  136.35   14.05 
  -2  -2 -10  145.44   20.37 
   2   2  10  138.31   16.72 
  -2   2 -10  150.91   20.16 
  -2   2 -10  112.29   12.29 
  -4   0   0 1846.80   41.08 
  -4   0   0 2000.96   61.16 
   4   0   0 1705.39   71.12 
   4   0  -2  408.48   27.85 
  -4   0   2  496.57   29.94 
  -4   0   2  480.40   34.35 
   4   0  -2  434.32   29.79 
   4   0   0 1917.12   48.24 
   4   0   0 1872.29   45.29 
   4   0  -2  446.22   28.92 
   2   5  -8   38.96    5.63 
  -2  -5   8   42.00    5.36 
   2  -5  -8   39.60   13.68 
  -2   5   8   39.61    9.62 
  -2   5   8   33.65    9.13 
   2   5  -8   34.70    8.98 
   2   5  -8   41.83   11.21 
  -2  -5  -7  370.06   23.39 
  -2  -5  -7  387.31   31.08 
  -2   5  -7  335.88   22.23 
  -2  -5  -7  387.33   24.74 
   2   5   7  352.77   29.72 
  -2   5  -7  379.61   33.61 
  -2   5  -7  315.62   19.77 
   0  -4 -11  358.93   27.63 
   0   4  11  426.74   34.54 
   0  -4  11  408.45   26.35 
   0   4 -11  367.12   32.49 
   1  -1  12  412.50   44.19 
   0  -4  11  339.54   22.10 
   0  -4 -11  401.74   31.03 
  -1   1 -12  370.41   28.54 
  -1  -1 -12  501.60   36.79 
   1   1  12  409.51   33.72 
   0  -4  11  384.45   31.93 
  -1  -1 -12  516.04   35.62 
  -1   1 -12  412.00   36.09 
   4  -1  -1  345.63   31.01 
  -4   1   1  315.74   23.20 
   4   1  -1  368.69   27.78 
  -4   1   1  289.43   26.81 
   3  -5   2   15.19    6.87 
   3   5   2   19.82   23.51 
  -4  -1   1  316.53   18.61 
   4  -1  -1  271.81   18.65 
  -3  -5  -2   19.21    8.99 
  -3   5  -2   20.73   25.03 
   4  -1  -1  229.95   19.58 
   4   1  -1  303.75   19.23 
   4   1  -1  280.41   25.92 
  -4  -1   1  299.54   26.90 
   0   7   6  529.44   45.90 
   0   7  -6  486.73   37.53 
   0   7  -6  504.18   41.09 
   0  -7   6  615.42   39.24 
   0  -7  -6  550.84   41.78 
   0   7   6  473.36   35.99 
   4  -1   0  155.25   12.87 
   4   1  -2  160.34   12.12 
   4   1   0  136.49   12.54 
   4  -1  -2  131.76   14.42 
   4   1   0  147.95   17.44 
  -4  -1   0  169.12   19.51 
   1  -6  -8  595.76   42.58 
  -4   1   0  176.40   16.59 
   4   1  -2  175.10   19.83 
  -4  -1   2  153.42   26.18 
   4   1  -2  146.38   12.17 
   4  -1  -2  159.20   15.50 
   1   6  -8  615.49   49.03 
  -4  -1   0  165.09   11.91 
  -1   6   8  631.95   41.83 
  -1  -6   8  578.31   40.03 
   4  -1  -2  148.30   13.31 
  -4   1   2  174.68   20.35 
  -1  -6   8  653.53   35.89 
  -4   1   2  184.14   17.38 
  -4   1   0  140.37   21.27 
   4  -1   0  144.94   14.38 
   4   1   0  173.03   19.50 
   4  -1   0  157.71   14.06 
   1   6  -8  650.10   46.27 
  -1   6   8  625.19   44.59 
   2  -6  -6   36.89    9.30 
   2   6  -6   28.78    5.69 
  -2   6   6   23.26    8.30 
  -2  -6   6   29.84    9.88 
   2   6  -6   29.72   10.51 
  -2   6   6   42.54   19.68 
   2   6  -6   26.91    6.86 
  -2  -6  -5    1.68    5.23 
   4   0   1    0.38    2.30 
   4   0   1    0.87    2.57 
   4   0  -3    0.58    2.33 
  -4   0  -1    0.00    1.38 
  -2  -6  -5    1.23    2.11 
  -4   0   3    0.09    2.01 
  -2   6  -5    1.62    7.20 
  -2   6  -5    0.56    1.81 
   4   0  -3    0.38    2.23 
  -4   0   3    0.25    1.11 
  -2  -6  -5    0.76    1.21 
  -2   6  -5    0.89    1.67 
   2  -6   5    2.69    3.94 
   2   6   5    1.18    5.37 
  -4   0  -1    0.37    2.74 
   4   0  -3    0.24    3.27 
  -3  -4  -5  421.69   22.26 
  -3  -4  -5  331.31   20.18 
  -3   4  -5  369.80   30.89 
  -3   4  -5  363.32   32.17 
  -3  -4  -5  329.39   33.65 
   3   4   5  386.55   30.68 
   0  -5  10    8.01   11.44 
   0   5  10   18.83   21.53 
   0   5 -10    7.63   10.49 
   0  -5 -10   16.00   20.39 
   0  -5  10    7.55   11.85 
   0  -5 -10   15.75   18.22 
   0   5 -10    8.67   11.81 
   1   7   5   12.26   13.74 
  -1   7  -5   18.20   24.68 
  -1  -7  -5   13.17   14.25 
   1  -7   5   13.55    4.68 
   1  -7   5   22.18   16.36 
   1   7   5   12.89    5.51 
  -1   7  -5   15.93    6.03 
   3  -5  -4  182.95   20.13 
  -3  -5   4  149.37   20.15 
  -3   5   4  162.61   15.89 
   3   5  -4  164.96   14.59 
   3   5  -4  157.64   13.08 
  -3  -5   4  172.93   12.23 
   3   5  -4  163.28   22.57 
  -3   5   4  202.78   22.14 
   3  -5  -4  146.22   15.56 
   3   3  -8    9.87   12.34 
   3   3  -8   10.50   15.85 
  -3  -3   8    9.08    4.09 
   3  -3  -8    5.92    8.38 
  -3   3   8    5.99    7.64 
   3   3  -8    8.43    3.38 
   0  -8   0  289.47   26.25 
   0   8   0  248.73   28.91 
   0   8   0  289.50   26.00 
  -4   1   3   59.10   11.04 
  -4  -1  -1   51.70   10.97 
   4  -1  -3   65.08    9.66 
  -4  -1   3   50.83   10.27 
   4   1   1   42.36    8.13 
   4   1  -3   45.01    6.51 
   4   1  -3   46.28    6.03 
  -4   1   3   67.17   10.15 
   4  -1   1   66.11    8.31 
   4  -1   1   71.61    8.08 
  -3   0  -8    0.11    2.62 
   4  -1  -3   57.97    8.93 
   4  -1  -3   70.43   11.15 
  -4   1  -1   60.34   12.87 
   4   1  -3   59.05   11.41 
  -4   1  -1   65.08    9.48 
  -3   0  -8   -0.88    8.39 
   4  -1   1   58.97    9.72 
   4   1   1   45.67    5.99 
  -4  -1  -1   48.48    6.12 
  -3   0  -8    1.17    5.04 
   3   0   8    0.42    2.17 
  -4  -1  -1   38.76    7.33 
   1  -4 -11   39.82    8.25 
  -1  -4  11   49.33    4.91 
   1   4 -11   48.59   11.67 
  -1   4  11   49.47   13.32 
  -1  -4  11   55.11    5.24 
  -1  -4  11   48.89   10.92 
   1  -4 -11   48.24   10.68 
   0  -3  12    4.50    5.65 
   0  -3 -12    7.41    9.84 
   0  -3 -12    6.68    9.20 
   0  -3  12    7.16   11.29 
   0   3  12    9.06   12.83 
   0   3 -12    4.60    8.12 
   0   3 -12    5.73    8.57 
   0   8   1  173.95   19.20 
   0  -8  -1  175.93   19.79 
   0  -8   1  159.06   18.05 
   0   8  -1  199.33   22.37 
   0   8   1  119.01   16.76 
   0   8  -1  180.45   36.01 
   2  -7  -1    5.19    8.50 
  -2   7   0    1.03    2.02 
  -2   7   1    8.26    9.31 
   2   7   0    0.15    1.46 
   2   7  -1    5.69    7.86 
  -2   7   0    0.05    2.49 
   2  -7   0    1.13    4.21 
   2  -7  -1    7.45   11.39 
   2   7   0    0.94    7.99 
  -2  -7   0   -0.29    4.11 
   2  -7   0    0.21    2.40 
  -2  -7   1    4.02    6.57 
   2   7  -1    4.65    7.04 
  -2  -7   1    6.36    9.71 
  -2   7   1    6.10   10.48 
   3  -2  -9  704.25   39.78 
   3  -2  -9  381.60   27.92 
   3   2  -9  540.01   24.03 
   3  -2  -9  600.17   38.14 
   3   2  -9  539.56   23.79 
   3   2  -9  520.34   33.49 
  -3   2   9  526.59   38.31 
  -3  -2   9  463.10   51.96 
   0   0 -13    0.37    2.79 
   0   0 -13   -1.80   16.47 
   0   0  13    0.95    5.56 
   4   0  -4  172.74   16.45 
   0   0  13    0.43    1.96 
  -4   0   4  218.79   21.78 
   4   0  -4  185.75   18.95 
   4   0  -4  159.99   17.93 
   4   0   2   25.52   17.14 
  -4   0  -2   20.13    8.03 
  -4   0  -2   25.65    5.56 
  -4   0  -2   28.68    6.95 
   4   0   2   28.52    5.91 
   3   5   3   34.09    9.76 
  -3   5  -3   35.67   11.24 
  -3   1  -8   70.37   14.46 
   3  -5   3   40.88   11.66 
  -3  -1  -8   52.74   12.47 
  -3  -5  -3   31.68    9.58 
   3   1   8   40.78    9.34 
  -3  -1  -8   40.38    8.21 
   3  -1   8   67.21    8.42 
  -3  -1  -8   43.09    8.75 
  -3   1  -8   58.79   11.21 
  -3   1  -8   62.28    8.48 
   3   1   8   55.25   14.53 
   2   7   1   52.48   12.19 
   2  -7   1   42.50   10.29 
  -2  -7   2   43.61    8.63 
   2   7  -2   49.30   45.72 
  -2  -7  -1   44.92    9.80 
   2  -7  -2   49.52    8.92 
  -2  -7  -1   40.73    6.41 
  -2  -7   2   39.84    6.82 
  -2   7   2   77.68   11.09 
  -2   7  -1   48.45    7.96 
   2  -7  -2   58.55   12.88 
   2  -7   1   49.45    7.98 
   2   7  -2   43.16    7.17 
  -2   7  -1   46.00   11.08 
   2   7   1   48.21    6.85 
  -2   7   2   60.14   17.11 
   1  -5 -10   15.64    6.05 
  -1  -5  10   15.88    3.75 
   1  -5 -10   15.31   10.70 
   1   5 -10   14.23    7.09 
  -1  -5  10   18.22    5.05 
  -1   5  10   16.02   21.01 
   1   5 -10   18.42   20.83 
  -1   2 -12    3.45    5.59 
  -4   2   1    0.80    4.65 
   4   2  -1    2.24    3.08 
  -4   2   1    0.26    3.24 
   4   2  -1    2.61    1.88 
   1  -2  12    3.30    4.90 
  -1   2 -12    2.88    5.47 
  -1  -2 -12    0.53    3.97 
  -1  -2 -12    5.04    6.29 
   1   2  12    1.30    2.94 
   4  -2  -1    0.34    1.99 
   4  -2  -1    0.15    1.87 
  -4  -2   1    1.84    6.70 
   4   2  -1    2.36    4.90 
   0  -8  -2  835.04   50.74 
   0  -8   2  810.29   48.33 
   1  -7  -6   25.01    8.23 
  -1   7   6   26.40   20.38 
   0   8  -2  780.20   50.17 
   1   7  -6   18.42    8.78 
   1   7  -6   18.60    8.61 
  -1   7   6   20.02    7.47 
   1   7  -6   26.64   27.13 
  -1  -7   6   22.89    6.50 
   0   8   2  804.20   49.13 
   0   8  -2 1069.50   62.07 
   0   8   2  731.50   46.74 
   3   4  -7  127.08   14.75 
   3   4  -7  156.87   11.12 
  -3  -4   7  172.85   13.17 
  -3  -4   7  166.28   14.78 
  -3   4   7  137.57   16.72 
  -3   4   7  144.59   17.43 
   3  -4  -7  180.89   18.85 
   3   4  -7  161.04   23.90 
   4   2  -2 1087.45   20.50 
   1   3 -12  183.47   22.55 
  -4   2   2 1064.60   58.18 
  -4  -2   2 1045.87   62.11 
  -1   3  12  192.65   23.68 
   4  -2  -2  863.00   45.04 
  -1  -3  12  162.42   10.26 
  -1  -3  12  168.93   10.80 
  -4   2   2 1112.19   49.51 
   1  -3 -12  169.58   15.98 
   1  -3 -12  175.77   19.77 
   4   2  -2 1344.13   48.86 
   4   2  -2 1150.36   25.46 
   4  -2  -2 1096.65   31.77 
  -1  -3  12  181.87   21.92 
  -4  -2   0    5.11    7.58 
  -4   2   0    3.03    5.36 
   0   1  13  102.17   16.08 
   4  -2   0    5.23    6.52 
  -4   2   0    3.96    6.64 
   0  -1 -13   97.72   15.68 
   0   1 -13  105.48   22.54 
   4   2   0    2.62    2.15 
   4  -2   0    3.04    4.47 
   0  -1  13  106.44   11.51 
   4   2   0    3.41    5.80 
   4   2   0    2.60    1.78 
   0  -1  13  123.19   17.76 
   0   1 -13  113.30   12.47 
   0  -1 -13  107.90   22.60 
   4   1   2    2.91    4.36 
   4   1  -4   44.18    6.21 
   4  -1  -4   48.46    9.82 
  -4   1   4   44.19    8.54 
  -4   1  -2    4.03    6.35 
   4  -1   2    3.92    6.89 
   4   1  -4   43.05   11.54 
   4   1   2    2.67    5.61 
   4  -1   2    3.15    4.98 
   4   1  -4   33.36    5.75 
   4  -1   2    4.77    3.46 
   4  -1  -4   37.31    7.10 
  -4   1  -2    5.52   10.61 
  -4  -1  -2    3.17    5.17 
  -4   1   4   41.87    9.85 
  -4  -1  -2    4.24    7.74 
  -4  -1   4   32.69    7.65 
  -4  -1  -2    2.03    3.18 
  -1   6  -8    0.66    1.66 
   2  -4 -10   25.93    6.44 
   1   6   8    2.63    3.28 
   2  -4 -10   25.39    7.88 
   1  -6   8    1.21    2.50 
  -1   6  -8    0.81    1.31 
   2   4 -10   20.51    8.69 
  -1  -6  -8    1.23    5.09 
  -1  -6  -8    0.90    3.22 
  -2   4  10   20.20    8.38 
  -1   6  -8    2.36    3.78 
   2   4 -10   24.15    8.76 
  -2  -4  -9   42.97   11.75 
  -2   4  -9   44.46   20.65 
   2   4   9   39.05    9.71 
   2  -4   9   39.69    7.00 
  -2   4  -9   42.84   11.27 
  -2  -4  -9   38.76    7.78 
  -2   4  -9   30.90    5.98 
   2   0 -12  285.37   15.93 
  -2   0  12  315.72   17.60 
  -2   0  12  321.02   30.54 
   2   0 -12  295.06   26.85 
  -2   0 -11    1.69    5.63 
   2   0  11    0.55    4.15 
  -2   0 -11    0.76    3.78 
  -1   0  13  180.78   13.77 
  -1   0  13  186.76   23.19 
   1   0 -13  162.12   21.32 
   1   0 -13  167.71   13.36 
  -3  -5   5   84.12   10.70 
   3   5  -5   75.87   10.25 
   3  -5  -5   40.34    6.95 
   3   5  -5   70.47    8.82 
  -3  -5   5   66.11    7.82 
  -3   5   5   73.81   14.42 
  -3   5   5   56.56    9.69 
   3  -5  -5   61.83   12.01 
   3   5  -5   77.39   36.85 
  -2   3  11   12.13    4.54 
   2  -3 -11   19.75   21.85 
  -3   3  -7  176.89   10.31 
   2  -3 -11   14.43    4.85 
   2   3 -11   12.51   14.71 
  -3  -3  -7  189.08   22.66 
   3   3   7  181.54   19.10 
  -3   3  -7  187.48   24.01 
   3   3   7  153.79   11.56 
  -3   3  -7  167.64   20.04 
  -2  -3  11   16.73   21.20 
  -2   3  11   13.23   18.51 
   3  -3   7  172.73   10.18 
  -3  -3  -7  173.74   15.38 
  -2  -3 -10  145.68   16.16 
  -2   7  -2  299.73   21.07 
   2  -7  -3  550.42   39.61 
  -2   3 -10  166.83   29.96 
   2   7   2  192.84   22.65 
   2   7   2  249.87   19.03 
  -2  -7   3  522.49   31.08 
   2  -7   2  255.31   27.85 
  -2   3 -10  111.47   11.83 
  -2   3 -10  161.62   20.96 
  -2  -3 -10  168.16   21.17 
   2   7  -3  541.80   34.01 
  -2   7   3  619.56   44.08 
  -2  -7  -2  227.91   21.73 
   2   3  10  143.96   17.56 
  -2   7   3  528.36   34.41 
   2  -7   2  261.03   19.71 
   2  -3  10  162.58   16.21 
  -2  -7  -2  213.86   16.84 
  -2   7  -2  255.65   27.01 
  -2  -7   3  544.24   34.28 
   2   7  -3  525.56   43.99 
   4  -2   1   86.83    9.10 
   4   2  -3    4.82    7.67 
  -4   2   3    6.50    9.61 
  -4  -2  -1   75.55   14.04 
   4  -2  -3    7.81   13.00 
  -4  -2   3    2.47    3.90 
  -4   2  -1   85.96   17.33 
  -4   2   3    9.28    9.03 
   4   2  -3    1.92    4.34 
   4  -2  -3    5.96   10.56 
   4   2  -3    2.60    4.02 
   4   2   1  100.62   14.44 
   4  -2   1   83.98    7.10 
  -4   2  -1   86.57   12.67 
   4   2   1   79.11    5.43 
   0   6  -9  119.60   17.13 
   0  -6   9  133.33   14.64 
   0  -6  -9  103.51   14.70 
   0   6   9  120.07   18.87 
   0  -6   9  110.52   12.38 
   0   6  -9  126.95   18.18 
   0  -6  -9  136.93   16.60 
  -2   1  12  139.25   11.91 
  -2  -1  12  137.49   22.07 
   2  -1 -12  146.27   18.09 
   2  -1 -12  146.11   13.97 
   2   1 -12  149.59   18.87 
  -2   1  12  152.83   19.47 
   2  -1  11  155.60   16.87 
  -2   1 -11  144.10   18.46 
  -2  -1 -11  136.10   17.64 
  -2   1 -11  137.22   18.28 
   2   1  11  126.26   15.69 
  -2  -1 -11  120.44   16.64 
   1  -1 -13   29.32   14.43 
   1  -1 -13   25.08    8.87 
  -1   1  13   27.67   33.22 
   1   1 -13   25.99    5.06 
   1   1 -13   29.29    9.39 
  -1  -1  13   28.18   10.31 
  -1   1  13   26.86    5.00 
  -1  -1  13   30.03    4.21 
   3   0 -10   -0.03    1.05 
  -3   0  10    0.21    5.35 
   3   0 -10    0.10    0.79 
   3   0 -10    2.06    4.37 
   0   8   3   43.89    9.65 
   0   8  -3   36.12   11.94 
   0  -8   3   35.74    8.78 
   0  -8  -3   40.44   10.33 
   0   8  -3   39.24    9.76 
   0   8   3   37.95   10.33 
  -2   6  -6   56.73    7.13 
   2   6  -7   41.65    6.48 
   2  -6  -7   29.45    8.38 
   4   0  -5    1.20    2.41 
  -2   6  -6   53.08    7.56 
   4   0  -5    0.24    2.35 
  -2  -6  -6   50.18   12.64 
  -4   0   5    0.77    4.05 
   2   6   6   65.19   12.85 
   4   0  -5    0.36    1.20 
  -2  -6  -6   59.74    8.84 
  -2   6  -6   60.23   13.95 
  -2  -6  -6   56.37   11.07 
  -2   6   7   39.48   10.00 
   2  -6   6   52.17   10.84 
  -2   6   7   36.57    8.93 
  -2  -6   7   45.24    6.53 
   2   6  -7   31.65    7.94 
   2   6  -7   37.56   11.77 
   4   0   3    0.23    1.56 
  -4   0  -3    0.37    2.39 
   4   0   3    0.37    1.81 
  -4   0  -3    1.22    5.08 
  -4   0  -3   -0.04    1.74 
   0   7   7 1567.47   46.70 
   0   7  -7 1378.31   54.02 
   0   7  -7 1449.99   56.63 
   0   7   7 1668.84   60.89 
   0  -7  -7 1360.64   49.18 
   0  -7   7 1569.15   49.13 
   1  -7   6  257.32   23.64 
   1   7   6  234.76   28.23 
  -1  -8   0   66.20   11.60 
  -1   8   0   78.43   15.30 
   1   8   0   55.08   11.73 
   1  -8   0   91.42   15.22 
  -1   7  -6  276.73   24.06 
  -1  -7  -6  261.48   34.10 
  -1   7  -6  254.77   33.89 
   1   8   0   51.75   14.94 
  -1   8   0   75.06   12.76 
   1   7   6  270.33   21.82 
  -1   8   1  323.77   26.61 
  -1  -8   1  266.08   25.27 
   1  -8  -1  247.16   25.20 
  -3  -2  -8    7.93   10.24 
   3   2   8    6.41   12.01 
  -3   2  -8    9.01   14.16 
   3   2   8    7.70    9.24 
  -3   2  -8    6.78   13.69 
  -1   8   1  298.29   33.13 
   1   8  -1  234.78   25.84 
  -3  -2  -8    9.62   14.13 
   3  -2   8    8.31    7.31 
   1   8  -1  279.45   23.94 
  -3   2  -8    6.14    5.15 
  -2  -5   9  263.60   14.76 
   2   5  -9  273.76   28.90 
  -2   5   9  263.69   26.74 
   2  -5  -9  247.45   22.62 
  -2  -5   9  232.58   17.18 
   2   5  -9  272.25   24.15 
  -2   5   9  256.15   25.74 
  -3  -4  -6   40.89    5.14 
  -2   5  -8  234.88   24.76 
  -3  -4  -6   40.87    6.17 
  -2  -5  -8  182.72   21.16 
  -2  -5  -8  170.55   15.07 
   3   4   6   40.68   11.14 
  -3   4  -6   40.56   13.04 
  -2  -5  -8  176.30   17.37 
  -2   5  -8  236.10   17.77 
  -3   4  -6   35.21   10.91 
  -2   5  -8  208.27   24.84 
  -2   5  -8  217.67   16.51 
   2   5   8  170.70   20.38 
  -3  -4  -6   49.85   12.56 
  -3   5  -4   91.95   15.99 
  -3  -5  -4   77.87    6.91 
  -3  -5  -4   80.55    7.19 
   3  -5   4   75.69   15.16 
  -3  -5  -4   85.04   24.24 
   3   5   4   76.92   14.90 
   3   1 -10  106.02    6.92 
  -3   1  10  100.80   16.79 
   3   1 -10  120.95   15.87 
   1  -8   1   72.85   14.58 
  -1   8  -1   58.84   12.12 
   3  -1 -10   83.03    9.94 
   3   1 -10   96.95    6.76 
  -3  -1  10  117.19   18.76 
   1   8   1   58.49   28.27 
  -1  -8  -1   56.13   11.40 
   1   8   1   55.29   10.85 
   3  -1 -10  107.11   11.17 
   3  -1 -10  108.66   14.75 
  -1   8  -1   43.81    9.34 
  -1   4 -11   46.53    9.60 
  -1  -4 -11   48.64   15.81 
   1  -4  11   52.07   10.84 
  -1   4 -11   49.92   12.65 
   1   4  11   48.43   11.41 
  -1  -4 -11   42.47   16.48 
  -4  -1   5   70.36   10.64 
   4   1  -5   70.32    9.22 
   4   1  -5   82.67   14.06 
   4   1  -5   78.47   13.73 
   4  -1  -5   89.23   13.47 
   4   1  -5   64.02    9.35 
  -4   1   5   75.61   12.26 
  -4   1   5  102.93   13.28 
   4   1   3  899.68   48.88 
  -4   1  -3 1080.30   65.17 
   4  -1   3  867.23   43.54 
  -4  -1  -3  988.89   52.25 
  -4  -1  -3  891.10   47.40 
   4   1   3  767.00   39.19 
   4  -1   3  693.31   47.78 
   4  -1   3  822.35   39.30 
  -4   1  -3  860.46   55.69 
  -4  -1  -3  903.36   57.15 
   0  -2  13   33.79   36.81 
   0   2  13   36.56   10.88 
   0   2 -13   34.32   21.48 
   0  -2 -13   38.81   11.44 
   0   2 -13   29.28    6.60 
   0  -2  13   29.11    6.10 
   0  -2 -13   40.88    9.74 
  -4   2  -2   19.20   12.75 
  -4   2  -2   17.43    9.80 
   4   2   2   13.41    2.70 
  -4  -2  -2   13.09    2.52 
   4   2  -4 1599.88   39.47 
   4  -2  -4 1673.41   51.39 
   4   2  -4 1813.20   40.33 
  -4   2   4 1541.21   49.01 
   4   2  -4 2078.95   69.30 
   4  -2   2   16.12    2.47 
  -4   2   4 1672.35   47.89 
  -4  -2   4 1940.88   52.98 
   4  -2  -4 1560.39   73.05 
   4  -2   2   19.21    3.05 
  -4  -2  -2   11.77   18.54 
   4   2   2   11.52   14.74 
   1  -8  -2   49.88   11.46 
  -1  -8   2   35.01    8.12 
  -1   8   2   35.37    8.55 
   1   8  -2   41.53    9.59 
  -1   8   2   47.15   11.80 
   1   8  -2   49.00   20.15 
  -2   7   4    0.42    2.38 
  -2   7  -3  193.81   15.88 
   2  -7   3  154.08   14.04 
  -2  -7  -3  163.88   14.60 
   2   7  -4    1.95    6.79 
  -2   7  -3  190.27   23.12 
   2  -7   3  186.63   21.02 
  -2  -7  -3  187.62   20.05 
   2   7   3  172.15   22.65 
   2  -7  -4    0.59    4.11 
  -2   7   4    0.53    5.33 
   2   7  -4    0.67    3.77 
  -2  -7   4    0.27    2.52 
   2   7   3  183.24   14.57 
  -2  -7   4    0.23    2.80 
  -1  -5 -10   92.91   13.06 
  -1   5 -10  101.08   17.14 
  -1   5 -10  100.52   13.56 
  -1  -5 -10  125.22   17.13 
   1  -5  10   99.37   14.19 
   1   5  10  122.28   18.30 
   1   6  -9  565.82   43.28 
  -1   6   9  594.26   42.25 
  -1  -6   9  659.01   37.40 
   1  -6  -9  675.71   48.35 
   1   6  -9  533.69   49.72 
  -1  -6   9  496.81   34.01 
  -1   6   9  614.62   44.82 
   3   3  -9  175.76    9.18 
   3  -3  -9  207.41   19.37 
  -3   3   9  188.38   31.01 
   3  -3  -9  190.28   20.33 
   3   3  -9  191.33    9.83 
   3   3  -9  172.61   18.02 
   3   3  -9  178.36   24.36 
   1  -8   2  351.88   31.21 
  -1   8  -2  280.94   27.91 
  -1   8  -2  247.54   23.78 
  -1  -8  -2  357.19   30.35 
   1   8   2  304.66   25.38 
   1   8   2  283.29   28.24 
   2  -2 -12   89.12   10.44 
   0   8   4    5.12    8.30 
  -2   2  12   72.00    9.53 
   0   8  -4    5.37   12.98 
   0   8   4    3.51    5.31 
  -3  -5   6  190.39   16.03 
  -2  -2  12   81.24   16.00 
   0  -8   4    2.40    3.13 
   2  -2 -12   78.04   13.28 
   2   2 -12   66.53   13.13 
  -2   2  12   75.03   15.22 
   0  -8  -4    4.07    8.44 
   0   8  -4    2.00    4.87 
   3   5  -6  174.55   14.53 
   3  -5  -6  148.84   18.62 
   3   5  -6  179.17   16.52 
  -3   5   6  189.62   20.60 
  -3   5   6  181.90   30.22 
   3   5  -6  145.46   21.64 
  -3  -5   6  167.06   14.50 
  -2   2 -11  244.83   21.10 
  -2  -2 -11  328.62   27.97 
  -2  -2 -11  297.83   38.54 
   2   2  11  316.97   28.55 
  -2   2 -11  346.01   31.83 
   2  -2  11  314.89   24.43 
  -2   2 -11  366.05   34.00 
   1   2 -13  125.91   18.20 
   1  -2 -13  124.11   13.72 
  -1   2  13  142.02   20.27 
  -1   2  13  120.59   13.06 
   1  -2 -13  114.62   18.53 
  -1  -2  13  130.82   20.41 
   1   2 -13  133.00   10.37 
  -1  -2  13  133.95   11.44 
  -1   7   7   18.98    9.46 
   1   7  -7   29.31   10.72 
   1  -7  -7   29.28   29.75 
  -1  -7   7   29.64    6.79 
   1   7  -7   34.83   34.48 
  -1   7   7   26.66   14.71 
   1   7  -7   27.82    7.34 
   4  -3  -1    1.36    1.58 
  -1   3 -12    2.78    4.51 
   4  -3  -1    1.08    2.17 
  -4  -3   1    1.23    2.49 
  -4   3   1    1.51    2.78 
  -1  -3 -12    3.38    5.92 
  -1   3 -12    3.74    7.88 
   1   3  12    4.59    5.87 
  -1  -3 -12    5.30    9.06 
   4   3  -1    1.10    5.21 
  -4   3   1    1.65    3.01 
   1  -3  12    3.68    5.96 
   3  -6  -1  259.25   25.97 
   3   6  -1  214.94   32.34 
   3   6  -1  275.39   15.54 
  -3   6   1  272.48   27.34 
  -3  -6   1  256.59   23.03 
  -3   6   1  262.12   18.97 
  -3  -6   1  297.31   16.61 
   3  -6  -1  247.68   20.17 
  -1  -8   3   33.08    8.51 
  -1   8   3   35.89    9.64 
   1  -8  -3   40.07    9.62 
  -1   8   3   29.80    8.15 
   1   8  -3   33.49   38.74 
   1   8  -3   30.80    8.92 
   3   4  -8   12.24   21.49 
   3  -4  -8   15.81   15.39 
  -3  -4   8   12.65    5.89 
   3   4  -8   17.35   18.56 
   3   4  -8   10.27    2.27 
  -3   4   8   13.61   17.96 
  -3   4   8   14.39   22.71 
  -3  -6   0  261.87   23.82 
   3  -6   0  196.23   21.93 
  -3  -6   0  260.45   13.92 
   3  -6   0  275.64   21.00 
   3   6   0  264.00   28.93 
  -3   6   0  274.88   27.98 
  -3   6   0  324.44   20.61 
   3   6   0  317.48   16.53 
   4  -3  -2  149.78   14.11 
   4  -3  -2  120.41   16.72 
  -4   3   2  129.99   17.27 
  -4   3   0  287.31   30.41 
  -4  -3   2  128.64   16.71 
   4   3   0  245.97   24.25 
  -4  -3   0  241.51   24.86 
   4   3  -2  123.27   18.38 
   4   3  -2  107.63    6.28 
  -4   3   0  259.25   23.88 
   4   3  -2  123.39    7.55 
   4  -3  -2  140.54   12.21 
   4  -3   0  295.41   16.94 
   4  -3   0  252.47   15.66 
  -4   0   6  429.61   31.50 
   4   0  -6  493.37   37.63 
   4   0  -6  335.48   28.49 
   4   0  -6  422.61   28.04 
  -3   0  -9  294.95   26.85 
  -4   0  -4    5.00    7.77 
  -3   0  -9  294.82   22.64 
   3   0   9  371.85   26.79 
  -4   0  -4    6.86   10.35 
   4   0   4    3.68    7.25 
  -3   0  -9  321.39   32.40 
   4   0   4    5.70   10.80 
  -4   0  -4    5.84    6.54 
  -3   6   2    2.76    5.74 
   3   6  -2    2.46    5.18 
   3  -6  -2    4.86    4.93 
   3  -6  -2    3.08    6.31 
  -3  -6   2    3.42    4.43 
   3   6  -2    2.81    5.01 
  -3   6   2    5.10    9.68 
  -3  -6   2    3.12    6.01 
  -1   0 -13  331.36   31.99 
   1   0  13  344.23   38.48 
  -1   0 -13  306.37   30.86 
   0  -4  12  714.92   41.06 
   0  -4 -12  892.55   60.35 
   0  -4 -12 1084.05   67.59 
   0   4  12  940.62   62.50 
   0  -4  12  811.57   47.55 
   0   4 -12  824.87   56.27 
   0  -4  12  866.83   57.39 
   3  -2 -10  142.24   17.16 
   3   2 -10  129.19   15.38 
  -3  -2  10  151.30   21.77 
   3  -2 -10  147.72   14.33 
  -3   2  10  180.37   22.15 
   3  -2 -10  127.35   13.46 
   0  -5 -11  301.89   26.50 
   0  -5  11  274.44   21.82 
   0  -5  11  264.32   20.78 
   0  -5 -11  286.19   26.68 
   0   5 -11  253.56   27.72 
   0   5 -11  274.56   27.95 
   0   5  11  252.25   27.79 
   4   2  -5   84.96   10.37 
  -4   2   5   97.03   15.70 
   4   2  -5  111.57   17.39 
  -4  -2   5   98.56   12.97 
  -4   2   5   97.85   13.85 
   4  -2  -5   90.89   13.82 
   4   2  -5   93.83   10.33 
   4   2  -5  116.71   11.44 
  -4   2  -3   29.96    7.77 
   4  -2   3   44.64    3.70 
  -4  -2  -3   57.34    5.80 
   4  -2   3   38.16    2.93 
   4   2   3   60.47   14.89 
  -4  -2  -3   55.18   13.60 
   4   2   3   49.55    6.43 
  -4   2  -3   37.51   12.12 
   3  -6   1  191.82   13.16 
  -3   6  -1  185.67   13.00 
  -3   6  -1  172.71   21.45 
  -3  -6  -1  131.51   18.36 
   3  -6   1  221.78   24.46 
   3   6   1  161.91   21.30 
  -3  -6  -1  171.87    9.51 
   1   8   3  194.04   19.16 
  -1  -8  -3  200.49   22.01 
  -1   8  -3  173.62   22.47 
  -1   8  -3  163.98   18.75 
   1  -8   3  180.80   22.61 
   1   8   3  196.44   23.92 
  -4   3  -1   49.20   12.20 
  -4  -3  -1   52.99   11.45 
  -4  -3   3   10.21   16.29 
   4  -3  -3    8.17   13.34 
   4   3  -3    9.41    2.43 
  -4   3  -1   44.43   10.40 
  -4   3   3    5.60    8.49 
   4   3  -3    9.67   11.36 
  -4   3   3    6.26    9.84 
   4  -3  -3    4.49    7.33 
   4   3  -3    9.60    2.21 
   4  -3   1   37.58    1.88 
   4   3   1   63.69   15.26 
   4   1  -6    0.89    5.56 
   4  -1  -6    1.10    3.18 
  -4  -1   6    0.76    1.72 
  -4   1   6   -0.11    3.81 
  -4  -1  -4   32.39    5.48 
  -4  -1  -4   30.82   10.37 
   4   1  -6    0.30    1.50 
  -4  -1  -4   28.29    6.84 
  -4   1  -4   40.14    9.31 
   4  -1   4   32.14    6.96 
   4  -1   4   45.18   10.39 
   4   1   4   29.54    5.53 
   4   1  -6    0.49    1.22 
  -4   1  -4   40.68    7.96 
   4  -1  -6    0.27    3.46 
   4   1   4   39.04    7.81 
  -4   1  -4   42.46   11.92 
  -3   1  -9  472.67   40.24 
   2  -7  -5   23.57    8.10 
  -2  -7   5   29.76    8.15 
   2   7  -5   29.21   20.62 
   2   7  -5   31.78   40.03 
   2   7   4  160.16   14.08 
  -3  -1  -9  345.83   45.67 
  -3   1  -9  435.58   28.74 
   3   1   9  445.89   31.57 
  -2   7   5   26.04    8.09 
   2   7   4  173.15   22.41 
  -2   7   5   31.71   11.30 
   3  -1   9  413.97   28.16 
  -3   1  -9  424.25   34.50 
  -2  -7  -4  131.56   34.92 
  -2  -7  -4  144.61   14.19 
   2  -7   4  133.19   18.12 
  -2   7  -4  153.93   21.79 
  -3  -1  -9  570.29   46.19 
   2  -7   4  157.41   14.53 
  -2   7  -4  134.98   13.96 
  -3  -5  -5   10.09    5.34 
  -3  -5  -5   10.28    3.71 
   1   1  13   20.38    8.38 
   3   5   5   10.74   11.72 
  -1   1 -13   28.60   13.33 
  -3   5  -5   13.24   17.54 
  -3  -5  -5   17.91   29.35 
  -1  -1 -13   25.84   28.50 
  -1  -1 -13   17.65    8.07 
  -1   1 -13   20.65    8.60 
   1  -1  13   20.45   17.28 
  -3   5  -5   13.48   17.60 
   3  -6  -3  512.93   39.49 
  -3   6   3  392.09   36.57 
   3   6  -3  524.02   30.28 
  -3  -6   3  459.72   39.25 
  -3  -6   3  527.95   29.23 
   3  -6  -3  408.98   28.83 
   3   6  -3  409.83   37.91 
  -3   6   3  465.84   31.15 
  -1   6  -9   97.11   15.04 
  -1  -6  -9  100.12   13.57 
   1  -6   9  126.27   16.17 
  -1   6  -9  120.64   19.15 
   1   6   9   98.52   16.08 
  -1  -6  -9   94.33   15.22 
   1  -4 -12   44.79   11.06 
  -1  -4  12   39.42   11.12 
   1  -4 -12   41.73    8.65 
   1   4 -12   33.27   10.02 
  -1   4  12   49.24   13.00 
  -1  -4  12   35.03    4.10 
  -1  -4  12   38.27    7.23 
   2  -6   7    4.21    6.47 
   2   6  -8    0.66    2.96 
  -2   6  -7    2.26    3.95 
  -2   6  -7    2.60    4.99 
   2   6   7    6.07    5.85 
  -2   6  -7    4.12    6.89 
  -2  -6  -7    4.42    9.18 
  -2  -6  -7    6.60    8.66 
   2   6  -8    0.44    1.28 
  -2  -6   8    1.37    2.72 
  -2  -6  -7    4.57    8.02 
  -2   6   8    3.88    5.68 
  -2   6   8    3.56    6.29 
   2  -6  -8    2.94    3.97 
   2   6  -8    1.15   10.51 
  -1  -7  -7   11.08    4.97 
  -1   7  -7   23.51   23.92 
   3  -3   8    3.21    2.74 
  -3  -3  -8    4.07    5.74 
  -3   3  -8    4.28    5.68 
  -1   7  -7   21.14   24.89 
   1  -7   7   15.41   25.23 
   3   3   8    6.14    6.78 
  -3   3  -8    3.60    5.62 
  -3  -3  -8    5.87    9.34 
   1   7   7   12.85   19.67 
  -1  -7  -7   15.53   23.96 
  -3   3  -8    4.65    7.24 
   3   3   8    2.51    5.38 
   1  -5 -11   37.84    9.59 
   1   8  -4   37.14   10.04 
  -1  -5  11   24.00    4.27 
   1  -5 -11   46.44   29.28 
   1   5 -11   17.41    7.82 
   1  -8  -4   39.41   10.48 
  -1   8   4   34.93    9.88 
   1   5 -11   23.59   10.29 
  -1  -5  11   22.93    4.09 
  -1   8   4   35.55   12.12 
  -1  -8   4   42.35    9.34 
   1   8  -4   31.70   10.92 
  -1   5  11   37.99   11.16 
   3  -6   2  156.53   20.44 
   3   6   2  187.81   23.31 
  -3   6  -2  163.88   10.50 
  -3  -6  -2  177.76   20.50 
  -3  -6  -2  161.37    9.30 
  -3   6  -2  160.66   21.04 
   3  -6   2  151.04    9.77 
   0  -7  -8  482.68   37.82 
   0  -7   8  394.06   31.35 
   0   8  -5    4.80    7.14 
   0   7  -8  409.79   36.24 
   0   7  -8  367.41   34.42 
   0   7   8  404.10   35.49 
   0  -8  -5    7.17    9.70 
   0   8  -5    5.07    7.81 
   0   8   5    4.33    6.87 
   0   8   5    7.36    8.34 
   0  -8   5    5.38   12.05 
   0   7   8  402.96   31.03 
   3   4   7  184.30   20.67 
   2   4 -11    6.64   12.33 
  -3  -4  -7  108.42   18.22 
  -3   4  -7  133.66   19.48 
  -3  -4  -7  150.94   18.65 
   2  -4 -11    5.68    6.44 
  -3  -4  -7  133.65   11.50 
  -3   4  -7  127.74   19.03 
   2  -4 -11    6.24    9.54 
  -2   4  11    7.11   14.97 
   2   4 -11    6.16    8.57 
  -2  -4 -10   23.18   10.78 
  -2  -4 -10   17.90    6.07 
  -2   4 -10   29.22   29.51 
   2   4  10   22.36    7.86 
   2  -4  10   17.89    5.24 
  -2   4 -10   17.66   20.67 
  -2   4 -10   15.54    4.39 
   0  -3  13    7.49    8.70 
  -4  -3   4   19.31    6.28 
   4   3  -4   24.20    4.24 
   0  -3  13    4.17    5.83 
  -4   3   4   21.04   13.91 
   0   3 -13    5.16    8.84 
   4  -3  -4   16.72   14.98 
   4   3  -4   22.37    4.15 
   0   3  13    5.04    6.63 
   0  -3 -13    6.92    8.76 
   4   3  -4   23.17    8.90 
  -4   3   4   19.31    6.97 
   0   3 -13    9.23   11.79 
   4  -3  -4   23.23    8.56 
   0  -3 -13    4.75    8.29 
  -4  -3  -2   13.49   23.98 
  -4   3  -2   14.10   20.60 
  -4   3  -2   15.14   19.90 
   4   3   2   12.98   15.39 
   0  -6  10  665.51   42.98 
   0  -6 -10  681.07   50.36 
   0   6 -10  610.21   46.40 
   0   6  10  661.19   58.07 
   0   6 -10  615.66   47.48 
   0  -6  10  587.04   37.99 
   0  -6 -10  644.65   43.38 
   3   5  -7    6.73    8.95 
   3   5  -7    7.25   12.56 
   3  -5  -7    9.40   13.28 
  -3   5   7   12.03   14.27 
  -3  -5   7    6.74   10.70 
  -3  -5   7    8.02   10.63 
   3   5  -7    8.32   13.11 
  -3   5   7    9.79   15.89 
  -3   6   4   28.99   36.98 
   3  -6  -4   17.84    5.26 
  -3  -6   4   21.84    6.54 
   3  -6  -4   30.22   32.40 
   3   6  -4   22.39    4.85 
  -3   6   4   21.30    6.11 
   3   6  -4   24.71   10.33 
  -3  -6   4   25.28    5.02 
  -1   8  -4  300.15   30.48 
  -1  -8  -4  342.36   30.26 
   1   8   4  320.34   26.27 
   1  -8   4  306.96   31.32 
  -1   8  -4  276.45   25.54 
   1   8   4  305.22   31.67 
   3   0 -11    2.98    4.59 
   3   0 -11    3.55    3.20 
   3   0 -11    4.68    5.32 
  -3   0  11    3.85    6.44 
   2   5 -10  172.47   22.68 
  -2  -5  10  158.04    9.43 
   2  -5 -10  166.39   20.02 
   2   5 -10  167.84   23.12 
  -2   5  10  162.20   21.47 
   2  -5 -10  153.42   18.12 
   4   2  -6  633.42   47.84 
  -2   5  -9    5.69    4.06 
   4   2  -6  610.24   36.04 
  -2   5  -9    5.55    9.52 
  -4   2   6  632.66   41.25 
  -2   5  -9    9.43   13.47 
   2   5   9    3.47    4.44 
  -4  -2   6  667.33   41.39 
   4   2  -6  381.71   36.86 
  -4   2   6  680.88   45.79 
  -2   5  -9    6.96    8.96 
   4   2  -6  698.17   40.97 
  -2  -5  -9    7.11   12.61 
   4  -2  -6  714.34   45.45 
  -2  -5  -9    3.35    5.38 
   3   2   9   73.47   11.46 
   4  -2   4  260.20   12.73 
  -4  -2  -4  286.18   18.32 
  -3  -2  -9   81.50   12.41 
  -3   2  -9   88.30   15.18 
   3   2   9   99.67   28.63 
   3  -2   9   82.29   13.38 
   4  -2   4  269.29   13.23 
   4   2   4  299.60   17.71 
   4   2   4  279.67   28.57 
  -4  -2  -4  263.07   31.62 
  -3  -2  -9   80.08   17.22 
  -4   2  -4  277.90   26.08 
  -3   2  -9  100.26   17.14 
  -4   2  -4  301.12   33.25 
  -3   2  -9   91.54   10.11 
   2   3 -12    2.03    3.54 
   2  -3 -12    2.97    5.08 
  -2   3  12    3.13    4.82 
   2  -3 -12    4.51    7.14 
  -2  -3  12    4.61    7.14 
  -2  -3 -11   42.23    9.52 
   2  -3  11   33.79    7.32 
  -2   3 -11   34.48   11.21 
  -2   3 -11   36.34   10.11 
  -2  -3 -11   53.21   30.96 
  -2   3 -11   33.97    6.63 
   2   3  11   37.99   10.24 
  -1  -3  13   96.46    8.41 
  -1  -2 -13  371.65   30.39 
   1   3 -13   94.11   16.80 
  -1   3  13  103.83   18.07 
  -1  -3  13   88.11   15.64 
  -1   2 -13  413.74   32.74 
   0   0 -14 2124.21   68.37 
   0   0  14 2234.15   68.68 
   1  -3 -13  105.38   13.52 
   0   0 -14 2368.60   55.51 
  -1  -3  13   97.92    7.54 
  -1   2 -13  457.51   40.26 
   1  -2  13  449.69   35.44 
   1   2  13  501.94   40.04 
   1  -3 -13  103.09   15.64 
  -1  -2 -13  380.98   31.98 
   4   0  -7    0.71    4.43 
   4   0  -7    0.61    1.65 
   4   0  -7    0.64    3.31 
  -4   0  -5    1.44    6.83 
  -2   0  13    0.17    1.70 
  -4   0  -5    0.45    4.46 
   2   0 -13   -0.38    6.33 
  -2   0  13   -1.13    6.08 
   2   0 -13    0.38    1.29 
  -4   0  -5    0.11    2.12 
   4   0   5    0.11    2.97 
   4   0   5    0.24    1.55 
  -2   0 -12   77.97   13.78 
   2   0  12   85.19   13.41 
  -2   0 -12   80.81   14.48 
   1   7  -8  976.86   54.79 
   1  -7  -8 1143.36   67.52 
   3   1 -11    0.09    0.46 
   3   1 -11   -0.50    5.16 
   3   1 -11    0.22    0.53 
   3  -1 -11    0.45    3.27 
  -1  -7   8 1254.77   66.18 
   3  -1 -11    1.14    1.79 
  -3   1  11    0.47    4.94 
  -3  -1  11   -0.72    9.95 
  -1   7   8 1046.43   64.88 
  -1   7   8 1176.42   74.30 
   1   7  -8 1101.76   70.99 
   3  -1 -11    1.50    3.25 
   1   7  -8 1331.38   79.07 
   2   7  -6  142.81   14.72 
   2  -7  -6  125.90   17.06 
   2   7  -6  155.13   22.67 
  -2   7   6  132.66   18.61 
   2   7  -6  130.71   15.82 
  -2   7   6  140.20   17.79 
  -2  -7   6  175.49   16.47 
   2  -7   5  670.55   48.37 
  -2  -7  -5  508.03   30.77 
  -2  -7  -5  584.02   43.85 
   2   7   5  545.87   43.77 
  -2   7  -5  540.00   43.60 
  -2   7  -5  560.96   34.76 
  -2   7  -5  464.48   32.33 
  -2  -7  -5  471.03   31.05 
  -3   6  -3   13.50    7.03 
  -3  -6  -3   18.17    2.77 
   3  -6   3   14.63   23.24 
  -3  -6  -3   22.40   31.18 
  -3   6  -3   15.45    1.61 
   3   6   3   24.62   30.78 
  -3  -6  -3   15.78    4.09 
   0  -1  14   24.52   27.28 
   0   1  14   26.42   26.31 
   0  -1 -14   19.26    8.53 
   0  -1  14   16.23    7.61 
   0   1 -14   21.74   28.32 
   0  -1 -14   19.87    6.25 
   0   1 -14   20.25    6.04 
  -1  -6  10  265.44   19.56 
   1  -6 -10  249.30   26.19 
   4   1  -7  227.85   25.32 
   1  -6 -10  264.27   25.49 
   1   6 -10  266.16   27.70 
   1   6 -10  250.15   28.77 
   4  -1  -7  132.49   15.37 
  -4   1   7  200.70   27.42 
  -1  -6  10  217.92   18.14 
   4   1  -7  208.48   18.43 
   4  -1  -7  209.79   18.93 
  -1   6  10  290.22   29.24 
  -4  -1   7  209.97   18.96 
   4   1  -7  174.83   15.41 
   2  -1 -13  232.64   17.23 
   2  -1 -13  220.80   23.31 
  -2   1  13  245.61   17.54 
   2   1 -13  213.13   23.64 
  -4  -1  -5  376.82   36.04 
  -4  -1  -5  299.60   22.04 
  -2  -1  13  204.83   25.85 
  -4   1  -5  291.96   30.60 
   4   1   5  360.91   23.20 
  -4  -1  -5  236.40   21.79 
  -4   1  -5  322.91   20.93 
   4  -1   5  315.70   20.48 
  -4   1  -5  323.18   36.81 
  -2   1  13  205.48   24.48 
   4   1   5  326.99   24.77 
   2   1  12   19.15   19.48 
   1   0 -14    0.83    1.19 
  -3   3  10  373.54   33.00 
   2  -1  12   17.80    6.70 
  -1   0  14    0.95    1.43 
   3  -3 -10  425.24   33.21 
  -2   1 -12   17.74   24.17 
   3   3 -10  362.26   35.58 
   1   0 -14   -0.54    7.12 
   3   3 -10  394.91   30.12 
  -2   1 -12   18.05   21.77 
  -1   0  14    1.05    5.50 
   3  -3 -10  425.20   30.56 
  -2  -1 -12   17.21   23.92 
  -2  -1 -12   18.76   20.06 
   1   8  -5    7.50   12.88 
   1  -8  -5    7.67   12.66 
  -1  -8   5    9.82   15.66 
   1   8  -5    7.19   12.87 
  -1   8   5    6.53    8.96 
  -1   8   5    7.41    8.37 
   4   3  -5    5.43    2.42 
  -4   3   5    4.43    7.29 
   4   3  -5    5.08    7.88 
   4  -3  -5    4.34    8.24 
   4   3  -5    5.45    7.57 
  -4   3   5    6.86    9.33 
  -4  -3   5    8.64   11.47 
   4  -3  -5    6.42    6.11 
   4   3  -5    6.20   11.45 
  -4   3  -3 1712.29   75.92 
  -4  -3  -3 1812.53   64.13 
  -4   3  -3 1568.29   95.98 
   4   3   3 1682.01   92.76 
  -3   4   9  302.72   28.83 
   3   4  -9  285.13   24.13 
   3  -4  -9  225.65   24.12 
   3   4  -9  294.87   15.61 
   3   4  -9  272.03   30.18 
  -3   5  -6  156.62   20.81 
  -3  -5  -6  160.72   12.78 
  -3  -5  -6  174.55   15.37 
  -3   5  -6  150.83   22.08 
   3   5   6  147.78   19.08 
  -3  -5  -6  124.64   23.59 
   1  -1 -14  984.08   57.10 
   1   1 -14 1090.62   56.48 
  -1   1  14  946.27   62.55 
  -1  -1  14 1028.68   71.97 
  -1   1  14  946.91   51.56 
   1  -1 -14  735.82   54.76 
   1   1 -14 1136.61   72.31 
  -1  -1  14 1004.56   53.09 
   1  -4  12    0.54    3.97 
   1  -5  11    6.78   10.58 
  -1   4 -12    1.19    4.31 
  -1  -5 -11    4.97    7.54 
  -4  -4   1   21.18   30.54 
   4  -4  -1   18.75    3.85 
  -1   5 -11    7.86   12.10 
  -1  -4 -12    0.50    4.71 
  -1   5 -11    8.13    9.83 
  -1  -4 -12    0.65    4.21 
  -1  -5 -11    4.85    7.35 
  -1   4 -12    0.87    4.72 
   4   4  -1   28.71   28.30 
   4  -4  -1   14.14   24.95 
  -4   4   1   19.94   25.45 
   4  -4  -1   15.62    3.22 
   1   5  11    1.06    6.89 
  -3  -6   5   52.76    7.81 
  -3  -6   5   55.75    9.97 
   3   6  -5   36.77    6.58 
   3   6  -5   48.57   17.77 
   3  -6  -5   47.31   11.29 
   3   6  -5   38.27    7.13 
  -3   6   5   35.03    8.16 
  -3   6   5   39.94   10.88 
   0   8   6    5.31    6.56 
   0   8  -6    9.14   10.66 
   0  -8  -6    4.46    7.53 
   0   8  -6    5.53    8.35 
   0  -8   6    9.44   12.45 
   0   8   6    6.28    9.03 
  -4   4   2  462.05   40.94 
   4  -4  -2  559.78   44.22 
   4  -4   0  306.08   16.31 
   4  -4   0  304.88   15.94 
  -4   4   0  294.00   26.87 
   4  -4   0  318.38   41.63 
   4   4  -2  534.30   43.98 
  -4  -4   2  555.33   39.98 
   4   4   0  223.80   25.07 
  -4   4   2  480.39   29.41 
  -4  -4   0  461.28   36.72 
   4  -4  -2  492.44   28.40 
  -1   8  -5  515.31   43.41 
   1   8   5  473.33   32.87 
   1   8   5  400.41   36.25 
  -1  -8  -5  507.61   39.95 
   1  -8   5  467.99   38.39 
  -1   8  -5  466.21   35.67 
   3  -2 -11    7.55   13.13 
   3  -2 -11   12.80   16.67 
  -3   2  11    8.61   15.28 
   3   2 -11   16.43   16.54 
  -3  -2  11   12.67   19.43 
   3  -2 -11   10.87    4.01 
  -1  -7  -8   77.52   11.37 
  -4   4   3  155.27   21.88 
   4  -4  -3  132.84   16.61 
   4   4  -3  151.09    8.46 
   4   4  -3  147.76    8.36 
  -4  -4   3  151.46   19.74 
  -1   7  -8   89.77   17.01 
   1   7   8   76.67   14.46 
  -1  -7  -8   85.91   14.52 
   4   4  -3  160.42   22.04 
  -3   0 -10    0.31    5.27 
  -1   7  -8   76.71   15.29 
   3   0  10    0.40    2.29 
  -3   0 -10    1.16    4.48 
   1  -7   8   86.00   13.90 
  -4   4   3  180.60   16.27 
   4  -4  -3  175.32   20.59 
  -4  -4  -1  169.04   22.52 
  -4   4  -1  141.22   17.97 
  -4   4  -1  140.17   21.28 
   4   4   1  155.23   21.14 
  -2   6   9   78.94   15.01 
  -2  -6   9   68.65    7.72 
   2   6  -9   58.60   11.86 
  -2   6   9   76.02   14.54 
   2  -6  -9   70.48   12.37 
   2   6  -9   62.35   14.69 
   2   6  -9   67.21    7.79 
   2   6   8   14.84   12.47 
  -2   6  -8    8.46   11.19 
  -2   6  -8   12.31    7.45 
  -2  -6  -8    9.58    4.32 
  -2   6  -8   15.84   21.69 
   2  -6   8   13.40   17.41 
  -2  -6  -8   12.91   17.88 
   3  -6   4   57.22   14.38 
   0   2 -14  785.18   46.09 
   0  -2 -14  735.43   55.44 
  -3  -6  -4   71.90    6.33 
   0   2  14  856.05   59.43 
  -3  -6  -4   68.47    6.77 
  -3  -6  -4   72.74   13.98 
   0   2 -14  744.26   53.60 
   0  -2  14  773.99   57.59 
   0  -2 -14  645.82   47.08 
   0  -2  14  783.64   49.87 
   3   6   4   67.62   14.71 
  -3   6  -4   65.82   13.96 
   4  -2  -7   10.69   11.58 
  -4   2   7   11.43   16.96 
   4   2  -7   10.16    4.27 
  -4  -2   7   10.32    4.03 
   4  -2  -7    9.61   12.64 
   4   2  -7    8.74   13.27 
   4   2  -7    9.34    7.82 
   4   2  -7   14.38   19.14 
  -4   2  -5    4.11    6.94 
  -2  -2  13   25.03   32.78 
   4   2   5    5.89    9.59 
  -4  -2  -5    7.99    7.21 
  -4  -2  -5    8.98   13.91 
   4  -2   5    3.47    0.93 
   2  -2 -13   18.24    8.25 
   2   2 -13   26.47   24.79 
  -2   2  13   20.20   26.90 
  -2   2  13   18.15   17.68 
   4   2   5    6.20    4.93 
   4  -2   5    3.71    2.07 
   2  -2 -13   19.54    5.28 
  -4   2  -5    4.67    7.24 
  -2  -2 -12   42.56   10.33 
  -2  -2 -12   37.10   10.35 
  -2   2 -12   47.25   22.95 
   2  -2  12   46.73    9.68 
  -2   2 -12   44.25   13.05 
   2   2  12   41.70   10.36 
  -2   8   0   65.04   16.38 
  -2  -8   0   84.88   13.95 
   2  -8   0   60.62   12.74 
   2  -8  -1   38.15   39.94 
  -2  -8   0   78.25   10.89 
   2   8  -1   38.15    7.98 
   2   8   0   63.59   14.73 
  -2  -8   1   34.82   11.30 
  -2   8   1   36.86   10.74 
   2   8   0   81.73   11.27 
  -2  -8   1   34.58    7.06 
  -2   8   0   57.21    9.83 
   2   8  -1   39.64   15.12 
  -2   8   1   44.22    9.54 
   3   5  -8   72.44   11.12 
   3   5  -8   63.84    7.16 
   3  -5  -8   71.23   12.93 
  -3   5   8   70.03   13.23 
   3   5  -8   78.28   21.46 
  -3  -5   8   62.55    7.15 
  -3   5   8   64.53   12.28 
  -3   1 -10  396.16   38.18 
  -3   1 -10  371.59   33.65 
  -3  -4  -8   14.99    4.01 
  -3   4  -8   15.18   16.31 
  -3   1 -10  349.97   25.79 
  -3   4  -8   18.95   26.11 
  -3  -4  -8   19.38   28.46 
   3   1  10  370.93   28.82 
   3  -1  10  394.06   28.24 
  -3   4  -8   15.53    3.85 
   3   4   8   22.15   24.88 
  -3  -1 -10  399.93   35.55 
  -3  -4  -8   13.92    4.43 
  -3  -1 -10  383.77   33.07 
  -3   4  -8   13.61    2.62 
   4   3  -6   33.88   10.11 
   0  -7  -9  783.85   50.22 
   0   7   9  724.71   53.51 
  -4  -3   6   44.40    8.40 
  -4   3   6   32.57   10.13 
   4   3  -6   40.70   43.85 
   0   7  -9  673.00   49.33 
  -4   3   6   30.34    8.57 
   0   7  -9  700.62   52.01 
   4   3  -6   37.85    6.19 
   4   3  -6   34.84    6.80 
   0  -7   9  781.61   48.91 
   0  -7  -9  784.99   53.26 
   4  -3  -6   31.52    7.78 
  -3  -3  -9  683.77   44.55 
  -4   3  -4    4.80    7.91 
  -4  -3  -4    6.77    1.17 
   3  -3   9  701.76   39.35 
  -4   3  -4    6.45    9.06 
  -3   3  -9  643.06   35.20 
   4   3   4    8.13   10.71 
  -3  -3  -9  613.97   52.13 
  -4  -3  -4    6.78   10.50 
  -3   3  -9  636.10   46.80 
   3   3   9  625.98   46.28 
  -3   3  -9  638.81   49.35 
   3   3   9  597.61   34.14 
  -1  -6 -10  142.22   16.85 
   1   6  10  137.70   20.52 
  -1   6 -10  141.71   17.00 
   1  -6  10  131.74   17.15 
  -1   6 -10  159.30   24.10 
  -1  -6 -10  163.61   21.00 
   2   8   1    1.14    2.59 
  -2   8   2    3.75    5.64 
   2   8   1    0.46    3.78 
   2   8  -2    7.28   14.22 
   2  -8   1    0.99    4.74 
  -2  -8  -1    0.70    1.98 
  -2  -8   2    6.99    8.86 
  -2   8  -1    1.33    3.65 
  -2   8  -1    1.88    8.09 
   2  -8   1    1.02    1.83 
   2  -8  -2    4.02    5.98 
  -2  -8   2    6.84   10.37 
  -2  -8  -1    0.99    5.25 
   2   8  -2    6.24   12.71 
  -2   8   2    3.63    5.18 
  -1   3 -13   66.52   14.99 
   4   0  -8   87.34   10.50 
  -1  -3 -13   65.82   12.13 
   1  -3  13   72.23   12.99 
   0  -5 -12   28.02    9.18 
   1   3  13   79.88   16.64 
  -1  -3 -13   68.71   12.91 
   0  -5  12   15.56    4.60 
  -4   0   8   97.07   15.61 
   0  -5 -12   28.63   10.85 
   4   0  -8  112.91   14.30 
   4   0  -8  108.76   12.41 
   0  -5  12   21.35   11.20 
   0   5 -12   20.98    9.48 
   0   5  12   36.54   48.48 
  -1   3 -13   67.66   11.45 
   0   5 -12   23.82   30.93 
  -4   0  -6  481.84   44.38 
  -4   0  -6  462.57   32.88 
   4   0   6  319.44   28.07 
   4   0   6  514.59   32.12 
  -4   0  -6  443.83   30.28 
   1  -2 -14  130.94   14.52 
  -1  -2  14  136.71   20.79 
  -1   2  14  133.81   26.42 
   1  -2 -14  150.51   20.92 
   1   2 -14  122.93   12.00 
  -1  -2  14  137.79   10.44 
   1   2 -14  129.26   20.56 
   1   8  -6   22.15   12.32 
  -1   8   6   21.79   28.72 
   1  -8  -6   29.06   32.59 
   1   8  -6   23.14   30.98 
  -1  -8   6   24.41    7.31 
  -1   8   6   25.74   25.86 
  -2  -7  -6   59.01    9.51 
  -2  -7   7   92.98   10.91 
  -2  -7  -6   67.42    9.37 
  -2   7   7   88.25   27.88 
  -2   7   7   88.15   15.09 
   2   7  -7   92.82   19.22 
   2   7  -7   77.72   17.79 
  -2   7  -6   52.07   14.11 
  -2   7  -6   43.68   12.53 
   2   7   6   57.84   13.71 
   2  -7  -7   94.28   15.07 
   2   7  -7   86.62   10.35 
   2  -7   6   55.30   12.31 
  -2  -7  -6   70.53   14.39 
  -2   7  -6   52.47    9.24 
   0   4  13   39.17   30.69 
   0   4 -13   40.46   28.58 
   0  -4  13   30.19    5.80 
   0  -4 -13   32.32    8.97 
   0  -4 -13   35.03    9.74 
   0   4 -13   27.98    6.30 
   0  -4  13   31.27   10.36 
  -4   4   4  761.55   45.54 
  -4   4   4  703.08   49.21 
   4   4  -4  662.28   34.48 
   4  -4  -4  662.96   38.53 
   4   4  -4  744.46   38.00 
   4   4   2    5.18    7.70 
  -4  -4   4  870.06   52.68 
   4  -4  -4  801.34   55.44 
  -4  -4  -2    8.70   14.37 
  -4   4  -2   10.90   18.65 
  -4   4  -2    9.47   15.79 
   0   9   0    0.61    3.08 
   0   9   0    0.36    3.19 
   0  -9   0    1.51    6.70 
  -3   6   6  384.80   31.34 
   3  -6  -6  296.15   38.51 
   3   6  -6  282.66   31.82 
   3   6  -6  279.45   19.74 
  -3  -6   6  336.99   23.87 
  -3   6   6  326.58   32.34 
   3   6  -6  333.43   25.56 
  -3  -6   6  313.52   24.05 
   4   1  -8   61.86   18.90 
   4   1  -8   61.62   10.01 
   4  -1  -8   62.00    9.45 
   4  -1  -8   85.34   13.03 
  -4   1   8   76.55   14.03 
   4   1  -8   48.82    7.41 
   4   1  -8   62.09    9.20 
  -4  -1  -6   16.24   24.22 
  -4   1  -6   12.76   18.73 
   4   1   6    8.69    9.07 
  -4  -1  -6    9.60    4.31 
   4  -1   6   11.23    3.14 
  -4   1  -6    8.94    9.69 
  -4   1  -6   10.01   18.01 
   4   1   6   12.39    7.68 
  -4  -1  -6    6.52   10.51 
   0  -9  -1   67.07   13.32 
   0  -9   1   93.36   16.23 
   0   9  -1   82.54   15.10 
   0   9   1   59.31   13.30 
   0   9   1   72.86   13.41 
   0   9  -1   91.70   16.03 
  -2  -8   3   90.56   14.02 
   2  -8  -3   77.13   14.44 
  -2   8   3   85.14   22.47 
  -2   8   3   72.64   16.48 
   2   8  -3   75.47   11.48 
  -2  -8  -2  130.66   12.98 
   2   8   2  130.64   18.91 
  -2   8  -2  133.70   30.02 
   2  -8   2  129.31   17.36 
  -2  -8  -2  132.16   17.72 
  -2   8  -2  129.04   13.32 
   2  -8   2  102.70   12.00 
   2   8   2  135.60   14.43 
  -1  -5  12    5.39    7.56 
  -1  -5  12    6.32    2.29 
  -1   0 -14    0.69    4.16 
  -1   0 -14   -0.42    4.85 
   1  -5 -12    7.73    9.33 
   1   5 -12    7.33   12.82 
   1   5 -12    6.22   10.48 
   1  -5 -12    8.68   14.26 
   1   0  14   -0.16    5.31 
  -1   5  12    8.80   11.01 
   2  -4 -12  117.11   16.11 
   2  -4 -12  141.30   15.02 
  -2   4  12  133.34   21.31 
   2   4 -12  151.67   18.95 
  -2   4 -11    4.02    8.33 
   2   4  11    7.13   10.94 
   2  -4  11    1.88    2.95 
  -2   4 -11    2.40    4.74 
  -2  -4 -11    6.49    7.59 
  -2  -4 -11    4.42    7.95 
  -2   4 -11    4.72    9.46 
  -1  -4  13   61.34    7.12 
  -1  -4  13   54.56    5.10 
  -1  -7   9   49.00    8.02 
   1  -7  -9   47.48   11.73 
  -1   7   9   52.00   13.03 
   1   4 -13   56.16   12.61 
  -1  -7   9   40.38    8.16 
  -1  -4  13   56.82   13.68 
   1  -4 -13   56.45   12.78 
  -1   7   9   45.41   10.74 
  -1   4  13   65.78   14.92 
   1   7  -9   50.74   12.39 
   1   7  -9   43.05   13.09 
   1  -4 -13   63.14   11.57 
   0   6 -11   10.07   14.98 
   0  -6  11   10.58   20.20 
   0  -6 -11   10.50   12.85 
   0   6 -11   10.97   15.16 
   0   6  11   13.11   12.21 
   0  -6  11    7.28   12.89 
   0  -6 -11   13.96   20.83 
   0   9   2   19.89   28.38 
   0  -9  -2   23.04   31.61 
   0  -9   2   14.07    7.05 
   0   9  -2   22.73   28.34 
   0   9  -2   19.99   30.47 
   0   9   2   22.16   23.12 
  -3  -5  -7    4.88    6.90 
   2  -5 -11   13.06   19.92 
   2  -5 -11   15.63   20.64 
   2   5 -11   13.37   18.59 
  -3  -5  -7    8.81    9.39 
  -3   5  -7   14.09   18.36 
   3   5   7    6.83    7.53 
   2   5 -11   13.83   19.52 
  -2   5  11   18.66   22.46 
  -3  -5  -7    5.60    9.51 
  -3   5  -7   11.44   18.00 
  -2   5 -10   46.39   11.54 
  -2   5 -10   46.53    8.10 
  -2  -5 -10   69.89   14.93 
  -2   5 -10   49.33    8.17 
  -2  -5 -10   53.94   16.04 
  -2   5 -10   50.41   21.49 
   2   5  10   67.36   13.92 
  -1  -1 -14   21.21   23.77 
  -1   1 -14   22.12    7.32 
   1   1  14   21.65   23.22 
   0   8   7    7.68   10.35 
  -1  -1 -14   16.30    8.17 
  -1   1 -14   31.95   35.93 
   0  -8   7    8.14   19.98 
  -1   8  -6    0.57    4.26 
   1   8   6    1.62   10.24 
   0  -8  -7    9.94   14.64 
   1   8   6    1.92    3.13 
  -1   8  -6    1.41    5.78 
   0   8   7    9.13    8.71 
   1  -8   6    0.98    4.91 
   0   8  -7    9.51   11.20 
   1  -1  14   29.22    8.71 
   0   8  -7    8.52   12.55 
  -1  -8  -6    2.40    5.31 
  -3   2 -10   52.90    7.40 
  -3   2 -10   61.86   13.71 
  -3  -2 -10   59.57   13.74 
   3   2  10   50.69   14.21 
   3  -2  10   55.37    7.76 
  -3   2 -10   57.90   14.38 
  -3  -2 -10   49.23    9.94 
   3   0 -12    0.16    1.15 
  -3   0  12   -2.24   13.68 
   3   0 -12    0.53    1.17 
   3   0 -12   -1.36    6.43 
  -3  -6  -5   35.12    6.31 
  -3  -6  -5   36.58    4.76 
  -3   6  -5   53.18   13.76 
   3   6   5   51.49   22.21 
   3  -6   5   48.55   11.77 
  -3  -6  -5   35.64   11.49 
   3   4 -10    7.91   25.55 
   3  -4 -10    7.85   10.52 
   3   4 -10    9.49   13.16 
  -3   4  10    6.75   10.54 
   3  -4 -10   10.15   11.80 
   4  -4  -5    3.46    6.61 
  -4   4   5    5.83   10.09 
  -3   7   1   81.41    9.42 
  -3   7   1   73.08   14.84 
   4   4  -5    1.04    1.61 
   4   4  -5    0.88    1.60 
   4  -4  -5    7.29   12.37 
  -4  -4   5    1.24    2.94 
  -3  -7   1   70.09   11.42 
   4   4  -5    1.56    7.27 
   3  -7  -1   60.99    8.25 
   4   4  -5    0.61    2.28 
   3  -7  -1   75.00   14.04 
  -4   4   5    5.03   12.87 
  -3  -7   1   70.05    6.99 
   3   7  -1   79.46    7.50 
   3   7  -1   68.23   16.01 
  -4   4  -3   93.42   16.73 
  -4  -4  -3  112.74   18.68 
  -4   4  -3  103.05   16.77 
   4   4   3   95.33   14.50 
  -3  -7   0  172.92   23.22 
   3   7   0  119.17   21.13 
  -3  -7   0  139.06    9.21 
   3   7   0  156.68    9.61 
   3  -7   0  133.83   27.39 
  -3   7   0  145.99   23.18 
  -3   7   0  166.51   12.71 
   3  -7   0  148.78   12.58 
   3  -3 -11  167.40   19.82 
   3  -3 -11  149.76   14.77 
   3   3 -11  163.67   30.02 
  -3   3  11  158.77   19.68 
   3   3 -11  163.60   19.62 
  -2  -8  -3   24.15    9.28 
   2  -8   3   38.56   11.07 
   2   8   3   29.70   19.64 
  -2  -8  -3   23.16    5.98 
  -2   8  -3   35.77   11.48 
  -2   8   4  510.03   37.51 
   2  -8   3   28.53    9.32 
   2  -8  -4  586.35   39.82 
   2   8  -4  675.81   36.23 
   2   8   3   29.65   31.70 
  -2   8   4  428.64   29.93 
  -2   8  -3   34.68    8.10 
  -2  -8   4  608.43   32.97 
   3  -1 -12  760.33   36.69 
   3  -1 -12  887.77   41.41 
  -3   1  12  774.93   67.66 
   3   1 -12  735.54   45.84 
   3  -1 -12  751.48   32.63 
  -3  -1  12  849.16   50.86 
   1  -6 -11   60.19   11.48 
   1   6 -11   50.51   13.02 
  -3  -7   2  349.67   26.05 
   1  -6 -11   94.30   15.28 
   3  -7  -2  253.41   29.15 
  -1  -6  11   51.17    7.19 
   3   7  -2  278.73   16.18 
   3   7  -2  303.12   33.65 
  -3  -7   2  289.90   15.67 
   1   6 -11   58.49   13.62 
  -1   6  11   75.29   16.24 
  -1  -6  11   63.50    7.75 
  -3   7   2  314.55   20.06 
  -3   7   2  322.54   30.40 
   3  -7  -2  304.77   21.93 
   0   3 -14  223.56   17.53 
  -4  -2   8  267.98   17.51 
   4  -2  -8  321.28   22.78 
   0  -3 -14  233.15   20.52 
   4   3  -7  143.04   13.83 
   0   3 -14  229.32   26.46 
   4  -3  -7  147.79   16.11 
   0  -3 -14  263.11   27.05 
   4   2  -8  258.27   15.62 
  -4  -3   7  131.21   12.58 
  -4   3   7  138.06   18.30 
   0  -3  14  208.19   22.96 
   4   3  -7  139.49   21.55 
   4  -2  -8  343.27   24.68 
   4   3  -7  127.64   11.38 
   4   3  -7  134.27   11.51 
   0  -3  14  187.21   17.22 
  -4   3   7  126.85   16.47 
   4   2  -8  303.41   29.09 
   0   3  14  241.88   28.22 
  -4   2   8  316.68   37.45 
   4   2  -8  251.28   18.66 
   4  -2   6  201.21    8.70 
   4   2   6  180.85   17.46 
   2  -3 -13   38.72    7.36 
  -4   2  -6  157.24   24.74 
   4   2   6  172.41   14.81 
   2  -3 -13   38.79   10.80 
  -2  -3  13   34.20   37.51 
  -2   3  13   44.87   25.94 
   4   3   5   64.34    5.43 
  -4  -2  -6  228.89   26.62 
  -4   2  -6  207.22   24.33 
   2   3 -13   29.94   17.03 
  -4   3  -5   79.54   14.88 
  -4  -3  -5   85.44   16.82 
  -4  -3  -5   73.06    7.10 
  -4   3  -5   69.68   15.29 
  -4  -2  -6  190.98   13.96 
   4   3   5   76.93   13.22 
  -2   3 -12   34.58    9.62 
  -2   3 -12   30.44   10.44 
  -2  -3 -12   34.79   14.58 
  -2  -3 -12   30.30   19.67 
   2   3  12   34.21   11.93 
   2  -3  12   36.50    8.35 
   0   9   3  739.64   45.41 
   0   9   3  800.83   44.25 
   0  -9  -3  674.11   42.52 
   0   9  -3  696.28   44.67 
   0   9  -3  811.34   43.64 
   0  -9   3  689.81   40.02 
   3   7   1   51.38    4.84 
   3  -7   1   40.25    5.88 
  -3  -7  -1   51.05    5.82 
   3  -7   1   38.87   10.29 
  -3   7  -1   37.46    5.63 
   3   7   1   41.48   12.86 
  -3   7  -1   42.43   13.99 
  -3  -7  -1   44.28   11.22 
  -1   9   0   73.32   12.98 
  -1  -9   0   58.66   11.75 
   1   9   0   63.63   11.22 
   1   9   0   65.88   14.12 
  -1   9   0   70.80   14.99 
   1  -9   0   79.86   14.90 
  -1   9   1   29.12   10.47 
  -1  -9   1   40.74    9.98 
   1   9  -1   46.74   10.37 
  -1   9   1   41.21   20.25 
   1  -9  -1   39.65   10.33 
   1   9  -1   38.37   12.41 
  -1   8   7  397.69   31.60 
  -1   8   7  457.35   32.98 
   1   8  -7  471.52   39.28 
   1  -8  -7  462.32   33.94 
   1   8  -7  510.70   36.27 
  -1  -8   7  497.32   28.52 
  -2   0  14  296.27   29.60 
   2   0 -14  268.36   13.52 
  -2   0  14  275.72   15.07 
   2   0 -14  292.93   27.36 
  -2   0 -13    0.85    4.99 
  -2   0 -13    1.16    6.56 
  -1  -9  -1   28.67   10.49 
  -1   9  -1   26.63   30.01 
   2   0  13    0.84    4.09 
   1   9   1   28.29    8.76 
   1  -9   1   20.24   26.45 
   1   9   1   27.61   10.32 
  -1   9  -1   20.52   26.58 
  -1  -3  14  167.45   10.13 
   1  -3 -14  173.69   16.34 
  -1  -3  14  167.14    9.49 
   1   3 -14  161.05   21.08 
   1  -3 -14  158.89   31.49 
  -1  -3  14  179.70   26.00 
  -1   3  14  179.70   23.64 
   3   7  -3   15.50   19.31 
   3  -7  -3    9.24   15.35 
  -3  -7   3    9.58    3.30 
   3  -7  -3   18.47   25.56 
  -3   7   3   13.25    5.47 
   3   7  -3   11.06    7.34 
  -3  -7   3   13.41   19.25 
  -3   7   3   18.25   27.75 
   3   6  -7   51.72   14.29 
   3   6  -7   60.91    8.09 
  -3   6   7   81.68   13.66 
   3  -6  -7   50.96   14.33 
  -3  -6   7   58.47    8.57 
  -3   6   7   66.34   14.37 
   3   6  -7   60.43    9.76 
  -3  -5   9   82.64    6.73 
  -3   5   9   97.36   15.49 
   3   5  -9   68.91   12.41 
   3   5  -9   75.32    6.20 
  -3   5   9   84.11   17.85 
   3   5  -9   74.86   20.00 
   3  -5  -9   86.95   14.60 
  -1  -7  -9  631.53   39.40 
   1  -7   9  459.48   34.27 
  -1  -7  -9  524.25   40.76 
  -1   7  -9  497.52   39.37 
   1   7   9  555.55   39.64 
  -1   7  -9  444.86   31.40 
   1   2  14   35.43   14.26 
  -1   2 -14   33.34    8.53 
  -1   2 -14   28.89   11.55 
   1  -2  14   33.29    9.84 
  -1  -2 -14   40.30   10.12 
  -1  -2 -14   35.36   10.80 
  -2  -7   8   97.25   10.29 
  -2   7   8   83.76   17.03 
  -2   7   8   99.70   16.27 
   2   7  -8   78.78    9.26 
   2   7  -8   88.25   26.04 
   2   7  -8   73.66   13.08 
   2  -7  -8   85.10   14.35 
  -1  -9   2   91.45   13.80 
   2  -6 -10   18.95   21.33 
   2  -7   7   13.40   20.83 
   1   9  -2   89.55   14.13 
  -2   7  -7   12.14    7.40 
   2   7   7   23.44   26.38 
  -2  -6  10   16.56    4.41 
   1  -9  -2   77.33   15.19 
  -1   9   2   64.85   12.90 
  -2  -6  10   18.46    5.07 
  -1   9   2   79.26   16.26 
   2   6 -10   20.00   29.48 
  -2  -7  -7   23.61   17.12 
   2   6 -10   22.20   19.98 
  -2   6  10   15.81   24.82 
   1   9  -2  104.74   19.18 
  -2  -7  -7   20.06    5.86 
  -2   7  -7   13.76   15.48 
  -2   7  -7    9.89   13.91 
  -2   6  10   17.11   25.78 
  -2   6  -9   13.14   21.40 
  -2  -6  -9   24.64   27.87 
  -2   6  -9   16.98    5.07 
   4   0  -9    0.18    2.16 
   2   6   9   21.34   22.77 
  -2   6  -9   12.53   18.98 
   2  -6   9   19.49   27.86 
  -2  -6  -9   13.49    5.52 
   4   0  -9    0.22    1.64 
   4   0  -9    0.15    5.34 
  -4   0   9   -0.12    6.99 
   4   0   7    0.11    3.19 
  -4   0  -7    0.85    5.21 
  -4   0  -7    1.43    7.58 
  -4   0  -7    0.57    2.58 
  -2   1  14   39.97    6.30 
   2  -1 -14   43.70   11.73 
   2   1 -14   33.51   10.09 
  -2  -1  14   34.61   10.81 
   2  -1 -14   38.16    6.42 
  -2   1  14   33.45   16.31 
  -2   1 -13  170.03   21.01 
   2  -1  13  168.39   17.68 
   2   1  13  150.13   19.25 
   0   0  15   -0.32    8.61 
  -2  -1 -13  154.70   22.78 
  -2  -1 -13  150.85   20.57 
  -2   1 -13  141.60   20.25 
   0   0 -15    0.08    2.85 
   0   0 -15    1.74    6.77 
  -3  -7  -2  264.71   24.82 
  -3   7  -2  211.08   24.80 
   3  -7   2  165.25   11.14 
   3  -7   2  267.61   25.91 
   3   7   2  210.46   24.40 
  -3   7  -2  231.63   12.67 
  -1  -5 -12   43.70   13.64 
  -1   5 -12   40.71   12.35 
   4  -5  -1    7.60    9.33 
  -1   5 -12   33.45    9.91 
   4  -5  -1    5.84    6.40 
  -3  -7  -2  213.80    9.99 
  -4   5   1    7.44   12.72 
  -1  -5 -12   37.97    9.52 
  -3  -7  -2  233.14   12.23 
  -4   5   1    7.08    2.85 
  -4  -5   1    7.40   14.33 
   1   5  12   45.62   43.37 
   4   5  -1   12.35   16.33 
  -1   9  -2    6.66   10.75 
  -1   9  -2    7.25   12.01 
   1  -9   2    8.33   16.58 
   1   9   2    4.19    7.18 
  -1  -9  -2    5.53    8.74 
   1   9   2    3.87    6.24 
   4   5  -2   20.06   22.25 
   4  -5  -2   19.05   26.73 
  -4  -5   2   16.31    7.68 
  -4   5   2   16.38    8.01 
   4  -5  -2   14.07    3.68 
  -4   5   2   15.16   18.79 
  -4   5   0  588.95   40.23 
   4   5   0  695.38   46.28 
  -4  -5   0  738.51   43.35 
   4  -5   0  524.96   15.78 
   4  -5   0  585.81   41.69 
   4   1  -9  818.07   33.48 
   4  -1  -9  661.97   42.48 
   4   1  -9  861.44   47.83 
   4  -1  -9  889.49   35.64 
   4  -4  -6  647.06   44.34 
  -4   1   9  798.17   48.72 
   4   4  -6  700.77   52.80 
   4   4  -6  583.61   27.09 
   4   4  -6  824.55   27.20 
  -4   4   6  726.03   43.29 
   4   4  -6  614.21   25.89 
   4  -1  -9  809.04   31.66 
   4   1  -9  800.56   31.08 
  -4  -4   6  712.98   34.41 
   4   1  -9  845.90   30.42 
  -4   4   6  744.00   39.45 
   0  -9   4  307.79   28.35 
   2  -8  -5  313.61   29.98 
   3   4   9    6.42    7.31 
  -4   4  -4  156.20   23.40 
   0   9  -4  329.54   34.86 
  -4  -1  -7   14.17    8.06 
   0   9   4  285.80   26.22 
  -2  -8   5  298.87   22.59 
   0  -9  -4  252.38   23.94 
  -3  -4  -9    4.67    7.60 
  -4   1  -7   14.54   21.77 
  -4   4  -4  137.23   18.04 
   0   9  -4  329.60   30.90 
  -3   4  -9    6.20    5.21 
  -4  -4  -4  103.51   17.43 
   4   4   4  138.62   23.15 
   0   9   4  322.86   32.19 
  -3   4  -9    6.18   12.90 
  -2   8   5  287.91   27.72 
   2   8  -5  297.18   23.44 
  -4  -1  -7   17.20   22.06 
  -4   1  -7   10.94   17.63 
  -3  -4  -9    3.30    6.91 
  -2   8   5  300.43   26.64 
  -4   1  -7   10.23    7.04 
  -3  -4  -9    4.18    6.57 
   2   8  -5  285.65   29.99 
   4  -1   7    9.98    3.17 
  -3   4  -9    6.76    5.93 
   4   1   7   18.36   19.69 
   4   1   7   12.08    3.81 
  -3   4  -9    6.49    9.71 
   3   2 -12   62.20   11.64 
   2  -8   4  184.19   21.36 
  -2   8  -4  182.45   16.01 
  -3   2  12   62.49   14.12 
  -2  -8  -4  145.71   14.87 
   3  -2 -12   61.91    9.27 
   2   8   4  192.17   14.92 
   2  -8   4  169.17   14.22 
   3  -2 -12   67.19   12.98 
  -2  -8  -4  198.83   23.30 
  -3  -2  12   75.09   17.11 
  -2   8  -4  204.52   24.31 
   3  -2 -12   71.88    9.15 
   2   8   4  214.70   24.45 
   1   4  13  257.32   26.09 
  -1  -4 -13  191.70   21.49 
  -1  -4 -13  276.61   26.62 
  -1   4 -13  274.30   23.90 
  -1   4 -13  259.74   30.38 
   1  -4  13  273.68   23.79 
   0   7 -10   29.74   10.05 
  -1   0  15  596.69   33.17 
   0  -7 -10   33.06   12.82 
   0   7 -10   40.84   46.96 
   1   0 -15  665.01   33.75 
   1   0 -15  634.08   58.85 
   0  -7  10   40.50    9.26 
  -1   0  15  684.42   47.28 
   0   7  10   35.35   11.17 
   0  -7 -10   35.84   10.10 
   0  -1  15    3.61    5.94 
   0   1  15    5.86    7.39 
   0  -1 -15    9.61   15.39 
   0  -1 -15    3.08    8.86 
   0   1 -15    3.59    5.80 
   0   1 -15    3.39    4.66 
   0  -1  15    2.78    4.44 
   3   7  -4  288.83   32.23 
  -3  -7   4  240.25   20.58 
  -3   0 -11  139.28   19.87 
   3   0  11  134.25   16.03 
   3  -7  -4  224.16   31.91 
  -3  -7   4  248.68   16.19 
   3   7  -4  278.76   20.46 
  -3   7   4  297.59   23.00 
  -3   0 -11  129.19   19.25 
  -3   7   4  229.27   24.29 
   1   9  -3  217.32   27.36 
   1  -9  -3  251.16   28.16 
  -1  -9   3  228.00   21.76 
  -1   9   3  248.60   32.66 
   1   9  -3  219.50   25.38 
  -1   9   3  262.97   27.09 
   3  -3  10  175.50   14.03 
  -1   8  -7  290.67   30.70 
   4   5   1  785.03   70.40 
   4  -5  -3   15.98    4.28 
   1   8   7  251.16   21.88 
  -3   3 -10  174.24   25.41 
   3   3  10  162.28   19.93 
  -4   5   3   17.23   26.63 
   1  -8   7  293.27   25.77 
  -1  -8  -7  293.73   27.23 
  -4  -5   3   22.38   10.02 
   1   8   7  236.86   25.19 
  -3   3 -10  182.33   23.69 
   4   5  -3   29.36   42.73 
  -4   5  -1  830.40   46.96 
   4  -5  -3   13.04   18.33 
  -3  -3 -10  195.17   24.61 
  -4  -5  -1  877.52   54.53 
  -1   8  -7  268.75   24.96 
  -3  -3 -10  112.30   19.90 
   4  -5   1 1036.79   52.28 
  -3   3 -10  177.16   12.89 
  -4   5   3   18.59    5.43 
  -3  -6  -6  271.74   17.02 
  -3  -6  -6  320.78   28.62 
   3   6   6  268.03   27.87 
  -3   6  -6  291.20   31.61 
   3  -6   6  249.58   27.47 
  -3  -6  -6  263.06   15.78 
   1  -1 -15   64.85   14.07 
   1   1 -15   77.51    8.45 
  -1  -1  15   71.79    7.33 
  -1  -1  15   76.05   16.92 
   1  -1 -15   63.05    9.44 
  -1   1  15   62.05    8.75 
   1   1 -15   75.06   16.04 
  -1   1  15   69.16   18.26 
  -1   6 -11   23.46   26.62 
  -1   6 -11   14.61    6.50 
  -1  -6 -11   22.41    8.59 
  -1  -6 -11   24.54    8.09 
   1  -6  11   20.22   17.52 
   1   6  11   22.28    9.82 
   0   8   8   24.87   38.16 
   0  -8   8   15.94    6.78 
   0  -8  -8   21.62   11.50 
   0   8  -8   21.44   21.81 
   0   8   8   26.35   21.87 
   0   8  -8   14.02   20.89 
  -3   1 -11   28.35   12.86 
   3   1  11   16.84    8.23 
  -3   1 -11   33.12   39.40 
  -3   1 -11   24.09    6.06 
   3  -1  11   32.41    7.33 
  -3  -1 -11   21.85    8.88 
  -3  -1 -11   17.50   30.99 
  -1   9  -3    1.18    4.56 
  -1   9  -3    1.51    5.69 
   1   9   3    2.77    6.21 
  -1  -9  -3    2.00    5.74 
   1  -9   3    1.26    5.53 
   1   9   3    0.91    3.81 
  -3   7  -3   50.33    5.19 
   3  -7   3   46.24   11.83 
  -3   5  -8    2.13    5.10 
  -3  -5  -8    1.06    4.36 
  -3   7  -3   49.79   17.32 
  -3  -7  -3   45.75    4.72 
   3   7   3   56.51   34.29 
  -3  -5  -8    1.07    1.91 
  -3  -7  -3   51.20    5.90 
  -3  -7  -3   56.14   13.60 
  -3   7  -3   54.90    5.29 
  -3   5  -8    1.23    2.09 
   3   5   8    3.32    5.76 
  -3   5  -8    3.81    6.68 
  -3  -5  -8    1.70    4.12 
   4   3  -8  147.94   20.98 
  -4   3   8  192.46   21.92 
   4   3  -8  133.36   14.56 
  -4  -3   8  143.68   12.74 
   4  -3  -8  143.37   15.68 
   4   3  -8  126.88   11.57 
  -2   2  14  221.46   25.18 
   2  -2 -14  248.40   25.69 
  -1  -7  10  116.82   11.88 
   2   2 -14  240.05   27.19 
  -4   3  -6   39.14   14.59 
  -4  -3  -6   43.50    5.75 
   1   7 -10  132.43   21.32 
   4   3   6   44.35   11.12 
  -4   3  -6   38.64   10.88 
  -1   7  10  139.04   19.40 
  -4  -3  -6   32.50   10.93 
   2  -2 -14  244.23   16.71 
   1  -7 -10  147.80   18.56 
   4   3   6   38.16    4.28 
  -2  -2  14  240.14   41.60 
  -2   2  14  232.95   16.89 
   1   7 -10  120.93   18.95 
  -1  -7  10  105.36   15.92 
  -2   2 -13   62.38   33.37 
  -2  -2 -13   62.04   13.28 
  -2  -2 -13   64.14   13.75 
  -2   2 -13   46.20   12.91 
   2  -2  13   51.11   10.35 
   2   2  13   64.95   13.34 
   0   5  13   14.44   20.38 
   0  -5 -13   17.35   16.65 
   0  -5  13   20.42    6.63 
   0  -5  13   12.55    4.28 
   4   5  -4  245.55   28.22 
   0  -5  13   16.75   26.05 
  -4   5   4  229.17   23.20 
   4  -5  -4  236.55   28.43 
  -4  -5   4  187.12   19.32 
   4   5  -4  173.72    9.84 
   4  -5  -4  176.52   16.00 
  -4   5   4  208.58   22.97 
   0  -5 -13   14.92   12.71 
   4   5  -4  193.17    9.65 
   0   5 -13   19.07   28.96 
   4  -5   2  335.28   34.26 
  -4   5  -2  440.15   35.47 
   4   5   2  387.53   39.57 
  -4  -5  -2  426.30   34.58 
   4   2  -9  122.54    9.75 
   4   2  -9  124.46   11.24 
   4  -2  -9  127.61   15.76 
   4  -2  -9  116.19   14.16 
  -4   2   9  142.71   19.52 
   4   2  -9  118.26   13.50 
   4   2  -9  123.83   20.33 
   4   2   7   61.74   10.99 
  -4   2  -7   59.84   14.65 
   4   2   7   42.93    6.49 
  -4  -2  -7   53.48    8.10 
   4  -2   7   56.14    4.87 
  -4   2  -7   60.64    5.69 
  -4   2  -7   61.70   14.64 
  -4  -2  -7   52.81   13.31 
  -1   9   4  219.96   23.31 
  -1   9   4  185.44   22.53 
   1  -9  -4  188.66   21.26 
   1   9  -4  191.37   20.79 
   1   9  -4  174.46   23.61 
  -1  -9   4  165.94   19.35 
   0  -2  15    0.90    2.35 
   0   2 -15    2.22    4.07 
   0  -2  15    0.93    5.39 
   0  -2 -15    0.50    2.55 
   0   2  15    1.11    6.46 
   0  -2 -15    0.60    3.81 
   0   2 -15    1.03    2.57 
   3   7  -5   70.18   16.42 
  -3  -7   5   58.86    8.18 
  -3   7   5   72.27   12.37 
   3   7  -5   67.37    9.35 
  -3   7   5   62.65   13.48 
   3  -7  -5   59.59   12.76 
  -3  -7   5   74.87   11.65 
   0  -9   5  655.45   38.95 
   0   9   5  651.62   42.79 
   0   9  -5  816.25   45.58 
   0  -9  -5  680.17   43.41 
   0   9   5  560.77   54.23 
   0   9  -5  455.79   34.90 
   3   6  -8   30.37   18.40 
   3   6  -8   26.25    4.91 
   3  -6  -8   44.42   37.32 
   3   6  -8   32.03   30.84 
  -3   6   8   35.04   10.69 
  -3   6   8   35.15   10.21 
  -3  -6   8   31.31    7.00 
  -1  -3 -14   21.70    8.39 
   1  -3  14   24.16   22.51 
  -1   3 -14   20.34    8.96 
   1   3  14   37.39   42.66 
  -1   3 -14   22.08   30.29 
  -1  -3 -14   29.23    9.60 
  -1  -8   8  221.05   18.44 
   1   8  -8  227.00   25.37 
  -1   8   8  218.33   22.73 
  -3   4  11   85.79   15.95 
   3   4 -11   77.21   18.70 
   3  -4 -11   75.37   13.51 
   1  -8  -8  176.97   21.19 
   1   8  -8  210.96   31.71 
   3  -4 -11   77.16   12.66 
  -1   8   8  229.84   25.16 
   3   4 -11   64.77   11.80 
   2   8  -6   62.20   15.11 
  -2   8   6   56.70   12.04 
   2   8  -6   66.82   12.06 
  -2   8   6   67.51   14.53 
   2  -8  -6   76.04   14.80 
  -2  -8   6   63.81   10.07 
  -2   8  -5  287.43   29.35 
  -2   8  -5  264.71   19.05 
   2   8   5  250.89   29.10 
   2  -8   5  310.48   27.74 
  -2  -8  -5  227.16   23.05 
  -2   8  -5  238.98   17.26 
   2   8   5  276.98   19.26 
   2  -5 -12  528.99   35.15 
   2   5 -12  430.82   32.54 
   2   5 -12  450.52   37.50 
  -2   5  12  409.64   34.74 
   2  -5 -12  568.69   33.50 
  -2  -5 -11    6.85   11.00 
  -2   5 -11    4.95    6.68 
  -2   5 -11    5.74    7.51 
  -2   5 -11    2.94    8.37 
  -2   5 -11    6.45   11.92 
  -2  -5 -11    7.01   11.32 
   2   5  11    9.48   11.98 
  -4  -4   7  440.39   25.05 
   4  -4  -7  359.88   27.14 
   0  -6 -12  699.70   40.51 
   4   4  -7  482.28   42.25 
   4   4  -7  462.91   24.77 
   1   5 -13   99.83   33.64 
   4   4  -7  391.37   24.16 
   0   6 -12  672.41   48.38 
   4   4  -7  377.02   19.66 
  -4   4   7  415.27   30.25 
   1  -5 -13  124.90   17.16 
   0  -4 -14  244.19   28.30 
   0  -6 -12  717.52   52.53 
  -1   5  13  127.27   32.79 
   0  -6  12  683.78   46.39 
  -4   4   7  435.54   31.99 
   0  -4  14  283.53   28.70 
   0  -4 -14  254.28   25.01 
   0   6 -12  711.94   47.61 
   0  -4  14  194.75   14.42 
   0   4 -14  240.09   18.61 
  -1  -5  13  112.17   11.18 
   1   5 -13  106.40   17.44 
   0   4 -14  247.79   26.97 
   0   6  12  710.43   48.33 
   1  -5 -13  118.12   17.15 
  -1  -5  13   84.86    7.70 
   0   4  14  272.69   29.42 
  -4   4  -5  327.64   32.87 
  -4   4  -5  370.91   32.41 
  -4  -4  -5  363.97   35.57 
  -2  -4  13    9.62   15.13 
   2  -4 -13    9.98   14.91 
   2   4 -13    6.47    8.61 
   4   4   5  480.26   33.26 
   2  -4 -13   10.44   13.16 
  -2   4  13   10.19   21.41 
  -1  -2  15  133.83    9.16 
  -2  -4 -12   15.74   24.36 
   1  -2 -15  121.57   18.61 
   1   2 -15  132.04   20.40 
  -2   4 -12   13.37   12.46 
   1   2 -15  127.61   10.61 
  -1   2  15  112.88   19.33 
  -1  -2  15  139.70   21.04 
   2  -4  12   12.02   19.88 
   1  -2 -15  120.39   13.74 
   2   4  12    9.55   12.22 
  -2  -4 -12   13.70   22.15 
  -2   4 -12   11.66   14.52 
  -3  -2 -11  131.98   23.11 
  -3   2 -11  125.01   19.78 
  -3   2 -11  142.26   21.30 
   3  -2  11  139.98   13.54 
   3   2  11  146.14   17.73 
  -3   2 -11  119.59   12.31 
  -3  -2 -11  163.81   18.84 
   1  -9   4  124.26   17.86 
  -1   9  -4  107.56   15.41 
  -1   9  -4  110.82   18.31 
   1   9   4  113.68   14.74 
  -1  -9  -4  122.49   17.21 
   1   9   4  134.71   19.44 
   2   7  -9  773.21   32.11 
   2   7  -9  734.26   41.16 
  -2   7   9  657.98   42.09 
   2  -7  -9  723.06   58.22 
   2   7  -9  661.17   63.60 
  -2  -7   9  768.40   34.20 
  -2   7   9  698.23   45.71 
   2  -7   8   28.16    9.46 
  -2  -7  -8   18.37   16.78 
   3   3 -12  151.19   19.17 
   3  -3 -12  155.67   20.00 
   3  -3 -12  171.42   17.61 
  -2   7  -8   23.22    5.41 
  -3  -3  12  157.77   24.00 
  -3   3  12  170.41   22.95 
  -2   7  -8   24.40   10.23 
   2   7   8   26.19   25.26 
  -2  -7  -8   23.83   10.57 
  -2   7  -8   26.50   34.59 
  -3   0  13 1119.17   81.44 
   3   0 -13 1053.46   56.13 
   3   0 -13 1127.32   73.92 
   3   0 -13 1040.57   56.01 
  -3   7  -4   80.25    7.76 
  -3  -7  -4   93.98   16.93 
   3  -7   4   56.72   13.88 
  -3  -7  -4   93.57   10.11 
   3   7   4   99.41   18.17 
  -3   7  -4   80.01    9.58 
  -3  -7  -4   87.82    9.70 
  -3   7  -4   84.14   16.97 
   1  -4 -14  124.03   20.25 
   3  -5 -10    1.03    8.12 
  -1  -4  14   86.66    6.27 
   1  -4 -14  106.79   15.66 
   1   4 -14   77.18   15.73 
  -3   5  10    1.11    5.48 
   3  -5 -10    2.08    4.71 
  -1  -4  14   89.73    6.74 
   3   5 -10    0.40    4.84 
   3   5 -10    2.11    5.36 
  -1  -4  14   89.86   31.38 
  -1   4  14  108.75   21.82 
   4   0 -10   22.13    9.71 
  -4   0  10   25.09   31.69 
   4   0 -10   15.49    4.68 
   4   0 -10   22.44   25.72 
  -4  -5   5  216.32   22.07 
   4   5  -5  195.37   14.07 
  -4   5   5  231.48   22.50 
   4   5  -5  175.82   27.93 
   4  -5  -5  216.84   25.00 
  -4   5   5  243.76   28.40 
   4   5  -5  221.68   16.88 
  -4  -5  -3  759.43   56.99 
   4   0   8  557.35   37.58 
  -4   0  -8  638.34   42.79 
  -4   5  -3  735.41   55.51 
   4   5   3  731.61   59.10 
   4  -5   3  742.34   58.86 
  -4   0  -8  711.91   59.29 
  -4   0  -8  604.24   44.25 
  -1  -6  12    7.37    4.11 
  -1  -6  12    6.22    8.33 
   1   6 -12    9.46   13.57 
   1   6 -12    7.85   18.44 
  -1   6  12    7.45    9.52 
   1  -6 -12    7.10   13.96 
   1  -6 -12    5.86   10.17 
  -1  -7 -10  314.21   31.03 
   3  -1 -13    4.10    8.26 
   3  -1 -13    9.06   18.06 
  -1   0 -15   21.19   23.62 
  -3   1  13    1.38    5.46 
  -1   7 -10  310.56   39.16 
   1  -7  10  307.30   29.36 
   1   7  10  326.69   34.71 
   1   0  15   33.35   22.94 
   3   1 -13   10.87   10.51 
  -3  -1  13   10.30   18.78 
  -1   0 -15   21.71    7.89 
  -1   7 -10  305.88   31.88 
   3  -1 -13    5.28    3.53 
  -1  -7 -10  296.58   35.48 
   1  -9  -5   50.55   12.46 
  -1   9   5   51.34   13.96 
  -1  -9   5   37.28   17.77 
   1   9  -5   39.23   10.81 
   1   9  -5   36.02   12.70 
  -1   9   5   48.74   12.56 
   4  -1 -10    5.76   12.45 
   4   1 -10   22.31    4.62 
   4   1 -10   17.91    4.26 
  -4   1  10   12.75   16.75 
   4  -1 -10    8.54    5.05 
   4   1 -10   20.78   27.29 
   4  -1 -10   15.20   20.16 
  -4  -1  10   19.52   33.36 
   4  -1   8    0.64    1.33 
  -4  -1  -8    1.09    4.88 
  -4  -1  -8    0.99    5.88 
   4   1   8    0.21    1.07 
  -4   1  -8    1.38    5.33 
   4   1   8    0.82    4.93 
  -4   1  -8    0.54    1.94 
  -4   1  -8    2.12    7.51 
   3  -6   7   92.36   17.39 
  -2   6  11  193.35   29.23 
  -2  -6  11  141.41   10.46 
  -3  -6  -7   86.45    8.95 
   2  -6 -11  172.78   21.30 
   2  -6 -11  190.85   23.48 
   3   6   7   91.02   16.73 
  -3   6  -7  100.81   30.20 
  -3   6  -7  102.67    6.75 
  -3  -6  -7   97.87   18.32 
   2   6 -11  174.80   47.77 
  -3  -6  -7   99.38   13.23 
   2   6 -11  164.23   27.26 
  -2   6 -10  165.87   25.58 
   2   6  10  168.08   23.86 
  -2  -6 -10  154.28   16.85 
   2  -6  10  163.94   22.29 
  -2   6 -10  155.54   17.95 
  -2   6 -10  145.73   15.17 
  -2  -6 -10  171.88   23.75 
  -1   8  -8   85.41   14.60 
  -1  -8  -8  102.82   14.66 
  -1  -8  -8   93.17   16.44 
   1  -8   8   97.26   16.38 
   1   8   8   84.01   15.73 
  -1   8  -8   92.29   20.99 
   3  -7  -6   -0.53    6.93 
  -3   7   6    0.63    4.80 
   3   7  -6    1.37    4.65 
  -3  -7   6    0.74    2.27 
   3   7  -6    0.55    6.51 
  -3   7   6    0.54    5.16 
  -3  -7   6    0.73    4.25 
  -1  -1 -15    4.84    7.57 
  -1   1 -15    5.33    7.15 
  -1  -1 -15    2.71    5.43 
  -1   1 -15    7.36    9.49 
   1   1  15    5.82   12.30 
   1  -1  15    4.53    6.38 
   2  -3 -14   42.75    8.46 
   2   3 -14   41.88   40.05 
  -2  -3  14   43.01   16.66 
  -2   3  14   44.11   13.19 
   2  -3 -14   50.13   27.25 
  -2  -3 -13   -0.08    4.90 
  -2   3 -13    1.35    5.74 
  -2   3 -13    0.80    2.31 
   2   3  13    0.93    4.01 
   2  -3  13    0.66    3.77 
  -2  -3 -13   -0.17    6.95 
   0   9  -6 1580.73   76.21 
   0  -9  -6 1411.34   98.94 
   0   9  -6 1540.28  107.84 
   0   9   6 1667.51   65.03 
   0  -9   6 1580.28   53.56 
   0   9   6 1487.22   90.89 
   4  -3  -9 1164.76   73.88 
  -3   4 -10   34.11   12.02 
  -3  -4 -10   37.15   12.69 
   4   3  -9 1449.84   86.40 
  -4  -3   9 1227.68   70.15 
   3   4  10   44.46   11.59 
  -3  -4 -10   41.78    9.10 
   4   3  -9 1203.87   65.20 
  -3   4 -10   41.91    6.72 
   4   3  -9 1428.17   96.15 
  -3   4 -10   39.08   11.91 
   4  -3  -9 1328.85   82.54 
  -4   3   9 1461.17   92.71 
   0   8   9   89.16   14.69 
   4   3   7   13.21   13.88 
   0  -8   9   97.32   15.18 
  -4  -3  -7   10.88   13.57 
   4   3   7    7.17    9.96 
  -4   3  -7   11.33   14.14 
   0   8  -9   90.85   19.09 
   0   8  -9   76.22   15.66 
  -4  -3  -7    8.78    4.79 
   0  -8  -9   85.55   15.80 
   0   8   9   99.42   17.92 
  -4   3  -7   13.11   18.56 
   1   9   5    1.34    5.15 
  -1   9  -5    1.05    5.88 
   0   3 -15  344.98   37.19 
   0  -3  15  310.81   39.47 
   1  -9   5   -1.02    6.80 
   1   9   5    0.72    3.47 
   0   3  15  317.70   35.29 
   0  -3 -15  317.13   32.81 
   0  -3  15  197.30   18.83 
   0   3 -15  326.87   26.46 
  -1   9  -5    1.01    5.80 
  -1  -9  -5    1.27    4.47 
   0  -3 -15  286.92   27.31 
   0  -7  11  162.35   18.41 
   0  -7 -11  167.74   20.71 
   0   7  11  132.88   22.36 
   0   7 -11  180.22   26.19 
   0   7 -11  162.91   47.75 
   0  -7 -11  151.83   21.29 
   2  -8   6  103.86   17.69 
  -2   8   7  262.04   29.65 
  -2   8  -6  107.77   14.10 
  -2  -8  -6  123.56   19.68 
  -2   8  -6  102.64   18.84 
  -2  -8  -6  108.36   13.29 
  -2   8  -6  103.53   12.86 
   2   8   6  107.28   18.79 
  -2   8   7  213.05   25.41 
  -2  -8   7  261.20   22.93 
   2   8  -7  221.47   23.77 
   2  -8  -7  233.53   26.01 
   2   8  -7  241.39   45.89 
   5   0  -1  261.36   20.99 
   5   0  -1  295.94   26.87 
  -4   5  -4  140.75   39.48 
  -5   0   1  322.58   28.35 
  -4  -5  -4  138.69   20.87 
   4   5   4  130.84   19.11 
   4  -5  -6    1.10    4.83 
   2   0 -15    0.19    1.51 
  -5   0   1  309.68   32.80 
   2   0 -15   -0.12    7.38 
  -4   5  -4  141.66   22.73 
  -4  -5   6    0.45    3.34 
  -4   5   6    1.17    4.06 
   4   5  -6    0.47    1.16 
  -2   0  15   -0.03    1.24 
  -2   0  15    0.32    4.36 
   4   5  -6    1.27    2.11 
   4   5  -6    0.94    7.14 
   4   5  -6    0.25    1.55 
  -4   5   6    0.35    4.67 
  -2   0 -14  217.14   25.11 
  -2   0 -14  246.27   28.39 
  -3  -5  -9   20.87   30.96 
  -3   5  -9   20.31    4.08 
  -3  -5  -9   27.00    6.90 
   2   0  14  249.72   26.83 
  -3   5  -9   24.63   36.89 
  -3   5  -9   21.87    3.90 
   3   5   9   25.55   32.70 
  -3   5  -9   32.39   35.01 
  -3  -5  -9   19.93    4.95 
   3   2 -13  144.31   21.32 
   3  -2 -13  142.93   20.09 
   3  -2 -13  141.12   14.38 
  -3  -2  13  135.08   23.98 
  -3   2  13  121.61   21.62 
   3  -2 -13  111.79   14.17 
   4   4  -8   68.03    8.79 
   4  -4  -8   86.03   14.34 
  -1   5 -13  530.43   44.31 
   4   4  -8   63.09   10.84 
  -1  -5 -13  475.70   41.21 
  -4  -4   8   69.65   10.00 
   4   4  -8   53.54    8.13 
  -4   4   8   80.18   15.51 
   4   4  -8   74.17   17.36 
   1   5  13  504.23   45.95 
  -1  -5 -13  648.41   50.80 
  -4   4   8   74.26   14.34 
   1  -5  13  567.79   47.85 
  -1   5 -13  522.92   48.21 
  -3  -7  -5   20.25    4.22 
  -3   7  -5   24.80   33.28 
   5   0  -2    0.55    2.20 
   3  -7   5   20.66   36.79 
  -5   0   2    0.83    3.91 
  -3  -7  -5   23.70    5.24 
  -3   7  -5   22.52    4.29 
  -3   7  -5   25.23    3.60 
   5   0  -2    0.58    1.34 
  -5   0   2    2.69    4.79 
  -3  -7  -5   20.97   28.44 
   3   7   5   22.89   20.25 
  -1   3  15  116.46   21.67 
  -1  -3  15  131.74   22.89 
   4   4   6  413.80   36.52 
  -4  -4  -6  464.92   26.69 
   1   3 -15  123.23   19.88 
  -4   4  -6  419.32   59.34 
  -4   4  -6  456.98   40.57 
   1  -3 -15  131.96   19.67 
  -1  -3  15  134.20   10.31 
  -1  -3  15  128.60   10.68 
  -4  -4  -6  420.47   25.01 
   1  -3 -15  177.06   19.27 
  -4  -4  -6  382.95   40.06 
   2   9   0  302.24   25.58 
  -2   9   0  265.96   25.02 
   2  -9   0  282.82   34.18 
   2   9   0  367.05   39.27 
  -2   9   0  265.38   43.90 
  -2  -9   1   23.43   15.41 
   2  -9  -1   18.56   30.38 
   2   9  -1   19.42    7.34 
  -2   9   1   20.85   32.10 
  -2  -9   0  268.81   31.32 
   2   9  -1   25.34   38.56 
  -2   9   1   20.09    7.61 
   4   2 -10   16.81    3.52 
   4  -2 -10    8.26   18.23 
   4   2 -10   19.36    7.77 
   4   2 -10   20.16   28.74 
  -4   2  10   10.45   17.01 
   4  -2 -10   13.56   16.59 
   4   2 -10   14.76    3.32 
  -4   2  -8 1157.59   63.00 
   4   2   8 1295.42   80.33 
   4  -2   8 1347.85   72.02 
  -4   2  -8 1514.79  110.10 
  -3  -3 -11    2.73    5.38 
  -3   3 -11    1.87    4.10 
  -3  -3 -11    5.13    7.33 
  -4  -2  -8 1108.83   83.58 
   4   2   8 1043.89   59.73 
   3   3  11    1.49    2.83 
   3  -3  11    3.30    6.76 
  -3   3 -11    2.21    3.60 
  -4   2  -8 1244.05   80.40 
  -3   3 -11    3.44    6.52 
  -4  -2  -8 1325.98   78.87 
  -3  -6   9    0.74    1.79 
  -3   6   9    1.24    6.70 
  -5   0   0    0.65    7.98 
   5   0   0    0.19    1.36 
   3  -6  -9    1.23    3.57 
   3   6  -9    1.11    5.83 
  -5   0   0    1.20    4.31 
   5   0   0    0.31    1.81 
   3   6  -9    0.53    1.66 
   3   6  -9    0.35    5.37 
  -3   6   9    2.06   12.14 
   3   0  12    0.62    3.83 
  -3   0 -12    1.31    5.80 
  -3   0 -12    0.44    5.00 
   5   1  -1   40.84   10.04 
  -5  -1   1   46.77   11.97 
   2  -1 -15   72.14   10.50 
   2  -1 -15   78.36   18.55 
   5   1  -1   33.37    5.89 
  -2   1  15   66.74    9.71 
  -2  -1  15   71.32   16.57 
   5  -1  -1   41.85   11.33 
  -5   1   1   42.78   16.85 
   2   1 -15   68.49   14.27 
  -2   1  15   77.10   17.19 
   5   1  -1   38.64    5.68 
  -5   1   1   36.46   11.07 
   5  -1  -1   34.63    6.83 
  -2   1 -14   35.55   33.56 
  -2  -1 -14   32.09   11.36 
  -1   2 -15 1432.92   91.29 
  -2   1 -14   27.81   10.09 
  -1  -2 -15 1404.54   92.12 
   2   1  14   32.55   27.58 
  -1   2 -15 1294.16   86.80 
   2  -1  14   33.39    9.71 
  -1  -2 -15 1223.58   92.50 
  -2  -1 -14   30.07   10.09 
   1  -2  15 1356.35   87.73 
   1   2  15 1405.02   92.29 
  -1   7  11   51.67   13.31 
   1  -7 -11   52.15   12.02 
   1   7 -11   58.73   14.26 
   1   7 -11   60.11   14.93 
  -1   8   9  995.88   69.96 
  -1  -7  11   60.02    9.07 
   2   9  -2  254.70   23.26 
  -2   9   2  291.94   32.95 
  -2  -9  -1    0.70    5.67 
   1  -8  -9 1091.11   72.45 
  -2  -9   2  296.77   28.50 
  -1  -7  11   53.68    8.98 
   1   8  -9  947.89   69.44 
   2  -9   1    0.96    6.45 
  -2   9  -1   -0.13    4.61 
   2   9  -2  272.49   32.65 
  -1  -8   9 1048.37   64.03 
   2   9   1    0.90    3.17 
   1   8  -9  987.41  102.11 
  -1   8   9  997.65   67.09 
   1  -7 -11   64.77   13.05 
   2  -9  -2  234.50   27.82 
  -2   9   2  253.63   24.75 
   2   9   1    0.36    5.79 
  -2   9  -1    0.85    4.43 
  -5   0   3  682.25   52.87 
   5   0  -3  493.39   34.05 
   5   0  -3  580.46   43.83 
   5  -1  -2   13.22    4.44 
   5   1  -2   15.87   14.96 
  -5   1   2   19.27   26.07 
   5   1  -2   16.33    4.06 
   5   1  -2   12.77    7.90 
  -5  -1   2   16.54   23.88 
  -5   1   2   17.27    5.96 
   5  -1  -2   16.13    9.29 
  -1  -6 -12   76.37   14.22 
   1  -6  12   59.19   12.63 
   4   6  -1    6.44    7.14 
  -1   6 -12   65.04   16.44 
  -4  -6   1    5.71   12.59 
  -1  -6 -12   70.93   15.49 
   4  -6  -1    3.81    6.80 
   1   6  12   67.79   15.69 
  -1   6 -12   74.83   15.44 
   4  -6  -1    3.06    6.16 
  -4   6   1    6.29    9.24 
  -4   6   1    5.55    8.65 
   1   9  -6  477.84   50.85 
   1  -9  -6  504.73   42.94 
  -1   9   6  504.74   44.21 
  -1   9   6  434.84   39.25 
  -1  -9   6  520.89   39.28 
   1   9  -6  511.25   43.42 
   5  -1   0   50.52    8.79 
   5   1   0   53.05    7.69 
  -5  -1   0   59.43    7.87 
  -5  -1   0   55.52   13.81 
  -5   1   0   54.50   16.72 
  -5   1   0   45.83   13.04 
   5  -1   0   31.27    6.03 
   5   1   0   48.48   21.11 
   1   4  14   15.69   21.51 
  -1  -4 -14   12.03   16.36 
  -1   4 -14   11.03   17.18 
  -1  -4 -14   15.39   24.03 
   1  -4  14   10.82   12.97 
  -1   4 -14   12.38   19.38 
   4  -6   0  148.12    9.74 
   4  -6  -2  503.16   44.48 
   4  -6   0  179.97   25.09 
  -4   6   0  174.35   23.92 
  -4  -6   2  510.88   41.95 
   4   6   0  156.26   23.62 
   4  -6  -2  466.40   29.97 
  -4   6   2  519.32   33.42 
  -4  -6   0  167.26   22.90 
  -4   6   2  505.29   43.71 
   4   6  -2  567.40   49.26 
  -3  -1 -12  284.36   31.89 
   3   1  12  241.71   24.74 
   5   0   1    5.54   13.64 
  -3   1 -12  226.11   27.88 
   5   0   1    9.91    4.20 
   5   0   1    7.71    9.38 
  -3  -1 -12  277.29   34.78 
   3  -1  12  218.18   21.00 
  -3   1 -12  235.87   28.21 
  -5   0  -1    9.67    4.59 
  -5   0  -1   14.33   21.14 
   5  -1  -3    0.89    2.33 
   5   1  -3    0.25    1.18 
   5   1  -3   -0.16    4.37 
  -5   1   3    0.54    5.05 
   5   1  -3    0.43    2.05 
  -5   1   3    1.56    3.68 
  -5  -1   3    0.47    3.32 
   0   0  16  259.32   29.93 
   0   0 -16  238.73   23.07 
   0   0 -16  268.35   31.23 
  -3  -7   7    6.56   11.15 
  -3   7   7    8.45   11.84 
  -3   7   7    7.02    7.69 
   3   7  -7    2.13    4.40 
   3  -7  -7    7.54   13.75 
   3   7  -7    3.51    7.90 
   3   7  -7    5.55    8.74 
  -3   8   1    4.29    6.96 
   3   8  -1    5.17    6.40 
   3   8  -1    3.44    7.14 
  -3  -8   1    2.73    5.15 
   3  -8  -1    2.36    4.38 
   3  -8  -1    3.46    7.41 
  -3   8   1    4.75    6.91 
  -3  -8   1    6.74   10.34 
   2  -9  -3   14.60   25.43 
   2   9  -3   12.55    8.61 
  -2  -9   3   14.03   20.70 
  -2   9   3   19.00   29.67 
   2   9  -3   20.76   29.64 
  -2   9   3   12.39   22.35 
   3  -8   0    3.93    6.91 
   2  -9   2   80.83   16.04 
  -2   9  -2   82.48   12.65 
  -3   8   0    3.18    5.66 
   2   9   2   77.87   17.16 
   3   8   0    2.55    5.78 
  -2  -9  -2   76.50   14.64 
  -2   9  -2   87.73   17.49 
  -3  -8   0    3.46    4.90 
   3  -8   0    2.28    6.51 
   2   9   2   91.01   12.49 
  -3  -8   0    2.25    4.12 
  -3   8   0    4.46    5.90 
   3   8   0    4.50    6.31 
   5   0  -4    0.36    3.94 
  -5   0   4    1.03    3.35 
   5   0  -4   -0.15    3.09 
   2  -7 -10   41.76   30.08 
   5  -1   1   21.95    5.09 
  -5   1  -1   25.99    7.01 
  -2  -7  10   52.54    8.91 
  -4   6   3  185.66   26.71 
  -5   1  -1   27.54   33.36 
  -5  -1  -1   21.92    4.73 
  -2  -7  10   39.08    6.85 
  -2   7  10   39.61   39.45 
   4  -6  -3  173.09   16.02 
  -4   6   3  197.49   21.07 
   2   7 -10   44.98   14.30 
   2   7 -10   48.55   13.41 
   4  -6   1  214.21   26.46 
   4   6   1  254.42   31.33 
   4   6  -3  191.24   35.22 
   5  -1   1   25.12    6.22 
  -5  -1  -1   25.09   20.62 
   5   1   1   16.20    6.10 
  -4  -6  -1  204.61   25.02 
  -4   6  -1  213.39   26.87 
   5   1   1   17.64    4.06 
  -2   7  10   40.86   12.20 
   4  -6  -3  190.81   24.94 
  -4  -6   3  172.82   20.97 
  -2  -7  -9  867.35   54.62 
   1   0 -16    0.81    6.33 
  -2   7  -9  931.54   71.87 
   1   0 -16    0.38    1.75 
  -2   7  -9  762.16   58.76 
  -2  -7  -9  892.64   65.14 
  -1   0  16    0.95    5.63 
   2   7   9  841.72   71.44 
  -1   0  16    0.85    1.47 
  -2   7  -9  752.22   50.34 
   2  -7   9  945.95   67.59 
   3  -4 -12    0.40    2.22 
   3  -4 -12    0.89    4.49 
   3   4 -12    2.71    6.45 
   3   4 -12    1.08    2.09 
  -3   4  12    0.83    3.89 
  -3  -8   2   70.99   14.23 
  -3  -8   2   80.89   10.86 
  -3   8   2   82.36   17.49 
   3   8  -2   61.48   18.58 
   3   8  -2   80.33   10.13 
   3  -8  -2   64.19   14.60 
  -3   8   2   72.13   11.59 
   0   1 -16  256.61   23.74 
   0  -1 -16  235.93   32.00 
   0  -1 -16  223.27   22.85 
   0   1 -16  202.00   26.40 
   0   1  16  241.83   29.91 
   0  -1  16  230.45   32.98 
  -3  -8  -1    6.56   11.34 
   3   8   1   12.28    3.69 
   3   8   1   14.42   15.10 
   3  -8   1   14.54   23.34 
  -3   8  -1   13.07   23.43 
  -3   8  -1   16.06   17.83 
  -3  -8  -1   10.32   16.87 
   3  -8   1    9.84    3.44 
   0   9  -7 1211.32   83.32 
   1  -9   6  309.46   32.36 
   0  -9   7 1343.87   84.91 
   0   9  -7 1264.98   86.19 
  -1   9  -6  277.76   30.61 
   0   9   7 1198.71   92.65 
   0  -9  -7 1426.44   91.48 
  -1   9  -6  328.24   34.94 
   1   9   6  332.51   33.15 
   1   9   6  328.79   35.45 
  -1  -9  -6  358.78   34.56 
   0   9   7 1254.28   79.09 
   4   0 -11    0.69    4.01 
  -4   0  11   -0.46   10.58 
   4   0 -11    0.08    1.55 
   4   0 -11    0.10    1.48 
   3  -5 -11    4.03    5.42 
   4   0   9    0.73    4.29 
   3  -5 -11    2.14    3.84 
  -4   0  -9    0.31    2.70 
  -4   0  -9    0.44    4.53 
   3   5 -11    1.80    2.94 
  -4   0  -9    1.15    6.78 
  -3   5  11    2.87    5.52 
   3   5 -11    2.65    3.94 
  -5  -1   4   26.30   12.88 
   5   1  -4   26.77    6.03 
   5  -1  -4   23.03   19.38 
   0  10   0   21.31   33.63 
   0  10   0   16.65   26.72 
  -5   1   4   20.63    6.57 
  -5   1   4   19.28    8.14 
   5   1  -4   31.42   33.58 
   5   1  -4   31.89    6.39 
   0 -10   0   18.27   30.40 
  -3  -6  -8  144.54   14.05 
  -3   6  -8  153.13   10.59 
  -3  -6  -8  167.45   23.38 
   3  -6   8  174.97   41.39 
  -3   6  -8  153.99   24.23 
  -3   6  -8  154.37   11.19 
  -3  -6  -8  143.68   14.37 
   3   6   8  147.37   22.43 
  -1   1  16  984.85  106.83 
   1   1 -16 1132.58   90.11 
  -1  -1  16 1222.06   85.98 
   2  -2 -15    1.25    2.23 
   1  -1 -16 1042.45   63.11 
   2   2 -15    0.58    4.45 
   2  -2 -15    1.12    6.25 
  -1   1  16  996.64   69.85 
  -5   2   1    4.25    6.04 
   5   2  -1    6.06    6.93 
  -5   2   1    4.63   12.38 
  -2  -2  15    1.13    4.47 
   1  -1 -16 1009.70   74.29 
  -5  -2   1    5.49    9.06 
   5   2  -1    4.67    1.66 
   1   1 -16 1082.50   66.03 
   5   2  -1    3.52    2.94 
  -2   2  15    0.44    7.53 
  -1  -1  16  949.15   53.81 
  -2   2  15    0.76    1.88 
   5  -2  -1    3.67    8.28 
   5  -2  -1    4.88    8.33 
  -5   0  -2    0.13    3.40 
   5   0   2    0.10    1.94 
  -5   0  -2    0.41    3.87 
  -2  -2 -14   26.44   22.56 
   2  -2  14   25.23   10.82 
   2   2  14   28.88   26.53 
  -2   2 -14   25.12    9.11 
   5   0   2    0.61    3.59 
  -2  -2 -14   24.05   32.10 
  -2   2 -14   24.86   10.98 
   5   0   2    0.08    1.12 
  -5   2   2    2.27    5.59 
   0  -5 -14   28.88    9.67 
  -5   2   2    1.97    5.91 
   5  -2  -2    1.57    3.87 
  -5  -2   2    2.55    7.64 
   4   5  -7  151.99   13.77 
   4   5  -7  185.77   17.73 
   4  -5  -7  146.47   19.06 
  -4   5   7  171.39   30.91 
   0  -5  14   37.28   13.49 
   0   5 -14   37.68   45.88 
   0   5  14   37.36   38.08 
  -4  -5   7  224.24   20.56 
   5   2  -2    1.20    3.22 
  -4   5   7  182.57   22.65 
   0  -5  14   29.17    6.51 
   5   2  -2    0.81    2.26 
   0  -5  14   35.52    7.88 
   5   2  -2    1.27    3.43 
   0  -5 -14   33.54   34.58 
   4   5  -7  236.45   29.59 
   5  -2  -2    0.76    2.69 
  -4   5  -5  287.64   33.54 
   2   5 -13  198.32   28.35 
   2   5 -13  196.92   24.71 
   2  -5 -13  222.42   23.05 
   4   5   5  337.31   32.71 
   2  -5 -13  214.14   25.38 
  -4  -5  -5  338.82   34.90 
  -4   5  -5  299.07   38.52 
  -2   5  13  220.36   28.60 
  -2  -5 -12  106.19   16.56 
  -2   5 -12   96.47   19.93 
   0 -10   1  585.00   46.50 
   0  10   1  637.93   49.89 
  -2  -5 -12  118.31   20.50 
  -2   5 -12   98.40   14.31 
   2   5  12  109.83   20.71 
   0  10  -1  573.08   58.78 
   0  10   1  592.01   48.44 
   0 -10  -1  590.76   47.35 
   0  10  -1  598.70   47.31 
  -2   5 -12   92.70   17.35 
  -3  -8   3  365.32   25.54 
  -3   8   3  402.08   32.17 
  -3  -8   3  338.47   30.78 
   3   8  -3  371.55   30.35 
   3   8  -3  380.47   41.96 
   3  -8  -3  534.69   47.01 
  -3   8   3  458.24   42.84 
   5  -2   0    0.51    2.73 
  -5   2   0    0.59    4.80 
   5   2   0    0.42    1.51 
   5   2   0    0.73    4.04 
   5  -2   0    0.19    1.51 
  -5   2   0   -0.53    6.81 
  -5  -2   0    1.19    3.94 
   5   2   0    0.51    1.00 
  -1   8  -9   76.98   18.68 
   1   8   9   69.18   15.72 
  -1   8  -9   68.18   14.66 
  -1  -8  -9   74.99   15.71 
  -1  -8  -9   59.98   11.96 
   1  -8   9   76.37   16.17 
   4  -1 -11  696.71   45.16 
   4   1 -11  534.67   31.83 
  -4  -1  11  500.09   44.58 
   4  -1 -11  647.53   47.67 
  -4   1  11  615.54   52.12 
   4   1 -11  551.34   32.74 
   4   1 -11  631.70   46.49 
   4  -1 -11  504.88   43.18 
   0   6  13   69.12   16.37 
   0  -6 -13   77.75   14.94 
   0  -6  13   90.72   14.74 
   0   6 -13   76.45   17.27 
   0   6 -13   87.12   18.21 
   0  -6 -13   79.96   19.89 
  -4  -6  -2   45.43   12.06 
   2  -8  -8  109.24   18.33 
  -4  -6   4  371.93   32.50 
  -2   8   8  109.86   18.69 
  -4   1  -9   95.27   17.39 
  -4   6   4  353.93   35.34 
   4   6  -4  363.36   22.07 
   4   6  -4  334.31   19.69 
   4   6  -4  413.81   41.81 
  -4  -1  -9   80.11   13.33 
   2   8  -8  108.41   25.36 
   4  -1   9   97.89   11.76 
  -4   1  -9   93.07   11.10 
  -4   6  -2   53.83   14.19 
   4   1   9   94.06   13.01 
  -2   8   8  102.82   17.55 
  -4   1  -9   88.91   17.89 
   2   8  -8  121.44   17.99 
   4   6   2   61.40   15.51 
  -4  -1  -9   87.93   17.79 
   4  -6  -4  346.63   33.38 
   4  -6   2   45.96   13.11 
  -4   6   4  369.71   28.35 
  -2  -8   8  119.39   14.47 
   4  -6  -4  288.48   23.34 
  -2  -8  -7  156.76   16.21 
   2  -8   7  131.66   19.64 
   2   8   7  131.86   21.25 
  -2   8  -7  155.77   21.11 
  -2  -8  -7  141.06   21.62 
  -2   8  -7  134.56   23.45 
  -2   8  -7  134.38   13.92 
  -2   9   4  203.21   23.74 
  -2  -9  -3   24.51   12.33 
  -3   2 -12   78.72   16.55 
   2   9   3   20.92    6.32 
  -3  -2 -12   74.08   16.20 
   2  -9   3   24.33   20.72 
   2   9   3   24.11   32.28 
  -2   9  -3   20.71    7.94 
  -2   9   4  252.34   31.60 
  -3   2 -12   73.41   16.52 
   3  -2  12   93.54   12.79 
   2   9  -4  220.57   30.13 
   2  -9  -4  214.53   45.57 
  -2   9  -3   19.82    9.52 
  -3  -2 -12   91.54   16.89 
  -2  -9   4  201.07   22.84 
   2   9  -4  203.88   21.45 
   3   2  12   82.41   15.25 
  -3  -7  -6    1.00    3.86 
   3  -7   6    5.78    8.53 
   3   7   6    0.33    7.21 
  -3   7  -6    0.58    1.73 
  -3  -7  -6    0.41    1.62 
  -3  -7  -6    0.74    1.95 
  -3   7  -6    0.91    4.32 
  -3   7  -6    0.70    1.56 
  -5   1  -2   60.88   11.71 
  -5   1  -2   58.26   15.57 
   3  -3 -13    2.65    5.34 
   5  -1   2   56.69    8.46 
   5  -1   2   49.92    7.40 
  -5  -1  -2   69.86    9.04 
  -3  -3  13    2.30    6.47 
   5   1   2   65.25   11.95 
   3  -3 -13    3.27    6.13 
  -3   3  13    2.51    7.48 
  -5  -1  -2   69.76   16.14 
   3   3 -13    2.76    5.82 
   5   1   2   55.45    7.68 
  -5  -2   3    8.14   14.10 
  -5   2   3   10.92   21.87 
   5   2  -3    7.69   11.85 
   5   2  -3    7.63    2.59 
  -5   2   3   10.77   19.81 
   5  -2  -3   12.40   14.06 
   5   2  -3    4.59    7.38 
   5  -2  -3    5.66   12.84 
   2  -4 -14   13.31   15.64 
   2   4 -14   17.72   19.42 
  -2   4  14   14.24   17.88 
   2  -4 -14   13.31   14.18 
  -2  -4  14   17.39   30.60 
   2   4  13  116.73   18.89 
   2  -4  13  115.33   15.71 
  -1  -5  14   40.37    5.87 
  -1  -5  14   33.32    4.91 
   1  -5 -14   39.93   22.15 
   1  -5 -14   31.39   10.38 
  -2   4 -13  103.53   16.92 
   1   5 -14   37.45   11.65 
  -2  -4 -13  118.27   19.37 
   1   5 -14   39.59   13.69 
  -1   5  14   31.50   12.45 
  -2  -4 -13  108.23   17.03 
  -2   4 -13  129.26   22.44 
  -3  -8  -2  196.14   15.35 
  -1  -7 -11   14.46   21.31 
  -1  -7 -11   14.49   17.92 
   3  -8   2  243.12   21.98 
   5   0  -5  186.20   23.35 
   1   7  11   17.96   25.57 
  -3   8  -2  247.63   30.01 
  -1   7 -11   25.52   26.39 
  -5   0   5  149.62   20.21 
   5   0  -5  149.87   14.92 
   3   8   2  219.87   28.61 
   3  -8   2  211.06   30.75 
  -1   7 -11   22.12   10.51 
  -3  -8  -2  237.92   27.65 
  -3   8  -2  255.54   19.40 
   1  -7  11   22.55   34.89 
   0  10   2   23.65    8.99 
   0 -10  -2   21.46   31.60 
   0  10   2   19.05   26.88 
   0  10  -2   24.47   23.05 
   0 -10   2   21.93   32.01 
   0  10  -2   12.89   19.46 
   4  -3 -10  116.49   16.99 
   4   3 -10   98.48   15.59 
   4   3 -10  125.83   22.10 
  -4   3  10   97.08   17.54 
   4   3 -10  117.31    9.37 
   4   3 -10  115.65    8.90 
   4  -3 -10  121.56   15.63 
   4   3   8    0.74    1.23 
  -4  -3  -8    1.59    6.44 
  -4   3  -8    1.54    4.94 
   4   3   8    0.81    4.07 
  -4   3  -8    2.90    7.72 
  -4  -3  -8    0.85    3.87 
  -3   0  14   -1.06    9.61 
   3   0 -14    0.05    0.77 
   3   0 -14    0.17    0.65 
   3   0 -14   -1.09    6.78 
  -5  -2  -1   44.80   12.21 
   5  -2   1   39.93    5.91 
   4   4  -9   37.56    5.46 
  -5   2  -1   44.90   15.27 
  -4   4   9   49.33   13.73 
   5   2   1   43.97    4.36 
  -5   2  -1   42.72   10.55 
   4  -4  -9   42.88   17.00 
   5  -2   1   37.81    6.54 
   4   4  -9   33.22    8.64 
   4   4  -9   48.47   48.25 
   5   2   1   37.84    4.21 
  -4  -4   9   39.81    6.82 
   5   2   1   47.07   11.21 
  -4  -4  -7   15.03    3.30 
  -4   4  -7   18.59   21.92 
  -4  -4  -7   16.96    4.35 
   4   4   7   17.78   23.02 
  -4  -4  -7   16.15   24.46 
  -4   4  -7   15.05   25.50 
   1   3  15   18.39   18.48 
  -2  -6 -11   26.70    7.93 
  -1  -3 -15   17.59   26.74 
  -1   3 -15   16.39   22.07 
   2   6  11   33.54   40.86 
  -2   6 -11   31.26   13.23 
  -2   6  12  388.35   40.54 
   1  -3  15   16.87   17.31 
   2  -6 -12  328.94   29.83 
   2  -6  11   32.17   10.44 
  -2   6 -11   39.37   10.27 
   2  -6 -12  350.96   33.80 
  -1   3 -15   15.03   22.47 
   2   6 -12  317.83   32.88 
  -1  -3 -15   21.62   21.50 
  -2  -6 -11   25.62   11.36 
   2   6 -12  278.36   34.25 
  -2  -6  12  235.47   14.37 
  -1  -6  13  200.44   16.15 
  -1  -6  13  130.94   12.42 
  -1   6  13  181.59   27.64 
   1   6 -13  157.59   23.22 
   1   6 -13  201.03   26.33 
   1  -6 -13  181.67   23.22 
   1  -6 -13  188.13   21.66 
   0   2 -16    0.55    2.23 
  -1  -9   7   53.00   10.93 
   0   2 -16    3.05    5.19 
   0  -2  16    2.29    8.26 
   0  -2 -16    2.64    5.12 
   0  -2 -16    0.85    4.21 
   0   2  16    2.57   13.43 
  -1   9   7   50.50   13.51 
   1   9  -7   51.89   12.65 
   1  -9  -7   48.58   12.53 
   1   9  -7   47.81   15.48 
  -1   9   7   48.85   12.28 
   0  -4 -15    1.31    6.07 
   0   4 -15    2.20    7.27 
   0   4 -15    1.79    4.76 
   0   8 -10  718.91   63.96 
   0  -8 -10  958.58   65.27 
   0   4  15    1.14    7.30 
   0  -4  15    1.45    3.64 
   0  -4 -15    1.37    4.36 
   0   8  10  811.41   61.49 
   0  -8  10  878.15   67.27 
   0  -4  15    3.43    4.06 
   0  -8 -10  937.65   70.19 
   0   8 -10  756.68   59.63 
  -5  -1   5   14.90    6.79 
   5   1  -5   11.14   11.74 
  -5   1   5   17.08    8.65 
   5  -1  -5   18.17   14.01 
   5   1  -5   13.97    4.75 
   5  -1  -5   19.79    6.03 
   5   1  -5   12.71   19.62 
   3   8  -4    4.05   14.22 
  -3  -8   4    4.55    7.14 
   3  -8  -4    2.90    4.51 
  -3   8   4    2.85    6.54 
  -3  -8   4    2.52    3.26 
  -3   8   4    2.31    3.33 
   3   8  -4    3.34    6.23 
   3  -1 -14    5.03    7.48 
  -5  -2   4   66.74   13.42 
  -5   2   4   50.77   11.52 
   3   1 -14    7.29    6.92 
   5   2  -4   49.43    7.62 
   5  -2  -4   54.89   12.25 
   5  -2  -4   52.23   10.97 
   3  -1 -14    2.06    5.07 
   5   2  -4   55.04   14.25 
  -3   1  14    7.93   10.86 
  -3  -1  14   12.50   22.09 
   3  -1 -14    3.72    2.98 
   5   2  -4   67.87    9.05 
  -5   0  -3   36.12   12.48 
  -5   0  -3   33.80    8.38 
   5   0   3   30.26    6.64 
   5   0   3   24.69    5.54 
   5   0   3   27.71   11.30 
   1   2 -16    0.51    1.12 
  -1  -2  16    1.99    6.58 
   1  -2 -16    1.98    7.20 
  -1   2  16    1.72    7.01 
   1  -2 -16    0.45    3.06 
   1   2 -16   -0.72    7.35 
   1  -4 -15  241.62   31.36 
  -1  -4  15  213.66   14.53 
   1   4 -15  202.62   26.39 
  -1   4  15  268.12   34.41 
  -1  -4  15  223.86   15.22 
   1  -4 -15  273.43   31.71 
  -1  -4  15  246.46   30.33 
   0 -10   3    7.35   10.61 
   0 -10  -3    7.73   18.22 
   0  10  -3    5.27    8.09 
  -3   6  10    1.42    5.65 
   3   6 -10    2.67    9.00 
   3   6 -10    0.94    2.60 
   3   6 -10    1.40    2.96 
   3  -6 -10    1.14    3.46 
   0  10   3    7.80   12.89 
  -3   6  10    1.85    4.71 
   0  10   3    8.61   11.34 
  -3  -6  10    1.14    1.93 
   0  10  -3    6.09   10.16 
  -4  -6   5    0.55    1.16 
   4  -6  -5    1.13    3.59 
  -4  -6   5    0.62    4.63 
   4   6  -5    0.22    1.23 
  -4   6   5    0.18    4.64 
  -4   6   5    1.45    2.92 
  -3  -4 -11   35.76   11.50 
  -3  -4 -11   34.92    8.91 
   3  -4  11   44.38    7.30 
   4  -6   3    6.84   12.10 
  -3   4 -11   47.41   24.97 
  -3   4 -11   48.31   13.81 
  -4  -6  -3    5.16    8.83 
  -3   4 -11   38.18    6.94 
   4   6   3    5.80    7.52 
  -4   6  -3    5.73    8.74 
   3   4  11   43.82   38.87 
   3  -7  -8   14.06   15.13 
  -3  -7   8   10.59    4.09 
   3   7  -8   12.32   16.44 
   3   7  -8   10.76   16.13 
   3   7  -8    9.16    3.32 
  -3   7   8   12.25   15.81 
  -3   7   8    9.34   18.65 
   4   2 -11    1.07    2.10 
   4  -2 -11    2.19    4.53 
  -1 -10   0   67.91   22.39 
   4  -2 -11    2.99    6.08 
  -1  10   0   69.80   14.36 
   4   2 -11    0.74    0.83 
   1  10   0   66.99   16.09 
   1 -10   0   76.58   15.97 
   1  10   0   60.64   12.86 
  -4   2  11    2.14    5.32 
   4   2 -11    1.42    2.33 
   4   2 -11    1.77    6.59 
  -1  10   0   73.46   15.84 
  -4  -2  -9   95.03   18.98 
  -4  -2  -9   94.25   21.04 
   4   2   9  102.36   15.17 
  -4   2  -9   47.02    7.06 
   4  -2   9   82.81    9.77 
  -4   2  -9   92.07   18.95 
  -4   2  -9   78.58   17.25 
  -3  -8  -3    0.04    6.85 
  -3  -5 -10  369.23   36.31 
  -3  -8  -3    0.22    1.40 
  -3   5 -10  356.10   39.92 
  -3   5 -10  335.85   23.84 
  -3   5 -10  325.89   21.52 
   3   5  10  370.87   34.88 
   3  -8   3    0.35    5.93 
  -3  -8  -3    0.75    1.39 
   3   8   3    0.19    7.58 
  -3   8  -3    0.23    1.85 
  -3   8  -3    1.29    8.02 
  -3   5 -10  389.80   39.46 
  -3  -5 -10  316.41   26.86 
   1 -10  -1  222.51   27.00 
  -1  10   1  240.78   30.15 
   1  10  -1  237.60   25.20 
  -1 -10   1  218.34   24.34 
   1  10  -1  207.26   32.22 
  -5  -1  -3   60.61    9.02 
   5   1   3   53.44    9.84 
  -5   1  -3   69.22   16.29 
   5  -1   3   54.25    7.43 
   5   1   3   43.28    6.62 
  -5   1  -3   50.29   10.49 
   5  -1   3   53.01    7.53 
  -5  -1  -3   50.58   13.66 
  -1  10   1  260.90   28.16 
  -2   9  -4   40.31   13.01 
   2  -9  -5   96.56   16.63 
   2   9   4   62.22   10.36 
  -2   9   5  108.86   21.44 
  -2  -9  -4   56.38   14.66 
  -2   9  -4   51.57   14.37 
  -2  -9   5  124.98   17.72 
   2   9  -5  119.17   21.88 
  -2   9   5   87.40   15.02 
   2   9   4   77.11   27.45 
   2  -9   4   55.07   13.40 
   2   9  -5  122.54   17.49 
   5   2   2    1.47    2.98 
  -5  -2  -2    2.82    3.24 
  -5  -2  -2    3.87    6.43 
  -5   2  -2    6.47    9.68 
   5  -2   2    2.95    3.01 
   5   2   2    4.63    7.84 
  -5   2  -2    4.19    8.79 
   5  -2   2    2.83    2.13 
   0   7 -12   23.86   37.78 
   0  -7 -12   22.30    7.97 
   0  -7 -12   28.56   31.27 
   0  -7  12   22.78    6.90 
   0   7  12   27.10   40.16 
   0   7 -12   30.98   32.59 
  -1   8  10  286.80   28.02 
   1  -8 -10  301.39   28.40 
  -1  -8  10  290.30   22.65 
   1   8 -10  261.07   30.11 
   1   8 -10  255.14   32.65 
  -1   8  10  300.71   36.57 
   1  10   1  184.02   25.70 
  -1  10  -1  198.00   27.99 
  -1  10  -1  177.81   23.13 
  -1 -10  -1  207.66   24.16 
   1 -10   1  161.56   21.64 
   1  10   1  195.72   25.77 
   5   0  -6    0.80    3.96 
   5   0  -6    0.50    5.46 
  -5   0   6    0.95    4.40 
  -1 -10   2  170.52   20.11 
   1  10  -2  275.30   31.91 
  -1  10   2  216.65   25.75 
  -1  10   2  220.45   24.83 
   1  10  -2  199.04   23.12 
   1 -10  -2  225.47   27.27 
   1  -9   7    0.19    3.61 
  -1  -9  -7    1.36    5.54 
  -1   9  -7    0.71    6.62 
   1   9   7    1.22    8.27 
   1   9   7    0.51    4.18 
  -1   9  -7   -0.20    9.17 
  -2   3  15   95.81   22.55 
   2  -3 -15   93.88   21.23 
  -5  -3   1   49.42   14.22 
   5  -3  -1   50.49    9.99 
  -2  -3  15  113.89   25.77 
   2  -3 -15   99.64   18.81 
   2   3 -15  111.48   24.41 
  -5   3   1   39.09   12.91 
  -5   3   1   48.16   12.73 
   5  -3  -1   46.34    8.81 
   5   3  -1   61.25   15.29 
   2   3  14   11.47   17.48 
  -2   3 -14   10.13   15.97 
  -2   3 -14    9.90   15.27 
   2  -3  14   11.11   16.28 
  -2  -3 -14   10.92   13.62 
  -2  -3 -14   10.30   19.69 
   5  -3  -2  123.15   10.16 
   4   5  -8   23.15   12.39 
   5   3  -2  202.57   24.80 
  -4  -5   8   29.44    7.63 
  -1   0 -16    1.25    3.94 
   4  -5  -8   48.11   13.51 
  -4   5   8   42.14   12.10 
  -4   5   8   39.27   12.30 
  -1   0 -16    0.84    6.40 
  -5  -3   2  170.99   22.18 
  -5   3   2  148.03   18.84 
   1   0  16    1.36    6.45 
   4   5  -8   23.28    4.57 
   4   5  -8   27.80   33.12 
   5  -3  -2  159.02   15.10 
  -4   5  -6   87.86   21.38 
  -4  -5  -6   63.15    9.39 
  -4  -5  -6   79.80   19.41 
  -4   5  -6   91.14   21.20 
   4   5   6   79.85   18.29 
  -5  -2   5   15.15   23.25 
   5   2  -5   18.11   20.36 
   5   2  -5   13.15    3.97 
  -5   2   5   13.84    6.24 
   5  -2  -5   16.15   14.56 
   5  -2  -5   11.21   16.35 
   5   2  -5   10.11    5.06 
   3   8  -5   63.52   13.30 
  -3   8   5   58.55   16.82 
   3   8  -5   45.08   16.35 
  -3  -8   5   60.08   14.17 
  -3   8   5   50.97   12.56 
   3  -8  -5   84.50   19.88 
   0   9  -8  259.44   32.42 
   0  -9  -8  273.16   28.36 
   0   9   8  255.38   45.08 
   0  -9   8  241.70   25.83 
   0   9   8  276.74   27.40 
   0   9  -8  246.83   30.01 
   5  -1  -6  656.19   43.72 
  -5  -1   6  724.59   44.51 
   5  -3   0  353.76   18.30 
  -5   3   0  387.17   32.23 
   5  -1  -6  757.82   41.82 
   5   1  -6  678.88   47.77 
   5  -1  -6  753.21   48.42 
  -5  -3   0  350.56   34.61 
   5   3   0  317.41   30.08 
   5   1  -6  719.89   38.91 
  -5   3   0  271.66   29.73 
  -1 -10  -2  207.22   24.70 
   1  10   2  231.02   23.02 
   1 -10   2  241.17   27.56 
  -1  10  -2  157.63   22.49 
   1  10   2  158.57   23.01 
  -1  10  -2  226.68   37.07 
  -1  -7  12    2.74    5.89 
   1  -7 -12    5.77    8.28 
   1   7 -12    3.40    6.16 
   1  -7 -12    4.44    7.19 
  -1  -7  12    2.50    6.23 
  -1   7  12    6.57   10.63 
   1   7 -12    2.73    4.91 
   3  -2 -14  123.80   11.12 
   3  -2 -14  131.71   20.67 
   3  -2 -14   95.46   17.05 
   3   2 -14  119.82   24.98 
  -3  -2  14  138.68   24.07 
  -3   2  14  150.37   22.97 
  -3  -3 -12  296.86   32.59 
  -3   3 -12  271.31   29.29 
  -3  -3 -12  270.92   35.09 
  -3   3 -12  256.75   29.28 
  -3   3 -12  225.71   17.26 
   3   3  12  236.92   26.20 
   3  -3  12  245.49   19.12 
   0  10  -4   27.32   10.23 
   0  10   4   30.96   11.28 
   0  10   4   32.12   10.61 
   0 -10  -4   35.19   12.77 
   0  10  -4   25.75   33.93 
   0 -10   4   30.23   10.40 
   5   3  -3    8.38    1.82 
   5   3  -3    9.78    1.94 
  -5   3   3   13.85   18.69 
   5  -3  -3   11.67   15.50 
   5  -3  -3   12.06    9.82 
   5   3  -3   10.71   15.49 
  -5  -3   3   10.01   16.21 
   5  -3  -3    8.07    7.98 
  -1   1 -16  156.44   18.98 
  -1   1 -16  153.17   23.45 
  -1  -1 -16  185.47   22.64 
   1  -1  16  162.99   21.31 
   1   1  16  189.08   23.77 
  -1  -1 -16  178.67   23.50 
   2   7 -11   75.92   18.10 
   2   7 -11   60.65   18.42 
   5   0   4    0.19    2.11 
   5   0   4   -0.01    1.39 
  -3  -7  -7   91.11   15.95 
  -5   0  -4    0.54    2.21 
  -3   7  -7   65.22   19.54 
  -5   0  -4    0.40    5.13 
   2  -7 -11   66.19   16.88 
  -2  -7  11   67.34   12.44 
   2  -7 -11   64.67   15.60 
  -3   7  -7   67.12   10.93 
  -3  -7  -7   87.84   21.55 
   3   7   7   94.42   22.10 
   3  -7   7   68.65   18.23 
  -3   7  -7   65.65   10.59 
  -3  -7  -7   70.18   13.27 
  -2   7  11   66.72   17.59 
  -2  -7  11   58.17   10.67 
   1 -10  -3   75.29   17.87 
  -2   7 -10  287.99   34.43 
  -2  -7 -10  262.65   21.87 
   2  -7  10  302.05   29.14 
   2   7  10  291.89   30.75 
   1  10  -3   62.59   26.00 
  -2   7 -10  244.58   21.67 
  -1 -10   3   59.85   14.71 
   1  10  -3   66.70   16.37 
  -2  -7 -10  327.76   32.58 
  -1  10   3   63.28   16.10 
  -1  10   3   63.48   16.52 
  -1  -5 -14  308.61   29.34 
  -1  -5 -14  300.55   28.18 
   1  -5  14  252.16   24.79 
  -1   5 -14  273.34   31.99 
  -1   5 -14  262.96   25.93 
   1   5  14  258.46   34.62 
   5   2   3  315.51   33.68 
  -4  -6   6  314.18   24.69 
   5  -2   3  320.29   14.80 
  -5   3  -1  180.18   25.31 
  -5  -2  -3  325.87   16.16 
  -5  -3  -1  183.90   24.28 
   4   6  -6  290.00   19.26 
  -4   6   6  307.47   30.94 
   4   6  -6  244.34   30.02 
  -4   6   6  295.64   25.51 
  -5   3  -1  176.34   21.66 
  -5   2  -3  325.23   36.07 
   5  -2   3  280.65   13.47 
  -5  -2  -3  290.91   33.47 
  -5   2  -3  283.20   26.58 
   5   3   1  184.05   22.91 
   4  -6  -6  251.62   27.14 
  -2   8  -8  702.52   40.58 
   2   8  -9   87.06   22.31 
  -2  -8  -8  739.90   40.65 
   4   6   4    5.96    7.92 
   2  -8   8  518.86   40.92 
  -2  -8   9  104.67   18.99 
   4  -6   4    3.07    7.25 
  -3  -6  -9  254.62   29.59 
  -4   6  -4    3.10    5.06 
  -3  -6  -9  262.94   20.99 
  -3   6  -9  234.96   30.38 
   3   6   9  264.16   28.73 
  -2   8   9   87.70   20.17 
  -2  -8  -8  621.21   46.79 
  -2   8  -8  717.93   55.80 
   2   8  -9  105.33   22.75 
   3  -6   9  215.51   26.40 
  -4  -6  -4    5.54    9.25 
  -3   6  -9  240.76   15.27 
  -2   8   9  109.41   23.86 
   2   8   8  832.17   56.60 
   2  -8  -9  121.97   24.10 
  -3   0 -13  358.23   36.44 
   3   0  13  324.62   27.30 
  -3   0 -13  332.12   33.46 
  -1   6 -13  497.32   38.45 
   1  -6  13  471.30   44.90 
  -1   6 -13  504.18   46.90 
   3  -8   4  521.77   49.64 
  -1  -6 -13  540.74   38.11 
  -1  -6 -13  528.91   40.30 
  -3  -8  -4  489.17   39.55 
   3   8   4  471.14   45.96 
   1   6  13  529.02   42.35 
  -3  -8  -4  491.61   24.48 
  -3   8  -4  488.08   24.76 
  -3   8  -4  462.84   58.81 
   0  -3  16   22.64   26.85 
   0  -3 -16   24.64   23.97 
   0  -3 -16   23.55   29.86 
   0   3 -16   24.04   36.42 
   0   3 -16   19.50    6.10 
   0   3  16   21.72   33.68 
   2   0 -16  405.13   22.59 
   2   0 -16  410.04   44.38 
  -2   0  16  371.04   37.29 
   2   0  15   -0.55    5.15 
  -5  -1  -4  212.64   16.02 
  -2   0 -15   -0.66    6.29 
  -5  -1  -4  206.64   26.46 
  -5   1  -4  159.32   17.47 
   5   1   4  186.84   17.91 
  -5   1  -4  173.18   27.14 
  -2   0 -15    1.72    4.47 
   5   1   4  168.76   16.38 
   5  -1   4  169.10   12.45 
   1  10   3  108.21   24.69 
  -1  10  -3  110.04   22.72 
  -1   9   8   95.13   21.46 
  -1  10  -3  119.65   26.20 
  -1  -9   8  107.86   20.34 
   1   9  -8   97.30   21.51 
  -1   9   8  111.98   24.86 
   1  -9  -8   91.07   20.08 
   1   9  -8   90.99   22.12 
  -1 -10  -3  120.75   24.87 
   1  10   3  109.27   21.33 
   1 -10   3  140.39   21.42 
   4   0 -12 1124.64   50.53 
  -4   0  12 1245.12   75.81 
   4   0 -12 1218.51   95.38 
  -2   9  -5    7.72   11.71 
  -2  -9  -5    8.61   13.34 
  -4   0 -10  413.27   33.16 
   4   0  10  412.69   28.30 
   2   9  -6   78.61   17.99 
   2  -9   5    7.37   12.38 
   2   9   5    5.73   10.21 
   2  -9  -6   87.35   22.24 
   5  -3  -4   48.68   41.55 
  -2   9  -5    7.90   11.77 
  -2   9   6  113.01   36.32 
  -5  -3   4   51.44   13.63 
   2   9  -6   69.59   20.14 
   2   9   5    7.41   12.69 
  -5   3   4   49.98   13.57 
   5   3  -4   48.16    8.56 
  -2  -9   6   90.97   18.46 
   5  -3  -4   44.82   11.03 
  -2   9   6   93.94   20.38 
  -4   0 -10  387.36   40.91 
   5   3  -4   60.15   30.02 
   1  -3 -16  377.13   29.37 
   1  -3 -16  490.68   41.21 
   1   3 -16  388.87   37.25 
  -1  -3  16  402.27   21.28 
  -1   3  16  448.67   40.12 
  -1  -3  16  419.64   42.19 
  -3   5  12  126.68   19.31 
  -3   4  13   49.92   15.86 
   3  -5 -12  135.90   19.17 
   3  -5 -12  135.43   16.42 
   3   5 -12  142.93   24.06 
   3  -4 -13   62.06   15.18 
   3  -4 -13   60.14   15.20 
   3   5 -12  131.95   18.66 
   3   4 -13   54.16   14.45 
   3   4 -13   47.04   17.24 
  -1   8 -10   86.10   19.76 
   3  -1  13    4.25    5.07 
   1  -8  10   94.13   20.09 
  -3  -1 -13    6.72    7.97 
  -1   8 -10   93.40   25.19 
  -3   1 -13    4.04    5.48 
  -1  -8 -10   83.38   19.26 
  -1  -8 -10   83.94   17.15 
   3   1  13    5.15    8.14 
   1   8  10   88.92   29.65 
  -3  -1 -13    5.06    9.32 
  -3   1 -13    5.00    7.53 
   4   4 -10    0.51    3.68 
  -4  -4  10    0.42    1.09 
  -4   4  10    1.10    4.31 
   4   4 -10    1.74    6.10 
   4   4 -10    0.32    0.76 
   4  -4 -10   -0.19    5.73 
   4  -4 -10    0.52    4.78 
  -2   1  16   10.93    9.73 
  -2  -1  16   14.72   19.12 
  -4  -4  -8  700.59   37.45 
  -4  -4  -8  703.12   61.73 
   2  -1 -16   16.15   30.68 
  -2   1  16   14.75   19.99 
   2  -1 -16   13.12    4.23 
  -4   4  -8  743.36   53.06 
   4   4   8  776.08   49.70 
   2   1 -16   19.33   18.15 
  -4   4  -8  715.16   57.82 
  -2  -1 -15  467.50   39.54 
   5  -2  -6   53.98   13.98 
  -2  -1 -15  477.88   39.20 
  -5   2   6   51.11   16.18 
   5   2  -6   57.95   11.56 
  -2   1 -15  409.79   35.72 
  -5  -2   6   58.44   13.55 
   2   1  15  421.98   36.26 
   5  -2  -6   46.91   12.88 
   5   2  -6   63.81   17.76 
  -2   1 -15  448.00   39.15 
   2  -1  15  401.51   32.86 
   5   0  -7   18.95   25.17 
   5   0  -7   15.74   20.37 
   5   0  -7   19.26   21.68 
   4   3 -11   47.53   15.81 
  -4   3  11   50.55   14.17 
   4   3 -11   50.23   12.66 
   4  -3 -11   49.24   13.08 
   4  -3 -11   63.14   13.75 
  -4   1  12    0.51    6.64 
   4  -3   9   68.62   10.69 
  -4   3  -9   65.26   17.29 
  -4  -1  12    1.30    6.94 
  -4  -3  -9   72.76   19.32 
   4  -1 -12    0.45    2.41 
   4  -1 -12    0.26    1.27 
  -4   3  -9   71.29   19.59 
   4   1 -12    0.16    1.28 
   4   3   9   66.66   15.88 
   4  -1 -12    0.97    3.83 
   4   1 -12    0.20    5.96 
  -4  -3  -9   67.54   14.81 
  -4  -1 -10  112.13   21.57 
  -4   1 -10  121.51   31.11 
  -4   1 -10   97.84   23.87 
   4   1  10  125.22   14.20 
   4  -1  10  100.21   18.10 
  -4  -1 -10  103.81   25.85 
  -1   4 -15  136.78   22.69 
  -5  -3  -2  339.91   34.80 
   5   3   2  224.29   25.76 
   1  -4  15  142.07   21.14 
  -1   4 -15  138.32   18.64 
  -3  -8   6  180.88   18.28 
  -1  -4 -15  144.50   19.11 
   1   4  15  149.65   22.83 
  -3   8   6  181.31   25.27 
  -1  -4 -15  161.04   22.26 
  -5   3  -2  251.81   24.73 
   3   8  -6  205.80   29.52 
   3   8  -6  160.43   17.80 
  -5   3  -2  290.49   32.56 
  -3   8   6  164.64   20.33 
   3  -8  -6  163.91   22.08 
   1  10  -4  135.20   19.79 
   1  10  -4  131.39   28.33 
  -1 -10   4  128.21   17.18 
  -1  10   4  136.19   19.64 
  -1  10   4  136.11   20.58 
   1 -10  -4  158.49   22.04 
  -1  -2 -16    9.31   17.64 
   1  -2  16   14.31   15.45 
  -1   2 -16   15.60   31.45 
  -1  -2 -16    9.96   14.41 
  -1   2 -16   13.25   23.55 
   1   2  16   12.66   21.28 
   0 -10   5   45.87   18.31 
   0  10   5   45.37   14.45 
   0  10  -5   40.10   13.16 
   0  10  -5   47.89   45.53 
   0 -10  -5   47.54   14.04 
   0  10   5   59.49   45.83 
  -3   7   9   63.47   23.68 
  -3  -7   9   57.32   11.33 
   3   7  -9   48.51   15.67 
  -3   7   9   59.31   15.72 
   3   7  -9   51.55   15.97 
   3  -7  -9   44.41   12.64 
   5   1  -7   31.55   42.82 
   5   1  -7   24.18   18.46 
   5  -1  -7   39.21   12.54 
   5  -1  -7   35.70   10.42 
  -5  -1   7   27.10   10.98 
   5  -1  -7   31.40    9.38 
   2   5 -14   75.34   20.19 
  -2   5  14   68.62   19.09 
   2  -5 -14   78.64   19.19 
   2  -5 -14   69.40   15.43 
   2   5 -14   71.29   17.75 
  -2   5 -13  147.21   24.46 
   2  -5  13  106.12   20.14 
  -2  -5 -13  160.71   23.06 
   2   5  13  142.20   21.25 
  -2   5 -13  150.90   22.91 
  -2  -5 -13  127.06   22.05 
  -1   7 -12  185.95   22.46 
   4  -7  -1  222.72   26.15 
   1   7  12  238.23   28.71 
  -4  -7   1  335.95   34.22 
  -4   7   1  252.23   15.89 
  -1   7 -12  191.90   36.95 
   5  -3  -5    6.44   12.18 
   1  -7  12  202.10   22.94 
  -5  -3   5    7.76   12.57 
   0   8 -11   27.02   36.45 
   5   3  -5    8.58   10.94 
  -1  -7 -12  189.89   22.88 
   0  -8 -11   25.67   29.19 
   0   8  11   24.40   20.05 
  -1  -7 -12  261.21   28.84 
  -4   7   1  311.91   35.03 
   0  -8  11   24.89    8.51 
   0   8 -11   30.03   42.45 
   5   3  -5    5.20    5.50 
   0  -8 -11   20.26    9.22 
   4   7  -1  225.60   30.25 
  -5   3   5    5.56    8.00 
   5  -3  -5    6.23    7.05 
  -5  -2  -4   18.73   31.82 
   5   2   4   18.41    6.46 
  -5  -2  -4   18.09    3.57 
  -5   2  -4   10.70    5.96 
  -5   2  -4   16.18   22.67 
   1  10   4  440.69   41.35 
   1 -10   4  357.35   33.29 
  -1  10  -4  412.62   35.48 
   1  10   4  621.69   40.78 
  -1 -10  -4  612.89   48.64 
  -1  10  -4  540.24   44.99 
  -4  -7   2  294.76   27.95 
  -3   6  11   59.13   16.08 
   3   6 -11   42.67   12.08 
  -4  -7   0  238.48   25.89 
  -4   7   0  285.66   31.81 
  -4   7   2  256.79   30.66 
   4  -7   0  377.00   35.25 
   3   6 -11   43.55   14.76 
  -4   7   0  295.12   15.24 
   4  -7  -2  264.53   28.50 
   4   7   0  254.49   31.49 
   4   7  -2  327.11   37.21 
   3  -6 -11   71.43   16.56 
  -4   7   2  249.12   18.34 
   3  -6 -11   60.56   15.47 
  -3  -3  14  333.92   41.06 
  -1   9  -8  345.89   40.40 
   1   9   8  263.64   29.62 
  -1   9  -8  325.37   31.05 
  -1  -9  -8  315.79   30.97 
   3  -3 -14  424.85   36.34 
   1  -9   8  346.46   32.97 
   3  -3 -14  378.35   33.32 
   3   3 -14  393.46   49.16 
  -3   3  14  398.45   38.18 
  -4   5   9  421.36   41.20 
  -4   5   9  388.39   34.20 
   0   0  17    0.07    4.58 
   4   5  -9  456.39   30.42 
   4   5  -9  476.42   45.52 
   0   0 -17    0.63    2.70 
  -4  -5   9  278.57   17.86 
   0   0 -17    0.57    7.09 
   4  -5  -9  452.87   37.41 
  -5   0  -5   12.43   21.72 
  -5   0  -5   13.72   11.61 
  -4   5  -7   54.74   15.80 
  -4   5  -7   51.79   16.58 
  -4  -5  -7   43.84   14.36 
   4   5   7   38.80   12.51 
   5   0   5   12.37    7.84 
  -4  -5  -7   38.55    7.29 
   0   6  14   78.98   19.64 
   0  -6  14   87.48   16.68 
   0   6 -14   86.85   20.67 
  -3   2 -13  544.99   44.93 
   0  -6 -14  104.14   22.94 
   3  -2  13  451.04   44.31 
  -3  -2 -13  461.24   38.99 
  -3   2 -13  425.43   39.07 
  -3  -2 -13  395.96   40.08 
   0  -6 -14   95.74   21.52 
   3   2  13  480.76   36.74 
   0   6 -14   85.17   21.57 
  -4  -6  -5   19.58   28.87 
  -4   6   7   59.80   22.88 
  -4   6   7   61.44   16.57 
  -3   8  -5   17.67   31.30 
   4   6  -7   54.96   13.65 
  -4  -6   7   54.27   11.71 
  -3  -8  -5   18.47   33.94 
   4   6  -7   70.38   21.51 
  -3  -8  -5   15.09    5.80 
   4   6   5   16.32   33.10 
  -3   8  -5   14.28    4.07 
  -4   6  -5   27.44   36.88 
   4  -6   5   19.54   33.48 
   4  -6  -7   52.83   14.47 
   3   8   5   27.34   23.74 
   3  -8   5   17.13   19.76 
   2   6 -13   97.13   21.73 
   2   6 -13   99.96   24.99 
   2  -6 -13  101.95   21.86 
   2  -6 -13  122.85   16.81 
  -2   6  13  122.32   28.66 
   0   5  15   38.88   14.07 
   0   5 -15   38.96   21.61 
   0  -5 -15   30.57   10.37 
  -2  -6 -12   27.83    9.53 
   2  -6  12   30.13   21.55 
   0  -5 -15   34.24   11.76 
  -2  -6 -12   20.07   27.39 
  -2   6 -12   31.67   14.43 
   0  -5  15   39.86    9.97 
  -2   6 -12   23.91    6.70 
   2   6  12   27.51   30.03 
   0  -5  15   34.67   11.73 
   1   0 -17  875.10   43.71 
  -1   0  17  890.84   71.25 
   1   0 -17 1071.68   69.05 
  -2   2  16  290.65   33.14 
   2   2 -16  307.52   31.43 
   2  -2 -16  314.60   22.69 
   2  -2 -16  350.78   34.38 
  -2  -2  16  345.30   41.02 
  -2   2 -15   48.11   16.81 
  -2   2 -15   42.09   12.61 
   2   2  15   45.53   17.16 
   2  -2  15   47.27   12.81 
  -2  -2 -15   55.30   40.52 
  -2  -2 -15   44.12   14.29 
   4  -2 -12    2.52    5.01 
   4  -2 -12    2.25    5.01 
   4   2 -12    6.25    5.83 
  -4   2  12    3.47    4.52 
   4   2 -12    2.69    5.71 
   0   1 -17  209.46   27.06 
   0  -1 -17  271.20   24.83 
   0   1 -17  250.18   21.75 
   0  -1  17  217.93   27.82 
   0   1  17  245.84   28.78 
   0  -1 -17  235.78   30.95 
   4  -7  -3   25.80   26.16 
   4  -7   1  358.07   35.67 
  -4   2 -10 1170.00   73.38 
  -5   3  -3   29.96   44.07 
  -4  -2 -10 1222.87   77.37 
  -4  -7   3   26.26    8.02 
  -4  -2 -10  858.42   49.39 
   4   2  10  982.63   56.74 
   5   3   3   24.98   30.40 
  -4  -7  -1  350.15   31.48 
   4   7  -3   28.20    4.43 
  -5   3  -3   30.44   11.12 
   4  -2  10 1045.11   46.82 
   4   7  -3   32.07   33.81 
  -4   7  -1  371.69   35.53 
  -4   2 -10  951.42   59.31 
  -4   7   3   21.66    9.45 
  -4   7   3   24.23    6.07 
  -5  -3  -3   24.66   38.17 
   4   7   1  530.65   48.56 
   0  -9  -9  679.52   48.00 
  -5   1  -5    3.59   12.85 
   5  -4  -1  135.40    9.77 
   0  -9   9  549.47   39.68 
  -5  -1  -5    2.49   13.05 
  -5   4   1  139.91   27.43 
   0   9   9  583.33   39.51 
   0   9  -9  573.33   46.85 
  -5   1  -5    2.94    8.46 
  -5  -1  -5    1.77    5.87 
  -2   4  15  251.55   29.97 
   0   9   9  667.89   50.22 
   5   1   5    1.39    4.00 
   2   4 -15  212.77   25.27 
   5  -1   5    2.12    5.28 
   0   9  -9  566.33   45.32 
   5   4  -1  144.88   21.22 
   2  -4 -15  230.71   21.38 
  -5  -4   1  168.58   21.69 
   2  -4 -15  255.53   27.69 
  -2  -4  15  229.70   30.35 
   5  -4  -1  120.55   26.28 
  -2  -4 -14  110.39   22.12 
  -2  -4 -14  110.37   23.73 
   2   4  14  115.51   24.82 
   2  -4  14  116.54   22.10 
  -2   4 -14  120.12   25.68 
  -2   4 -14  118.77   26.86 
   1  -8 -11   28.23   12.08 
  -1   8  11   30.47   12.32 
   1   8 -11   33.67   13.83 
   1   8 -11   38.64   44.21 
   1  -8 -11   38.92   13.34 
  -1  -8  11   34.94    8.93 
  -5  -4   2   82.29   18.93 
   5  -4  -2  103.13   17.32 
   5   4  -2   94.66   45.18 
  -5   4   2   94.95   20.08 
   5  -4  -2   85.51   20.01 
  -1  -5  15   59.93   10.40 
   1  -5 -15   55.27   13.89 
  -1   5  15   62.49   19.88 
   1  -5 -15   53.89   17.02 
   1   5 -15   54.25   16.18 
  -1  -5  15   53.80   16.35 
  -1   6  14   17.39   33.45 
   1   6 -14   16.66   25.06 
  -1  -6  14   13.00    3.72 
   1   6 -14   10.03   16.31 
   1  -6 -14   14.16   16.59 
   1  -6 -14   16.42   19.02 
  -1 -10   5   13.02   17.96 
   1  10  -5   11.85   14.59 
   1  10  -5   11.67   18.00 
   1 -10  -5   26.57    9.79 
  -1  10   5   25.14   25.03 
  -3   0  15   23.08   33.08 
  -1  10   5   19.75   25.02 
   3   0 -15   27.62   14.71 
   3   0 -15   15.53    2.20 
   1   1 -17    3.63    5.20 
   1   1 -17    2.01    2.92 
   1  -1 -17    4.86    8.37 
  -2  -9   7    2.82    4.57 
   2   9  -7    1.99    3.61 
  -2   9   7    0.89    6.18 
   1  -1 -17    3.87    9.43 
   2   9  -7    0.62    8.87 
  -2   9   7    1.46    4.83 
  -1   1  17    4.36   10.64 
  -1  -1  17    2.66    6.23 
  -3   5 -11  271.74   19.23 
  -3  -5 -11  308.41   32.72 
  -2  -9  -6   40.72   13.15 
  -2   9  -6   63.30   17.90 
  -3   5 -11  277.80   31.95 
  -2  -9  -6   51.35   11.97 
   3   5  11  406.50   36.73 
  -2   9  -6   58.26   12.54 
  -3   5 -11  265.56   45.10 
   2  -9   6   54.51   15.32 
   2   9   6   48.51   15.17 
  -3  -5 -11  238.74   22.15 
  -5   4   0  731.39   48.37 
   5  -4   0  836.68   57.07 
  -5  -4   0  761.79   70.63 
   5   4   0  751.35   55.04 
   5  -2  -7  277.47   26.58 
   5   2  -7  348.90   36.46 
  -5  -2   7  313.01   26.10 
   5  -2  -7  317.58   25.67 
   5  -2  -7  289.92   27.15 
   5   2  -7  308.58   22.22 
   3   7   8  108.17   24.63 
  -3  -7  -8  143.89   21.77 
   3  -7   8   99.88   23.00 
  -3   7  -8  117.54   26.68 
  -3   7  -8  107.06   16.71 
  -3  -7  -8  118.57   20.14 
   3  -4  12    6.83    8.54 
  -3   4 -12    7.77   24.71 
  -3  -4 -12   10.87   14.47 
  -3  -4 -12    8.37   17.12 
   3   4  12    7.86    9.66 
  -3   4 -12    6.05   11.35 
   5   4  -3  198.28   25.43 
  -5  -4   3  197.62   23.85 
   5  -4  -3  208.03   18.56 
   5  -4  -3  220.93   26.23 
  -5   4   3  193.95   22.68 
   5   0  -8    0.32    3.35 
   5   0  -8    0.81    5.30 
   5   0  -8    0.54    4.93 
   3  -1 -15   60.05   10.51 
  -3  -1  15   69.71   19.53 
  -3   1  15   66.24   24.56 
  -3   8   7   53.93   15.82 
   3  -1 -15   65.44   17.72 
   3   1 -15   66.61   16.77 
   3   8  -7   64.91   20.29 
   3  -8  -7   46.80   15.07 
  -3  -8   7   60.23   13.02 
   3   8  -7   60.35   14.70 
  -3   8   7   45.77   14.41 
   5   3  -6  894.76   64.05 
   5  -3  -6  886.81   54.17 
   5   3  -6  894.91   48.27 
  -5  -3   6  946.99   52.09 
  -5   3   6  852.15   50.00 
  -5   3   6  862.23   50.34 
   0 -10  -6    3.94   11.59 
   0  10  -6    4.49    7.11 
   0  10   6    4.53    5.59 
   0  10  -6    3.29    7.59 
   0  10   6    1.51    5.38 
   0 -10   6    3.51    6.56 
   0  -7 -13    0.73    2.54 
   0   7  13    1.10    4.45 
   0  -7  13    1.42    3.27 
   0  -7 -13    1.09    6.65 
   0   7 -13    1.92    9.48 
   0   7 -13    0.79    9.15 
   4  -7  -4    6.47   17.09 
  -4  -7   4    9.00   16.40 
   4  -7   2  217.88   31.70 
  -4   7  -2  308.35   44.96 
  -4  -7  -2  262.05   29.78 
   4   7   2  256.57   29.16 
  -4   7   4    6.55   12.45 
   4   7  -4    7.49    2.31 
   4   7  -4    8.07   17.12 
  -4   7   4    6.14   10.66 
   2   8 -10  288.38   28.87 
  -2  -8  10  323.06   27.98 
  -5   4  -1  178.13   29.25 
  -2   8  -9  664.34   41.13 
  -2   8  10  332.97   32.96 
   2   8 -10  368.93   39.50 
  -2   8  10  338.83   33.45 
  -5  -4  -1  203.94   26.19 
  -5   4  -1  183.52   32.51 
   2  -8   9  575.88   43.85 
  -2  -8  -9  699.71   50.76 
   2   8   9  558.73   45.96 
   2  -8 -10  297.29   28.55 
  -2  -8  -9  654.01   40.73 
   5   4   1  204.02   24.27 
  -2   8  -9  620.48   51.59 
  -1   9   9   50.42   14.69 
   1  -9  -9   39.53   14.33 
   1   9  -9   60.68   19.42 
   1   9  -9   58.93   16.82 
  -1  -9   9   53.75   14.48 
  -1   9   9   46.81   14.25 
   1   3  16  705.95   54.27 
   1  -3  16  725.27   51.00 
  -1   3 -16  700.93   54.79 
  -1  -3 -16  592.97   52.71 
  -1  -3 -16  700.91   47.02 
  -1   3 -16  668.19   43.88 
   0  -4 -16    0.63    3.73 
   0   4 -16    0.12    2.33 
   0   4  16    0.23    5.84 
   0   4 -16    0.98    5.18 
   0  -4  16    1.11    3.77 
   0  -4 -16   -0.21    7.52 
   1  10   5  346.12   40.09 
  -1 -10  -5  392.86   35.38 
   1  10   5  389.90   30.38 
  -1  10  -5  385.52   39.06 
   1 -10   5  432.53   38.28 
  -1  10  -5  380.97   33.66 
   5   1  -8  530.14   39.04 
   5  -1  -8  590.75   43.51 
   5   1  -8  540.73   44.11 
   5  -1  -8  561.88   36.73 
   5   1  -8  574.94   44.99 
   5  -1  -8  456.58   38.66 
   5  -4  -4  133.24   19.85 
   0   2 -17   21.14    5.85 
   0  -2 -17   18.91   29.01 
   0  -2 -17   22.15   19.42 
  -3  -6 -10    1.09    2.33 
   0   2 -17   29.93   25.91 
   3   6  10    2.73    4.06 
   0   2  17   22.79   25.75 
  -3  -6 -10   -0.69    7.75 
  -3   6 -10    0.76    3.64 
  -5   4   4  137.47   21.37 
   5   4  -4  134.84   22.43 
  -3   6 -10    1.14    8.36 
  -5  -4   4  120.86   23.66 
  -3   6 -10    1.18    4.81 
   0  -2  17   29.49   26.68 
   5  -4  -4  122.12   13.56 
  -2  -7  12   15.41    3.54 
   2   7 -12   21.05   25.28 
  -5  -2  -5  160.55   11.99 
   2  -7 -12   15.16   22.28 
  -5   2  -5  135.74   17.77 
   5   2   5  138.71   17.16 
   2   7 -12   18.81   32.25 
  -5  -2  -5  160.95   25.19 
   2  -7 -12   15.01   17.90 
   1   4 -16   31.39   44.08 
  -2   7  12   18.32   32.22 
  -1  -4  16   29.55    5.79 
  -5   2  -5  140.28   23.59 
   1  -4 -16   35.21   22.41 
   1  -4 -16   31.57   32.85 
  -1   4  16   31.87   42.68 
  -1  -4  16   41.37   31.64 
   2  -7  11    4.52    8.21 
  -2  -7 -11    5.06    7.96 
   2   7  11    3.23    4.38 
  -2   7 -11    5.87    8.19 
  -2  -7 -11    3.03    4.82 
  -2   7 -11    4.82    9.56 
   1  -7 -13   11.49   12.04 
  -1   7  13   10.44   16.54 
   1   7 -13   17.92   33.11 
   1   7 -13   14.80   16.81 
  -1  -7  13   12.63    3.96 
   1  -7 -13    9.79   14.40 
   2 -10  -1   44.99   14.61 
  -2 -10   1   67.44   16.51 
  -2 -10   0   75.56   17.45 
   2  10   0   68.89   19.59 
   2  10  -1   53.55   16.93 
  -2  10   1   55.98   15.58 
  -2  10   0   81.36   17.71 
   2  10  -1   60.85   13.67 
   2 -10   0   95.87   24.75 
  -2  10   1   66.68   18.37 
   2  10   0   77.08   15.63 
  -2  10   0   87.39   21.20 
   1  -2 -17   22.20    6.50 
  -1  -2  17   24.29   29.56 
   1   2 -17   20.11    4.25 
   1   2 -17   28.82   36.05 
   1  -2 -17   23.89   27.67 
  -3  -9   1    1.44    7.51 
   3  -9  -1   -0.16    6.18 
  -3   9   1    1.49    4.48 
   3   9  -1    3.24    5.69 
  -3   9   1    0.75    2.32 
  -1   2  17   21.59   24.54 
   3   9  -1    1.30    4.12 
  -5  -3  -4 1850.58   76.46 
  -5   3  -4 1689.06   88.74 
  -5   3  -4 1575.50   80.71 
   5   3   4 1649.82   82.52 
   3   9   0   49.05    9.92 
   3  -9   0   42.34   13.53 
  -3   9   0   47.16   15.96 
   3   9   0   47.22   42.65 
  -3  -9   0   60.83   15.54 
  -3   9   0   38.08    9.03 
   4  -4 -11   19.01   19.25 
   4   4 -11   19.73   26.22 
   4  -4 -11   21.79   15.84 
  -4   4  11   18.36   24.15 
   4   4 -11   18.13   19.99 
  -4  -4  -9   20.16   10.75 
  -4  -4  -9   25.94    6.81 
  -4   4  -9   38.27   44.56 
   4   4   9   31.74   26.56 
  -4   4  -9   29.85   38.89 
   3  -8   6  387.10   44.45 
  -3  -8  -6  359.47   21.50 
  -3   8  -6  324.52   34.85 
   3   8   6  330.47   34.68 
  -3  -8  -6  393.17   37.93 
  -3   8  -6  307.96   17.72 
   5   4   2   71.63   17.60 
  -5  -4  -2   70.11   31.41 
  -5   4  -2   66.77   19.57 
  -5   4  -2   57.34   15.14 
   2  10  -2    2.19    5.14 
  -3   9   2  121.16   27.40 
  -2  10   2    1.21    4.16 
  -2 -10   2    1.80    4.75 
  -2  10  -1   99.12   19.55 
  -2  10   2    0.72    5.09 
   3  -9  -2   97.15   22.22 
   2 -10  -2    0.49    6.03 
   2 -10   1  172.46   24.42 
  -3   9   2  102.89   19.13 
   2  10   1  121.23   26.89 
  -2  10  -1  144.16   22.92 
   3   9  -2   78.23   29.32 
  -2 -10  -1  112.53   24.80 
   2  10   1  126.39   15.83 
  -3  -9   2  120.36   24.52 
   3   9  -2   90.63   16.27 
  -4  -6   8   -0.24    3.03 
  -4   6   8   -0.12    5.50 
   4   6  -8    0.28    2.55 
   4   6  -8    1.62    6.03 
   3   3  13   99.12   22.47 
  -3  -3 -13   97.52   22.76 
   4  -6  -8    1.40    3.58 
  -3   3 -13   88.92   22.20 
  -3   3 -13   86.59   20.93 
   3  -3  13   84.13   16.41 
  -4   6   8    0.58    5.03 
  -3  -3 -13   89.43   19.01 
   4  -6   6  114.31   25.47 
  -5   0  -6    0.69    4.24 
  -4   6  -6  132.65   22.00 
  -4  -6  -6  113.67   25.72 
   5   0   6    0.75    3.22 
   4   6   6  127.85   19.36 
  -5   0  -6    0.92    2.15 
  -3   7  10  240.02   27.39 
   3   7 -10  284.38   27.39 
   3   7 -10  219.29   41.26 
  -3   7  10  265.37   28.18 
  -3  -7  10  291.60   17.91 
   3  -7 -10  260.01   25.82 
   1  -8  11   89.20   19.50 
  -1   8 -11   94.96   20.52 
  -1  -8 -11   94.64   19.33 
   1   8  11   86.32   21.46 
  -1   8 -11   94.83   29.27 
  -1  -8 -11   83.45   20.13 
  -3   2  15  216.91   27.79 
   3  -2 -15  230.07   27.04 
   1  10  -6  825.11   55.17 
   1  10  -6  595.54   51.40 
   3   2 -15  249.20   27.68 
  -1  10   6  582.45   44.64 
  -1 -10   6  578.10   38.26 
  -3  -2  15  260.32   35.63 
  -1  10   6  577.31   45.24 
   3  -2 -15  238.50   17.91 
   1 -10  -6  612.41   46.04 
  -4   7  -3   58.22   28.86 
   2  -3 -16  120.75   25.16 
   4   7   3   58.34   52.14 
   4  -7  -5  101.07   23.54 
  -4   7   5  103.69   20.23 
   4  -7   3   45.30   14.39 
  -4  -7   5   82.17   16.90 
  -4   7   5   89.71   21.53 
  -4  -7  -3   50.69   14.41 
   2   3 -16  108.56   25.49 
  -2   3  16  131.03   23.43 
   4   7  -5   92.06   15.64 
   4   7  -5  117.09   28.77 
   2  -3 -16  125.10   13.58 
  -2  -3  16  119.56   28.04 
  -2   3 -15   80.31   18.75 
  -2  -3 -15   65.42   16.74 
   2   3  15   62.32   16.59 
  -2   3 -15   92.71   24.51 
  -2  -3 -15   66.08   17.59 
   2  -3  15   79.28   17.45 
   3   9   1  339.56   34.62 
   3  -9   1  330.14   32.00 
  -3  -9  -1  293.46   28.94 
   4   0 -13    0.03    0.83 
  -3   9  -1  368.84   36.31 
  -3   9  -1  363.58   24.37 
   3   9   1  332.90   20.44 
   4   0 -13    0.76    3.82 
  -4   0  13    0.23    8.92 
   4   0  11    0.45    2.74 
  -4   0 -11    0.40    3.58 
  -4   0 -11   -0.77    8.33 
   4   3 -12   37.10   11.49 
   4  -3 -12   50.77   13.59 
   4  -3 -12   45.50   10.80 
   4   3 -12   45.32   15.84 
  -4   3  12   51.11   15.83 
  -4  -3 -10   18.00    6.05 
  -4  -3 -10   17.63   22.88 
  -4   3 -10   14.10   14.50 
   4   3  10   18.49   28.23 
  -4   3 -10   11.20   25.30 
   4  -3  10   12.57    2.89 
   3   5 -13    9.42   17.80 
   3  -5 -13   14.16   22.73 
   3  -5 -13   16.12   23.20 
  -3   5  13   13.88   21.00 
   3   5 -13    7.12   15.10 
   5   1   6  793.64   44.31 
   5  -1   6  700.77   41.63 
  -5   1  -6  805.67   64.76 
  -5  -1  -6  842.22   44.57 
  -5  -1  -6  794.99   64.60 
  -5   1  -6  728.67   47.89 
  -5   4   5  438.77   30.31 
   5   4  -5  418.56   20.69 
   5   4  -5  535.46   46.29 
   5  -4  -5  475.32   39.06 
  -5  -4   5  466.52   34.15 
  -5   4   5  410.09   33.67 
   5  -2  -8   98.78   20.04 
  -3   9   3   16.79   27.45 
   3  -9  -3   16.52   35.91 
  -4  -5  10   98.51   15.79 
   3   9  -3   16.56   27.22 
  -3  -9   3   18.31    8.24 
   4  -5 -10  125.66   16.74 
  -5   2   8  146.74   20.03 
   5   2  -8  141.18   23.84 
  -4   5  10  123.49   18.23 
   3   9  -3   15.64    5.07 
   5   2  -8  106.26   19.26 
   4   5 -10  111.60   21.53 
   4   5 -10  146.21   30.40 
  -5  -2   8  122.28   14.59 
   5  -2  -8  129.40   18.76 
  -3   9   3   14.68   25.36 
  -4  -5  -8   81.18   13.97 
   4   5   8   70.08   17.64 
  -4   5  -8   99.47   23.46 
  -4  -5  -8   75.37   20.28 
  -4   5  -8  100.73   23.88 
  -1   9  -9  132.12   26.11 
  -5   3   7   34.08   10.61 
  -1  -9  -9  114.33   21.94 
   1   9   9  119.75   26.05 
   4  -1 -13  195.80   21.90 
   2  10  -3   38.43   15.52 
  -2 -10   3   38.66   11.61 
  -4  -1  13  186.20   31.14 
  -1   9  -9  137.76   25.12 
   5   3  -7   75.54   17.81 
  -2  10   3   32.50   11.47 
  -5   3   7   40.32   11.17 
   1  -9   9  137.39   19.44 
  -2  10   3   40.26   34.17 
   2  10  -3   35.40   10.45 
   2 -10  -3   20.02    8.35 
  -1  -9  -9  106.91   22.96 
   5  -3  -7   26.87   28.49 
   4  -1 -13  196.62   27.19 
  -5  -3   7   62.71   11.01 
  -4   1  13  195.01   31.32 
   4   1 -13  181.94   27.20 
   5   3  -7   65.12    9.55 
  -2  10  -2   10.03   11.66 
  -2  10  -2    7.67   16.16 
   2 -10   2    7.43   16.06 
  -2 -10  -2    7.39   13.76 
   2  10   2    9.81    9.28 
   2  10   2    8.99   14.53 
   4   1  11    0.81    2.15 
  -1   6 -14   20.64   26.83 
   1  -6  14   15.53    6.69 
   1   6  14   20.29   35.48 
  -4  -1 -11    2.86    9.01 
   4  -1  11    0.87    2.96 
  -1  -6 -14   24.41   21.67 
  -1  -6 -14   17.22   20.35 
  -4   1 -11   -0.73    7.54 
  -4  -1 -11    0.54    5.61 
  -4   1 -11    0.43    3.92 
  -1   6 -14   19.26   29.84 
   3  -4 -14   26.94   18.18 
   2   9  -8   28.20    9.47 
   3   4 -14   13.82   22.24 
  -2  -9  -7   45.76   15.22 
   2   9   7   42.63   46.94 
   3   4 -14   20.80   20.12 
   3  -4 -14   28.18   32.88 
  -2  -9  -7   37.33    9.67 
  -2   9  -7   39.79   11.85 
  -2   9  -7   40.18   14.24 
   2  -9   7   41.65   19.31 
  -2  -9   8   30.78    7.57 
  -2   9   8   30.67   36.54 
  -3   4  14   23.98   39.25 
  -2   9   8   29.07   33.33 
   2   9  -8   35.54   35.46 
   2  -9  -8   37.27   37.62 
   1   5  15   49.36   14.02 
  -1   0 -17  714.69   78.95 
  -1  -5 -15   65.07   15.01 
   1  -5  15   65.23   13.42 
  -1  -5 -15   54.92   12.11 
  -1   5 -15   60.88   12.93 
   1   0  17  801.45   47.33 
  -1   0 -17  769.81   41.80 
  -1   5 -15   55.21   16.11 
  -3   0 -14    0.63    5.20 
  -3   0 -14    0.83    6.43 
  -3  -9  -2   16.87   26.09 
   3   9   2   19.02    4.50 
   3   9   2   20.06   25.76 
  -3   9  -2   17.81    4.76 
   3  -9   2   22.74   18.55 
  -3   9  -2   18.15   33.74 
  -3   8   8  312.14   39.49 
   3   8  -8  356.80   48.74 
   3  -8  -8  330.24   40.44 
  -3  -8   8  326.93   35.30 
   3   8  -8  319.75   36.62 
  -3   8   8  362.48   43.37 
   0  10  -7   37.57   39.25 
   1  10   6  568.15   64.22 
   0  10  -7   31.59   12.18 
  -1 -10  -6  558.08   61.42 
  -1  10  -6  579.05   66.83 
   0 -10  -7   26.17   34.91 
  -1  10  -6  548.91   72.36 
   0  10   7   35.07   33.05 
   1 -10   6  587.52   65.09 
   0 -10   7   30.21    9.33 
   0  10   7   32.30   40.88 
   1  10   6  602.14   62.34 
   5   4   3   23.52   29.65 
  -5   4  -3   25.10   37.66 
  -5  -4  -3   26.82   10.89 
  -5   4  -3   18.32   31.96 
   5   0  -9   77.89   11.39 
   5   0  -9   80.70   18.32 
   5   0  -9   83.07   14.75 
  -3   6  12   15.22   24.93 
   3   6 -12   17.00    7.29 
  -1  -1 -17   30.26    9.58 
  -1   1 -17   30.61   11.67 
   1  -1  17   43.19   27.15 
   3  -6 -12   19.73   18.55 
  -1  -1 -17   31.39   11.82 
   1   1  17   34.90   32.28 
   3   6 -12   14.14   20.09 
   3  -6 -12   16.06   18.80 
  -1   1 -17   34.86   10.18 
  -3  -1 -14  365.54   51.46 
   3  -1  14  361.70   41.14 
  -3  -1 -14  320.58   41.52 
  -3   1 -14  346.25   44.04 
  -3   1 -14  314.36   40.20 
   3   1  14  385.62   45.19 
   0   8 -12  353.13   44.66 
   0   8  12  359.75   46.11 
   0  -8 -12  357.24   41.89 
   0   8 -12  370.70   56.81 
   0  -8 -12  493.29   56.18 
   0  -8  12  376.18   45.56 
   0  -9 -10   15.56   21.63 
   0  -9 -10   17.67   25.32 
   0   9 -10   19.17   30.00 
   0  -9  10   19.77    7.99 
   0   9 -10   17.08   25.96 
   0   9  10   11.30   19.51 
  -3   9   4   50.48   10.21 
   3   9  -4   58.42    9.44 
   3   9  -4   59.79   16.40 
  -3   9   4   54.41   13.61 
  -3  -9   4   76.30   14.09 
   3  -9  -4   59.89   17.11 
   2   0 -17    0.67    5.26 
  -2   0  17    1.33    6.29 
   2   0 -17   -0.01    1.60 
  -2   0 -16  337.97   46.66 
   2   0  16  381.33   45.69 
  -2   0 -16  296.46   44.50 
   0   3 -17  157.49   26.77 
   0  -3 -17  178.72   29.40 
   0  -3  17  217.07   32.40 
   0  -3 -17  188.03   25.73 
   0   3 -17  193.62   23.55 
   0   3  17  197.44   33.30 
   2 -10   3  180.54   28.46 
   4  -7  -6    5.62   11.09 
   2  10   3  182.51   25.00 
  -2  10   4   11.65   12.53 
  -2  10  -3  153.38   21.78 
  -2 -10  -3  186.12   27.35 
  -4   7   6    5.16    7.77 
   2  10   3  136.26   26.40 
   4   7  -6    2.05    5.03 
   2  10  -4    7.38   14.54 
  -2  10  -3  178.28   30.14 
   4   7  -6    6.68   14.43 
  -2 -10   4    7.07   13.32 
   2 -10  -4   10.46   15.61 
  -2  10   4    8.08    9.88 
   2  10  -4    7.01   13.31 
  -4   7   6    4.37    7.93 
  -4  -7   6    3.04   12.84 
  -5   1   9    5.16    9.38 
   5  -1  -9    6.74    8.44 
  -3   7  -9   66.42   16.46 
   3   7   9   94.63   20.78 
   5  -1  -9    5.75    9.46 
   5   1  -9    9.34   14.96 
   4  -7   4  172.70   27.34 
  -5   3  -5   11.39   18.02 
  -4  -7  -4  143.09   24.71 
   4   7   4  185.21   28.76 
  -3  -7  -9   88.80   18.91 
   5   1  -9   10.21    4.46 
   5   3   5   16.76    8.49 
  -3   7  -9   64.23    6.82 
  -5   3  -5    6.28    9.02 
   5   1  -9   12.25   27.70 
  -3  -7  -9   84.40   12.83 
  -4   7  -4  155.33   28.47 
   3  -7   9   72.21   16.36 
  -5  -3  -5   12.80   21.95 
  -1   7 -13   38.39   42.76 
   1  -7  13   45.25   10.87 
  -1   7 -13   42.48   11.73 
   1   7  13   48.82   26.80 
  -1  -7 -13   40.93   11.77 
  -1  -7 -13   39.42    9.71 
   5   2   6  167.74   23.09 
  -5   2  -6  140.55   21.92 
  -5  -2  -6  154.48   28.01 
  -5  -2  -6  141.72   16.95 
  -5   2  -6  153.65   29.05 
  -1   3  17   19.14   25.80 
  -1  -3  17   21.42    3.93 
   1   3 -17   27.34   42.35 
   1  -3 -17   17.71   28.52 
   1  -3 -17   15.53    6.35 
  -1  -3  17   24.78   27.89 
  -5  -4   6   29.07   11.51 
   5  -4  -6   39.52   20.88 
  -4   2  13   36.71   13.72 
   5   4  -6   32.68   27.27 
  -5   4   6   30.35   13.78 
   5   4  -6   24.59    4.79 
  -5   4   6   30.28   13.24 
  -4  -2  13   22.12   36.50 
   4   2 -13   23.11   31.58 
   4  -2 -13   43.68    7.63 
   4  -2 -13   48.09   44.90 
   1  -8 -12  242.84   32.60 
  -4   2 -11   17.40   35.97 
  -2  -1  17  133.28   25.62 
  -1  -8  12  203.68   23.74 
  -4   2 -11   20.15   25.26 
   1   8 -12  228.92   35.64 
   1  -8 -12  221.00   30.50 
   4   2  11   11.30   15.01 
  -4  -2 -11   17.14   22.30 
   4  -2  11   15.92    7.58 
   1   8 -12  197.08   31.61 
  -1   8  12  232.40   34.79 
  -4  -2 -11   13.55   24.00 
   2  -1 -17  113.06   21.98 
  -2   1  17  114.35   23.08 
   2  -1 -17  116.30   14.93 
   2   1 -17  128.56   23.81 
  -3  -9  -3   62.74    7.02 
   0  11   0    1.32    4.99 
   2   1  16    7.37   14.69 
  -3   9  -3   61.22    7.99 
   3   9   3   70.47   16.39 
  -3   9  -3   59.63   16.63 
   2  -1  16    6.89    8.50 
  -3  -9  -3   69.49   17.05 
   3  -9   3   56.65   14.38 
  -2   1 -16    6.05   11.05 
   0 -11   0    0.79    4.89 
  -2  -1 -16    6.39    8.79 
  -2   1 -16    6.44   15.89 
  -2  -1 -16    8.04   12.54 
   0  11   0    0.94    3.33 
   2  -5 -15    8.83   17.56 
   2   5 -15    3.50    8.65 
  -2   5  15    6.45   12.87 
   2  -5 -15    6.50    8.33 
   2   5 -15    1.53    6.07 
  -2  -5 -14    6.81   12.16 
  -2   5 -14    5.41   12.61 
  -2  -5 -14    5.45    9.55 
   2  -5  14    6.33   12.95 
  -5  -5   1   38.82   11.58 
  -2   5 -14    6.28    8.24 
   5  -5  -1   36.99   41.53 
  -5   5   1   28.63    9.49 
   2   5  14    5.87   10.98 
   5   5  -1   41.73   37.47 
  -1  -4 -16    0.86    4.60 
  -1   4 -16    0.44    5.79 
  -1   4 -16    0.49    3.94 
  -1  -4 -16    2.28    8.68 
   1   4  16    1.45    7.28 
  -2   6  14   81.04   19.09 
   5  -5  -2  136.59   25.75 
  -1 -10   7  727.99   75.41 
  -1  10   7  650.73   68.93 
   1   9 -10   16.03   20.02 
  -5  -5   2  140.73   23.50 
   1  10  -7  705.27   94.95 
   1  10  -7  699.20   76.31 
   2   6 -14   63.11   16.22 
  -1  -9  10   18.39    6.09 
  -1  10   7  643.66   82.84 
   2  -6 -14   72.84   16.24 
   5   5  -2  104.21   20.58 
  -1   9  10   19.79   20.15 
   2  -6 -14   77.80   13.44 
   1  -9 -10   22.34   25.18 
  -5   5   2  104.25   19.86 
   2   6 -14   73.23   20.13 
   1 -10  -7  659.81   71.13 
   1   9 -10   20.25   16.89 
  -1   9  10   19.04   26.75 
   5  -5  -2  120.28   13.97 
   0  11   1   14.40   25.71 
   0  11  -1   17.46   23.40 
  -2  -6 -13   81.91   34.60 
  -2  -6 -13   82.22   15.05 
   2  -6  13   86.91   17.03 
   0  11   1   17.88   20.15 
   0  11  -1   19.04   28.43 
   0 -11   1   18.62   27.05 
  -2   6 -13   91.33   21.84 
   0 -11  -1   18.11   30.05 
   2   6  13   80.60   16.15 
  -2   6 -13   86.75   15.65 
  -3  -3  15   16.02   21.06 
  -3   3  15   10.88   20.52 
   3  -3 -15   14.73   23.78 
   3   3 -15   13.64   10.89 
   3  -3 -15   11.65    4.41 
  -2   8  11   13.55   19.57 
  -3   8  -7  127.93   25.08 
   2  -8 -11   15.96   26.01 
  -3  -8  -7  121.79   22.97 
   3   8   7  138.47   24.51 
  -3   8  -7  115.73   13.63 
   5   5   0  169.81   27.13 
  -2  -8  11   12.75    8.74 
  -3  -8  -7  131.65   16.32 
  -5  -5   0  163.80   27.23 
   2   8 -11   16.99   13.20 
   2   8 -11   12.31   19.78 
   3  -8   7  143.42   26.09 
  -2   8  11   13.10   17.45 
   5  -5   0  151.89   26.19 
  -5   5   0  140.34   25.62 
  -2   8 -10   60.84   10.78 
  -2  -8 -10   94.89   15.67 
  -2   8 -10   61.80   21.56 
   2  -8  10   68.49   15.82 
  -2  -8 -10   84.27   18.68 
   2   8  10   89.42   19.57 
  -4   6   9  100.78   19.69 
  -4   6   9   91.90   16.92 
   4   6  -9   86.78   21.80 
  -3   5 -12  610.13   71.25 
  -3  -5 -12  667.67   69.27 
  -4  -6   9  108.93   14.07 
   3   5  12  673.07   71.64 
  -3   5 -12  753.79   51.98 
  -3  -5 -12  705.87   77.85 
   4   6  -9   85.93   14.27 
  -3   5 -12  634.24   61.40 
   4  -6  -9  103.98   18.87 
  -1   2 -17   37.39   30.54 
   4   6   7   31.33   19.21 
  -1   2 -17   43.42   29.22 
   1   2  17   45.29   42.96 
  -1  -2 -17   28.36   10.92 
   1  -2  17   46.95   43.48 
  -1  -2 -17   33.78   39.06 
   4  -6   7   49.41   13.51 
  -4   6  -7   34.85   12.03 
  -4  -6  -7   38.62   12.25 
   3   2  14   33.60   10.16 
  -3   2 -14   26.07   10.15 
   3  -2  14   28.23    7.42 
  -3  -2 -14   33.48   15.34 
  -3   2 -14   25.06   10.90 
  -3  -2 -14   35.71   37.13 
  -5   0  -7  502.50   69.81 
   5   0   7  502.44   49.73 
   5  -5  -3    0.76    3.27 
   5  -5  -3    1.42    7.21 
  -5  -5   3    0.95    4.95 
  -5   0  -7  557.56   69.00 
  -5   5   3    2.07    3.68 
   5   5  -3   -0.25    7.74 
   0  -6  15    7.59   16.39 
   0   6  15    8.66   11.84 
   0   6 -15    8.74   15.31 
   0   6 -15    9.86   14.86 
   0  -6 -15    6.19    8.28 
   0  -6 -15    9.04   13.33 
   3  -9  -5   12.68   17.87 
  -3   9   5   11.77   15.63 
  -3   9   5   14.08   23.82 
   3   9  -5   18.06    8.84 
  -3  -9   5   17.54   11.31 
   0  11   2    0.71    4.93 
   0  11  -2    1.75    3.34 
   0 -11   2    1.79    4.04 
   0 -11  -2    1.14    6.64 
   3   9  -5   23.25   33.47 
   0  11   2    1.54    4.27 
   0  11  -2    2.29    7.20 
   5  -3  -8 1694.91   55.96 
   5   3  -8 1897.80   90.40 
  -5   3   8 1623.22   63.26 
   5   3  -8 1417.89   44.66 
  -5  -3   8 1096.79   42.92 
   5  -3  -8 1527.84   94.79 
   5   4   4   46.65   11.50 
  -5   4  -4   65.27   15.42 
  -5   4  -4   72.99   18.56 
  -5  -4  -4   62.03   17.58 
  -5  -5  -1   87.14   19.27 
  -5   5  -1   67.99   15.21 
   5   5   1   86.37   18.27 
   5  -5   1   66.90   15.90 
   2  10   4   22.25   28.63 
   5  -2  -9   47.76   10.84 
  -5   2   9   50.12   13.69 
   2  10  -5    4.41    8.01 
  -2  10  -4   17.27    7.43 
   5   2  -9   41.32   15.64 
  -2  10   5    5.46    6.98 
   5  -2  -9   45.75   10.33 
   2  10   4   21.25    7.08 
   5   2  -9   47.03   15.59 
   2 -10  -5    3.88    5.67 
  -2 -10   5    3.67    6.01 
  -2 -10  -4   21.32   28.78 
   2 -10   4   15.46    8.62 
  -2  10  -4   19.99   30.92 
  -2  10   5    4.29    6.94 
   5   2  -9   50.43    9.00 
   2  10  -5    3.71   11.49 
   3  -4  13   29.87   12.01 
  -3   4 -13   32.35   11.43 
   3   4  13   32.32   10.66 
   5  -1   7    7.60    2.98 
   5   1   7   12.70   14.48 
  -5  -1  -7   12.50    5.25 
  -5   1  -7    7.52   15.22 
  -5   1  -7    5.11    9.77 
  -3   4 -13   35.36   14.74 
  -3  -4 -13   34.40   17.09 
  -5  -1  -7   11.36   20.89 
  -3  -4 -13   35.12   42.15 
   0  -5 -16   56.83   12.90 
   0   5 -16   49.62   15.04 
   0   5  16   62.02   16.64 
   0  -5  16   55.58    9.32 
   0  -5 -16   57.10   16.51 
   0  -5  16   59.16   16.15 
   1   6 -15   56.15   15.24 
   1   6 -15   64.73   15.18 
   1  -6 -15   57.35   13.39 
  -1   6  15   67.88   70.38 
  -1  -6  15   64.55    7.02 
   1  -6 -15   62.58   12.45 
   2  -4 -16  130.11   19.20 
  -3  -6 -11   89.23   14.94 
   2   4 -16  119.03   22.08 
  -2   4  16  144.80   26.09 
   3   6  11   97.29   20.12 
  -3  -6 -11   93.59   19.40 
  -3   6 -11  103.43   23.70 
  -3   6 -11   88.83   19.69 
   2  -4 -16   88.23   18.02 
  -3   6 -11   80.44    8.62 
  -2  -4  16  140.80   29.93 
   2  -4  15    9.93   16.10 
  -2   4 -15    9.23   11.25 
  -2  -4 -15   12.86   16.40 
  -2   4 -15    9.04   12.11 
   2   4  15    8.69   14.79 
  -2  -4 -15   10.17   16.21 
  -2  -2  17   70.77   17.60 
  -2   2  17   84.89   19.17 
   2  -2 -17   84.11   12.86 
   2   2 -17   69.86   16.71 
  -3   0  16   -0.47    9.05 
   3   0 -16    1.33    3.90 
   2  -2 -17   94.31   20.65 
   4  -4 -12   14.28   13.10 
  -3   7  11   24.21   10.23 
   4  -4 -12   10.18   14.26 
   4   4 -12   19.29   24.03 
   4   4 -12   13.29   20.53 
  -3   7  11   22.39   30.62 
   3   7 -11   22.05   44.40 
  -4   4  12   13.62   17.15 
   3   7 -11   18.52   27.13 
   3  -7 -11   21.65    8.26 
  -5   5   4   52.31    8.81 
   4   4  10  573.53   62.28 
   1  10   7   61.48   15.66 
  -4   4 -10  612.61   69.52 
  -5  -5   4   61.64   12.53 
  -2   2 -16  190.88   28.04 
  -4  -4 -10  554.57   74.07 
   2  -2  16  201.66   28.02 
  -5   5   4   44.18   11.49 
  -4   4 -10  585.18   71.43 
   5  -5  -4   49.35   47.31 
  -4  -4 -10  510.90   53.21 
  -2  -2 -16  173.99   26.39 
   1 -10   7   54.02   12.88 
   1  10   7   65.72   11.44 
  -1  10  -7   51.56   12.55 
  -1  10  -7   67.06   18.27 
   2   2  16  225.96   33.08 
  -2   2 -16  218.75   38.61 
   5   5  -4   63.87   17.17 
  -1 -10  -7   73.19   15.23 
  -2  -2 -16  226.93   32.96 
  -2  -9  -8   86.73   14.18 
   2  -9   8  117.49   21.36 
  -2   9   9    2.47    6.76 
  -2  -9   9    1.25    1.58 
   1  -5 -16  132.84   20.77 
   2   9   8   86.91   34.31 
   2   9  -9    0.79    3.62 
   2  -9  -9    1.13    6.15 
  -2   9   9    1.13    6.83 
  -2   9  -8  105.47   22.02 
   2   9  -9    1.26    6.84 
   1  -5 -16  141.98   24.34 
  -1   5  16  179.34   31.23 
  -2   9  -8   96.69   15.75 
   1   5 -16  148.66   27.83 
  -2  -9  -8   81.59   18.37 
  -1  -5  16  154.66   31.84 
  -3  -9  -4  404.79   39.55 
   0   7 -14   29.29   29.23 
   0   7 -14   23.91   33.18 
   0   7  14   27.67   23.50 
   3  -9   4  386.75   48.20 
  -3  -9  -4  444.62   52.37 
   0  -7 -14   33.59   33.65 
   3   9   4  336.85   45.91 
  -3   9  -4  415.64   52.93 
   0  -7 -14   36.62   32.67 
  -3   9  -4  365.44   37.41 
   0  -7  14   21.65    8.75 
  -4  -7   7  267.88   30.65 
   4  -7  -7  298.51   39.40 
  -4   7   7  283.18   36.86 
   4   7  -7  285.67   41.75 
  -4   7   7  274.07   36.97 
   4   7  -7  330.44   34.98 
   4  -7   5  268.59   37.76 
   4   7   5  285.02   49.38 
  -2   7  13   23.76   36.87 
   2   7 -13   27.30   25.98 
  -4  -7  -5  322.82   42.68 
  -4   7  -5  276.00   39.58 
   2  -7 -13   24.99   27.45 
   2   7 -13   27.89   36.56 
   2  -7 -13   20.25    9.07 
   0 -11  -3   30.67   12.19 
   0  11   3   41.18   36.79 
   2   7  12   26.62   25.07 
   0  11  -3   38.12   33.88 
   2  -7  12   25.10   10.85 
  -2   7 -12   26.14   48.31 
  -2   7 -12   24.23    7.40 
   0  11   3   31.61   34.31 
  -2  -7 -12   28.54   38.32 
   0   0 -18   12.24   16.21 
   0  11  -3   31.61   10.67 
  -2  -7 -12   24.42    7.98 
   0 -11   3   32.03   12.58 
   0   0  18   10.19   13.17 
   0   0 -18    7.40   13.70 
   0  10  -8   42.00   13.23 
   0  10   8   45.27   31.72 
   0 -10  -8   44.95   13.75 
   0 -10   8   35.30    9.46 
   0  10  -8   38.85   12.01 
   0  10   8   36.60   12.69 
   3   8  -9   24.54   23.46 
  -3  -8   9   23.82    5.53 
   3   8  -9   24.77   34.94 
  -3   8   9   34.23   35.70 
   3  -8  -9   24.23   22.76 
  -3   8   9   27.27   10.08 
   5  -4  -7   89.96   16.83 
   5   4  -7   71.58    8.97 
  -5   4   7   78.25   16.21 
  -5  -4   7   60.13   12.07 
   5   4  -7   67.76   25.98 
  -5   4   7   80.16   13.86 
   1   0 -18    0.49    3.49 
   1   0 -18   -1.09    7.53 
  -1   0  18   -0.43    9.87 
   3  -1 -16   33.08   23.01 
  -3  -1  16   40.36   48.96 
   1  11   0   45.00   14.12 
  -1  11   0   51.04   12.94 
   1  11   0   57.07   12.66 
   4  -5 -11  629.38   65.61 
   3   1 -16   38.49   32.33 
   4  -5 -11  630.47   67.95 
   1 -11   0   49.35   13.37 
  -1 -11   0   53.65   12.61 
   4   5 -11  509.15   53.77 
  -1  11   0   56.95   36.28 
   4   5 -11  554.94   73.50 
  -4   5  11  507.44   57.93 
  -3   1  16   30.91   11.49 
  -4  -5  -9   11.55    3.84 
  -4   5  -9   12.42   13.83 
  -4   5  -9    7.75   16.81 
   4   5   9    9.99   14.46 
  -4  -5  -9   16.11   24.29 
   1 -11  -1  293.89   38.29 
  -1  11   1  224.92   32.36 
  -1 -11   1  287.97   36.57 
   1  11  -1  299.26   41.51 
  -1  11   1  275.15   48.80 
   1  11  -1  307.03   38.00 
  -5  -5  -2  333.75   43.79 
   5  -5   2  321.01   59.20 
  -5   5  -2  367.03   44.40 
   5   5   2  429.21   51.41 
  -1  -9 -10  394.58   48.96 
  -1  -9 -10  400.62   52.02 
  -1   9 -10  397.56   46.41 
  -1   9 -10  446.40   57.87 
   1  -9  10  464.29   52.35 
   1   9  10  412.43   50.25 
  -5  -3  -6  651.73   77.37 
  -5   3  -6  678.21   77.23 
  -5   3  -6  585.00   63.05 
   5   3   6  587.90   61.88 
   1  11   1   47.72   14.99 
  -1 -11  -1   59.59   13.38 
   1   7 -14  148.39   26.10 
   5   0 -10   -0.01    2.47 
   0  -1 -18  150.60   21.58 
  -1   7  14  151.05   27.37 
   5   0 -10   -0.20    4.96 
   1  -7 -14  123.72   29.17 
   1 -11   1   52.77   13.70 
  -1  -7  14  143.78   19.36 
   0   1 -18  145.33   20.73 
   0  -1 -18  145.19   26.39 
   0   1  18  148.59   26.12 
   1  11   1   62.55   12.91 
   1  -7 -14  136.04   23.14 
   0   1 -18  137.22   25.66 
  -1  11  -1   49.97   13.47 
   1   7 -14  104.04   21.46 
   5   0 -10    0.59    3.71 
   0  -1  18  157.49   27.49 
  -1  11  -1   55.48   12.06 
   4   8  -1   28.17   29.80 
  -4  -8   1   22.63    8.04 
  -4   8   1   28.39    6.38 
   1  -8  12   14.63    8.55 
  -1  -8 -12   13.55   19.25 
  -1   8 -12   13.81   28.07 
  -4   8   1   31.00   25.21 
  -1  -8 -12   18.44   24.95 
  -1   8 -12   10.35   19.24 
   1   8  12   10.37   16.15 
   4  -8  -1   25.25   28.82 
   4  -3 -13   58.44   47.57 
   4  -3 -13   54.79   10.00 
  -4   3  13   46.77   13.21 
   4   3 -13   57.44   16.52 
   4   3 -13   52.79   11.66 
   1  -1 -18  314.86   38.68 
   1   1 -18  206.06   22.93 
   4   3  11    2.30    5.14 
   1  -1 -18  346.04   44.92 
  -4  -3 -11    1.45    8.40 
  -4  -3 -11    1.20    3.11 
   1   1 -18  396.39   51.85 
  -4   3 -11    0.96    4.81 
  -1  -1  18  374.87   49.35 
  -1   1  18  335.20   44.53 
   4  -3  11    0.84    2.38 
  -4   3 -11    1.49    4.46 
  -4   8   0   61.68    6.71 
   4   8  -2  354.16   55.85 
   4   8   0  109.58   54.36 
  -4   8   0   62.69   16.25 
   4  -8  -2  247.41   34.48 
  -4  -8   2  361.53   45.14 
  -4   8   2  279.16   30.30 
  -4  -8   0   81.84   18.03 
  -4   8   2  289.61   40.37 
   4  -8   0   65.41   25.73 
   1 -11  -2   87.51   18.72 
   1  11  -2   69.05   29.08 
   1  11  -2   70.83   14.22 
  -1  11   2   92.63   20.05 
  -1 -11   2   82.65   17.27 
  -1  11   2   62.48   15.56 
  -3   9   6  725.51   79.29 
   3   9  -6  761.23   35.28 
  -3   9   6  655.12   68.44 
   3  -9  -6  792.78   47.02 
  -3  -9   6  767.41   38.02 
   3   9  -6  821.63   55.32 
  -5  -2  -7  109.81   14.52 
  -5   2  -7  115.14   27.70 
  -5   2  -7  113.76   19.43 
   5   2   7  105.80   17.03 
  -5  -2  -7   97.70   21.51 
   4   0 -14  104.16   20.43 
  -4   0  14  103.47   30.33 
  -5   5   5  225.90   27.61 
  -4   0 -12  134.69   30.79 
   5  -5  -5  179.00   28.41 
   5  -1 -10   42.88    8.55 
   5   1 -10   33.33   11.69 
  -5  -5   5  190.87   26.67 
   5   5  -5  204.44   33.56 
   5  -1 -10   49.13   10.97 
  -4   0 -12  148.76   23.84 
  -5   1  10   50.15   12.64 
   5   1 -10   42.38    9.80 
   4   0  12  173.44   23.38 
  -5   5   5  208.69   44.60 
   5   1 -10   48.21    7.75 
  -1  11  -2   14.30   18.11 
   1 -11   2   17.15   25.66 
   1  11   2   13.54   22.85 
  -1  11  -2   16.30   28.38 
   1  11   2   14.59    7.33 
  -1 -11  -2   18.44   30.74 
  -1  10   8  346.20   45.17 
   1  10  -8  397.08   49.58 
  -1 -10   8  393.13   43.73 
  -1  10   8  353.98   42.94 
   1  10  -8  342.70   46.41 
   1 -10  -8  408.19   59.64 
   2  10  -6  140.65   21.95 
  -2  10   6  146.86   33.63 
  -3   5  14   97.50   20.97 
  -2  10   6  134.63   21.78 
   2  10  -6  120.47   25.58 
   3  -5 -14   86.86   21.73 
   3   5 -14   70.04   16.91 
   3   5 -14   89.85   18.71 
  -2 -10   6  136.12   20.52 
   3  -5 -14   89.67   17.97 
   2 -10  -6  144.47   24.52 
   4   8  -3  464.25   76.39 
  -4   8   3  571.91   66.13 
   0  -4 -17   60.69   12.92 
   0   4  17   55.87   16.69 
  -4   8   3  594.88   59.10 
  -2 -10  -5   22.18   35.59 
  -2  10  -5   18.57   37.06 
   2  10   5   25.47    6.73 
  -2  10  -5   18.10   10.39 
   4  -8  -3  659.68   71.64 
  -4  -8   3  610.60   71.98 
   0  -4  17   62.26   46.64 
  -4   8  -1    7.13   14.09 
   2  10   5   25.19   29.80 
   2 -10   5   25.59   36.34 
   0   4 -17   48.74    9.22 
   4  -8   1    6.59    8.02 
   4   8   1    1.52    5.96 
  -4  -8  -1    5.63    7.88 
   0   4 -17   53.49   16.22 
   0  -4 -17   51.77   14.32 
  -5   4  -5  240.63   44.64 
  -5  -4  -5  242.42   42.36 
   0 -11   4   17.90   24.37 
   0 -11  -4   24.58   32.96 
  -5   4  -5  238.52   32.89 
  -1  -3 -17    6.98    9.51 
   5   4   5  226.56   36.15 
   1  -3  17    3.86    7.13 
  -1  -3 -17    6.25    6.66 
   0  11   4   17.49   23.41 
   0  11  -4   17.20   30.37 
   0  11   4   18.52   26.15 
  -1   3 -17    2.55    5.43 
   1   3  17    6.26   11.59 
   0  11  -4   18.29   34.56 
  -1   3 -17    3.12    8.72 
  -3  -3 -14   94.22   20.31 
   3  -3  14   98.56   15.48 
  -3  -3 -14  106.71   18.06 
  -3   3 -14   93.40   20.00 
  -3   3 -14   98.72   20.14 
   3   3  14  106.65   22.26 
   4   1 -14    2.03    4.72 
   4  -1 -14    1.42    5.62 
  -4   1  14    2.75    7.93 
  -4  -1  14    2.09   11.75 
   4  -1 -14    2.57    4.97 
   0   9 -11   80.95   16.14 
   4   1  12   15.83    6.25 
   0   9 -11   81.96   20.12 
  -4  -1 -12   16.65   10.92 
  -4   1 -12   17.42   27.74 
   0   9  11   92.83   19.11 
   0  -9  11   90.41   16.24 
   0  -9 -11  106.62   19.43 
  -4  -1 -12   19.50   25.28 
   0  -9 -11  102.84   20.87 
  -4   1 -12   14.64   34.29 
   4  -1  12   17.93    8.86 
  -1  -4  17  191.73   37.57 
   1  -4 -17  181.45   25.51 
   1  -4 -17  210.92   32.28 
   1   4 -17  168.73   28.15 
  -1   4  17  157.60   29.45 
   1 -11  -3  411.02   50.80 
  -1  11   3  372.33   52.16 
  -1 -11   3  361.00   42.99 
   1  11  -3  367.43   52.76 
  -1  11   3  389.13   46.60 
   1  11  -3  468.68   58.25 
   3  -2 -16  174.24   20.21 
   3   2 -16  174.73   28.45 
  -3  -2  16  201.49   32.16 
  -3   2  16  187.19   29.60 
   3  -2 -16  204.75   30.33 
   3  -7  10   80.91   16.82 
  -3  -7 -10   58.39    9.10 
  -3  -7 -10   81.22   17.36 
  -3   7 -10   95.36   12.46 
  -3   7 -10   88.24   21.37 
   3   7  10   74.54   16.35 
  -5  -5  -3   43.49   13.02 
  -5   5  -3   29.00    9.85 
   3   8   8    0.89    6.15 
  -3   8  -8    0.46    7.21 
  -3  -8  -8    0.75    3.16 
   3  -8   8    0.60    7.08 
   5   5   3   54.25   43.98 
  -3  -8  -8    1.02    2.76 
  -3   8  -8    0.43    1.27 
   5   3  -9   29.16    7.61 
   5  -3  -9   23.17    9.58 
  -5   3   9   24.17   34.92 
   5  -3  -9   23.67   17.41 
   5   3  -9   31.90   29.62 
  -5  -3   9   25.14    7.31 
   3  -6 -13  297.97   39.92 
   3   6 -13  247.79   34.01 
   3  -6 -13  260.14   40.54 
   3   6 -13  245.03   37.75 
  -3   6  13  276.98   38.19 
  -3   9  -5   17.57    4.44 
   3  -9   5   15.50   19.32 
  -3   9  -5   20.30   28.21 
   3   9   5   19.91   23.17 
  -3  -9  -5   17.28   13.68 
  -3  -9  -5   17.36    4.20 
   0   2 -18  107.62   22.50 
   0   2 -18  105.54   15.79 
   0   2  18  103.83   23.53 
   0  -2 -18   89.07   26.07 
   0  -2  18  108.93   23.79 
   0  -2 -18  111.89   18.20 
  -3   4  15    0.47   10.76 
  -4   6  10    8.53   20.19 
   4   6 -10    8.11   12.32 
  -4   6  10    9.78   17.28 
   3   4 -15   -0.92    8.08 
   4  -6 -10   12.84   14.71 
   4   6 -10   10.27   14.49 
   3  -4 -15   -0.47    7.42 
   3   4 -15   -0.18    3.82 
   3  -4 -15    0.39    3.00 
  -4  -6  -8  160.35   28.21 
  -4   6  -8  184.07   30.21 
  -4   6  -8  183.58   31.00 
   4   6   8  230.23   31.70 
   1   2 -18   45.08    6.78 
   1  -2 -18   39.65    8.73 
  -1  -2  18   68.01   44.67 
   1   2 -18   58.94   18.43 
   1  -2 -18   42.78   13.01 
  -1   2  18   42.59   14.66 
  -1  11  -3    9.25    9.53 
   1  11   3    5.14   11.43 
  -1 -11  -3    5.26    8.77 
   1 -11   3    5.50    8.25 
   1  11   3    4.78    9.88 
  -1  11  -3    5.54    6.98 
   4  -8  -4   21.89   27.22 
   0  -8 -13   14.06   14.23 
  -4   8   4   20.53   28.54 
  -2   3  17    2.59    3.66 
   0  -8 -13   16.35   23.72 
   2  -3 -17    4.23    6.18 
   0   8 -13    8.29   11.20 
  -4  -8   4   17.27   26.85 
   0   8  13   10.18   25.11 
   4  -8   2   30.47   10.92 
   2  -3 -17    4.64    7.90 
   0   8 -13    7.13   11.06 
  -4   8   4   18.29    6.36 
   2   3 -17    4.13    9.91 
  -4   8  -2   51.02   31.15 
  -2  -3  17    7.68   10.11 
   4   8  -4   20.79   24.11 
   4   8   2   45.67   13.85 
  -4  -8  -2   53.75   13.82 
   0  -8  13    5.98   14.90 
  -2   3 -16   86.50   23.40 
  -5   0  -8   -0.07    8.75 
  -5   0  -8    0.73    5.66 
  -2  -3 -16   83.00   18.55 
  -2   3 -16   78.18   14.87 
  -2  -3 -16   76.09   15.07 
   2  -3  16   83.07   15.89 
   5   0   8    0.26    1.70 
   2   3  16   87.50   19.44 
   1  -9 -11  109.61   20.98 
   1   9 -11  127.18   29.44 
  -1  -6 -15   45.36   13.82 
  -1  -9  11  113.94   16.32 
   1   9 -11  101.10   21.37 
   1   6  15   53.77   55.17 
  -1   9  11  127.94   24.72 
  -1  -6 -15   45.51   18.07 
   1  -6  15   48.14   10.86 
  -1   6 -15   35.13   47.84 
  -1   6 -15   37.57   10.73 
  -4  -7   8  186.08   22.84 
   4   7  -8  155.73   48.12 
   4   7  -8  173.78   24.59 
   4  -7  -8  223.59   31.92 
  -4   7   8  184.81   32.98 
  -4   7   8  180.98   29.37 
  -4  -7  -6   12.02   20.66 
   4  -7   6    6.96   11.54 
   4   7   6    8.64   10.95 
  -4   7  -6    8.70   14.84 
   5   2 -10   21.32   20.12 
   5   2 -10   21.41    5.40 
  -5   2  10   20.61   30.74 
   5  -2 -10   17.13   12.70 
   5  -2 -10   22.23   32.58 
   5   2 -10   31.52   36.69 
   5   4  -8   94.52   23.97 
   5   4  -8   84.91   12.75 
  -5  -4   8   92.29   17.09 
  -5   4   8  104.49   18.74 
   5  -4  -8  102.27   19.74 
  -5   4   8   93.85   17.50 
  -5   5   6  772.28   44.06 
   5  -5  -6  672.88   61.99 
  -5  -5   6  725.47   58.58 
  -5   5   6  823.91   38.25 
   5   5  -6  846.38   57.30 
  -3   0 -15  449.12   53.67 
   3   0  15  455.89   62.58 
  -3   0 -15  434.54   54.05 
   1  10   8   19.95   28.47 
  -1  10  -8   21.71    9.92 
   1 -10   8   25.86    9.27 
   1  10   8   23.05    8.21 
  -1 -10  -8   24.38   32.77 
  -1  10  -8   30.43   30.99 
  -5   1  -8    3.13    9.27 
  -5   1  -8    3.75    8.05 
  -5  -1  -8    3.30    5.56 
   5   1   8    3.04    8.44 
   5  -1   8    1.72    5.29 
  -5  -1  -8    3.82   10.50 
   2   8 -12   25.45   34.29 
   2  -8 -12   26.58   30.38 
   2  -8 -12   32.04   25.73 
  -2   8  12   31.82   46.23 
   2   8 -12   30.55   37.52 
  -2  -8  12   32.00    5.48 
  -2  -8 -11    3.17    6.06 
  -2   8 -11    2.13    5.67 
  -1  11   4    6.03   11.13 
  -2   8 -11    2.21    5.01 
   1  11  -4   12.07   29.33 
  -1 -11   4   13.52   18.48 
  -1  11   4    8.82    8.56 
   2   8  11    0.62    7.88 
  -2  -8 -11    1.37    4.96 
   1 -11  -4    7.80   14.12 
   2  -8  11    2.07    5.50 
   1  11  -4   16.14   23.54 
  -1  -5 -16    4.45    6.64 
  -1   5 -16    5.23    6.96 
  -1  -8  13  190.71   19.08 
   1   8 -13  227.30   31.81 
  -1  -5 -16    5.44   11.59 
   1   5  16    4.36    8.37 
   1  -8 -13  196.10   25.30 
   1   8 -13  166.58   26.87 
  -1   5 -16    6.20   11.28 
   1  -8 -13  199.38   36.48 
  -1   8  13  148.75   40.97 
   1  -5  16    4.45   10.20 
  -4   2  14  300.16   36.52 
   4  -2 -14  359.89   38.02 
   4  -2 -14  317.56   27.94 
   4   2 -14  252.39   28.34 
  -4  -2  14  355.85   43.01 
  -4  -2 -12   19.25   29.14 
  -4   2 -12   22.49    9.11 
  -4  -2 -12   27.10   28.92 
   4   2  12   21.60   24.95 
  -4   2 -12   24.23   10.29 
   4  -2  12   21.44    5.12 
  -3  -9   7   38.40    9.63 
   3   9  -7   46.78   10.43 
   0 -11   5  356.30   37.31 
   0  11   5  308.36   33.59 
   3  -9  -7   46.58   47.51 
   0  11  -5  334.94   40.03 
   3   9  -7   51.42   18.74 
   0  11  -5  310.96   36.00 
  -3   9   7   39.79   11.02 
   0  11   5  331.43   38.81 
   0 -11  -5  270.66   36.08 
  -3   9   7   48.78   17.28 
  -1   7 -14   30.67    9.57 
  -1  -7 -14   26.96    9.05 
  -1   7 -14   36.48   41.38 
   1   7  14   28.15   25.27 
   1  -7  14   31.66    9.35 
  -1  -7 -14   26.12   32.99 
  -3  -1 -15   26.62   37.92 
  -3  -1 -15   29.07   30.12 
  -3   1 -15   21.20    9.61 
   3   1  15   23.83   14.07 
  -3   1 -15   25.45   15.43 
   3  -1  15   25.51    7.93 
  -2   9  10  202.23   27.47 
  -2   9  10  234.10   30.52 
   2   9 -10  186.00   40.47 
   2  -9 -10  192.51   31.71 
   2   9 -10  197.99   25.87 
  -2  -9  10  208.44   21.32 
  -2   9  -9   12.23   23.74 
   2   9   9   17.40   26.89 
  -2   9  -9   13.09    7.56 
  -2  -9  -9   12.90    5.41 
  -2  -9  -9   11.31   20.04 
   2  -9   9    9.85   23.31 
   0  10   9   85.99   17.72 
   0 -10  -9   97.27   20.08 
   0  10   9   74.87   13.93 
   0  10  -9   86.15   20.63 
   0 -10   9   73.11   13.79 
   0  10  -9   71.86   16.27 
  -5  -3  -7   31.99   13.04 
  -5   3  -7   31.04   13.30 
  -5   3  -7   27.39    9.95 
   5   3   7   31.74    9.08 
   3   8 -10   57.55   12.42 
   3  -8 -10   60.49   13.50 
  -3  -8  10   61.11   10.92 
  -3   8  10   64.32   15.69 
  -3   8  10   51.97   13.25 
   3   8 -10   61.77   18.16 
  -2  10   7   21.45   27.65 
   2  10  -7   15.65   28.30 
   2 -10  -7   25.46   31.03 
  -2  10   7   19.58   28.54 
   2  10  -7   20.14   23.02 
  -2 -10   7   19.28    6.88 
   4  -8   3    6.99   12.43 
   2  10   6   87.37   12.92 
  -2 -10  -6   84.31   21.94 
   4  -8  -5    0.95    3.60 
  -4   8  -3    8.67   16.88 
  -4  -8  -3    6.01   10.01 
  -4   8   5    1.33    4.09 
  -2  10  -6   85.22   19.43 
  -2  10  -6   92.32   14.07 
  -4  -8   5   -0.11    3.31 
   4   8  -5    0.19    1.39 
   4   8   3    4.36    5.63 
  -4   8   5    2.54    6.67 
   2  10   6   81.65   19.37 
   2 -10   6   75.70   15.94 
  -5   5  -4   78.40   15.76 
   5   5   4   82.57   15.53 
  -5  -5  -4   68.65   16.78 
  -5   5  -4   78.71   18.20 
   1   0  18    0.56    3.41 
   1  11   4   71.43   14.05 
  -1   0 -18    1.91    7.62 
  -1   0 -18    0.37    4.36 
  -1 -11  -4   74.90   15.28 
  -1  11  -4   79.24   17.61 
  -1  11  -4   83.42   15.27 
   1 -11   4   74.32   16.18 
   1  11   4   72.63   17.89 
   5  -6  -1  159.05   26.47 
   2  -6 -15  278.63   35.71 
   2   6 -15  250.55   31.12 
  -5   6   1  153.04   23.99 
  -5  -6   1  196.02   25.63 
  -2   6  15  288.55   37.89 
   2  -6 -15  306.26   37.28 
   2   6 -15  287.73   46.89 
   5   6  -1  156.95   26.37 
   3   7 -12  240.03   28.45 
   2  -6  14  160.59   22.97 
   3   7 -12  294.08   39.14 
   3  -7 -12  332.64   34.66 
  -2  -6 -14  152.77   25.05 
   3  -7 -12  361.86   37.73 
  -2   6 -14  144.64   19.40 
  -3   7  12  371.31   41.70 
  -2  -6 -14  141.57   21.57 
   2   6  14  120.35   22.02 
  -2   6 -14  162.70   29.07 
  -3   5 -13   22.17   34.07 
  -3  -5 -13   21.78   28.11 
  -3  -5 -13   17.94    9.27 
   3   5  13   21.21   21.83 
  -3   5 -13   27.00   43.91 
  -3   5 -13   20.49    5.90 
  -5   6   2  502.07   48.93 
   5   6  -2  546.14   55.02 
  -5  -6   2  462.35   56.29 
   5  -6  -2  455.68   51.01 
  -5  -4  -6    9.99   15.24 
  -5   4  -6    9.97   13.96 
  -5   4  -6    8.94   10.66 
   5   4   6   10.87   13.28 
   5   0 -11  133.26   21.06 
   5   0 -11  123.74   14.51 
   5   0 -11  136.62   22.96 
   2   5 -16   16.85   29.93 
   2  -5 -16   18.75   25.91 
   2  -5 -16   20.30   27.15 
  -2   5  16   24.18   24.92 
   2   5 -16   18.54   17.61 
  -2   5 -15    5.92    6.98 
  -2  -5 -15   11.37   11.19 
   2   5  15   13.78   12.34 
   2  -5  15    4.20   15.77 
  -2   5 -15    6.27   11.19 
  -2  -5 -15   12.17   22.55 
   4  -4 -13    6.26    8.97 
   4   4 -13    6.57    8.64 
   4   4 -13    3.49   10.26 
   5   6   0  768.62   50.04 
  -5  -6   0  922.19   49.57 
  -5   6   0  750.62   65.65 
  -4   4  13    3.77    7.93 
   5  -6   0  543.43   57.25 
   4  -4 -13    8.97   11.08 
   1   1  18  206.64   28.93 
  -1   1 -18  206.83   29.39 
  -1   1 -18  215.52   26.10 
   1  -1  18  226.33   31.37 
  -1  -1 -18  200.80   25.14 
  -1  -1 -18  197.78   30.07 
   4   4  11   44.92   14.33 
   3  -3 -16  104.37   13.56 
  -4   4 -11   36.98   14.56 
  -4  -4 -11   32.24    8.50 
  -4   4 -11   40.53   37.59 
   3   3 -16  104.88   23.11 
   3  -3 -16  110.13   20.23 
  -3   3  16  101.87   29.17 
  -4  -4 -11   38.72   13.67 
  -3  -3  16  107.78   22.10 
   4   5 -12  118.26   18.34 
  -4   5  12  108.27   20.71 
   4   5 -12   97.41   21.76 
   4  -5 -12  137.09   21.66 
   4  -5 -12  135.58   19.45 
   5   2   8  231.96   25.64 
  -5  -2  -8  265.94   37.24 
  -2   0  18  145.20   24.97 
  -5   2  -8  163.67   29.18 
  -5   2  -8  202.85   25.80 
   2   0 -18  138.89   24.59 
  -5  -2  -8  200.01   24.84 
  -4   5 -10    9.73   16.15 
  -3   6 -12   41.04   15.54 
  -2   0 -17    1.05    5.20 
  -2   0 -17    1.07    4.79 
  -4  -5 -10    8.23   10.82 
  -3  -6 -12   37.96    8.82 
   2   0  17    0.58    3.22 
  -4   5 -10    7.67    9.81 
  -4  -5 -10    6.37   10.92 
   4   5  10    6.28    8.23 
  -3   6 -12   44.67    7.71 
   3   6  12   46.62   19.05 
  -3   6 -12   45.44   16.98 
  -3  -6 -12   45.76   13.75 
  -3  -9  -6  643.78   58.86 
  -3  -9  -6  570.53   44.09 
   3  -9   6  601.64   56.47 
  -3   9  -6  622.36   60.77 
   3   9   6  613.47   58.58 
   1  10  -9  192.11   30.70 
   1  10  -9  191.43   31.21 
   1 -10  -9  240.13   30.50 
   5  -6  -3  264.01   32.60 
  -1 -10   9  181.84   21.57 
  -1  10   9  220.10   31.09 
   5   6  -3  292.43   39.03 
  -1  10   9  198.21   28.54 
  -5   6   3  263.78   32.85 
  -5  -6   3  289.92   32.37 
   1  -9  11   48.39   11.32 
   0   3 -18   42.12   13.58 
   0   3  18   63.66   17.64 
   0   3 -18   46.62   14.57 
  -1  -9 -11   40.36    9.97 
  -1   9 -11   47.44   15.22 
   0  -3 -18   58.59   13.51 
   0  -3  18   56.19   14.99 
  -1   9 -11   44.16   11.20 
   1   9  11   34.25   48.16 
  -1  -9 -11   44.50   12.87 
   0  -3 -18   55.48   14.39 
   1  11  -5  266.55   33.16 
  -1 -11   5  235.29   27.45 
  -1  11   5  253.50   30.91 
   1 -11  -5  248.19   32.94 
  -1  11   5  267.16   32.22 
   1  11  -5  202.31   30.30 
   5   1 -11   29.35    5.64 
   5  -1 -11   29.34    6.84 
  -5   1  11   33.03   11.02 
   5  -1 -11   32.84    9.59 
   5   1 -11   31.88   35.32 
   5   1 -11   24.32    8.14 
   5   5  -7  147.91   25.81 
  -5   5   7  181.05   24.45 
   5  -5  -7  193.37   26.14 
  -5   5   7  201.37   24.04 
  -5  -5   7  167.61   19.46 
   1   3 -18   14.58   17.75 
  -1  -3  18   14.54   20.74 
   1  -3 -18   13.34   13.28 
  -1   3  18   11.22   23.84 
   1  -3 -18   15.49   29.25 
   3  -2  15   57.51   10.93 
  -3  -2 -15   58.69   43.89 
  -3  -2 -15   48.95   17.35 
  -3   2 -15   56.81   14.59 
  -3   2 -15   51.47   14.71 
   3   2  15   55.12   16.00 
   2  -1 -18   61.34    7.90 
   2   1 -18   66.82   16.27 
  -2   1  18   43.77   13.98 
  -2  -1  18   68.18   16.96 
   2  -1 -18   66.55   16.97 
  -2  -1 -17  405.98   43.19 
  -2   1 -17  497.79   51.50 
   2   1  17  500.40   48.88 
   2  -1  17  523.27   48.68 
   5  -6   1  481.84   51.33 
  -2  -1 -17  414.54   44.33 
  -5  -6  -1  562.36   53.26 
  -5   6  -1  499.19   48.99 
   5   6   1  465.80   48.63 
  -2   1 -17  480.03   49.28 
  -1  -4 -17    1.57    5.08 
   1  -4  17    2.16    5.64 
  -1   4 -17    1.19    3.46 
   1   4  17    1.04    9.40 
  -1   4 -17    4.18   13.30 
  -1  -4 -17    1.50    6.52 
  -3  -4 -14    1.27    8.47 
  -3  -4 -14    0.58    2.31 
   3   4  14   -0.02    6.20 
  -3   4 -14    0.60    6.30 
   3  -4  14    0.37    2.74 
  -3   4 -14    0.47    7.90 
   0  -6 -16  224.64   28.68 
   2  -7 -14   16.39   28.74 
   2   7 -14   11.07   11.85 
   0  -6 -16  326.64   35.10 
   2  -7 -14   17.80   40.65 
   0   6  16  303.28   39.41 
   2   7 -14   11.22   21.52 
   0   6 -16  238.34   33.61 
  -2   7  14   21.47   28.08 
   0   6 -16  265.77   36.73 
   0  -6  16  199.86   24.15 
  -2  -7 -13   20.51   25.49 
   2  -7  13   22.79    8.71 
  -2   7 -13   26.23    8.46 
  -2  -7 -13   17.83   26.19 
  -2   7 -13   26.46   40.45 
   2   7  13   18.47   35.28 
   5   3 -10  170.16   25.96 
  -5   3  10  226.88   30.28 
   5  -3 -10  235.01   27.70 
   5   3 -10  186.43   28.47 
   5  -3 -10  214.22   25.39 
   3 -10  -1   44.25   14.03 
  -3  10   1   36.24    8.06 
  -3 -10   1   46.17   12.04 
   3  10  -1   44.32    7.91 
   3  10  -1   37.92   49.41 
  -3  10   1   35.49   12.38 
   0 -11   6  337.00   35.98 
   0 -11  -6  400.48   43.86 
   0  11   6  413.31   43.75 
  -3 -10   0  112.57   18.99 
   0  11   6  352.84   41.66 
  -3  10   0  119.35   22.58 
  -3  10   0  116.97   16.18 
   0  11  -6  320.08   39.12 
   3  10   0   98.92   23.04 
   3  10   0  127.51   14.61 
   0  11  -6  382.26   44.04 
   3 -10   0  152.65   25.45 
  -5   6   4   51.03    8.56 
   5   6  -4   26.04   37.62 
   5  -6  -4   30.66   40.26 
  -5   6   4   50.43   13.68 
  -5  -6   4   35.27   24.31 
   4   7  -9  130.49   31.02 
  -4   7   9  182.80   27.02 
  -4   7   9  184.11   24.32 
   4  -7  -9  189.65   26.25 
  -4   8   6    8.94   14.72 
   4   8  -6   11.56    4.09 
   4  -8  -6    8.40   15.29 
   4   8  -6   11.83   23.72 
   4   7  -9  154.18   19.58 
  -4   8   6    9.42   26.07 
  -4  -7   9  176.63   17.54 
  -4  -8   6   10.16   16.93 
   3  -8   9  272.34   33.87 
  -3  -8  -9  258.49   43.76 
   1  -6 -16    1.22    5.90 
   5   4  -9    0.41    2.68 
   5   4  -9    1.02    7.66 
   5  -4  -9    0.53    3.75 
  -3  -8  -9  297.12   26.84 
  -5  -4   9    0.51    1.44 
  -4   7  -7  289.71   39.37 
   4  -7   7  280.48   36.55 
   5  -4  -9    0.74    4.29 
  -3   8  -9  278.55   36.68 
  -5   4   9    0.68    4.41 
  -4   8  -4    8.71   15.31 
   1  -6 -16    1.96    4.53 
   4   8   4   14.13   21.35 
   3   8   9  287.26   35.38 
   1   6 -16    1.93    7.70 
   4   7   7  379.00   40.37 
  -1   6  16    1.59    6.26 
   4  -8   4   10.13   19.05 
  -4  -8  -4    9.32   30.19 
   1   6 -16    1.33    4.61 
  -4  -7  -7  339.02   39.08 
  -3  10   2   15.82   22.86 
  -3  10   2   17.79   10.30 
  -3 -10   2   29.46   17.85 
   3  10  -2   24.62    6.03 
   3 -10  -2   20.78   28.60 
   3  10  -2   24.48   39.39 
   1   8  13    5.42   10.10 
  -1   8 -13    3.14    6.23 
   1  -8  13    2.23    3.87 
  -1  -8 -13    6.40    9.16 
  -1  -8 -13    6.50    9.97 
  -1   8 -13    3.38   10.43 
   4   3 -14  253.35   30.43 
   4   3 -14  242.62   39.07 
   4  -3 -14  236.27   23.41 
   4  -3 -14  252.89   31.06 
  -4   3  14  218.57   31.19 
   0  -7 -15   10.89   11.72 
   0  -7  15    5.41    9.59 
   0   7  15    7.63   18.48 
   0   7 -15    7.01    8.40 
   0  -7 -15   10.11   15.27 
   0   7 -15    4.85    9.52 
   1  11   5   11.44   13.79 
  -4  -3 -12   23.23   33.34 
   1  11   5   11.43   18.48 
  -1  11  -5    4.44    8.89 
  -4   3 -12   18.18   28.02 
  -1  11  -5    8.04   14.40 
   4   3  12   21.12   20.05 
  -4   3 -12   24.72   28.63 
  -1 -11  -5   12.34   19.79 
  -4  -3 -12   21.83    7.65 
   1 -11   5    8.47   15.25 
  -3  10  -1   87.21   19.36 
  -1  -2 -18   61.42   13.10 
  -3  -9   8  217.41   22.06 
  -1  -2 -18   49.72   13.79 
   1   2  18   65.70   16.24 
  -1   2 -18   60.81   12.06 
   3 -10   1   80.26   22.89 
   3  10   1   51.35   15.10 
   3  -9  -8  240.54   30.49 
  -3  10  -1   83.82   16.05 
  -3 -10  -1   88.08   18.38 
  -3   9   8  138.45   23.25 
  -3   9   8  205.52   42.25 
   1  -2  18   66.55   15.75 
   3   9  -8  221.22   25.45 
   3  10   1   79.01    9.36 
   3   9  -8  213.80   32.68 
  -1   2 -18   66.13   17.06 
   4  -6 -11   58.67   51.73 
   4   6 -11   53.32   16.65 
   4   6 -11   60.10   15.50 
  -4   6  11   56.11   20.21 
   4  -6 -11   54.02   11.97 
  -2  -4  17   69.30   17.54 
   2  -4 -17   66.80   11.12 
  -2   4  17   74.84   17.70 
   2  -4 -17   71.79   15.91 
   2   4 -17   66.37   46.22 
   4   6   9   35.57   26.83 
  -4  -6  -9   38.20   18.24 
  -2  -4 -16  291.93   35.34 
   0   5  17  156.75   27.17 
   0  -5 -17  148.69   23.70 
  -2   4 -16  293.60   47.78 
   3   0 -17  335.24   39.93 
   2  -4  16  314.80   45.67 
   0  -5 -17  168.49   37.90 
  -4   6  -9   40.90   43.57 
  -4   6  -9   44.08   15.59 
  -2  -4 -16  366.55   38.17 
   0  -5  17  163.04   26.99 
   0   5 -17  137.18   24.88 
  -3   0  17  372.19   43.67 
   2   4  16  341.05   39.78 
   0  -5  17  155.42   17.71 
  -2   4 -16  303.67   38.74 
   5   5   5   35.39   11.17 
  -5   5  -5   46.12   12.19 
  -5   5  -5   48.35   15.87 
  -5  -5  -5   41.19   15.09 
   5  -6   2    0.82    5.11 
   5   6   2    0.98    4.55 
  -5   6  -2    1.46    5.45 
  -5  -6  -2    1.28    4.18 
   0   9 -12   69.22   15.29 
   0  -9  12   79.88   14.72 
   0  -9 -12   68.92   13.45 
   0   9 -12   85.28   70.01 
   0  -9 -12   73.53   15.67 
   0   9  12   66.16   16.38 
   1  -7 -15    2.66    3.92 
  -1   7  15    1.57    4.94 
   1   7 -15    2.88    6.69 
  -1  -7  15    2.12    4.52 
   1   7 -15    3.14    6.40 
   1  -7 -15    1.89    4.52 
  -2  11   1    5.49   12.63 
  -2  11   0  441.55   46.70 
  -2 -11   0  421.99   42.68 
  -2  11   1    8.14   17.81 
   2 -11  -1    3.98   10.71 
   2  11  -1    4.61    9.57 
   2  11   0  375.89   43.67 
   2  11  -1    3.40    7.58 
   2 -11   0  407.79   44.66 
  -2  11   0  366.82   36.50 
   2  11   0  404.26   36.95 
  -2 -11   1    3.54    6.46 
  -3  10   3    1.93    5.15 
  -5   0  -9  177.42   29.80 
  -5   0  -9  157.98   37.12 
   5   0   9  171.73   18.41 
   3 -10  -3    2.71    7.23 
   3  10  -3    1.54    4.83 
  -3 -10   3    0.79    3.28 
  -3  10   3    1.78    4.88 
  -5   2  11   94.78   19.51 
   1   5 -17    2.10    7.07 
   1  -5 -17    3.62    6.03 
  -1  -5  17    4.15   13.31 
   5  -2 -11   72.25   16.01 
   5  -2 -11   58.39   10.35 
   5   2 -11   57.07   11.10 
  -1   5  17    5.20    9.46 
   5   2 -11   75.49   18.87 
  -3  -7 -11   71.94   10.72 
  -3   7 -11   97.56   23.00 
   3  -7  11  111.22   22.79 
  -3  -7 -11   86.84   20.32 
   3   7  11   96.45   19.25 
   1 -10   9  104.63   17.85 
   1  10   9   78.38   17.19 
  -1  10  -9   94.27   24.53 
   4   0 -15   -0.72    6.56 
  -1 -10  -9   85.80   26.99 
  -1 -10  -9   71.89   12.34 
  -4   0  15   -1.29   10.80 
  -1  10  -9  100.10   21.64 
  -4   0 -13    0.88    2.92 
   4   0  13    0.25    2.21 
  -4   0 -13    0.37    3.29 
   3  -1 -17   16.89   12.54 
  -2  -2  18   77.58   20.23 
   2 -10  -8   14.03   18.20 
   3   1 -17   14.35   20.22 
  -3   1  17   13.65   22.18 
  -2  10   8   12.68   34.79 
   2  10  -8    4.91    8.57 
  -3  -1  17   13.10   17.06 
   2   2 -18   61.33   15.69 
  -2 -10   8    8.71   14.06 
   2  -2 -18   71.03   16.50 
   2  10  -8    6.40   12.59 
  -2  10   8   16.24   21.78 
   2  -2 -18   59.43    9.45 
  -2   2  18   69.65   24.81 
  -2  10  -7   19.85    6.65 
   2  10   7   19.50   22.60 
   2  -2  17    2.05    9.54 
  -2  -2 -17    3.40    8.10 
  -2   2 -17    2.61    7.12 
  -2   2 -17    0.40    3.31 
   2   2  17    4.04   15.23 
  -2 -10  -7   20.20    6.15 
   2 -10   7   21.78   10.49 
  -2  -2 -17    3.80    9.69 
  -2  10  -7   25.75   35.60 
  -2 -10  -7   29.51   43.19 
  -2 -11   2  279.09   37.09 
   2 -11   1    4.96   12.15 
   2 -11  -2  319.67   37.78 
   2  11  -2  331.42   33.09 
  -2  11   2  265.42   34.96 
   2  11   1    8.77   13.25 
  -2  11  -1    4.12    7.47 
  -2 -11  -1    8.19   10.63 
  -2  11  -1    4.88   12.78 
   2  11   1    6.91   11.35 
  -2  11   2  318.14   38.92 
   2  11  -2  299.48   38.45 
   5  -6  -5  305.87   37.72 
  -5   1  -9   36.30   22.30 
   5   1   9   33.01    7.73 
  -5  -6   5  310.26   32.60 
  -3  10  -2   17.90   41.27 
  -5   6   5  330.18   37.71 
  -5  -1  -9   32.52    8.20 
   3  10   2   27.52   43.84 
  -5   1  -9   36.01   45.41 
  -5  -1  -9   31.41   13.40 
  -5   6   5  362.09   32.56 
  -3  10  -2   20.30    5.71 
   3  10   2   29.84    5.84 
  -3 -10  -2   23.90   34.69 
   5   6  -5  331.50   42.39 
   3 -10   2   18.43   31.56 
   3  -5 -15  377.24   42.75 
  -1  11   6   13.79   21.81 
  -1 -11   6   12.94   21.71 
  -1  11   6   16.33   18.49 
   3   5 -15  348.32   43.94 
   3  -5 -15  380.63   35.97 
   1  11  -6   11.38   17.74 
   3   5 -15  342.98   37.81 
   1  11  -6   13.91   18.06 
  -3   5  15  320.29   39.35 
   1 -11  -6   14.17   21.86 
  -4   1  15    6.10   10.61 
   4  -1 -15    5.44   10.54 
   4   1 -15    5.26   13.29 
  -4  -1  15    7.56    9.92 
  -4  -1 -13   10.13   19.73 
  -4   1 -13   17.01   10.61 
  -4   1 -13   15.49   29.01 
   4   1  13   10.32   18.85 
   4  -1  13   16.57    5.76 
  -4  -1 -13   14.83   23.37 
   1   9 -12   22.48   30.86 
  -1  -9  12   18.98    8.69 
   1  -9 -12   17.63   22.06 
   1   9 -12   22.97   27.55 
   1  -9 -12   15.43   23.07 
  -1   9  12   16.58   22.02 
   3  -6 -14   17.73   23.09 
   3   6 -14    9.96   16.52 
  -5   3  -8  240.70   38.06 
  -5  -3  -8  238.43   33.76 
   3  -6 -14   17.78   19.58 
  -5   3  -8  236.84   29.28 
   3   6 -14   11.26   13.08 
  -3   6  14   15.40   22.68 
   5   3   8  237.84   27.56 
  -5   4  -7  128.54   25.03 
  -5   4  -7  150.56   23.52 
   5   4   7  142.55   23.79 
  -5  -4  -7  129.33   24.82 
   0  10 -10    1.02    3.69 
   0 -10 -10    2.61    3.87 
   0  10 -10    2.59    6.60 
   0 -10  10    0.53    3.25 
   0  10  10    2.62    4.02 
  -6   0   2   12.17   15.91 
   6   0  -2   10.52    3.61 
  -6   0   1   -0.12    1.73 
   6   0  -1    0.36    2.51 
  -6   0   1    0.43    3.14 
   6   0  -2   10.06   10.53 
  -5   5   8   25.37   10.23 
   5   5  -8   17.04   36.39 
   5   5  -8   13.84    4.39 
  -5  -5   8   18.77    5.74 
  -5   5   8   22.99    8.37 
   5  -5  -8   25.23    9.76 
  -3  -9  -7    0.93    5.59 
   3  -9   7    3.83    6.64 
  -2  -9  11   13.37    6.21 
  -3   9  -7    2.69    7.88 
  -3  -9  -7    0.39    2.36 
   0   0 -19    0.57    2.41 
   3   9   7    2.05    3.50 
   0   0  19    1.41    3.24 
  -2   9  11   16.40   19.47 
  -3 -10   4  181.11   23.43 
  -3  10   4  153.38   20.50 
   2   9 -11   15.83   27.13 
   3 -10  -4  157.75   25.46 
   3  10  -4  162.57   19.01 
   3  10  -4  183.03   32.04 
   2   9 -11   13.39   17.28 
   0   0 -19    1.34    5.85 
  -3  10   4  159.38   25.88 
  -2   9  11   16.42   24.08 
   2  -9 -11   17.64   17.63 
   2 -11  -3   33.80   47.93 
   2  11  -3   38.13   13.79 
  -2  -9 -10  280.60   28.95 
  -2   9 -10  259.34   37.33 
   2  -9  10  259.95   33.69 
   2  11  -3   37.25   19.94 
  -2  11   3   28.50    9.81 
   2   9  10  254.37   34.41 
  -2   9 -10  251.16   26.13 
  -2  -9 -10  351.69   39.34 
  -2 -11   3   41.68   11.77 
  -2  11   3   29.64   34.72 
  -2 -11  -2  355.31   38.89 
  -2  11  -2  310.56   42.34 
   2  11   2  367.78   35.48 
  -2  11  -2  349.44   40.41 
   2 -11   2  398.85   43.39 
   2  11   2  378.27   58.46 
   1   0 -19  170.70   37.57 
  -1   0  19  196.11   30.45 
   1   0 -19  167.96   18.42 
  -3  -3 -15   34.18    9.74 
   3  -3  15   39.72    9.82 
  -3   3 -15   42.56   40.95 
  -3   8  11   15.79   20.93 
   3   8 -11   17.71    7.84 
   3   3  15   36.76   11.52 
   3   8 -11   18.41   37.06 
  -3   8  11   15.63   19.12 
   3  -8 -11   19.86   16.32 
  -3  -3 -15   39.80   39.08 
  -3   3 -15   30.07   12.41 
   5   6   3    1.85    5.14 
  -5   6  -3    1.85    4.43 
  -5  -6  -3    3.48    7.46 
   5  -6   3    4.17   13.14 
   6   0  -3    0.43    2.28 
   6   0  -3    0.44    3.37 
  -6   0   3    0.55    3.42 
   6   0   0    2.33    4.77 
  -6   0   0    1.76    4.53 
   0   8 -14   98.93   19.47 
  -6   0   0    1.94    4.61 
   0  -8  14   89.76   13.82 
   0  -8 -14   93.47   18.41 
   0  -8 -14   99.19   18.37 
   0   8 -14   85.56   19.40 
   0   8  14   86.59   20.15 
   4   8   5   63.26   55.56 
   4   8  -7   66.94    9.55 
  -4  -8  -5   43.87   14.59 
  -4   8  -5   51.15   14.62 
   4  -8  -7   94.44   18.88 
  -4   8   7   62.10   13.27 
  -4  -8   7   66.55   11.61 
  -4   8   7   64.47   22.38 
   4   8  -7   67.70   17.77 
   4  -8   5   48.65   14.24 
   2  -8  12    7.56   16.61 
   2  -8 -13   20.75   24.97 
   2  -8 -13   21.94   30.92 
  -2   8  13   16.84   31.98 
   2   8  12    6.91    8.24 
  -2   8 -12    3.94   10.04 
   2   8 -13   15.13   28.56 
  -2   8 -12    4.91   12.72 
   2   8 -13   18.73   18.84 
  -2  -8 -12    6.27    9.76 
  -2  -8 -12    6.31   10.25 
  -6   1   2    4.51    7.72 
   6   1  -1   47.96   10.24 
   6  -1  -1   29.59   10.60 
  -6   1   1   39.53    8.28 
   6   1  -2    3.19    5.76 
  -6  -1   1   38.40   12.43 
  -6  -1   2    4.29    7.51 
  -6   1   1   34.02   12.30 
  -6   1   2    5.21    8.86 
   6  -1  -2    4.28    8.22 
   0  -1 -19  557.01   54.52 
   0   1 -19  546.75   55.48 
   0   1  19  526.44   53.60 
   0  -1 -19  473.34   42.29 
   0  -1  19  547.81   54.20 
   0   1 -19  509.02   42.96 
   0 -11   7  549.10   49.89 
   0  11  -7  617.45   58.26 
   0  11   7  551.56   48.88 
   0  11   7  611.50   57.32 
   0  11  -7  587.42   75.81 
   0 -11  -7  599.02   56.62 
  -1  11  -6   24.67   17.28 
   1  -1 -19    0.98    3.26 
   1   1 -19    3.21    5.77 
   1  11   6   20.23   26.90 
   1  -1 -19    0.85   10.05 
   1 -11   6   29.70   44.81 
  -1  11  -6   24.78   25.73 
   1  11   6   20.44    7.19 
   3  -4 -16  131.60   32.49 
  -1 -11  -6   24.45   34.17 
   3   4 -16  115.44   56.28 
  -3   4  16  126.77   23.06 
  -1  -1  19    2.67    5.37 
   3  -4 -16  122.08   16.00 
   3   4 -16  100.21   23.35 
   3  10   3   75.03    8.52 
  -3  10  -3   72.41    9.15 
   3  10   3   73.04   68.17 
  -3  10  -3   71.77   17.43 
   3  -2 -17    2.87    6.21 
  -3 -10  -3   60.03   21.16 
   3  -2 -17    5.79   13.64 
   3   2 -17    5.50   10.30 
  -3  -2  17    5.75    8.27 
   3 -10   3   62.50   16.19 
  -3   2  17    4.46    6.82 
  -6  -1   0    0.75    6.19 
  -6   1   0    1.56    6.02 
   6   1  -3   43.44   10.86 
  -6   1   3   43.25    9.04 
  -6   1   0    0.69    2.63 
   6  -1  -3   45.73    9.74 
   6   1   0    1.11    4.01 
  -6  -1   3   41.45   11.59 
  -6   1   3   38.21   12.26 
   6  -1   0    0.80    2.26 
   6   1  -3   34.07    5.90 
  -1  10  10  231.59   31.71 
   1  10 -10  219.93   31.27 
   1  10 -10  186.58   32.43 
  -1  10  10  221.31   28.41 
  -1 -10  10  219.27   24.28 
   1 -10 -10  230.73   29.82 
   0  -4 -18   13.69   18.82 
   0   4 -18    9.29   11.82 
  -1   8  14   24.92   30.66 
   5   0 -12    0.33    1.96 
   0  -4 -18    7.60   15.81 
   0   4 -18   13.83   26.59 
   0   4  18   13.35   17.02 
   5   0 -12    0.19    3.73 
  -1  -8  14   20.41    5.26 
   0  -4  18   15.13   16.22 
   1  -8 -14   23.91    9.90 
   1   8 -14   15.52   26.22 
  -5   0  12    0.78    4.89 
   1  -8 -14   29.49   26.05 
   1   8 -14   18.79   22.70 
  -5   2  -9   35.15   44.75 
   5   2   9   26.80    8.85 
  -5  -2  -9   34.35   33.67 
  -5  -2  -9   24.66    6.45 
  -5   2  -9   34.69   11.50 
  -5  -6   6    8.42   18.55 
   4  -2 -15   65.66    8.77 
   4  -2 -15   65.17   15.34 
  -4   2  15   60.65   14.92 
   4   2 -15   52.26   13.89 
   5   6  -6   11.72   28.39 
  -4  -2  15   56.05   15.96 
  -5   6   6   14.28   15.10 
  -5   6   6   13.84   23.24 
   5  -6  -6   13.47   21.37 
   6   0   1    0.51    2.35 
  -6   0  -1    0.43    5.70 
   1  -3  18   20.96   28.41 
   1   3  18   24.91   38.85 
  -6   0   4  159.15   25.21 
  -1  -3 -18   25.88   10.71 
  -1  -3 -18   24.76    9.45 
   6   0  -4  142.66   17.57 
  -1   3 -18   22.93    8.83 
  -1   3 -18   21.01   33.44 
   6   0  -4  150.23   22.97 
  -6   0  -1    0.26    1.66 
  -1   4  18   23.85   34.04 
  -1  -4  18   33.53   35.56 
   1   4 -18   23.81   11.15 
   1  -4 -18   31.55   38.12 
  -4   2 -13    2.78    9.92 
  -4  -2 -13    2.77    5.71 
   4  -2  13    2.30    6.94 
  -4  -2 -13    3.32    4.98 
   4   2  13    3.73    6.47 
   1  -4 -18   23.04    8.75 
  -4   2 -13    5.23   10.15 
   2  11  -4   34.11   50.37 
   2  11  -4   34.53   11.23 
  -2  11   4   44.46   16.56 
   2 -11  -4   42.46   12.67 
  -2  11   4   48.39   14.23 
  -2 -11   4   42.53   10.95 
  -2  11  -3    6.85   11.67 
  -2  11  -3    9.75   12.57 
   2  11   3    9.85   16.83 
   2 -11   3    7.02   13.48 
   2  11   3   10.66   14.15 
  -2 -11  -3    8.05   18.70 
   3   7 -13   11.31   30.18 
   3  -7 -13   16.30   19.04 
  -3   7  13   16.86   28.31 
   3  -7 -13   13.09   15.19 
   3   7 -13   13.95   32.17 
  -1   6 -16    6.26   11.09 
  -1  -6 -16    5.46    8.71 
   1  -6  16    7.50   15.91 
  -5  -5  -6  227.87   34.93 
  -5   5  -6  265.62   41.10 
   5   5   6  211.65   31.35 
  -5   5  -6  260.33   36.27 
  -1  -6 -16    6.32    9.53 
   1   6  16    4.89    7.05 
  -1   6 -16    4.65   12.77 
   5  -4 -10   19.21   17.07 
  -5   1  12   76.38   16.75 
   5   1 -12   72.39   13.90 
   5  -1 -12   74.47   14.78 
  -5   4  10   17.07   32.38 
   5  -4 -10   20.09   22.03 
   5   4 -10   25.29   34.10 
   5   4 -10   17.08    6.09 
   5  -1 -12   67.67    9.80 
   5   1 -12   93.17   20.87 
  -3 -10   5  111.32   19.79 
  -3  10   5   90.54   19.06 
   3 -10  -5   95.41   20.83 
  -3  10   5   87.53   15.31 
   3  10  -5  102.40   16.15 
   3  10  -5   92.07   24.95 
  -4   7  10  170.62   27.09 
   4   7 -10  160.44   46.58 
   4   7 -10  134.54   19.41 
   5   3 -11   20.50    7.66 
   5   3 -11   16.48   31.17 
  -4   7  10  174.65   26.79 
   5  -3 -11   16.55   26.81 
  -5   3  11   19.95   30.09 
   5  -3 -11   16.23    6.63 
   4  -7 -10  178.54   26.65 
   4  -7   8    5.73   16.28 
   4   7   8    6.84    9.94 
  -4   7  -8    8.76   18.21 
  -4  -7  -8    8.67   13.11 
   3   9  -9   25.34   14.81 
   3   9  -9   30.43    8.96 
  -3   9   9   28.30   13.75 
   3  -9  -9   33.74   32.14 
  -3  -9   9   28.36    7.03 
  -3   9   9   27.11   31.25 
   6  -1  -4  109.62   18.35 
  -6  -1   4  132.14   22.87 
  -6   1  -1   38.81    9.38 
   4  -5 -13   28.34    9.33 
   4   5 -13   28.69   45.53 
   6   1   1   41.83    9.63 
   4  -5 -13   35.63   27.50 
   6   1  -4  115.40   21.86 
   4   5 -13   31.67   32.85 
   6  -1  -4  107.14   15.71 
  -4   5  13   29.40   10.86 
  -6  -1  -1   43.65   13.49 
  -6   1  -1   39.00   13.30 
  -6   1   4   97.35   19.47 
   6   1  -4  127.93   16.04 
  -4  -5 -11    7.93   11.01 
   4   5  11    7.99   13.22 
  -4   5 -11    8.90   15.71 
  -4  -5 -11    4.30    9.07 
  -4   5 -11    5.18    7.19 
  -2  -3  18   65.11   19.32 
   2   3 -18   56.66   16.26 
   2  -3 -18   59.33   15.29 
  -2   3  18   61.31   17.09 
   2  -3 -18   58.44    9.91 
   2  -3  17  100.41   18.94 
  -2   3 -17   78.18   18.39 
  -2  -3 -17   94.06   19.57 
  -2   3 -17   87.46   18.24 
   2   3  17  117.64   23.41 
  -2  -3 -17  103.80   19.57 
  -1  -7 -15    4.40    6.67 
  -1  -7 -15    2.05    4.58 
  -1   7 -15    5.14   12.80 
   1  -7  15    4.34   14.38 
   1   7  15    2.99    6.59 
  -1   7 -15    5.93   10.85 
   1 -11  -7    0.99    4.64 
  -1  11   7    0.86    3.72 
  -1 -11   7    1.15    2.33 
   1  11  -7    1.11    6.46 
   1  11  -7    0.42    5.74 
  -1  11   7    0.47    6.13 
   4  -4 -14  299.47   38.73 
   4  -4 -14  345.22   37.95 
  -4   4  14  295.24   40.96 
   4   4 -14  256.85   40.44 
   4   4 -14  299.57   37.16 
  -3   0 -16    0.85    5.08 
  -6  -2   1    3.29    6.01 
  -6   2   1    0.16    5.42 
   6   2  -2  354.03   44.49 
   4   4  12  342.34   41.59 
  -6   2   2  311.53   36.06 
  -4  -4 -12  329.46   46.14 
  -6   2   2  308.26   40.83 
   3   0  16    0.82    5.68 
  -6   2   1    2.37    5.32 
  -4   4 -12  335.46   48.36 
   6   2  -1    2.32    6.19 
  -3   0 -16   -0.52    7.96 
  -4   4 -12  292.74   40.83 
  -4  -4 -12  312.62   40.50 
  -6  -2   2  358.75   53.67 
  -1  -9 -12    3.13    5.22 
   4  -9  -1   87.71   17.76 
  -1   9 -12    3.47    9.50 
   4   9  -1   70.08   63.06 
  -1  -9 -12    5.83    9.92 
   1  -9  12    3.33   14.02 
  -1   9 -12    3.05    9.62 
   1   9  12    3.63    9.00 
  -4  -9   1   84.38   15.10 
  -4   9   1   84.68   19.18 
   0  -2 -19    5.36    8.81 
   0  -2 -19    3.52    6.99 
   0   2 -19    2.56    5.31 
   0   2  19    5.77    7.72 
   0   2 -19    3.50    8.24 
   0  -2  19    4.27    8.23 
  -5  -6  -4   15.28   22.56 
  -5   6  -4    9.95   25.34 
   5   6   4    8.98   11.75 
   5  -6   4    9.93   20.51 
   4   9  -2   60.42   16.98 
   4  -9  -2   49.77   16.62 
  -1  -2  19   33.11   40.14 
  -1   2  19   26.44   31.25 
   1  -2 -19   31.58   34.02 
  -4   9   2   54.46    8.58 
  -4   9   2   53.14   15.19 
  -4  -9   2   52.04   13.24 
   1  -2 -19   24.03   12.27 
   1   2 -19   27.99   46.80 
  -4   9   0    4.92    6.18 
  -4  -9   0    4.58   13.15 
   4   9   0    4.88    9.83 
   4  -9   0    3.52    6.80 
   6   0  -5    0.04    1.77 
  -3  -8 -10   59.29   15.87 
  -3   8 -10   54.37   15.98 
   3   8  10   56.95   18.75 
   6   0  -5    0.46    4.21 
  -3  -8 -10   50.27    8.48 
  -6   0   5   -0.08    4.64 
   3  -8  10   68.77   16.21 
   2  10  -9   95.33   19.35 
   6   0   2    1.22    2.76 
  -2 -10  -8   43.36   28.22 
   2 -10  -9  107.26   20.35 
  -2  10  -8   48.14   15.01 
  -2 -10   9   91.05   12.61 
  -2  10   9  100.54   20.43 
   2  10  -9   70.63   19.10 
  -6   0  -2    0.78    4.32 
  -2  10  -8   53.41   10.82 
   2  10   8   49.83   28.32 
   2 -10   8   45.97   13.34 
  -2 -10  -8   37.02    8.09 
  -6   0  -2    1.64    5.27 
  -2  10   9   96.04   21.88 
  -3   5 -14   14.26    5.95 
   1  -5  17  133.66   23.08 
   1   5  17  133.53   32.94 
  -1   5 -17  123.35   20.14 
   3   5  14   12.34   22.76 
  -1  -5 -17  115.99   22.27 
  -1  -5 -17  134.69   23.21 
  -3   5 -14   14.83   21.44 
  -3  -5 -14   18.77   20.38 
  -3   5 -14   15.00   16.73 
  -3  -5 -14   12.53    6.05 
  -1   5 -17  126.17   26.72 
   6  -2  -3   11.10    5.79 
  -3  -6 -13  113.40   22.64 
  -6   2   3   13.45   28.72 
  -3  -6 -13  130.88   19.17 
  -3   6 -13  121.04   24.99 
  -6   2   0  265.62   40.01 
  -6   2   3   10.93   19.14 
   6   2  -3   10.54   22.52 
  -3   6 -13  115.52   22.78 
  -3  10  -4    3.18    7.04 
  -3  10  -4    0.35    1.09 
  -3 -10  -4    0.68    2.65 
   3   6  13  132.32   73.81 
   6   2   0  261.84   33.08 
  -3 -10  -4    1.57    3.33 
  -6  -2   3   12.84   18.36 
   3  10   4   -0.12    5.19 
   3 -10   4    0.88    4.59 
  -6   2   0  285.96   58.19 
  -6  -2   0  262.22   37.28 
   3  -1  16   28.43    9.84 
   3   1  16   24.99    9.24 
  -3   1 -16   39.42   29.23 
  -3   1 -16   28.88   41.23 
  -3  -1 -16   18.53    8.74 
  -3  -1 -16   27.62   40.89 
   2   6 -16   73.02   15.93 
   2  -6 -16   74.41   23.37 
   2   6 -16   75.17   18.75 
  -2   6  16   73.72   19.25 
   2  -6 -16   73.77   18.23 
  -2  -6 -15    0.53    3.34 
  -2   6 -15    1.41    2.73 
  -2   6 -15    0.87    6.20 
   2   6  15   -0.35    7.89 
  -2  -6 -15    0.98    4.83 
   4   6 -12   79.04   29.51 
  -4   6  12   73.48   16.11 
   4   6 -12   77.98   13.56 
   4  -6 -12   69.81   14.99 
   4  -6 -12   77.66   22.93 
   0 -12   0   17.08   25.74 
   0  12   0   16.31   36.58 
   0  12   0   10.95   23.36 
   6   1  -5  130.99   22.56 
   6  -1  -5   96.61   17.50 
   6  -1  -5  109.21   15.87 
   6   1  -5   93.84   12.89 
  -4   6 -10  303.50   42.57 
  -4   9   3    5.39   10.76 
   4   9  -3    6.88   14.00 
  -4  -9   3    5.39   11.54 
   4  -9   1  370.57   45.73 
   4  -9  -3    5.00   10.08 
   4   6  10  288.22   39.26 
  -4   6 -10  272.80   40.70 
  -4   9   3    4.35    8.47 
  -4  -6 -10  254.11   36.70 
  -6  -1   5   94.50   17.58 
  -4  -9  -1  472.58   54.30 
  -4   9  -1  383.49   49.74 
   4   9   1  351.64   46.57 
  -6   1   5   97.40   19.21 
  -6  -1  -2   37.35   15.43 
   5   5  -9   26.96    6.55 
   5  -5  -9   28.02    9.73 
   2 -11  -5  164.24   26.86 
   6   1   2   29.39    7.99 
   2  11  -5  156.13   24.50 
  -5   5   9   26.84   10.28 
  -6   1  -2   37.04   47.65 
  -6   1  -2   35.22    8.63 
  -2  11   5  150.39   23.68 
  -2 -11   5  180.99   25.96 
  -5   5   9   29.03    9.72 
   5   5  -9   34.46   44.96 
   2  11  -5  165.76   30.88 
   2  11   4   22.84   21.04 
  -2  11  -4   17.54   26.48 
   2 -11   4   24.79   10.19 
  -1  10 -10  108.28   24.88 
   1 -10  10  102.93   19.43 
   2  11   4   31.19   13.26 
  -2 -11  -4   22.92    9.95 
  -1  10 -10   99.80   19.54 
  -1 -10 -10  105.91   21.86 
  -1 -10 -10  103.10   17.79 
  -2  11  -4   24.16   44.47 
   1  10  10   86.61   22.66 
   4   8   6    1.45    4.71 
   4   8  -8   -0.17    9.56 
  -4  -8  -6    0.43    5.69 
  -4   8   8    1.17    5.79 
  -4   8   8    0.53    4.59 
  -4  -8   8    0.23    1.88 
   4  -8   6    0.34    3.46 
  -4   8  -6    1.14    4.34 
   4  -8  -8    1.37    4.63 
   4   8  -8    0.56    2.32 
   0  12   1  351.77   44.79 
   0  12  -1  272.69   38.08 
   0  12   1  228.33   35.21 
   0 -12  -1  276.00   45.66 
   0 -12   1  295.46   39.22 
   0  12  -1  286.05   38.40 
   5  -2 -12    0.48    1.39 
   5   2 -12    0.07    9.47 
  -5   2  12   -0.77    6.57 
   5  -2 -12    0.13    2.79 
   5   2 -12    0.90    5.44 
  -5   6   7   39.99   12.74 
  -6  -2   4   62.28   13.69 
   6  -2  -4   54.44   13.62 
   6   2  -4   57.60   13.82 
  -6   2  -1    1.63    3.85 
   6   2   1    0.65    4.21 
  -5  -6   7   45.32    9.80 
  -6   2  -1   13.80   19.08 
   6  -2  -4   56.09   10.71 
   5   6  -7   41.94   14.34 
  -6  -2  -1    1.01    5.43 
  -6   2   4   58.96   11.29 
   5  -6  -7   43.17   32.27 
  -5   0 -10    0.32    2.91 
   5   0  10    0.31    3.29 
  -5   6   7   37.09    9.16 
  -5   0 -10    2.58    7.21 
   2  -5 -17   87.42   17.80 
   2  -5 -17   84.79   15.37 
  -2   5  17   97.74   21.78 
   2   5 -17   96.04   21.99 
   2   5 -17   80.95   20.51 
   3  -3 -17   23.63   24.61 
  -2  -5 -16   10.89   13.02 
   2  -5  16    5.09   20.60 
   3  -3 -17   19.37    6.06 
  -3   3  17   21.25   35.10 
  -5   4  -8   95.22   19.95 
  -2   5 -16   11.37   17.25 
   2   5  16   13.41   16.97 
   3   3 -17   20.98   19.68 
  -2  -5 -16    9.47   17.59 
   5   4   8   92.72   17.37 
  -5  -4  -8   78.22   18.57 
  -2   5 -16    8.16   16.77 
  -3  -3  17   17.70   26.69 
  -5   4  -8   86.44   19.44 
  -1 -11  -7  171.15   28.05 
  -3   9  -8  348.36   49.15 
   1  11   7  186.15   29.63 
   1 -11   7  183.92   29.14 
   3   9   8  382.42   49.03 
   1  11   7   86.46   13.69 
   3  -9   8  261.52   36.26 
  -1  11  -7  163.41   29.58 
  -3  -9  -8  301.73   40.63 
  -1  11  -7  186.43   28.03 
  -3  -9  -8  220.44   24.44 
   2   7 -15   87.16   18.29 
   2   7 -15   71.51   17.23 
   2  -7 -15   74.32   15.10 
   5  -7  -1  135.29   24.06 
  -2   7  15   79.07   19.37 
   2  -7 -15   77.19   16.76 
  -5  -7   1  101.54   19.67 
   5   7  -1   95.48   21.57 
  -5   7   1  110.27   22.06 
   3  10  -6  679.88   82.09 
  -2  -7 -14   43.75   13.58 
   3 -10  -6  755.74   80.82 
  -3 -10   6  892.33   42.81 
  -2  -7 -14   42.54   10.22 
  -2   7 -14   41.44    9.68 
   2   7  14   49.57   45.48 
  -2   7 -14   45.10   15.89 
  -3  10   6  767.94   78.81 
   2  -7  14   43.61   11.37 
   3  10  -6  812.35   40.01 
   5  -7  -2   44.81   37.14 
   5   7  -2   35.24   57.73 
  -5  -7   2   47.38   12.97 
  -5   7   2   41.82   13.32 
   0  12  -2   17.49   11.71 
   0  12   2   14.02   25.51 
  -5  -3  -9    1.57    5.37 
   0 -12   2   20.76   27.12 
  -5   3  -9    1.34    6.59 
   0  12  -2   17.82   31.60 
   5   3   9    1.24    3.70 
   0 -12  -2   12.87   21.16 
  -5   3  -9    1.99    6.04 
   0  12   2   11.66   14.22 
   0 -11   8   11.85   18.15 
   0  11  -8    8.77   18.14 
   0  11   8   11.43   16.34 
   0 -11  -8   12.20   22.40 
   0  11   8   12.65   13.53 
   0  11  -8    8.74   14.83 
   4   3 -15    5.48   10.24 
   4  -3 -15   11.75   16.78 
  -5   7   0    0.50    6.70 
   5   7   0    1.50    8.18 
  -4   3  15    6.78   18.76 
  -5  -7   0    1.84    2.85 
   4  -3 -15    8.22   18.80 
   4   3 -15    6.32    9.26 
   5  -7   0    1.15    8.47 
  -5  -1 -10   25.36   41.31 
  -5   1 -10   28.86   13.64 
  -5  -1 -10   24.67    7.62 
   5   1  10   24.24    6.86 
  -5   1 -10   29.22   15.13 
  -4   3 -13  223.90   37.89 
  -4  -3 -13  260.63   38.60 
  -1  -8 -14  197.76   30.47 
   1   8  14  144.43   26.68 
  -1   8 -14  169.64   30.44 
   1  -8  14  138.46   21.31 
  -4  -3 -13  262.27   32.75 
  -1  -8 -14  148.23   24.28 
  -1   8 -14  142.72   24.09 
  -4   3 -13  179.07   29.61 
   4   3  13  203.07   28.96 
   0  -9 -13   13.58   23.84 
   4  -9  -4    1.05    6.43 
  -3  -4 -15    7.00    8.29 
  -4  -9   4    1.34    5.37 
   0   9 -13   13.89   11.89 
   0   9 -13   12.73   17.55 
   4   9  -4    1.34    5.54 
  -3   4 -15    6.04   17.27 
  -3   4 -15    9.10   11.22 
   3  -4  15    6.91   14.28 
   0   9  13   14.79   19.48 
  -3  -4 -15    7.03   11.26 
   3   4  15    8.17   11.15 
   0  -9 -13   14.23   31.10 
   0  -9  13    7.88   18.76 
  -4   9   4    0.64    5.09 
  -4   9   4    0.49    2.42 
   4  -9   2   82.27   18.93 
  -4   9  -2  108.53   23.97 
   4   9   2  113.30   23.94 
  -4  -9  -2  124.35   24.00 
  -3  -7 -12   12.53   19.12 
  -3   7 -12   20.26   31.47 
  -3  -7 -12   12.90    5.47 
   3  -7  12   14.52   25.97 
   3   7  12   14.37   13.45 
  -6   0   6    0.50    4.50 
   6   0  -6    0.32    4.26 
   6   0  -6    1.32    5.10 
  -6   0  -3    1.18    8.15 
  -1   0 -19    6.35   11.81 
   1   0  19    4.82    9.89 
   6   0   3    0.49    2.10 
  -1   0 -19    4.50    8.14 
  -6   0  -3    0.92    2.81 
  -5  -7   3  127.93   22.04 
  -5   7   3   92.44   20.04 
   5  -7  -3   66.97   16.39 
   5   7  -3  100.85   22.58 
  -3  -2 -16   11.52   24.88 
  -3   2 -16    8.41   20.66 
  -3  -2 -16   13.19   17.99 
  -3   2 -16    8.06   16.52 
   3  -2  16   10.87   19.28 
   3   2  16   14.19   19.22 
   0 -10  11   81.77   14.10 
   0  10 -11   72.21   18.81 
   0  10  11   55.90   27.26 
   0 -10 -11   75.69   16.58 
   0  10 -11   65.57   15.12 
   0 -10 -11   72.88   15.74 
  -2   0  19    1.82    5.22 
   2   0 -19   -1.25    8.20 
   2   0  18  289.05   37.62 
  -2   0 -18  275.48   38.76 
  -2   0 -18  256.04   36.46 
   0  -6 -17   11.39   13.68 
   0   6 -17    9.69   16.54 
   0  -6  17    8.28    3.95 
   0   6  17   10.94   21.12 
   0  -6 -17    9.59   15.35 
   0   6 -17   10.37   14.92 
  -6  -2   5   48.79   12.50 
   6   2   2   23.06   14.96 
  -5   7  -1   12.51   20.16 
   6  -2  -5   39.78   11.10 
  -6  -2  -2   22.95   27.34 
  -6   2  -2   28.39   12.21 
   5  -7   1   12.75   21.50 
  -6   2  -2   25.03    8.18 
   5   7   1   17.80   14.68 
  -5  -7  -1   18.99   27.96 
   6   2  -5   56.07   18.37 
  -6   2   5   58.18   11.67 
   6  -2  -5   51.91   10.85 
   2   9 -12  114.83   24.45 
  -2   9  12  139.62   29.19 
  -3   8  12  108.66   22.17 
   6   1  -6    3.99    8.43 
   2   9 -12  131.33   23.49 
  -6  -1   6    5.07   10.28 
   6  -1  -6    4.22    9.07 
   2  -9 -12  136.97   32.04 
   3   8 -12  101.69   24.24 
   6  -1  -6    2.43    8.63 
   6   1  -6    3.62    9.61 
  -5  -6  -5    4.82    9.03 
   3  -8 -12   87.11   16.89 
   6  -1  -6    3.64    9.02 
  -5   6  -5    3.78    8.45 
   5  -6   5    4.40    7.64 
   3   8 -12  113.37   20.43 
   5   6   5    4.89    6.30 
   2  -9 -12  145.99   24.18 
   3  -8 -12  117.76   21.08 
  -2   9 -11    7.44   11.97 
  -2   9 -11    6.95   12.04 
   1   1  19    4.85   12.64 
  -6   1  -3   15.91    6.41 
   2  -9  11    6.97   19.37 
  -2  -9 -11    5.14    7.15 
   6   1   3    7.35   14.96 
  -2  -9 -11    7.44   11.97 
   1  -1  19    5.44    7.28 
  -6   1  -3   15.96   21.43 
  -1   1 -19    6.27    9.80 
   2   9  11    7.73    9.27 
  -1  -1 -19    3.80    7.00 
  -1  -1 -19    2.44    7.02 
  -1   1 -19    4.87   14.28 
  -6  -1  -3   12.40   22.57 
  -3 -10  -5    7.17    3.34 
  -3 -10  -5   13.64   22.10 
   1  -9 -13  114.41   21.54 
  -5   5  -7   18.78   24.45 
   1  -9 -13  117.55   20.97 
   3  10   5   10.92   13.66 
  -5   5  -7   26.28   43.95 
   1   9 -13  122.02   24.20 
  -3  10  -5   11.94   24.92 
   1   9 -13  120.03   24.93 
  -5  -5  -7   18.74   32.82 
  -1  -9  13  133.33   17.46 
   3 -10   5   11.87   19.73 
   5   5   7   17.60   34.94 
  -1   9  13  106.99   22.51 
   0   7 -16   71.63   52.88 
   0   7  16   46.76   50.94 
   0  -7  16   55.84    9.77 
   0  -7 -16   58.13   14.26 
   0  -7 -16   57.26   14.54 
   0   7 -16   55.41   14.06 
  -6   3   2  111.32   19.47 
  -6   3   1    6.80   13.22 
   6   3  -2   93.60   19.50 
  -6  -3   1    2.26    6.23 
   0  12  -3  134.05   25.91 
   0  12  -3  107.61   21.59 
  -6   3   1    5.40    7.83 
   0 -12   3  113.03   22.69 
   0 -12  -3  132.77   26.78 
   0  12   3  144.03   24.83 
   6  -3  -2   95.29   20.36 
   6   3  -1    2.10    4.86 
  -6  -3   2   91.09   17.01 
   0  12   3  134.93   44.42 
   1  -6 -17   39.48   12.29 
   1   6 -17   31.83   12.69 
   1  -6 -17   42.96   33.44 
   1   6 -17   41.46   44.53 
  -1   6  17   46.58   16.38 
   0   3  19  376.31   50.17 
   0  -3  19  406.01   53.82 
   0  -3 -19  323.20   44.65 
   0  -3 -19  321.38   39.17 
   0   3 -19  366.84   39.39 
   0   3 -19  365.85   50.92 
   1  -4  18   16.35   20.29 
  -1   4 -18   14.52   25.14 
   1   4  18   22.10   19.50 
  -1  -4 -18   18.58    8.78 
   2  -1 -19   53.97   14.56 
  -1   4 -18   19.43   45.92 
  -2   1  19   60.24   16.80 
   2   1 -19   65.25   16.66 
  -2  -1  19   78.12   19.97 
  -1  -4 -18   16.97   20.43 
  -1 -11   8    1.85    5.93 
   2  -1  18   33.53   10.46 
  -2  -1 -18   31.57   11.60 
   1  12   0   19.15    8.10 
  -1  11   8    1.94    7.24 
   1  11  -8    2.12    5.52 
  -1  11   8    2.54    8.44 
   1 -12   0   22.74   10.23 
  -4   0  16  123.66   26.33 
  -1  12   0   26.40   31.94 
   1  11  -8    2.81    6.29 
  -2   1 -18   30.39   13.86 
  -1  -3  19    3.95    6.35 
  -1  12   0   22.31   10.51 
   2   1  18   38.02   47.50 
   1  12   0   25.07   34.48 
   4   0 -16  151.31   68.54 
   1  -3 -19    2.39    4.46 
   1  -3 -19    2.63    6.22 
  -2  -1 -18   33.25   29.33 
  -1 -12   0   23.98   36.33 
   1   3 -19    3.76    6.55 
  -2   1 -18   33.95   10.84 
   1 -11  -8    4.66    8.96 
  -1   3  19    2.73    5.09 
   2  11  -6   50.52   16.24 
  -2  11   6   46.67   42.05 
  -2 -11   6   68.28   13.13 
   2  11  -6   56.63   12.73 
  -4   0 -14  252.75   36.79 
  -5  -7   4   30.64   22.88 
  -4   0 -14  244.11   34.12 
  -5   7   4   21.98   24.48 
   4   0  14  297.08   36.08 
   5  -7  -4   22.00   30.77 
   5   7  -4   34.25   43.45 
   2 -11  -6   72.36   16.51 
   1  12  -1   29.33   12.16 
  -1  12   1   37.88   44.55 
   2 -11   5    1.19    5.53 
  -2 -11  -5    1.46    6.56 
  -2  11  -5    1.69   10.86 
   1  12  -1   24.23   11.47 
  -1  12   1   27.91    9.68 
   2  11   5    1.24    7.65 
   1 -12  -1   32.56   11.16 
  -1 -12   1   28.62   36.44 
  -2  11  -5    0.01    4.50 
   2  11   5    0.28    3.49 
   1  -7 -16  132.39   23.88 
   1  -7 -16  134.85   21.95 
   1   7 -16  122.89   24.22 
   1   7 -16  142.18   26.54 
  -1   7  16  134.80   27.26 
  -1 -10  11  195.51   24.93 
   1 -10 -11  218.56   31.59 
  -6  -3   0    1.55    4.27 
  -6   3   0    1.55    6.92 
   6  -3  -3   25.35   36.61 
   6   3   0    0.93    3.31 
  -6  -3   3   27.47   21.11 
   6   3  -3   25.25   10.39 
  -1  10  11  170.86   29.84 
  -6   3   3   27.75    9.45 
  -6   3   0    1.63    5.80 
   1  10 -11  178.87   31.44 
   1  10 -11  188.18   30.61 
  -1  10  11  184.80   28.43 
   1 -12   1   65.80   19.48 
   3  -9 -10  189.10   28.23 
  -3   9  10  196.68   29.87 
   3   9 -10  169.05   25.05 
  -1  12  -1   74.04   17.94 
   1  12   1   56.19   26.33 
  -1  12  -1   68.49   22.36 
   3   9 -10  199.77   38.19 
  -1 -12  -1   76.07   16.85 
   1  12   1   74.65   14.31 
  -3   9  10  186.96   29.10 
   3  -6 -15   99.36   20.60 
   5   4 -11   52.39   40.38 
   5   4 -11   42.48    9.45 
  -3   6  15   98.64   22.17 
   5  -4 -11   34.87   10.09 
   3   6 -15   76.96   18.70 
   3  -6 -15   98.59   17.25 
   5  -4 -11   37.32   38.99 
  -5   4  11   34.13   11.19 
   3   6 -15   86.80   28.07 
   4  -9  -5    8.81   15.08 
  -4   9   5   10.73   15.78 
   4   9  -5   11.80   19.10 
  -4   9   5    6.84   15.48 
  -4  -9   5    9.55   15.85 
  -4  -9  -3  217.91   33.59 
  -4   9  -3  192.08   32.82 
   4  -9   3  189.76   30.03 
   4   9   3  194.71   32.03 
  -5  -2 -10    2.70    7.59 
  -5  -2 -10    5.52   12.68 
  -5   2 -10    2.61    8.70 
  -5   2 -10    1.73    8.20 
   5   2  10    1.46    5.21 
  -4   1  16   63.08   18.10 
  -4  -1  16   61.18   17.63 
   4  -1 -16   65.28   16.53 
   4   1 -16   53.21   13.29 
   3   0 -18   -0.37    8.60 
  -4   7  11   46.91   12.57 
  -4   7  11   48.79   15.26 
   4  -7 -11   46.08   12.65 
   4   7 -11   41.11   15.43 
  -3   0  18    1.03   13.30 
   4   7 -11   50.85   55.09 
   3  -5 -16  198.69   31.39 
   3   5 -16  179.87   27.92 
   3  -5 -16  181.68   25.18 
   3   5 -16  172.75   32.85 
  -3   5  16  160.39   28.47 
   2  -4 -18  159.55   23.28 
  -4  -1 -14   -0.27    7.67 
   4   1  14    0.92    3.83 
  -4   7  -9   34.08   13.29 
   4  -7   9   28.91   50.22 
  -4  -1 -14    0.23    4.43 
   4   7   9   38.38   43.45 
   2  -4 -18  182.72   30.48 
  -2   4  18  173.85   30.49 
   2   4 -18  152.09   30.43 
  -4   1 -14   -0.42    5.52 
  -2  -4  18  174.49   34.01 
   4  -1  14    1.51    3.06 
  -4  -7  -9   34.50   12.75 
  -2  -4 -17   21.35   34.29 
  -2   4 -17   14.00   27.46 
  -2   4 -17   15.15   32.10 
  -5   0  13   87.80   20.41 
  -2  -4 -17   21.69   17.33 
   5   0 -13   98.59   18.80 
  -1  12   2   42.64   39.13 
   2   4  17   20.22   30.29 
   1  12  -2   31.42   12.14 
   1 -12  -2   39.82   12.61 
  -1  12   2   35.86   11.01 
   2  -4  17   14.34   23.89 
  -1 -12   2   33.29   12.26 
   1  12  -2   32.91   10.28 
   5  -7   2   62.79   17.01 
   5   7   2   50.57   15.02 
  -5  -7  -2   45.68   14.18 
  -5   7  -2   54.04   14.37 
  -2  -8 -13   19.44   24.56 
  -2   8 -13   19.79    7.65 
  -2  -8 -13   25.82   31.42 
  -2   8 -13   22.81   34.36 
   2  -8 -14    1.30    4.09 
   2   8  13   25.08   25.21 
   2   8 -14    1.87    6.52 
  -2   8  14    1.77   10.62 
   2   8 -14    1.70    7.04 
   2  -8 -14    0.53    5.21 
   2  -8  13   20.93    8.91 
   5  -3 -12  646.77   64.93 
   0  -5  18   19.00    6.68 
   5   3 -12  612.44   63.38 
   0   5  18   31.45   40.53 
   0  -5 -18   20.45   27.58 
   5  -3 -12  618.97   78.22 
   0  -5  18   20.66   40.64 
   0  -5 -18   27.17   11.51 
   5   3 -12  533.17   64.38 
   0   5 -18   21.19   36.56 
  -5   3  12  679.30   76.77 
  -5  -6   8   47.67    8.94 
  -5   6   8   53.65   16.35 
  -5   6   8   56.56   11.66 
   5  -6  -8   58.89   14.98 
   5   6  -8   49.61   59.96 
   3  10  -7   24.25   34.90 
  -3 -10   7   28.63    9.04 
  -3  10   7   34.49   10.35 
   3 -10  -7   37.46   33.41 
   3  10  -7   34.42   10.24 
  -6  -3   4   57.24   12.55 
  -6   3   4   47.38   11.46 
   6   3   1   14.50   30.13 
  -1  12  -2  191.17   28.08 
   1 -12   2  176.22   28.66 
   6  -3  -4   41.77    8.94 
  -6   3  -1   17.44   29.65 
  -1  12  -2  190.82   32.12 
   1  12   2  170.93   27.07 
  -1 -12  -2  180.99   28.13 
   6  -3  -4   49.79   14.30 
   1  12   2  167.17   30.09 
  -6  -3  -1   18.81   27.47 
   6   3  -4   56.61   14.49 
  -6   3  -1   15.51    6.74 
  -3   1  18    6.47   11.42 
  -1   5  18  254.23   40.06 
  -1  -5  18  263.10   40.81 
   1  -5 -18  275.07   38.08 
   3  -1 -18    5.06   12.01 
   3   1 -18    2.85    5.25 
   1   5 -18  223.80   37.51 
  -3  -1  18    3.44   15.68 
   1  -5 -18  260.87   36.29 
   6   0  -7    0.52    5.25 
   6   0  -7    0.41    4.40 
   6   0  -7    0.60    4.62 
  -2 -10  10   80.39   12.36 
  -2  10  10   65.08   16.44 
   2 -10 -10   81.04   17.88 
   2  10 -10   82.61   15.83 
  -2  10  10   67.42   15.33 
   2  10 -10   95.02   23.60 
  -4   8   9   22.49   29.92 
  -6   0  -4    4.53    7.76 
   4   8  -9   16.24    6.09 
   5  -1 -13   19.34    9.16 
  -6   0  -4    4.64    8.90 
   4   8  -9   22.33   24.53 
  -2 -10  -9   34.30   18.68 
  -4   8   9   25.96   35.02 
  -5   1  13   21.09   33.01 
  -2  10  -9   37.86   45.64 
   2  10   9   36.57   45.07 
   2 -10   9   31.71   13.78 
   5   1 -13    9.29   20.51 
  -2 -10  -9   36.13    8.98 
  -2  10  -9   27.26   15.58 
   5   1 -13   15.24   23.32 
   4  -8  -9   20.97   22.82 
   0 -12   4  255.98   34.77 
   6  -2  -6    7.92   15.68 
   6  -2  -6    7.12   11.92 
   0 -12  -4  294.33   39.00 
  -4   8  -7    1.32    6.37 
   4  -8   7    0.41    7.06 
   6   2  -6    9.96   14.63 
  -4  -8  -7    1.20    5.91 
   0  12  -4  245.45   37.44 
   6  -2  -6   12.26    6.33 
  -6  -2   6    8.72   16.81 
   0  12   4  245.26   34.49 
   0  12   4  204.32   32.76 
   0  12  -4  220.96   32.97 
  -1  -2 -19    2.56    7.28 
  -6   2  -3  109.06   18.41 
  -1   2 -19    3.01    8.44 
  -1  -2 -19    2.99    8.01 
   1  -2  19    3.19    5.19 
  -6   2  -3  106.29   24.23 
  -6  -2  -3  105.72   23.84 
  -1   2 -19    1.56    5.22 
   1   2  19    2.88   12.02 
   6   2   3   85.06   13.29 
   0   8  15   11.21   17.31 
   0  -8 -15    9.90   17.86 
   0   8 -15   15.76   16.53 
   0   8 -15   15.78   26.82 
   0  -8  15    9.59   18.48 
   0  -8 -15    9.82   12.31 
   5  -7  -5    7.19   14.73 
   5   7  -5    5.46   12.27 
  -5  -7   5    8.64   19.29 
  -5   7   5   11.83   18.44 
   5  -5 -10  100.73   18.67 
   5   5 -10  111.60   24.40 
  -5   7   5   11.36    5.20 
   5   5 -10   98.32   15.24 
   5  -5 -10   94.05   17.60 
  -5   5  10   97.09   18.72 
  -1  12   3   98.17   20.16 
   1 -12  -3  113.64   22.92 
   1  12  -3  101.77   19.83 
  -1 -12   3  100.66   19.10 
   1  12  -3  114.71   24.21 
  -1  12   3  118.35   22.64 
  -2   2  19   14.54   29.91 
   2   2 -19    9.34    9.13 
   2  -2 -19   17.78   30.25 
   2  -2 -19   10.68   12.21 
  -2  -2  19   15.65   27.87 
   2  -2  18    1.08    4.69 
  -2  -2 -18    1.03    2.82 
  -2   2 -18    1.07    6.88 
  -2  -2 -18    0.87    7.10 
  -2   2 -18    0.44    4.10 
   6   1  -7   -0.15    3.00 
  -6  -1   7    0.69    5.22 
   6  -1  -7    1.83    6.56 
   6  -1  -7    0.73    1.75 
   6  -1  -7    0.31    3.56 
   3   7 -14   99.29   19.94 
  -1 -11  -8    1.44    7.54 
   3  -7 -14   97.28   17.50 
   1 -11   8    3.29   10.46 
  -6   1  -4   11.78   23.00 
   1  11   8    1.12    6.04 
  -6  -1  -4    7.67   14.16 
  -1  11  -8    3.91    4.85 
  -1  11  -8    1.45    7.51 
   3   7 -14   92.90   40.55 
   3  -7 -14   93.81   19.26 
  -6   1  -4    6.06   16.33 
   1  11   8    1.33    5.79 
   6   1   4    8.63    4.44 
  -3   7  14   95.32   22.61 
  -4   5  14    4.63   13.91 
   4   5 -14    3.76   10.22 
   4  -5 -14    4.48    6.50 
   4  -5 -14    6.78   10.08 
   4   5 -14    3.01    6.62 
   1   8 -15  268.56   40.33 
  -3   3 -16   85.99   20.67 
  -3  -3 -16   71.11   14.87 
   1   8 -15  222.06   34.43 
   3   3  16   82.50   18.32 
   1  -8 -15  231.63   32.05 
   1  -8 -15  221.09   32.12 
   3  -3  16   83.78   14.14 
  -1   8  15  257.25   38.27 
  -3  -3 -16   85.12   19.27 
  -3   3 -16   70.01   18.03 
  -4   5 -12   15.86   24.10 
  -4   5 -12   18.43   28.89 
  -4  -5 -12   12.95    5.39 
   4   5  12   15.66   16.14 
  -4  -5 -12   17.44   20.46 
  -3  -8 -11    6.83   12.31 
   3   8  11    6.54   11.86 
   3  -8  11    3.99   11.66 
  -3  -8 -11    5.32   10.18 
  -3   8 -11    4.58    6.83 
   4  -2 -16  491.78   56.72 
  -4  -2  16  530.01   67.17 
   4   2 -16  458.29   60.52 
  -4   2  16  456.54   57.82 
   1  12   3   17.56   41.27 
   1  12   3   18.14   18.64 
  -1  12  -3   14.92   24.68 
  -1 -12  -3   19.06   34.81 
  -1  12  -3   16.59   27.16 
   1 -12   3   16.78   26.37 
  -4  -2 -14    1.04    4.49 
   4  -2  14    0.32    2.32 
  -4   2 -14    1.29    8.93 
   3  -4 -17   18.82   31.26 
   3   4 -17   25.17   30.12 
  -3   4  17   29.67   32.55 
   4   2  14    0.55    3.38 
  -4   2 -14    0.39    3.42 
  -4  -2 -14    1.17    6.27 
   3  -4 -17   19.70   12.82 
  -5  -7  -3   21.11   33.10 
  -6   3   5   26.31    8.48 
   6  -3  -5   27.42    7.99 
   6  -3  -5   28.22   42.88 
  -5   7  -3   17.78   31.60 
   6   3  -5   27.68   10.45 
   5  -7   3   15.23   35.16 
   5   7   3   17.98   24.85 
  -6  -3   5   18.85    8.63 
  -4   9   6   82.54   17.92 
  -3  -9  -9   23.16   10.42 
  -3 -10  -6  251.28   36.16 
  -3  -9  -9   18.24    5.66 
  -3   9  -9   22.76   52.24 
   4   9   4   47.31   45.07 
   0  11  -9   25.24   32.56 
   3  -9   9   29.95   32.92 
  -4  -9   6  105.18   25.84 
   4  -9  -6   65.02   23.63 
   3   9   9   21.38   21.15 
   0 -11  -9   34.19   44.13 
  -3  10  -6  265.46   39.89 
  -6   3  -2   18.80   26.66 
   0 -11   9   29.49    9.09 
   3  10   6  283.35   40.53 
   3 -10   6  256.29   35.99 
  -4   9   6   78.40   13.50 
  -6   3  -2   18.59    7.78 
  -6  -3  -2   20.42   32.46 
   4   9  -6   89.56   20.16 
   4  -9   4   39.71   13.68 
   6   3   2   15.63    9.23 
  -4   9  -4   52.20   15.31 
  -4  -9  -4   33.93   12.03 
   0  11  -9   33.19   27.73 
   0  11   9   28.67   12.03 
   0  11   9   28.28   35.12 
   1  -9  13  110.47   19.55 
  -1  -9 -13  131.43   24.81 
   5   6   6    6.34   19.32 
   1   9  13   90.20   19.65 
  -1   9 -13  119.33   21.52 
  -1  -9 -13  113.82   23.93 
   5  -6   6    8.69   27.92 
  -5  -6  -6   10.97   25.48 
  -1   9 -13  104.93   23.80 
  -5   6  -6    8.16   16.73 
  -1  10 -11   93.17   22.58 
   1 -10  11   86.46   15.72 
  -1 -10 -11  100.66   17.15 
  -1  10 -11  107.68   93.97 
   1  10  11  136.16   27.29 
  -1 -10 -11  100.12   20.69 
   5   4   9   99.09   18.15 
  -5  -4  -9  100.93   25.66 
  -5   4  -9   99.39   24.01 
  -5   4  -9  103.09   20.61 
  -2 -11  -6   33.41   11.66 
   2 -11  -7    4.79    6.35 
   2  11   6   29.64   41.95 
  -2  11  -6   39.12   14.53 
   2  11  -7    3.94    5.57 
   2  11  -7    6.14   14.16 
  -2  11   7    2.88    3.87 
   2 -11   6   34.46   11.82 
   2  11   6   34.82    9.11 
  -2  11   7    2.20    4.59 
  -2  11  -6   34.11    8.65 
  -2 -11   7    3.29    5.53 
   4  -4 -15   58.92   44.12 
   4   4 -15   37.05   15.69 
   4   6 -13   15.13   22.63 
   4   6 -13   13.13   20.88 
   4  -6 -13   17.62   18.82 
   4   4 -15   54.01   59.47 
  -4   4  15   54.19   15.57 
   4  -6 -13   16.86    7.22 
  -4   6  13   22.55   33.92 
   4  -4 -15   53.50   10.11 
   3   2 -18    1.39    6.96 
  -4  -4 -13    1.92    8.58 
   4   4  13    3.03    7.46 
  -4   4 -13    2.54    6.70 
  -4  -4 -13    2.16    6.36 
  -4   6 -11    0.83    8.92 
   4   6  11   -0.46    6.16 
  -3   2  18    1.03    7.12 
   3  -2 -18    2.70    6.51 
  -4  -6 -11    1.18    4.48 
  -3  -2  18    0.72    4.21 
  -4   6 -11    0.96    5.63 
  -4   4 -13    1.00    7.70 
   5  -2 -13   27.42    7.80 
   5   2 -13   23.22    8.55 
   5   2 -13   21.32   38.92 
   5  -2 -13   28.61   10.33 
  -5   2  13   31.34   45.63 
  -1  12   4   69.76   17.68 
   1  12  -4   57.41   16.54 
  -1 -12   4   61.66   14.03 
   1 -12  -4   50.74   15.25 
   1  12  -4   63.54   14.83 
   1   0 -20   -0.37    9.21 
   0  12   5   42.56   47.21 
   0  12  -5   42.43   15.70 
   0 -12   5   36.80   14.49 
   0 -12  -5   38.20   13.90 
   0   0 -20    3.23    7.84 
   0   0 -20    0.65    3.24 
   0   0  20    2.71   12.80 
   0  12   5   38.68   45.29 
  -1   0  20   -0.41    9.91 
   0  12  -5   54.17   17.38 
  -5   3 -10   40.08   52.08 
  -5   3 -10   41.69   13.15 
   5   7  -6    1.08    7.20 
  -5   7   6    2.02    6.17 
   5   3  10   36.40    9.71 
  -5  -3 -10   41.55   17.33 
  -5  -7   6    0.80    2.93 
   5  -7  -6    1.45    4.45 
  -5   7   6    2.93    8.32 
  -5   0 -11  479.07   57.99 
  -5   0 -11  469.50   49.19 
   6   2  -7   12.95   17.75 
   6  -2  -7   11.27   15.96 
  -6  -2   7   10.30   20.04 
   6  -2  -7   11.66   22.05 
   6  -2  -7   11.20   22.94 
   6   2   4   16.33    6.52 
  -5   5  -8   89.33   20.31 
  -5  -5  -8   73.18   19.11 
  -5   5  -8   95.43   22.26 
   5   5   8   86.34   17.16 
  -6   2  -4   11.61   18.21 
  -6   2  -4   11.27   22.57 
  -6  -2  -4   17.36   33.69 
   3   6  14   49.83   35.21 
  -3   6 -14   47.49   15.52 
  -1   6 -17  114.50   21.27 
  -3  -6 -14   40.77    9.74 
  -3   6 -14   50.25   16.66 
   1  -6  17  123.94   19.87 
  -1  -6 -17  135.77   24.48 
  -1   6 -17  113.22   24.96 
  -3  -6 -14   52.85   19.72 
   1   6  17  123.96   26.10 
  -1  -6 -17  127.99   31.54 
  -1  11   9   63.45   58.03 
  -1  11   9   60.87   14.84 
   1  11  -9   67.19   16.84 
  -1 -11   9   56.41   16.66 
   1 -11  -9   82.34   18.70 
   1  11  -9   59.96   16.88 
  -1  -7 -16   53.91   13.84 
  -1  -7 -16   46.84   46.35 
   1   7  16   50.81   44.03 
  -1   7 -16   48.97   13.42 
   1  -7  16   54.24   12.28 
  -1   7 -16   57.65   45.79 
   6  -4  -1   20.21   37.02 
   6   4  -1   18.65   23.47 
   6  -4  -2  123.52   23.36 
  -6  -4   1   19.63   27.87 
  -6   4   1   17.53   28.79 
  -6   4   2  115.43   20.75 
   6   4  -2  141.68   23.65 
  -6  -4   2  101.07   20.62 
   6   0  -8   29.36   10.32 
   6   0  -8   29.67    8.84 
   6   0  -8   23.68    8.40 
   1  -1 -20  123.23   26.58 
  -1   1  20  124.50   25.50 
   1   1 -20  124.64   23.82 
  -1  -1  20  120.50   24.57 
   0  -1 -20   14.70   30.22 
   0  -1  20    9.42   11.46 
   0   1  20   22.46   34.91 
   0  -1 -20   15.29    6.61 
   0   1 -20   10.93   18.22 
   1  -1 -20  117.24   17.15 
   0   1 -20   10.15    6.30 
   0  -4 -19    1.94    4.25 
  -6   0  -5    0.25    1.93 
   0   4  19    2.66   11.59 
   0  -4  19    0.22    5.93 
   0  -4 -19    2.94    5.95 
   0   4 -19    0.33    2.59 
   0   4 -19    0.27    5.43 
  -6   0  -5    0.06    5.95 
   3  10  -8    9.01   17.29 
  -3  10   8    7.46   13.59 
   3  10  -8   12.11   22.60 
   3 -10  -8    5.95    8.27 
  -3  10   8    9.01   14.03 
  -3 -10   8    9.54   21.37 
  -1 -12  -4   23.35   10.02 
  -5   1 -11    4.94    8.55 
   1 -12   4   23.53   35.70 
   5   1  11    3.40    7.89 
  -5  -1 -11    4.71    6.62 
  -1  12  -4   20.42   37.19 
  -5  -1 -11    3.39    9.34 
  -5   1 -11    3.55   11.35 
  -1  12  -4   26.62   29.27 
   1  12   4   31.82   11.10 
   1  12   4   30.01   44.58 
  -1   4  19    1.16    7.05 
   1  -4 -19   -0.39    7.55 
   1   4 -19    2.75   11.89 
   1  -4 -19    0.75    3.01 
  -3   5 -15   87.36   21.86 
  -3  -5 -15   58.61   17.24 
  -3  -5 -15   62.05   12.71 
   3   5  15   68.41   17.40 
  -3   5 -15   74.55   17.45 
  -6   3   6    1.94    7.78 
  -6  -3   6    0.99    4.32 
  -5   6   9   27.72    9.93 
   5  -6  -9   23.11    8.91 
   6  -3  -6    1.14    7.46 
   6   3  -6    0.75    4.37 
  -5   6   9   26.96    9.96 
   5   6  -9   23.82   43.53 
   6  -3  -6    1.39    5.86 
  -1  -3 -19   60.97   14.78 
  -1  -3 -19   76.50   16.84 
  -6   3  -3    6.28   11.72 
   6   4  -3    5.18   10.24 
   6  -4  -3    7.38   12.54 
  -6  -3  -3    9.46   15.75 
  -1   3 -19   54.94   13.98 
   1  -3  19   65.55   16.40 
   1   3  19   81.65   21.71 
  -6  -4   3    4.88   11.80 
  -6   3  -3    5.79    8.84 
  -1   3 -19   55.96   16.55 
   6   3   3    6.39   11.71 
   6   4   0  162.40   24.83 
   0  10  12   19.49   34.26 
  -6   4   0  148.69   22.83 
   0 -10 -12   22.21   38.06 
  -6  -4   0  175.28   27.74 
   0 -10 -12   24.69   15.10 
   0  10 -12   28.79   45.08 
   6  -4   0  158.91   27.69 
   0 -10  12   28.31    8.71 
   0  10 -12   32.32   38.07 
   6  -1  -8   10.53   17.59 
   6   1  -8   20.54   30.14 
   6  -1  -8   14.30    5.92 
   6   1  -8   17.45   12.15 
   6   1  -8   15.18    7.91 
   6  -1  -8   12.26   20.64 
  -3  11   1   55.61   17.13 
   3  11  -1   54.04    9.51 
   3 -11  -1   59.40   15.58 
  -6   1  -5   19.29   10.04 
   6   1   5   16.33    7.71 
  -3  11   1   68.95   17.88 
  -6  -1  -5   19.15   34.55 
   3  11  -1   67.35   19.13 
  -3 -11   1   67.32   17.07 
  -6   1  -5   21.51   37.92 
   3   0  17   75.55   22.52 
   5  -7   4   76.69   20.26 
  -3   0 -17   81.78   20.18 
  -3   0 -17   63.83   17.12 
  -5   7  -4   87.31   20.50 
  -5  -7  -4  119.59   24.49 
   5   7   4  110.41   22.18 
   2  -3 -19  132.71   18.43 
   2   3 -19  124.75   24.34 
  -2   3  19  159.32   28.82 
   2  -3 -19  152.85   26.33 
  -2  -3  19  172.56   32.93 
  -3 -11   0   38.82   13.71 
   3 -11   0   29.70   12.30 
  -3  11   0   29.52    7.99 
  -3  11   0   32.00   13.45 
   3  11   0   27.41   46.42 
   2   6 -17   58.13   18.26 
  -3   9  11   53.92   14.36 
   2   3  18   82.31   24.46 
   2  -3  18   76.55   15.83 
   2   6 -17   70.69   37.69 
   3   9 -11   43.92   16.73 
  -2   6  17   62.94   19.06 
   2  -6 -17   59.65   16.83 
  -2   3 -18   68.91   17.25 
   2  -6 -17   65.53   13.91 
   3   9 -11   50.97   12.73 
  -2  -3 -18   76.60   20.81 
  -3   9  11   68.66   17.65 
  -2   3 -18   76.47   19.42 
  -2  -3 -18   81.83   18.36 
   3  -9 -11   55.73   50.72 
   2   6  16    0.70    5.71 
  -2   6 -16    0.44    7.23 
  -2   6 -16    1.26    5.29 
  -2  -6 -16   -0.17    7.77 
  -2  -6 -16    0.85    3.06 
   3  -8 -13    2.53    5.07 
   3  11  -2   79.92   13.57 
  -3 -11   2   92.33   18.17 
  -3  11   2   77.26   19.09 
   3  -8 -13    3.54    6.80 
  -3   8  13    3.61    8.49 
   3   8 -13    2.36    8.45 
   3  11  -2   76.63   20.51 
   3   8 -13    2.38    3.86 
  -3  11   2   70.99   13.93 
   3 -11  -2   59.59   15.68 
  -3   7 -13   40.91   25.17 
  -3  -7 -13   53.10   14.99 
   3   7  13   54.84   55.25 
  -3  -7 -13   49.23   10.29 
   3  -7  13   38.89   13.40 
  -4   9   7   80.97   15.81 
   0   9 -14   27.84   43.65 
   4  -9  -7   58.40   15.27 
   4   9  -7   59.41   25.25 
   0  -9 -14   24.87   35.41 
   0  -9  14   29.96    8.29 
  -4   9   7   64.08   17.49 
   0  -9 -14   30.81   44.43 
  -4  -9   7   64.28   12.08 
   0   9  14   26.32   42.84 
   0   9 -14   24.84   44.67 
  -2   9 -12  220.97   35.38 
   2   9 -13   13.13   27.62 
   2   9 -13   14.05   24.22 
  -2   9 -12  178.34   23.14 
   2   9  12  367.01   46.76 
  -2  -9 -12  298.12   33.55 
   2  -9 -13   14.14   16.44 
  -2  -9 -12  235.79   33.65 
  -2   9  13   12.19   20.87 
   2  -9 -13   12.35   13.07 
   2  -9  12  216.90   29.47 
  -4  -9  -5  120.93   23.07 
   4  -9   5   89.93   19.55 
   4   9   5  100.19   22.08 
  -4   9  -5  108.93   24.39 
   5  -4 -12  370.02   40.64 
  -5   4  12  385.84   45.88 
   5   4 -12  312.79   34.54 
   5   4 -12  351.42   47.47 
   5  -4 -12  339.83   39.62 
   1  12  -5    8.25   19.27 
   1  12  -5    8.10   20.77 
  -1 -12   5    8.10   12.20 
  -1  12   5    6.99   12.46 
   1 -12  -5    9.41   12.81 
  -4   8  10   77.02   17.46 
   4   8 -10   68.59   19.97 
  -2   7  16   19.72   24.63 
   2   7 -16   11.74   24.04 
   4   8 -10   88.32   15.51 
   2  -7 -16   16.63   32.83 
   2   7 -16   15.45   27.54 
   2  -7 -16   19.16   21.77 
  -4   8  10   93.38   19.47 
   4  -8 -10   92.84   62.07 
   4  -8   8    2.80    8.67 
  -3   1 -17    5.36    9.88 
  -3  -1 -17    4.29   10.23 
  -4   8  -8    0.94    7.52 
   2  -7  15   58.79   13.52 
  -3   1 -17    3.91    9.50 
  -4  -8  -8   -0.02    7.61 
   4   8   8    1.36    6.66 
   2   7  15   59.93   15.83 
  -2  -7 -15   63.43   16.59 
  -2   7 -15   71.77   14.63 
  -3  -1 -17    5.11   14.87 
   3   1  17    4.22    8.42 
   3  -1  17    4.36    9.81 
  -2  -7 -15   71.80   15.26 
  -2   7 -15   67.83   19.43 
   6   4  -4  143.79   25.74 
  -6   4   4  147.97   24.55 
   6  -4  -4  197.59   29.13 
  -6  -4   4  170.45   24.91 
   3  11   1   99.74   23.88 
  -3  11  -1   78.69   19.07 
  -1  -5 -18  131.59   22.84 
  -6  -4  -1   13.17   22.93 
  -1   5 -18  132.60   20.50 
   1  -5  18  137.86   29.90 
  -6   4  -1   16.65   29.52 
   6   4   1   16.81   23.99 
  -3  11  -1   71.62   22.02 
  -3 -11  -1   74.76   17.88 
   1   5  18  125.41   25.65 
  -6   4  -1   16.49   23.88 
   3 -11   1   74.67   18.17 
  -1   5 -18  120.09   25.72 
  -1  -5 -18  101.49   19.49 
   4   3 -16    7.19   12.07 
   4  -3 -16    4.93   14.73 
   4  -3 -16    7.49   13.49 
   4   3 -16    8.68   14.41 
  -1  10  12   85.09   20.58 
  -4   3  16    8.54   18.89 
  -1 -10  12   89.22   14.52 
   1  10 -12   87.44   34.11 
   1 -10 -12  103.72   18.98 
   1  10 -12   90.09   22.01 
   1 -10 -12   95.33   20.74 
   4   7 -12  174.74   32.05 
  -4   7  12  230.31   33.24 
   4  -7 -12  227.86   29.66 
   4   7 -12  166.54   23.62 
   4  -7 -12  218.21   31.50 
  -4   7 -10   85.51   20.80 
  -4   3 -14  109.54   22.45 
  -4  -3 -14  102.30   17.59 
  -4   3 -14  114.52   24.18 
   4  -7  10   84.61   20.61 
   4   7  10   85.73   18.68 
   4   3  14  106.33   18.83 
  -4  -3 -14  104.73   22.54 
  -4  -7 -10   78.87   20.07 
  -1   8 -15   44.16   15.09 
   1  -8  15   45.67   11.39 
  -1  -8 -15   40.28   48.20 
  -1  -8 -15   43.40   12.70 
   1   8  15   29.12   39.07 
  -1   8 -15   49.88   13.19 
   1  -9 -14   20.01   31.56 
   1  -9 -14   22.78   28.62 
   1   9 -14   15.19   26.20 
   1   9 -14   15.90   32.46 
  -1   9  14   25.95   36.85 
  -3  11   3    6.70   17.20 
  -3 -11   3   10.30   20.26 
   3  11  -3    8.72   22.08 
   3  11  -3    7.48    4.56 
   3 -11  -3   14.65   25.43 
   5   5 -11    9.32   19.32 
   5   5 -11    5.60   12.03 
   5  -5 -11   12.64    6.55 
   5  -5 -11   10.88   13.34 
  -5   5  11   14.80   21.38 
   1  -2 -20   94.54   21.60 
  -1  -2  20  112.43   23.58 
   0   2 -20   13.93    5.73 
   0   2  20   12.97   27.18 
   0  -2 -20   14.94   17.28 
   1  -2 -20   94.83   15.61 
   0   2 -20   13.28   26.94 
   1   2 -20  109.13   23.06 
   0  -2  20   16.16   15.97 
   0  -2 -20   12.43   20.66 
  -1   2  20   97.32   25.03 
   3 -10   7  136.87   24.55 
   2  10 -11  149.09   28.40 
   1 -11   9  222.12   31.04 
  -1  11  -9  205.54   28.53 
  -3 -10  -7  114.99   23.01 
  -2 -10  11  161.29   19.96 
  -1 -11  -9  215.97   31.96 
  -3  10  -7  131.88   27.90 
   2 -10 -11  151.92   24.71 
  -2  10  11  131.15   25.85 
  -2  10  11  150.37   25.46 
  -1 -11  -9  286.26   33.95 
   2  10 -11  142.33   24.00 
  -1  11  -9  211.70   33.77 
   3  10   7  120.26   23.74 
   1  11   9  221.63   34.95 
  -5  -7   7    2.60    6.90 
  -2  10 -10  143.00   27.79 
  -2 -10 -10  145.46   30.03 
   2 -10  10  167.82   26.63 
   5   2  11   24.65    7.67 
  -5   7   7    3.72    5.79 
  -5   2 -11   33.44   11.47 
  -5  -2 -11   21.22    7.13 
  -2  10 -10  127.70   18.89 
  -5   7   7    1.80    7.04 
   5  -7  -7    2.64    8.79 
   2  10  10  164.18   29.19 
  -2 -10 -10  145.23   20.01 
  -5   2 -11   37.75   21.35 
   5   7  -7    3.14    7.67 
  -5  -2 -11   29.22   51.56 
   0 -12  -6    0.42   10.01 
  -3   3  18   22.14   37.19 
   3  -3 -18   25.88   38.65 
   0  12  -6    3.95   15.34 
   3   3 -18   21.93   21.87 
   0  12   6    1.23    6.21 
   0  12   6    1.13    4.18 
  -3  -3  18   21.89   39.02 
   0 -12   6    4.21    9.87 
   0  12  -6    3.50    5.93 
  -2  11   8    3.53    5.70 
   2   5 -18   25.48   20.34 
   2  11  -8    2.43   11.50 
  -2   5  18   23.70   42.72 
  -2  11  -7   94.44   41.06 
  -2 -11   8    2.74    4.53 
   2   5 -18   25.08   39.64 
  -2  11   8    5.46    9.25 
   2  11  -8    2.40    4.52 
  -2  11  -7   91.77   17.25 
   2  -5 -18   26.62    8.44 
   2  -5 -18   31.42   13.26 
   2 -11  -8    5.31    8.44 
   2 -11   7   90.32   26.79 
  -2 -11  -7  104.13   21.64 
  -2 -11  -7   94.46   18.50 
   2  11   7  136.21   25.70 
  -5   3  13   71.13   18.53 
   2  -5  17    3.88   15.18 
  -2  -5 -17    2.95    7.85 
  -2   5 -17    5.76   11.40 
   5  -3 -13   58.92   10.88 
   2   5  17    4.05    5.00 
   5   3 -13   66.94   16.09 
  -2   5 -17    4.88    7.70 
   5   3 -13   74.75   22.03 
  -2  -5 -17    3.25    7.44 
   5  -3 -13   71.37   17.52 
  -5  -6  -7  204.38   33.80 
   5   6   7  169.28   26.11 
  -5   6  -7  179.60   29.36 
  -3  -4 -16  113.00   23.07 
  -1 -12  -5    5.34   10.72 
   1  12   5    3.38   11.10 
   1  12   5    5.20    8.81 
  -3  -4 -16   92.12   17.30 
  -3   4 -16  106.02   21.61 
  -1  12  -5    5.42   13.49 
   1 -12   5    4.06    6.76 
   3  -4  16  106.33   16.70 
  -1  12  -5    6.83   10.69 
  -3   4 -16  111.14   24.14 
   3   4  16   98.95   19.99 
  -3 -11  -2   46.11   15.63 
   5   0 -14    0.38    4.86 
  -3  11  -2   43.41   14.41 
  -5   0  14    0.56    5.74 
   3  11   2   37.66   15.77 
   3 -11   2   40.06   13.48 
   6  -2  -8  193.53   28.64 
   6   2  -8  192.98   47.02 
   6  -2  -8  184.78   26.23 
  -6  -2   8  170.66   23.61 
   6  -2  -8  167.90   22.45 
  -6   2  -5   16.48    6.74 
   6   2   5    9.09   25.31 
  -6   2  -5   16.09   27.03 
  -6  -2  -5   17.35   10.99 
   6   3  -7   46.12   14.09 
   6  -3  -7   50.12   10.62 
  -6  -3   7   49.47   10.92 
   6  -3  -7   46.52   10.51 
   6  -3  -7   52.01   12.75 
  -6  -4   5   31.64    9.63 
   6   3   4   16.08   27.77 
   6   4  -5   27.96   11.63 
  -6   4   5   26.39   10.36 
  -6   3  -4   19.08   13.58 
  -6   3  -4   23.98   36.99 
  -6  -3  -4   19.67   33.56 
   6  -4  -5   22.08   26.12 
  -6   4  -2   39.67   13.96 
  -6   4  -2   52.11   14.56 
  -6  -4  -2   65.45   19.17 
   6   4   2   41.90   11.02 
   0  11 -10    8.84   15.13 
   0 -11  10    9.14   15.35 
   0  11 -10    9.16   17.64 
   0 -11 -10    8.90   10.64 
   0  11  10    8.83   14.81 
   0  11  10    5.38   15.24 
  -2  12   1   33.81    9.95 
   2 -12  -1   32.72   12.20 
   5   1 -14   71.06   18.98 
   5   1 -14   57.44   15.96 
  -2 -12   0   95.49   19.07 
   2  12   0  101.94   16.60 
   2  12  -1   24.61   34.88 
   2 -12   0   70.00   16.74 
  -5   1  14   79.69   20.30 
  -2  12   0   85.40   22.22 
  -2  12   0   81.62   16.44 
  -2  12   1   32.76   42.05 
   2  12   0   76.09   19.12 
   2  12  -1   21.30   11.22 
   5  -1 -14   84.29   17.51 
  -2 -12   1   24.55   20.45 
   3  11  -4   71.63   20.61 
   3  11  -4   78.48   15.38 
   3 -11  -4   95.95   20.22 
   3  -2  17  178.05   25.38 
  -3  -2 -17  188.96   30.24 
   3   2  17  182.20   28.34 
  -3  11   4   87.10   16.27 
  -3 -11   4   71.33   15.23 
  -3   2 -17  174.13   30.33 
  -3   2 -17  147.65   26.06 
  -3  -2 -17  157.49   25.64 
  -4   0  17    0.88    6.58 
   4   0 -17    0.97    6.06 
   3   6 -16   10.69   16.37 
   3  -6 -16    8.39   11.35 
  -3   6  16    9.12   15.59 
   3   6 -16    8.36   21.88 
   4   0  15    0.40    2.85 
   3  -6 -16    8.00   16.14 
  -4   0 -15    1.11    4.36 
  -4   0 -15    0.53    7.62 
   6   0  -9    0.42    4.21 
   6   0  -9    1.26    4.64 
   6   0  -9    0.31    4.10 
  -3  -9 -10    6.24   12.41 
  -3  -9 -10    3.53    9.01 
  -6   0  -6  192.08   33.31 
   0   7  17  187.07   32.15 
   3  -9  10    2.40    5.07 
   0  -7 -17  137.06   22.74 
  -3   9 -10    3.93    9.75 
   3   9  10    3.13   11.49 
   0  -7 -17  185.26   28.01 
   0   7 -17  131.54   32.95 
   0   7 -17  155.66   29.81 
   2  -8 -15   17.02   17.70 
   2   8 -15   15.23   20.29 
  -2   8  15   23.71   32.13 
   2  -8 -15   18.36   34.84 
   2   8 -15   20.20   29.77 
   5   7   5   48.96   14.25 
  -5  -8   1  295.26   42.07 
  -2  -8 -14   14.88   31.48 
  -5   7  -5   87.37   21.34 
   5  -7   5   80.45   19.76 
   2  -8  14   11.78   23.13 
   5  -8  -1  253.73   35.69 
   5   8  -1  292.38   42.41 
  -2  -8 -14   12.69   22.20 
  -2   8 -14   15.33   23.24 
  -5  -7  -5   89.76   20.50 
  -2   8 -14   12.71   25.81 
  -5   8   1  236.97   34.25 
   2   8  14   15.93   16.94 
   2 -12   1   48.37   15.04 
   2  12   1   39.21   13.66 
   2 -12  -2  294.23   39.39 
  -2 -12   2  359.35   41.79 
  -2 -12  -1   35.90   27.88 
   2  12   1   42.65   10.42 
   2  12  -2  335.53   37.77 
  -2  12   2  351.06   45.19 
  -2  12   2  367.89   41.89 
  -2  12  -1   45.13   12.43 
   2  12  -2  353.94   48.73 
  -5   8   2  150.65   25.29 
  -5  -8   2  148.33   23.90 
   5  -8  -2  126.03   23.75 
   5   8  -2  112.28   29.78 
   0  -6 -18   19.21   31.45 
   0   6 -18   15.39   35.04 
   0   6  18   20.94   42.71 
   0   6 -18   18.95   38.65 
   0  -6 -18   22.65   29.02 
  -1  12   6    1.37    5.89 
  -1  12   6    1.28    3.89 
   1  12  -6    1.22    6.11 
   1 -12  -6    0.86    4.27 
   1  12  -6    0.23    6.35 
  -1 -12   6    0.31    2.25 
   1  -7 -17    0.67    3.99 
  -1   7  17    0.83    7.11 
   1  -7 -17    0.46    6.93 
   1   7 -17    1.53    4.42 
   1   7 -17   -0.16    8.03 
  -3 -10   9    0.52    2.19 
   3  10  -9    1.19    7.39 
  -5  -8   0  124.58   22.16 
   5   8   0  141.16   57.36 
   5  -8   0  104.92   23.49 
   3 -10  -9    1.94    7.30 
  -3  10   9    0.83    5.38 
  -5   8   0  129.85   26.99 
  -5   4 -10   72.95   20.19 
  -4   1  17    1.56    5.42 
  -5  -4 -10   97.54   23.09 
   4   1 -17    3.68    4.71 
  -4  -1  17    1.54   10.77 
  -5   4 -10   72.51   17.08 
   5   4  10   74.04   19.00 
   4  -1 -17    0.62    7.41 
  -1   6  18    2.91    7.82 
   1   6 -18    1.25    5.53 
   1  -6 -18    1.35    6.52 
   1   6 -18    1.10    5.60 
   1  -6 -18    0.25    4.05 
   6  -1  -9  129.81   19.13 
   4   1  15  161.67   27.40 
  -4   1 -15  140.26   27.66 
  -4  -1 -15  129.78   22.17 
   6  -1  -9  123.00   18.87 
   6   1  -9   98.79   15.43 
   6  -1  -9  117.86   20.81 
  -4   1 -15  150.32   25.68 
   4  -1  15  168.77   22.06 
   6   1  -9  108.87   22.20 
   6   1  -9  105.51   16.45 
  -4  -1 -15  132.09   26.04 
   3  11   3   28.01   12.35 
   3   5 -17  559.89   42.89 
   3  -5 -17  552.20   34.23 
  -3  11  -3   27.28   42.10 
   3  -5 -17  535.20   58.88 
  -3 -11  -3   32.55   12.02 
  -3   5  17  506.10   59.30 
   3   5 -17  525.42   63.66 
   3 -11   3   22.33   44.79 
  -3  -8 -12    0.43    1.89 
  -6   1  -6    2.52    5.22 
  -6  -1  -6    5.41   11.61 
  -3  -8 -12   -0.02    7.15 
   3  -8  12    0.59    2.99 
   3   8  12    0.10    7.10 
  -6   1  -6    3.27    8.55 
  -3   8 -12    0.45    5.15 
   5   8  -3  224.14   35.58 
  -4  -9   8   41.49    8.93 
  -5   8   3  246.61   35.57 
  -5  -8   3  287.36   35.20 
   4  -9  -8   64.00   15.89 
  -4   9   8   51.69   12.61 
   4   9  -8   34.19   53.65 
  -4   9   8   54.19   14.70 
   5  -8  -3  215.46   31.70 
  -1   0 -20    1.96    4.29 
  -1   0 -20    0.47    4.07 
   4  -9   6   14.32   24.78 
   1 -11 -10   86.97   19.45 
   4   9   6   11.13   21.79 
  -1 -11  10   83.97   15.13 
   1  11 -10   82.32   21.49 
  -4  -9  -6   15.17   34.46 
   1  11 -10   90.89   19.60 
  -1  11  10   88.82   20.25 
  -4   9  -6   16.72   30.28 
  -1  11  10   68.11   18.73 
   2   0 -20    7.44   17.61 
  -2   0  20    6.71    9.81 
   5   5   9    2.13    7.22 
  -1  10 -12  173.14   31.92 
   1  10  12  151.88   40.22 
  -1 -10 -12  159.04   26.56 
  -5   5  -9    2.31    3.98 
  -5   6  10    4.18   19.15 
  -5   6  10    8.02   12.71 
  -5   5  -9    0.56    8.53 
  -1  10 -12  180.03   26.92 
  -2   0 -19   -0.27    8.18 
   5   6 -10    7.54   16.47 
   1 -10  12  188.35   30.90 
  -1 -10 -12  191.90   25.86 
   4 -10  -1   30.99   11.71 
  -2   0 -19    1.13    5.73 
   2   0  19   -0.36    6.32 
  -5  -5  -9    3.56    8.47 
  -4 -10   1   29.50   12.62 
  -4  10   1   36.72   47.44 
   5  -6 -10    7.20   13.72 
   4  10  -1   42.24   46.19 
   3  -7 -15   49.88   14.95 
  -3   7  15   51.01   15.47 
   3   7 -15   55.35   19.31 
   3  -7 -15   63.45   14.07 
   3   7 -15   55.74   14.33 
   4   5 -15   18.20   26.83 
   4  -5 -15   10.75   15.27 
  -4   5  15    9.95   23.22 
   4   5 -15   14.25   14.63 
   4  -5 -15   12.12   15.50 
  -2 -12  -2    3.65   12.71 
  -2  12  -2    7.52   15.13 
  -2  12   3  138.66   33.48 
   2 -12  -3  126.98   23.70 
  -2 -12   3  160.12   25.15 
   2  12  -3  134.43   21.49 
   2  12  -3  136.87   28.39 
   2  12   2    3.98   10.12 
   2 -12   2    7.56   17.05 
   2  12   2    4.43    7.33 
  -2  12   3  132.34   24.77 
  -4   5 -13  441.23   52.51 
  -4   5 -13  403.10   50.60 
  -4  -5 -13  387.52   40.01 
   4   5  13  382.88   45.76 
  -4  -5 -13  319.13   43.27 
  -4  10   2  109.45   24.23 
  -4 -10   0   52.06   14.28 
  -4 -10   2  109.90   20.54 
   4 -10  -2  111.52   21.75 
   4  10   0   46.98   39.35 
   4  10  -2  105.14   27.21 
   4 -10   0   51.10   18.61 
  -4  10   0   56.53   16.11 
   5   8   1   60.40   42.22 
  -5   8  -1   57.29   15.45 
  -5  -8  -1   64.41   16.35 
   5  -8   1   53.44   22.47 
   6   4  -6    0.92    3.77 
   6  -4  -6    0.61    3.21 
  -6   4   6    7.48   10.39 
   6  -4  -6    0.29    6.97 
  -6  -4   6    1.29    3.72 
  -6   4  -3    4.49   13.29 
  -6   4  -3    5.77   11.91 
   1   4  19    1.45    5.96 
   1  -4  19   -0.17    6.06 
   6   4   3    5.66   10.46 
  -1   4 -19    0.89    7.13 
  -1  -4 -19    0.42    4.10 
  -1   4 -19    0.62    3.42 
  -1  -4 -19    1.11    3.39 
  -6  -4  -3    7.81   12.16 
   0  -8  16   63.23   10.78 
   0   8 -16   52.07   14.50 
   4   6 -14  152.17   23.94 
   4   6 -14  171.42   31.57 
   4  -6 -14  177.08   24.64 
   4  -6 -14  157.40   25.49 
   0  -8 -16   53.16   14.01 
  -4   6  14  160.66   27.75 
   0   8 -16   75.52   27.95 
   0  -8 -16   64.10   15.99 
   0   8  16   61.41   16.95 
  -1   1 -20   20.75   20.10 
   1   1  20   18.14   33.30 
  -1  -1 -20   14.90   25.40 
   2   1 -20    0.73    5.12 
   2  -1 -20    1.63    3.45 
   1  -1  20   15.93   30.89 
  -1  -1 -20   16.12   13.67 
  -1   1 -20   16.32   40.02 
  -2   1  20    1.89    4.44 
  -4  -6 -12   94.14   21.66 
  -5   2  14    4.78   13.23 
  -2   1 -19  144.72   27.67 
  -4   6 -12   97.85   22.29 
  -4   6 -12   88.91   22.42 
   4   6  12  132.76   44.20 
   5  -2 -14    4.64   10.11 
  -2  -1 -19  154.66   26.64 
  -3   0  19  390.90   51.10 
  -2   1 -19  175.36   27.48 
   3   0 -19  384.58   50.87 
   5   2 -14    2.74    9.85 
  -2  -1 -19  162.53   26.31 
   2  -1  19  166.64   25.44 
   5   2 -14    3.25    3.86 
   2   1  19  172.73   38.20 
  -3  11   5  108.89   19.01 
  -5   7   8   30.67   38.22 
   3 -11  -5  122.07   23.78 
   3  11  -5  116.57   18.05 
  -5   7   8   26.05    8.04 
   5   7  -8   29.63   54.16 
  -3  11   5  142.81   26.39 
   5  -7  -8   30.45   38.62 
   3  11  -5  119.17   26.51 
  -3 -11   5  111.98   18.73 
   0  -3 -20  106.23   21.78 
   0  -3 -20  114.65   19.71 
   0  -3  20  134.00   26.19 
   0   3  20  131.84   27.11 
   0   3 -20  132.73   27.96 
  -1   3  20   44.19   15.09 
   1  -3 -20   40.46   14.14 
   1   3 -20   46.58   15.72 
   1  -3 -20   38.31    9.72 
  -1  -3  20   51.14   21.01 
   0  12   7    0.76    5.61 
   2  -4 -19  155.32   20.71 
  -2  -4  19  191.22   59.03 
   0  12  -7    0.68    7.36 
  -1  -9 -14   33.28   10.28 
  -2   4  19  174.74   40.25 
   0  12   7    2.08    3.99 
  -1   9 -14   36.13   12.12 
  -5   3 -11    5.78   10.66 
  -5  -3 -11   11.60   17.02 
  -1  -9 -14   31.67   12.83 
  -1  12  -6    0.37    2.56 
   1  12   6    0.59    3.88 
   5   3  11    5.76   12.57 
  -1   9 -14   35.57   43.18 
  -1 -12  -6    2.24    5.02 
   1  12   6    0.80    3.77 
   0 -12   7    1.20    4.98 
   1 -12   6    1.28    5.55 
   2  -4 -19  179.20   29.40 
   0 -12  -7    2.14    7.30 
   0  12  -7    2.25    5.48 
  -5   3 -11    5.09   14.54 
   1  -9  14   32.20   19.54 
   1   9  14   34.15   43.26 
   2   4 -19  166.26   28.87 
  -2   4 -18   17.96   33.89 
  -2  -4 -18   15.59   35.53 
   2   4  18   21.82   28.64 
  -2   4 -18   20.05   43.05 
  -2  -4 -18   16.91   28.48 
   2  -4  18   14.64   24.03 
   5  -8  -4   26.06   38.28 
  -5   8   4   33.07   45.21 
  -5  -8   4   31.17    9.83 
   5   8  -4   33.53   41.35 
  -4 -10  -1   72.21   19.19 
  -4 -10   3    8.16   17.46 
   4 -10   1   67.39   17.54 
   4 -10  -3   12.23   23.84 
  -4  10   3   14.18   22.01 
   4  10  -3   11.18   24.04 
   4  10   1   53.29   16.26 
  -4  10  -1   72.25   18.55 
   1   8 -16    0.71    4.59 
   1  -8 -16    0.71    4.37 
   1   8 -16    0.75    3.44 
  -1   8  16    1.25    8.40 
   1  -8 -16    0.29    4.83 
  -6  -5   1   29.64   11.26 
  -3  -1  19   24.60   32.32 
  -6   5   1   34.26   41.87 
  -6  -5   2   56.78   16.02 
  -3   1  19   29.48   54.97 
  -6   5   2   57.45   14.77 
   6  -5  -2   52.45   38.19 
   6   5  -1   37.46   30.34 
   6   5  -2   55.78   15.37 
   6  -5  -1   22.89   38.13 
   3  -1 -19   26.66   33.05 
   3   1 -19   28.58   33.09 
   6  -3  -8    2.90    5.09 
   6   3  -8    0.76    7.47 
  -6  -3   8    1.20    4.37 
   6  -3  -8    2.05    3.95 
   6  -3  -8    1.90    4.16 
  -5   0 -12    0.28    5.17 
  -5   0 -12    0.56    3.80 
   0   5  19   36.45   14.80 
   6   3   5  195.05   25.18 
   0  -5 -19   34.45   10.86 
   0  -5 -19   38.35   48.13 
   0   5 -19   32.34   13.65 
  -6  -3  -5  228.18   35.05 
  -6   3  -5  173.45   24.45 
  -6   3  -5  200.22   35.13 
   0  -5  19   36.75   13.12 
  -4  -2  17   12.89   26.60 
   4   2 -17   13.29   25.09 
  -4   2  17   10.12   16.75 
   4  -2 -17    7.40   12.35 
   4   8 -11   25.01   31.72 
  -4   8  11   16.25   39.31 
  -1   5  19   62.88   19.94 
   4   4 -16  242.18   26.48 
  -4   4  16  261.42   31.96 
  -4   2 -15    4.28   19.57 
   4   4 -16  285.24   34.93 
  -4   2 -15    5.42   12.25 
   1  -5 -19   55.73   13.97 
  -4  -2 -15    2.63    5.50 
   4   8 -11   23.46    9.38 
   1   5 -19   40.39   31.84 
   4   2  15    4.39   11.14 
  -4   8  11   23.96   10.68 
   4  -4 -16  295.25   21.40 
   4  -8 -11   20.89   32.67 
  -4  -2 -15    3.50    6.72 
   4  -4 -16  286.44   33.06 
  -1  -5  19   56.63   16.66 
   1  -5 -19   51.25   40.38 
   6   2  -9   21.73   10.62 
   6  -2  -9   25.42    8.32 
   4  -8   9  277.56   42.23 
   4   8   9  321.06   42.68 
  -4  -8  -9  259.63   36.52 
   6   2  -9   27.20    7.94 
   6  -2  -9   30.69   10.38 
  -4   8  -9  286.27   41.69 
   6   2  -9   25.55    6.66 
   6  -2  -9   20.77   29.33 
   4   4  14    6.58    6.84 
  -3 -10  -8   96.15   21.37 
  -3  10  -8  115.18   27.07 
   3 -10   8   92.08   21.54 
  -6   2  -6   21.62    8.21 
  -4   4 -14    4.15    9.29 
  -4  -4 -14    5.95    9.90 
  -6   2  -6   19.21   36.39 
   3  10   8   85.90   20.55 
  -6  -2  -6   18.35   11.01 
  -4   4 -14    8.73   23.29 
  -4  -4 -14    3.03    5.93 
   6   2   6   11.69   23.63 
   2  11  -9  147.54   29.46 
   2  12   3  122.61   17.75 
  -2  11   9  117.95   22.36 
  -2  12  -3  123.41   19.88 
  -2  11   9  130.01   23.91 
   2  11  -9  140.27   23.45 
   2  12   3  125.59   33.11 
  -2  12   4    0.67    5.90 
   2  12  -4    1.79    7.24 
  -2 -12   4    0.73    3.59 
  -2 -12  -3  121.39   23.15 
  -2 -11   9  127.87   18.92 
   2 -12  -4    0.91    5.30 
   2 -11  -9  127.55   23.39 
  -2  12   4    0.45    7.51 
  -2  12  -3  123.89   26.88 
   2 -12   3  113.87   26.20 
   2  12  -4    0.52    3.09 
   2 -11   8   40.45   49.46 
  -2 -11  -8   32.91   14.21 
   3  -9 -12   25.66   27.10 
  -5  -8  -2   84.45   18.17 
  -2  11  -8   27.69   16.19 
   5  -8   2   55.54   15.28 
  -5   8  -2   70.07   18.28 
   3   9 -12   24.43   37.96 
   3   9 -12   24.86   33.92 
  -3   9  12   19.30   33.35 
  -3   9  12   24.32   45.73 
   5   8   2   60.16   15.79 
  -2  11  -8   40.04   14.16 
   2  11   8   26.49   47.56 
  -2 -11  -8   45.85    9.71 
  -6   5   0   74.02   14.96 
  -6  -5   0  102.52   19.70 
   6  -5  -3   14.27   14.88 
   6   5   0  106.05   19.68 
  -6   5   3   16.41   24.62 
   6  -5   0   80.02   18.42 
  -6  -5   3   16.80   25.13 
   6   5  -3   14.61   25.46 
  -3  11  -4   23.64   11.81 
  -3 -11  -4   20.83   31.86 
   3  11   4   27.53   27.62 
   3 -11   4   35.45   12.13 
  -5   1 -12    1.52    7.91 
  -5  -1 -12   -0.20    7.77 
  -5  -1 -12    0.80    2.78 
  -5   1 -12    0.70    3.41 
   5   1  12    1.75    4.25 
   3   3  17   14.52   21.38 
  -3   3 -17   12.76   26.86 
  -3   3 -17   15.05   27.62 
  -3  -3 -17   11.10   19.76 
   3  -3  17    9.53   20.27 
  -3  -3 -17   13.49   33.66 
  -3  -4  18   22.93   11.74 
   3  -4 -18   30.17    8.04 
   3  -4 -18   29.58   11.57 
  -3   4  18   26.11   13.25 
   3   4 -18   28.19   11.23 
   0 -10 -13  650.23   41.65 
   4  10  -4  191.86   30.49 
   0 -10 -13  707.13   50.59 
   4 -10   2   15.68   25.18 
  -4  10  -2   11.79   18.36 
  -4 -10   4  239.05   25.22 
   0  10 -13  660.28   50.20 
   4  10   2   16.13   29.32 
  -4  10   4  174.47   27.89 
  -4 -10  -2   17.22   25.23 
   0  10 -13  610.50   46.36 
   4 -10  -4  175.93   32.72 
   0 -10  13  668.96   43.81 
   0  10  13  670.52   48.77 
  -4  10   4  202.61   19.27 
   5   6   8    9.92   19.67 
  -5   6  -8   21.18   51.02 
  -5   6  -8   17.16   30.95 
  -5  -6  -8   13.53   23.21 
   5  -4 -13  110.36   18.18 
   5   4 -13  103.30   25.76 
   5   4 -13  111.91   16.74 
   5  -4 -13  119.48   16.79 
  -5   4  13  108.12   20.14 
   1  11  10    1.71   11.63 
  -1  11 -10    1.00    7.48 
   1 -11  10    1.57    5.01 
  -1 -11 -10    0.47    7.87 
  -1  11 -10   -0.37    9.59 
  -5   7  -6   22.77   11.37 
   5   7   6   23.68   11.23 
   5  -7   6   19.15   37.62 
  -5  -7  -6   30.26   55.87 
  -1 -12   7    1.58    4.71 
   1  12  -7    2.20    5.48 
   2   2 -20  143.53   25.88 
   1  12  -7    1.28    6.68 
  -2   2  20  137.35   24.80 
  -2  -2  20  138.20   27.91 
   1   2  20   81.21   63.14 
  -1  -2 -20   82.17   19.44 
  -1  12   7    2.27    5.86 
   1 -12  -7    3.21    5.36 
   2  -2 -20  134.54   22.26 
  -1  12   7    3.37   10.27 
   1  -2  20   90.48   70.36 
  -1   2 -20   74.67   13.58 
  -1  -2 -20   91.53   17.10 
  -1   2 -20   72.02   32.52 
   5  -5 -12  164.41   20.22 
  -5   8   5   28.92   11.55 
   5  -5 -12  140.89   20.09 
  -5  -8   5   25.87    8.70 
   2   2  19    1.92    4.15 
  -2   2 -19    2.51    9.15 
   2  -2  19    1.31    8.04 
   5   5 -12  121.35   23.95 
  -2  -2 -19    6.46   11.87 
  -2   2 -19    1.79    6.16 
  -5   5  12  148.64   22.66 
   5   5 -12  122.58   16.82 
   5  -8  -5   26.25   25.90 
   5   8  -5   29.51   43.22 
  -2  -2 -19    5.75   10.04 
   4   7 -13  128.83   17.82 
   4   7 -13  131.02   25.60 
   4  -7 -13  129.34   19.20 
  -4   7  13  131.67   21.16 
   4  -7 -13  141.68   24.79 
   6  -5  -4   68.10   40.66 
   6  -5   1    5.02    9.31 
  -6  -5   4   59.03   12.97 
   6   5  -4   65.38   47.13 
   6   5   1    4.00    9.78 
  -6  -5  -1    5.33   10.74 
  -6   5   4   63.61   14.24 
  -6   5  -1    4.76    6.80 
  -4  -7 -11   87.44   19.32 
  -4   7 -11   91.19   21.11 
   4  -7  11   79.72   18.59 
   4   7  11   90.70   23.72 
  -3   6 -15    1.60    7.58 
  -3   6 -15    0.27    2.95 
  -6  -4   7  101.44   15.29 
   6  -4  -7  104.12   18.37 
   6   4  -7  106.10   21.60 
   3   6  15    0.55    7.09 
  -6   4   7   97.88   16.70 
  -3  -6 -15    1.15    4.61 
  -3  -6 -15   -0.21    8.30 
   6  -4  -7   91.25   14.08 
   3  -8 -14    5.62    6.87 
  -6   4  -4   71.08   14.59 
   3   8 -14    5.96   14.41 
  -6  -4  -4   81.38   19.96 
  -3   8  14    8.51   14.86 
   3   8 -14    6.73   16.28 
   6   4   4   69.53   14.43 
  -6   4  -4   73.60   27.73 
   3  -8 -14    7.92   12.59 
   6   0 -10   29.59   13.36 
   6   0 -10   25.80   36.20 
   6   0 -10   25.42    7.86 
   3  11  -6   26.76    8.84 
   3  11  -6   28.39   35.53 
   2 -10 -12   42.60   48.76 
  -2  10  12   50.08   15.47 
  -3 -11   6   31.52   10.88 
   2  10 -12   40.12   15.70 
  -3  11   6   15.38   31.24 
  -2  10  12   41.75   13.16 
  -6   0  -7    0.30    9.32 
   2  10 -12   38.11   14.58 
  -3  11   6   27.57   39.59 
   3 -11  -6   22.78   31.49 
   2  10  11  225.92   30.45 
   2 -10  11  252.13   27.89 
  -2  10 -11  203.70   20.34 
  -2 -10 -11  251.97   21.89 
  -2 -10 -11  238.64   40.01 
  -2  10 -11  261.48   34.66 
   1  10 -13  146.74   24.54 
  -1  10  13  141.50   26.35 
   1 -10 -13  139.67   23.54 
   1 -10 -13  156.87   23.24 
   1  10 -13  158.46   25.96 
   2  -9 -14  115.40   19.31 
  -2   9  14   91.03   21.17 
   2   9 -14   84.28   20.55 
   2  -9 -14  105.46   19.84 
   2   9 -14   87.09   18.30 
   3   2 -19   68.68   17.21 
   2  -9  13    9.10   15.21 
  -2   9 -13    6.27   13.00 
  -2   9 -13    7.08   14.91 
   3  -2 -19   73.62   18.40 
  -3   2  19   76.49   19.69 
  -2  -9 -13    8.88   20.24 
  -2  -9 -13    7.16   16.14 
  -3  -2  19   70.12   19.22 
   2   9  13    8.91   21.79 
   6   1 -10   14.26    6.21 
   5  -8   3    0.83    4.14 
  -5  -8  -3    0.43    5.58 
   6   1 -10   14.47   28.98 
   5   8   3    1.38    4.15 
  -4   9   9  239.07   26.78 
  -4   9   9  203.57   27.66 
  -5   8  -3    0.15    5.22 
   6  -1 -10    7.87   17.14 
   6  -1 -10    8.25   26.97 
   4   9  -9  181.05   29.60 
   4  -9  -9  203.80   24.65 
   6  -1 -10   10.92    6.36 
   2  12   4    0.61    2.16 
  -2  12  -4    0.58    7.02 
   1   7  17    3.49    7.58 
   2 -12   4    1.21    6.63 
   2  12   4    2.03    6.86 
  -2  12  -4    0.30    2.72 
  -2 -12  -4    2.03    4.92 
  -2  12   5   27.70   27.56 
  -2  12   5   25.26   39.38 
   4   9   7   90.76   31.04 
  -1  -7 -17    4.86   15.80 
  -1   7 -17    4.00    7.84 
   2  12  -5   24.65   21.51 
  -1   7 -17    2.94    8.91 
   1  -7  17    2.53    7.48 
   2  12  -5   22.77   38.57 
   4  -9   7   71.95   24.37 
  -1  -7 -17    4.67    7.07 
  -2 -12   5   33.39   10.98 
  -4   9  -7   73.41   20.05 
   2 -12  -5   25.15   32.63 
  -4  -9  -7   87.52   19.73 
   3  -7  14   57.70   15.95 
  -6   1  -7  405.67   41.28 
  -6   1  -7  342.80   25.22 
   3   7  14   53.76   34.08 
  -3  -7 -14   47.25   10.63 
  -6  -1  -7  335.16   46.88 
  -3   7 -14   52.72   16.42 
  -3  -7 -14   48.67   14.49 
  -3  10  10   50.24   37.49 
  -3  -5 -16   17.06   28.45 
   3  10 -10   35.71   18.45 
   3   5  16   17.75   27.48 
  -3  -5 -16   15.97   29.67 
   3 -10 -10   42.11   42.75 
   5   3 -14  226.25   32.36 
   0  -9 -15   43.02   13.18 
  -5   3  14  241.35   32.24 
  -3   5 -16   16.22   34.99 
   0  -9 -15   43.00   13.82 
  -3  10  10   40.41   13.17 
   5   3 -14  240.09   25.13 
   5  -3 -14  227.06   19.00 
   3  10 -10   44.48   12.10 
   0   9 -15   43.35   14.69 
   0   9 -15   46.52   59.68 
   0   9  15   41.86   60.13 
   0  -9  15   42.54    9.81 
   5  -3 -14  234.96   26.08 
  -3   5 -16   19.09   41.24 
   0  11 -11   15.32   30.64 
   0 -11 -11   17.00   28.60 
   0  11  11   16.56   26.52 
   0 -11  11   14.56   25.61 
   0 -11 -11   12.52   27.28 
   0  11 -11   14.98   19.31 
  -5  -2 -12    4.04    6.89 
  -5  -2 -12    3.50    9.93 
  -5   2 -12    6.32    7.60 
   5   2  12    2.42    6.03 
  -5   2 -12    5.88    9.37 
   4  10   3    9.98   10.05 
  -4  10   5  121.62   15.84 
  -4  10   5  124.44   23.56 
   4 -10  -5  121.02   20.91 
  -4 -10   5  116.26   16.70 
  -4 -10  -3    7.05   15.67 
   4 -10   3    8.18   20.52 
  -4  10  -3    9.28   14.88 
   4  10  -5  139.59   25.95 
  -1  -6 -18    8.00   13.78 
   1   6  18    8.35   17.59 
  -1  -6 -18   10.53   20.62 
   1  -6  18    7.60   17.29 
  -1   6 -18    8.59   19.31 
  -1   6 -18    8.68   18.79 
  -1  12  -7    7.20   18.37 
  -1  12  -7    6.73   16.67 
   1  12   7    4.99   10.30 
   1 -12   7    4.45   15.91 
   1  12   7    5.85    8.04 
  -1 -12  -7    6.21   11.03 
  -6  -5   5  126.33   22.54 
  -6   5   5  106.09   17.39 
   6   5   2    2.60    8.23 
   6  -5   2    3.25    6.38 
  -6  -5  -2    3.26    7.82 
   6  -5  -5  109.19   18.69 
   6   5  -5  140.67   24.68 
  -6   5  -2    2.96    7.34 
  -5   7   9    6.78   11.50 
   5  -7  -9    6.29    9.87 
   5   7  -9    4.35   10.17 
  -5   7   9    4.79   10.80 
   3 -11   5    0.99    7.22 
   3  11   5    1.70    8.91 
  -3  11  -5    1.11    7.87 
  -3 -11  -5    3.55   12.22 
   1   9 -15  101.78   22.05 
  -1   9  15   94.49   81.41 
   1  -9 -15   91.68   16.94 
   1  -9 -15  108.58   19.82 
   1   9 -15   82.01   19.19 
   5  -6 -11  138.51   20.41 
   0  12  -8  117.37   21.89 
   5  -6 -11  151.19   21.58 
   5   6 -11  151.58   27.86 
  -5   6  11  132.32   20.66 
   0  12  -8  138.29   24.54 
   0 -12  -8   90.40   18.28 
   0  12   8  124.80   19.32 
   0 -12   8  130.26   19.41 
   0  12   8  130.51   22.59 
  -3  -9 -11    0.83    4.01 
   3   9  11    2.23    5.74 
  -3  -9 -11    1.64    7.22 
   5   0 -15  160.93   21.71 
  -5   0  15  191.33   28.29 
  -3   9 -11    1.51    8.96 
   3  -9  11    0.54    2.97 
  -5   8   6   95.70   19.04 
  -5  -8   6  101.74   15.82 
   5  -8  -6   65.76   14.51 
   5   8  -6   95.47   21.55 
   4   3 -17   21.54   33.64 
   4   3 -17   21.71   43.42 
  -4   3  17   33.85   45.10 
   4  -3 -17   35.19   33.92 
   2   6 -18   48.27   14.81 
   2   7 -17  104.13   21.70 
  -2   7  17  100.79   23.48 
   2  -7 -17  121.59   22.30 
  -4  -3 -15  299.22   37.44 
   2  -7 -17  115.67   18.42 
   6   3  -9   36.40   50.51 
   2   6 -18   58.31   20.13 
  -2   6  18   50.93   16.68 
  -4   3 -15  275.56   34.92 
   6  -3  -9   36.77   10.66 
   6  -3  -9   44.62   10.89 
   2   7 -17   97.60   21.99 
  -4   3 -15  275.68   32.29 
   2  -6 -18   45.43   22.70 
   4   3  15  301.25   28.60 
   2  -6 -18   51.70   17.76 
  -4  -3 -15  286.81   28.33 
   6  -3  -9   45.65   12.22 
  -6   3  -6   23.80    9.39 
   6   3   6   18.24    7.40 
   2  -7  16   69.09   15.28 
  -6   3  -6   22.97   36.53 
  -2  -7 -16   71.86   15.20 
   0  13   0    1.54    3.43 
  -2   7 -16   70.65   13.67 
   0  13   0   -0.27    6.05 
  -6  -3  -6   30.32   46.23 
  -2  -7 -16   79.47   17.81 
   0 -13   0    0.70    5.81 
  -2   7 -16   68.62   19.07 
   2   7  16   69.48   18.16 
   2   6  17   51.62   39.61 
  -2  -6 -17   41.70   11.85 
  -2   6 -17   42.83   11.76 
  -2  -6 -17   40.28   12.89 
  -2   6 -17   39.78   15.76 
   1   0 -21   41.31   14.35 
   1 -11 -11    4.40   11.26 
  -1 -11  11    4.41    9.65 
  -1  11  11    5.69   12.38 
  -1   0  21   39.56   54.18 
   1  11 -11    5.84    9.07 
  -1  11  11    4.84   11.56 
   1  11 -11    7.79   12.56 
  -1   8 -16   50.51   13.18 
   1   8  16   70.90   18.65 
  -1   8 -16   58.83   18.18 
  -1  -8 -16   67.11   14.78 
   1  -8  16   51.74   11.21 
  -1  -8 -16   60.88   15.70 
   0 -13  -1   37.27   44.07 
   0  13   1   30.96   42.11 
   0 -13   1   33.59   11.31 
   0   0 -21    0.64    6.84 
   0   0  21   -0.13    7.57 
   0  13  -1   26.99   50.97 
   0   0 -21    0.41    2.67 
   0  13   1   33.00   39.26 
   0  13  -1   38.02   33.34 
   0  -4 -20    9.10   15.09 
   5   1 -15   10.78   17.00 
  -1   4  20   70.21   19.03 
  -5  -1  15   12.78   24.41 
  -5   1  15   14.57   21.13 
   1   4 -20   55.26   16.32 
   0  -4  20    6.95   20.08 
   1  -4 -20   66.72   17.98 
   1  -4 -20   65.73   13.04 
   0   4 -20    7.36   15.89 
   5  -1 -15   10.14   12.63 
  -1  -4  20   71.22   23.92 
   0  -4 -20    5.51   14.40 
   0   4  20    8.92   16.33 
  -3   0 -18    1.36    5.50 
  -3   0 -18   -0.47    7.36 
   3   0  18   -0.01    5.14 
   5   5  10    1.05    5.34 
  -5   5 -10   -0.46    7.58 
  -5   4 -11  169.80   30.20 
   5   4  11  147.75   20.63 
  -5  -5 -10    2.24    8.93 
  -5   5 -10    1.51    6.79 
  -5  -4 -11  123.34   23.60 
  -5   4 -11  134.57   22.60 
   6   2 -10   72.07   10.99 
   6  -2 -10   73.78   13.08 
   6  -2 -10   71.00   12.90 
   6  -2 -10   68.24   16.30 
   6   2 -10   73.20   17.91 
  -6   2  -7   82.01   14.50 
   6   2   7   79.01   12.56 
  -6   2  -7   64.70   18.85 
  -6  -2  -7   70.13   19.24 
  -1   1  21   33.09   56.95 
   1  -1 -21   37.73   14.05 
   1   1 -21   37.40   14.91 
  -1  -1  21   47.98   58.41 
   2  -3 -20    5.97   11.58 
   0   1  21   25.66   28.79 
   0  -1 -21   16.82    6.77 
   1   3  20   71.17   19.28 
  -1  -3 -20   64.32   14.90 
  -1   3 -20   50.38   16.64 
   0  -1 -21   18.49   32.10 
   0   1 -21   18.53   36.46 
   0  -1  21   19.78   32.30 
  -1   3 -20   53.89   11.51 
   1  -3  20   63.36   16.94 
  -2   3  20    4.03    8.26 
   2   3 -20    6.98   19.71 
  -2  -3  20   10.72   16.48 
  -1  -3 -20   64.36   15.81 
   2   3  19   19.12   46.24 
  -2  -3 -19   22.08   33.11 
   2  -3  19   27.11   10.42 
  -2   3 -19   23.02    9.82 
  -2   3 -19   21.70   50.06 
  -2  -3 -19   22.31   42.56 
   0  13  -2    3.58    7.12 
   0  13   2    1.36    4.88 
   0 -13   2    0.32    5.52 
   0  13   2    1.09    5.20 
   0 -13  -2    1.10    4.35 
   0  13  -2    2.61    8.35 
   6   4  -8   63.65   18.04 
   6  -4  -8   56.03   18.37 
  -3  11   7   40.60   11.76 
  -3 -11   7   44.80   10.35 
  -3  11   7   57.57   49.51 
   3  11  -7   43.65   16.53 
   3 -11  -7   47.20   48.37 
   6  -4  -8   80.21   14.76 
   3  11  -7   39.36    9.74 
   6  -4  -8   57.94   12.38 
  -6   4  -5   42.34   54.65 
  -6  -4  -5   44.44   15.04 
   3  -1  18   67.78   14.13 
  -3   1 -18   58.47   16.23 
   6   4   5   36.64   10.55 
   3   1  18   58.67   17.14 
  -3   1 -18   59.01   17.42 
  -3  -1 -18   51.46   15.86 
  -6   4  -5   36.81   11.07 
  -3  -1 -18   56.12   15.62 
   5   8   4   14.73   20.34 
   5  -8   4   13.97   26.06 
  -5  -8  -4   13.38   27.12 
  -5   8  -4   13.43   22.76 
  -1  12   8    8.75    9.75 
   1 -12  -8    9.00   14.92 
  -1  12   8    5.18    7.30 
   1  12  -8    5.31    9.27 
   1  12  -8    4.18    9.62 
  -1 -12   8    4.32    8.79 
  -2  12   6   11.15   11.48 
  -2 -12   6   11.49   21.91 
   2  12  -6   12.67   18.20 
  -2  12   6    9.15   11.24 
   2  12  -6    7.20   21.99 
   2 -12  -6   10.03   13.25 
   2  12   5   33.49    8.57 
   2 -12   5   31.90   12.08 
  -2 -11  10  192.01   18.19 
   2 -11 -10  148.41   25.44 
  -2  11  10  145.61   22.87 
  -2  12  -5   28.30    8.59 
  -2 -12  -5   27.36   16.70 
  -2  12  -5   32.06   13.19 
   2  11 -10  184.71   26.18 
  -2  11  10  159.40   22.85 
   2  11 -10  147.57   27.31 
   2  12   5   31.79   48.18 
  -4 -10  -4    8.52   20.54 
  -2  11  -9   31.22   44.91 
  -2 -11  -9   34.11    8.94 
  -4  10   6   14.16   24.13 
   4 -10  -6   19.33   17.02 
  -4  10  -4   10.17   23.50 
  -2 -11  -9   44.62   14.60 
   2  11   9   29.40   38.85 
  -2  11  -9   29.95    9.18 
   4  10  -6   13.71   26.21 
   4  10   4    8.18   17.17 
   2 -11   9   26.47   10.77 
   4 -10   4    9.62   14.44 
  -4 -10   6   12.55    6.18 
  -4  10   6   17.16   27.42 
   3  10   9   17.69   19.08 
  -6   5   6   49.92   13.59 
   6  -5   3   51.14   61.17 
  -3 -10  -9   13.89   24.51 
   6  -5  -6   32.66   11.65 
  -6  -5   6   36.42    9.54 
  -3  10  -9   12.22   30.37 
  -6  -5  -3   69.13   17.95 
   3 -10   9    8.58   17.25 
  -6   5  -3   51.49   13.28 
   6   5   3   50.62   13.00 
   6   5  -6   43.03   14.95 
  -1  -5 -19  195.91   24.83 
  -3  -8 -13    0.66    2.64 
   3  -8  13    1.51    3.15 
  -3  -8 -13    1.17    7.80 
  -1   5 -19  204.10   32.17 
  -3   8 -13    1.44    8.71 
   1  -5  19  220.84   34.09 
  -1   5 -19  176.53   21.37 
   1   5  19  228.64   31.86 
  -1  -5 -19  202.88   25.67 
   1 -10  13   68.96   14.67 
   5  -7   7   39.46   14.40 
   1  10  13   78.85   17.81 
   5   7   7   35.68   22.02 
  -1 -10 -13   82.61   18.85 
  -1  10 -13   63.15   24.63 
  -5  -7  -7   36.39   13.63 
  -1 -10 -13   91.69   16.27 
  -1  10 -13   65.29   82.07 
  -5   7  -7   36.14   51.15 
  -3   3  19    7.21   20.71 
   3   3 -19   13.37   14.34 
  -3  -3  19   10.29   18.47 
   3  -3 -19   13.30   31.99 
   2   8 -16    0.76    5.86 
   2  -8 -16    0.91    4.98 
   2   8 -16    1.85    9.75 
  -2   8  16    0.81    6.25 
   2  -8 -16    1.73    3.66 
   3  -4  17  147.71   17.44 
  -2  -8 -15   35.23   10.83 
  -3   4 -17  154.57   27.63 
  -2   8 -15   31.14    9.49 
  -3  -4 -17  131.31   20.46 
  -3  -4 -17  167.84   26.66 
   3   4  17  128.68   21.16 
   2  -8  15   28.64   11.32 
   2   8  15   29.69   34.28 
  -2  -8 -15   28.08   39.20 
  -3   4 -17  160.92   38.60 
  -2   8 -15   29.55   57.64 
   2  -5 -19   10.25   11.64 
   2   5 -19   13.89   27.08 
   2  -5 -19    9.98   21.10 
   2   5 -19   12.74   21.61 
  -2   5  19    8.66   15.18 
  -2  -5 -18    3.77    6.28 
  -2   5 -18    2.74    5.84 
   2  -5  18    2.10    9.65 
  -2  -5 -18    3.12    7.48 
  -2   5 -18    1.82    4.14 
   2   5  18    4.98   12.03 
   4   8 -12   98.10   24.12 
   4   8 -12   87.81   14.28 
   4  -8 -12   98.38   17.04 
  -3   6  17   96.07   22.13 
   3  -6 -17   92.51   20.57 
   3   6 -17   76.87   18.70 
   3   6 -17   88.46   24.25 
  -4   8  12  104.64   19.68 
   3  -6 -17   81.83   14.72 
   4   8  10   92.02   20.74 
  -4  -8 -10   99.75   20.46 
   4  -8  10   84.15   19.08 
  -4   8 -10  102.52   24.35 
   0  13  -3    2.07    5.74 
   0  13  -3    2.83    9.24 
   4   0 -18   53.59   53.01 
   0  13   3    0.61    6.10 
  -4   0  18   57.45   17.54 
   0 -13  -3    1.19    8.33 
   0  13   3    1.38    5.00 
   0 -13   3    1.36    5.06 
  -5   6  -9  168.79   28.24 
  -5  -6  -9  195.21   31.10 
  -5   6  -9  189.79   35.73 
   5   6   9  195.93   25.92 
   4   0  16   22.88    8.33 
   5   3  12   92.10   24.61 
  -4   0 -16   22.31   41.25 
  -5   3 -12   93.50   18.54 
  -4   0 -16   23.94   29.38 
  -5   3 -12  106.84   24.42 
  -5  -3 -12  109.05   22.47 
  -5   2  15    0.90    7.90 
   5   2 -15    1.14    6.13 
   5   2 -15   -0.55    6.12 
   5  -2 -15    1.28    4.97 
  -4   6  15   40.30   13.48 
   4  -6 -15   48.10   11.17 
   5  -8  -7    8.45   16.35 
   4   6 -15   35.64   11.27 
   5   8  -7   12.80   20.53 
   4   6 -15   38.22   49.31 
  -5   8   7    9.08   14.64 
   4  -6 -15   44.41   14.31 
  -4  -6 -13   81.01   19.00 
  -4   6 -13   72.03   18.61 
   4   6  13   62.95   15.67 
  -4   6 -13   80.56   38.44 
  -4   5  16    5.22    9.79 
  -1  13   0   14.05   21.90 
   4  -5 -16    6.85    9.76 
   3   7 -16   33.82   37.91 
   1 -13   0   16.66   23.67 
   4  -5 -16    5.05   16.78 
   1  13   0    7.10   27.01 
   3  -7 -16   18.32   33.62 
   3   7 -16   25.71   48.33 
  -3   7  16   22.74   11.27 
   1  13   0    9.50   20.59 
  -1  13   0    8.77   19.48 
   3  -7 -16   24.48    9.35 
  -1 -13   0   11.33   20.22 
   4   5 -16    5.48   10.39 
   4   5 -16    4.89    8.41 
  -4  -5 -14  239.24   58.15 
  -4   5 -14  287.30   33.63 
   4   5  14  291.26   31.57 
   6   0 -11    0.14    7.05 
  -4   5 -14  280.87   36.02 
   6   0 -11    0.22    2.69 
   1  13  -1  130.73   24.09 
  -1 -13   1  160.34   22.29 
   1 -13  -1  126.93   24.26 
  -1  13   1  133.11   22.23 
  -1  13   1  137.84   22.47 
   1  13  -1  145.67   21.02 
  -6   0  -8  331.48   40.94 
   3 -11   6   15.66   38.07 
   3  11   6   13.62   31.79 
  -3  11  -6   17.32   37.25 
  -3 -11  -6   19.85   30.31 
  -3   9  13  127.73   22.96 
   1   2 -21   72.34   20.32 
   3   9 -13  108.24   19.23 
  -1  -2  21   81.24   55.65 
  -1   2  21   79.33   62.30 
   3  -9 -13  115.59   19.36 
   3  -9 -13  143.84   21.90 
   1  -2 -21   62.25   16.88 
   3   9 -13  107.25   23.22 
   1  -2 -21   64.15   11.90 
   0   2 -21   60.83   18.12 
  -4  -1  18    0.97    7.27 
   0  -2 -21   62.19   18.39 
   0  -2  21   63.24   24.63 
   4  -1 -18   -1.39    7.00 
   0   2  21   58.92   17.09 
  -4   1  18    0.74    6.39 
   0  -2 -21   54.41   13.11 
   0  -7 -18   94.09   17.72 
   1  13   1   -0.13    4.97 
   0   7 -18   69.80   17.51 
  -1  13  -1    0.50    6.86 
   1  13   1    1.92   11.41 
   1  11  11  263.81   36.58 
  -1 -11 -11  267.34   24.97 
  -1  11 -11  231.70   30.09 
   0   7 -18   81.98   21.30 
  -1  13  -1    0.38    6.38 
  -1 -11 -11  290.43   32.28 
  -1  11 -11  246.41   35.39 
   0  -7 -18   93.43   17.39 
  -1 -13  -1   -0.09    6.21 
   1 -13   1    1.58    5.54 
   0   7  18  104.58   22.80 
   1 -11  11  253.10   27.80 
  -4   9  10   22.62   32.67 
   4   9 -10   14.93    6.46 
   4   9 -10   11.32   25.02 
   4  -9 -10   21.54   31.67 
  -4   9  10   15.16   27.91 
   4   9   8    7.47   11.90 
  -4   1 -16    1.39    6.96 
  -4   9  -8    4.84    8.67 
  -4   1 -16    1.65    6.47 
   4  -9   8    3.92   13.57 
  -4  -1 -16    1.53    4.78 
   4  -1  16   -0.15    3.63 
  -4  -9  -8    5.11   10.34 
   4   1  16    1.29    4.13 
  -3  -2 -18    6.30    8.48 
  -3  -2 -18    8.48   10.45 
  -3   2 -18    5.61   14.45 
  -3   2 -18    7.64   12.97 
   3  -2  18    7.26   18.78 
   3   2  18    5.35   13.77 
   1  -7 -18   77.45   17.05 
   1   7 -18   77.85   53.56 
   3  -5 -18   15.63   25.10 
   1   7 -18   63.01   16.72 
   3   5 -18   19.58   38.45 
   3   5 -18   14.91   38.41 
  -3   5  18   16.21   38.60 
   1  -7 -18   86.19   19.04 
   3  -5 -18   13.68    6.11 
  -1   7  18   95.53   24.11 
   6  -1 -11  146.04   19.92 
   6   1 -11  119.82   16.33 
  -1 -12  -8   15.05   23.91 
   1 -12   8    7.84   28.24 
  -1  12  -8    8.25   18.00 
   6  -1 -11  153.44   18.48 
   6   1 -11  124.73   35.47 
   6  -1 -11  146.53   24.01 
   1  12   8   11.85   27.20 
   1  12   8   11.91   25.73 
  -1  12  -8   12.45   22.66 
   1 -13  -2   33.16   12.78 
  -1  13   2   33.82   12.21 
   1  13  -2   31.57   11.32 
   1  13  -2   23.89   11.92 
  -5   5  13    0.11    5.86 
   5   5 -13    1.27   11.57 
   5  -5 -13    0.97    3.29 
  -1 -13   2   29.43   23.81 
  -1  13   2   32.99   45.38 
   5   5 -13   -0.13    9.68 
   5  -5 -13    2.01    5.35 
  -6   1  -8   84.67   13.46 
  -6  -1  -8  103.56   23.43 
  -6   1  -8  107.93   24.29 
   1   9  15    8.13   11.21 
  -1   9 -15    8.77   13.61 
  -5   0 -13   99.91   22.95 
  -5   0 -13   92.66   16.45 
  -1   9 -15    3.54   10.04 
   1  -9  15    3.94   13.44 
  -1  -9 -15    7.79   15.92 
  -1  -9 -15    6.50   11.01 
   5   7 -10  158.80   27.31 
  -5   7  10  123.40   18.65 
   5  -7 -10  139.09   36.32 
  -5   7  10  135.31   22.07 
   5  -4 -14  226.07   28.09 
  -6   6   1  100.97   19.96 
   6  -6  -2  279.04   33.01 
   6   6  -2  329.49   34.66 
   6   6  -1   80.63   18.09 
   5   4 -14  157.56   28.10 
   5  -4 -14  162.70   17.88 
  -6  -6   1   92.44   18.70 
  -5   4  14  185.01   27.58 
  -6  -6   2  366.51   35.58 
   6  -6  -1   88.00   19.77 
   5   4 -14  150.60   19.68 
  -6   6   2  322.29   32.62 
   0   6 -19   13.74   29.10 
   0  -6 -19   16.91   22.85 
   0   6  19   19.97   31.97 
   0  -6 -19   19.53   36.95 
   0   6 -19   18.84   30.12 
   1  13   2    3.17   10.18 
   1 -13   2    7.42   14.16 
  -1 -13  -2    4.06    7.02 
  -1  13  -2    4.46   14.58 
  -1  13  -2    3.85   14.64 
   1  13   2    4.49    6.09 
   1   6 -19    3.88    7.58 
   1  -6 -19    3.25    6.93 
   1  -6 -19    4.56    4.71 
   1   6 -19    3.83   12.98 
  -1   6  19    3.74    6.49 
  -3  10  11    0.61    5.49 
  -3  10  11    0.95    7.28 
   3 -10 -11    0.40    3.29 
   3  10 -11   -0.11    9.32 
   0  -8 -17    1.78    5.99 
   6   5   4   24.61   11.00 
  -6   5  -4   30.89   11.22 
   0   8  17    1.40    7.12 
   6  -5  -7  116.27   19.27 
  -6   5   7  137.96   20.63 
   0  -8 -17   -0.15    4.80 
   6   5  -7  170.25   27.08 
   0   8 -17    0.65    7.02 
  -6  -5  -4   20.88   37.89 
   0   8 -17    0.88    6.21 
  -6   5  -4   26.77   13.00 
  -6  -5   7  135.43   17.75 
   6   3 -10    5.45   14.84 
   6  -3 -10    2.44    9.05 
   6  -3 -10    3.69   10.04 
   6  -3 -10    2.63    4.77 
  -5  -1 -13   47.22   16.48 
   0  12  -9  112.14   22.77 
   0  12  -9   85.70   19.07 
  -5   8  -5    5.97   17.17 
   0 -12  -9  103.72   19.57 
   0  12   9  102.08   19.39 
  -5  -1 -13   35.52   10.67 
   0  13  -4  140.61   51.54 
   5   8   5    5.85    9.74 
  -5   1 -13   38.37   11.68 
   5   1  13   41.41    9.79 
   0  12   9  103.29   22.76 
   0 -13  -4  135.48   22.23 
   0 -12   9  119.33   18.32 
   0 -13   4  150.78   22.20 
   0  13  -4  156.52   24.80 
   0  13   4  147.38   23.40 
   5  -8   5    5.79   15.09 
  -5  -8  -5    7.35   11.44 
  -5   1 -13   33.38   14.64 
   0  13   4  159.47   23.33 
  -6   3  -7   18.94    8.57 
   6   6  -3    6.10   12.96 
   6  -6  -3    8.94   12.08 
  -6   6   3   10.37   13.66 
  -6   3  -7   23.04   34.63 
   6   3   7   11.26   21.26 
  -6  -3  -7   18.16   34.82 
  -6  -6   3    6.18   12.62 
  -4 -10   7    3.78   12.25 
   0 -10  14    0.78    1.87 
  -4  10   7    4.41   11.11 
   0 -10 -14    0.99    5.40 
  -6  -6   0   66.81   19.25 
   4 -10  -7    3.50   10.18 
   6  -6   0   70.57   16.82 
   6   6   0   53.82   21.03 
   4  10  -7    4.26   11.96 
  -6   6   0   67.21   16.65 
   0  10  14    0.69    5.23 
   0  10 -14   -0.80    8.66 
   0  10 -14   -0.10   10.51 
   0 -10 -14    0.49    4.45 
  -4  10   7    1.74    7.08 
  -4   7  14  161.56   33.47 
  -4  10  -5    5.34   15.56 
   2 -10 -13   15.40   26.28 
   4   7 -14  145.05   31.86 
   4  10   5    4.21   12.33 
   4 -10   5    2.79    6.72 
   2  10 -13   13.17   17.06 
   2  10 -13    9.44   20.13 
   4  -7 -14  178.93   35.51 
   2 -10 -13   13.26   18.20 
   4   7 -14  176.20   37.31 
  -4 -10  -5    5.17   10.07 
  -2  10  13   12.16   24.32 
   4  -7 -14  170.77   30.07 
   2  10  12   17.02   32.78 
   2 -10  12   27.64   42.57 
  -2 -10 -12   23.61   39.57 
  -2 -10 -12   20.94    7.57 
  -2  10 -12   27.77   42.46 
   4   7  12   43.60   33.96 
   4  -7  12   40.55   15.87 
  -4  -7 -12   33.46   29.99 
  -4   7 -12   43.51   20.43 
   2  12  -7   93.13   24.02 
  -2  12   7   80.40   17.32 
   1   8 -17    3.96    7.24 
  -2  12   7   96.15   23.69 
  -1   8  17    3.17   10.92 
   2 -12  -7   96.26   24.68 
   1   8 -17    5.07   13.73 
   1  -8 -17    4.43   11.46 
  -2 -12   7  113.60   22.00 
   1  -8 -17    5.14    9.50 
   2  12  -7  101.45   21.14 
   2 -12   6    2.19    6.72 
  -2  12  -6    0.60    2.23 
  -2 -12  -6    0.73    7.03 
   2  12   6    0.32    1.36 
   2  12   6    1.51    7.40 
  -2  12  -6   -0.77    9.42 
  -3  11   8   19.49   28.66 
  -1  13   3  241.67   42.79 
   1  13  -3  212.60   43.88 
   3 -11  -8   13.86   15.13 
   3  11  -8   17.24   30.58 
   1  13  -3  216.00   37.59 
   3  11  -8   13.39   28.95 
  -1  13   3  246.33   42.86 
   1 -13  -3  262.03   44.05 
  -1 -13   3  232.41   39.27 
  -3  11   8   15.29   26.24 
   4   4 -17   35.69   51.42 
   4  -4 -17   49.95   27.68 
  -4   4  17   49.69   16.41 
   4   4 -17   37.58   13.45 
  -4   4 -15    3.76    8.88 
  -4  -4 -15    4.30   11.93 
  -4   4 -15    3.88    7.81 
   4   4  15    3.77    6.18 
  -4  -4 -15    5.75   10.62 
   6  -4  -9    4.82    9.80 
   6   4  -9    7.49   20.70 
  -6   4   9    3.90   10.42 
   6  -4  -9    3.62    8.38 
  -6   4  -6    4.78   11.16 
  -6   4  -6    5.20   11.26 
  -6  -4  -6    4.33   12.87 
   6   4   6    3.06    8.49 
   0  11 -12    7.12   11.75 
   0 -11 -12    9.70   15.62 
   0 -11 -12    6.64   14.57 
   0 -11  12    6.12   12.20 
   0  11 -12    6.16   14.48 
   0  11  12    6.19   14.51 
   1  10 -14    5.86   13.39 
   1 -10 -14    9.26   19.38 
  -4   2  18  244.84   45.39 
   5   6 -12  271.27   52.15 
  -1  10  14    7.42   14.96 
   1 -10 -14   12.96   18.28 
  -5   6  12  310.24   49.13 
   5  -6 -12  274.84   43.60 
  -4  -2  18  232.59   43.32 
   4  -2 -18  258.81   44.42 
   5  -6 -12  295.57   47.10 
   4   2 -18  237.23   44.92 
   1  10 -14    9.17   20.12 
   3  -8 -15   97.30   23.35 
   3   8 -15   74.08   16.44 
   3   8 -15   87.67   22.19 
   3  -8 -15  105.61   22.22 
  -3   8  15   89.11   20.39 
  -4   2 -16   38.94   14.16 
   4   2  16   49.46   15.05 
  -4  -2 -16   49.39   19.03 
  -4  -2 -16   53.15   14.08 
  -4   2 -16   43.88   16.75 
  -6   6   4   15.03   26.92 
  -6  -6   4   10.97   18.36 
   2   0 -21   -0.27    8.70 
   6  -6  -4   10.57   20.50 
   6   6  -4   11.30   26.73 
  -2   0 -20  277.70   46.49 
   6   6   1   77.59   17.85 
  -6   6  -1   87.86   32.85 
   2   0  20  256.38   44.85 
  -6  -6  -1   98.69   26.02 
  -2   0 -20  198.94   37.00 
   6  -6   1   75.40   17.86 
  -3   0  20   -0.16   10.32 
   3   0 -20    1.04    3.95 
  -1  13  -3   65.71   17.35 
  -1  13  -3   70.75   15.61 
   1  13   3   66.68   13.93 
  -1 -13  -3   67.71   15.95 
   1 -13   3   68.11   17.13 
   1  13   3   74.80   24.08 
   6  -2 -11    3.08   11.66 
   6  -2 -11    3.55    8.83 
   6   2 -11    2.89    5.76 
   6  -2 -11    3.54    8.11 
   6   2 -11    2.36    6.77 
   2  -9 -15   60.08   14.82 
   5   9  -1    1.06   10.52 
   5  -9  -1    1.44    5.29 
   2   9 -15   62.83   26.36 
  -2   9  15   69.41   24.34 
  -5   9   1    0.87    5.50 
  -5  -9   1    0.65    6.51 
   2  -9 -15   62.20   17.09 
   2   9 -15   69.74   17.10 
  -6   2  -8    5.09   20.79 
  -6   2  -8    7.84   10.80 
  -6  -2  -8    5.17   21.75 
  -2   9 -14    0.71    7.54 
  -2  -9 -14    2.32    5.78 
   2  -9  14    2.63    6.53 
  -2  -9 -14    3.12    9.60 
   1  12  -9    6.41   14.77 
   1 -12  -9    2.25    9.66 
  -1 -12   9    3.26    5.95 
  -1  12   9    1.80    6.15 
   1  12  -9    5.69    7.63 
  -1  12   9    0.98    4.44 
  -5  -9   2    4.22    9.76 
   5   9  -2    1.93    9.90 
  -5   9   2    7.67   13.29 
  -1   0 -21    4.16   14.17 
   1   0  21    6.09   14.36 
  -1   0 -21    6.13   10.79 
   5  -9  -2    5.21   11.36 
  -1  -4 -20    2.66    5.61 
  -2   4  20    5.83   11.35 
  -1   4 -20    0.48    4.06 
  -1  -4 -20    2.44    3.29 
   2  -4 -20    7.42    9.91 
   1   4  20    1.24    9.12 
   2   4 -20    2.28   11.43 
  -2  -4  20    4.22   12.19 
   2  -4 -20    2.17    7.94 
  -1   4 -20    1.86    9.28 
   1  -4  20    0.88    6.09 
   2   4  19  130.75   29.77 
  -2   4 -19   98.78   26.05 
  -2   4 -19  107.27   23.06 
   2  -4  19  115.54   23.53 
  -2  -4 -19  112.44   25.77 
  -2  -4 -19   88.13   18.47 
   5  -8  -8    4.50   13.76 
  -5   8   8    4.76   12.41 
   5   8  -8   10.26   16.45 
  -5   8   8    4.52   10.26 
  -5   3  15    0.34    6.66 
   5   3 -15    0.47    3.38 
   5  -3 -15    1.30    6.87 
   5   3 -15   -0.63    8.29 
   5   9   0  149.40   31.63 
  -5  -9   0  167.98   32.69 
   5  -9   0  129.52   27.00 
  -5   9   0  180.02   34.72 
  -2   1  21   25.03   50.10 
   2   1 -21   32.26   57.63 
  -2  -1  21   31.00   14.39 
   2  -1 -21   28.60   42.84 
  -3   1  20    9.42   18.74 
  -2   1 -20    3.95    6.88 
   1 -11 -12   19.82   23.02 
  -2   1 -20    3.44    5.95 
  -1  11  12   12.84   19.95 
   3  -1 -20   11.53   20.21 
  -2  -1 -20    3.14   14.92 
  -2  -1 -20    3.58    7.99 
   2   1  20    4.26    5.37 
   3   1 -20   13.43   27.43 
   1  11 -12   16.85   30.15 
  -1 -11  12   10.59   21.99 
   2  -1  20    2.72    7.38 
  -3  -1  20   14.24   20.65 
   1 -11 -12   19.51   25.36 
   1  11 -12   17.89   28.91 
  -5   7  -8    1.91    6.20 
   5   7   8    2.16    7.11 
  -5  -7  -8    2.28    5.72 
   5  -7   8    0.88    5.24 
   3  -9  12  137.29   30.14 
  -3   9 -12  118.77   28.89 
   3   9  12  125.62   26.68 
  -3  -9 -12  147.09   31.12 
   1  -3 -21    1.04    4.69 
   1  -3 -21    0.87    7.14 
  -5   2 -13   65.67   15.81 
  -5  -2 -13   57.69   17.69 
   5   2  13   57.78   11.62 
  -1   3  21    0.82    8.35 
  -1  -3  21    0.43    5.81 
   1 -13  -4  133.23   27.75 
   1   3 -21    1.83    8.50 
   1  13  -4  154.09   32.55 
  -5   2 -13   59.55   17.66 
   1  13  -4  145.08   29.43 
  -1 -13   4  137.11   28.86 
  -1  13   4  154.26   30.20 
  -1  13   4  134.40   27.69 
  -5   9   3    9.97   18.78 
  -5  -9   3    4.09   15.44 
   5   9  -3    6.03   19.99 
   5  -9  -3    8.48   10.15 
   1  -1  21    7.93   26.84 
   1   1  21   13.18   26.73 
  -1   1 -21    6.30   13.93 
  -1  -1 -21    9.41   19.02 
  -1   1 -21    9.24   17.81 
  -1  -1 -21   11.10   17.48 
  -3  -6 -16  260.89   44.60 
  -3   6 -16  282.33   46.08 
  -3  -6 -16  239.48   37.98 
   0   3 -21  162.39   35.94 
   3   6  16  255.43   45.01 
  -3   6 -16  259.20   47.61 
   0  -3 -21  167.77   34.52 
   0  -3 -21  170.27   29.59 
   0  -3  21  181.00   35.42 
   0   3  21  232.34   43.62 
  -3  -4  19   46.43   17.18 
  -3   4  19   49.82   16.74 
   3  -4 -19   41.07   13.12 
   3   4 -19   50.65   56.62 
   0  13   5    8.50   17.29 
   0 -13  -5    6.97   13.07 
   0  13   5    7.62   12.39 
   0 -13   5    7.04   20.18 
   0  13  -5    8.51   19.28 
   0  13  -5    6.15   18.28 
   3  12  -1   20.93   45.72 
   1  -5 -20   15.72   41.45 
   1   5 -20   11.50   33.31 
   0  -5 -20    3.57   11.89 
   1  -5 -20   10.75   20.46 
  -3 -12   1   44.62   13.63 
   0   5 -20    7.18   19.16 
   3 -12  -1   39.42   13.95 
  -1  -5  20   12.70   41.50 
  -3  12   1   34.89    9.10 
   0   5  20    2.38   11.94 
  -1   5  20   13.45   24.79 
   0  -5  20    6.92   20.53 
   0  -5 -20    2.30    4.41 
  -3  -3 -18   19.52   33.71 
  -2  11 -10   81.79   22.19 
  -3  11  -7    2.53   10.33 
   2  11 -11    2.80    7.49 
  -3 -11  -7    0.42    7.82 
   2 -11 -11    1.44    3.21 
   3 -11   7    0.53    5.64 
  -3   3 -18   13.21   33.95 
   3  -3  18   12.85   19.24 
   2  11  10   65.12   18.40 
   3  11   7    0.55    7.71 
   2 -11  10   79.82   17.58 
  -3  -3 -18   19.20   30.65 
   3   3  18   20.41   10.54 
  -2 -11 -10   57.97   16.69 
  -2  11  11    1.51    5.43 
  -2  11  11    0.92    3.72 
  -3   3 -18   10.40   25.88 
  -2 -11 -10   52.18   10.98 
  -5   5 -11    0.69    9.13 
  -3 -12   0   32.82   13.17 
  -5  -5 -11    0.19    3.76 
   3 -12   0   32.08   13.52 
   3  12   0   22.07   45.89 
  -5   5 -11    1.20   11.29 
   5   5  11    2.62    6.19 
  -3  -7 -15   17.83    9.91 
  -3   7 -15   13.23   24.48 
   3   7  15   21.08   27.47 
   3  -7  15   14.58   34.17 
  -3  -7 -15   17.83   27.07 
  -3  10 -10   18.46   35.67 
   3 -10  10   21.60   33.51 
  -3 -10 -10   20.48   11.44 
   3  10  10   19.64   28.88 
   5  -9   1    3.46   11.29 
  -6  -6  -2   21.23   34.11 
   6  -6   2   14.35   30.83 
  -6   6  -2   20.72   40.99 
  -5  -9  -1    3.18    7.49 
   6  -6  -5    0.91    6.54 
   6   6   2   21.71   35.05 
  -6   6   5    0.32    5.81 
  -5   9  -1    4.14    9.91 
  -6  -6   5    0.52    3.86 
   6   6  -5    0.97    8.02 
   5   9   1    2.74   11.08 
  -3 -12   2   65.38   18.31 
   3  12  -2   71.93   20.25 
  -3  12   2   65.36   12.98 
  -3  12   2   68.07   20.06 
   3 -12  -2   58.70   15.82 
   0  -9 -16  106.59   24.74 
   0   9  16   99.54   25.06 
   0   9 -16  105.33   38.80 
   0   9 -16   95.45   38.43 
   0  -9 -16   99.76   32.88 
   5   0 -16    0.61    4.89 
   6   5  -8  140.71   56.60 
  -5   4 -12   77.12   52.91 
   5   4  12   66.73   14.19 
  -5   4 -12   71.55   28.99 
  -6   5   8  134.72   26.40 
   6  -5  -8  132.81   26.27 
  -5  -4 -12   55.96   17.03 
  -6   5  -5  146.66   29.10 
  -6   5  -5  174.32   36.95 
   6   5   5  127.23   26.73 
  -6  -5  -5  146.10   31.20 
   3 -12   1    0.16    6.47 
  -3 -12  -1    1.56    4.27 
   3  12   1    0.21    6.05 
  -3  12  -1    1.62    6.25 
   1 -13   4   42.99   12.70 
   1  13   4   51.98   14.06 
   1  13   4   47.25   15.51 
  -1  13  -4   40.45   13.39 
  -1 -13  -4   43.51   13.91 
  -1  13  -4   45.41   15.03 
  -5   9   4   77.95   19.93 
   5  -9  -4   61.07   15.47 
   5   9  -4   75.28   19.28 
  -5  -9   4   93.57   21.37 
   1  -9 -16    2.96   10.15 
  -1   9  16    7.67   13.92 
   1   9 -16    3.06    7.08 
   1  -9 -16    2.33   10.08 
   1   9 -16    4.35    9.70 
  -4  10   8    0.12    2.35 
   4  10  -8    0.31    5.38 
  -4  10   8    0.99    8.68 
   4 -10  -8    0.90    6.12 
  -5  -8  -6   12.62   32.46 
  -5   8  -6   11.05   17.81 
  -4  10  -6    8.56   14.19 
   5   8   6    9.50   32.09 
   4  10   6    5.22   17.85 
   4 -10   6    9.31   13.44 
  -4 -10  -6    9.23   25.90 
   5  -8   6    9.94   22.73 
  -5   1  16   53.38   16.65 
  -3  12   3    0.65    6.86 
  -3 -12   3    0.85    5.67 
   5   1 -16   75.09   15.43 
  -5  -1  16   69.92   18.86 
   5  -1 -16   62.68   15.63 
   3 -12  -3    1.68    7.13 
  -3  12   3    0.06    3.80 
   3  12  -3    1.25    9.98 
   6   0 -12   55.80   21.01 
   6   0 -12   61.98   12.55 
  -3   5 -17    0.27    7.49 
  -3  -5 -17   -0.33    8.62 
  -1  12  -9   67.14   18.04 
  -3  -5 -17   -0.40    5.66 
   1 -12   9   68.50   17.85 
  -1 -12  -9   66.99   16.24 
  -1  12  -9   77.78   16.87 
   1  12   9   69.72   18.56 
  -3   5 -17    2.25    9.26 
   3   5  17   -0.13    6.25 
  -1 -12  -9   67.76   13.47 
  -1  -7 -18  115.93   24.28 
   4  -8 -13    3.06    4.17 
   1   7  18  126.73   28.32 
   4  -8 -13    2.32    8.99 
   1  -7  18  116.35   21.35 
   4   8 -13    1.25    5.52 
   2   2 -21   10.09   18.34 
  -5   6 -10  150.11   31.40 
   5   6  10  141.83   27.51 
   2  -2 -21    7.96   15.09 
  -4   8  13    2.21    8.40 
  -1   7 -18  109.81   25.01 
  -5  -6 -10  127.80   32.03 
  -1   7 -18  117.45   27.93 
  -6   0  -9    1.64   10.28 
   4   8 -13    1.28    5.29 
  -5   6 -10  146.92   32.14 
  -1  -7 -18  105.08   26.16 
  -2   2  21    7.40   16.50 
  -2  -2  21   10.51   12.98 
  -4  -8 -11   22.56   42.52 
   4   8  11   23.13   25.88 
  -2   2 -20   17.43   32.10 
  -2   2 -20   19.06   27.13 
  -2  -2 -20   12.50   32.62 
  -4   9  11  161.64   30.81 
  -4   8 -11   21.39   42.74 
   4   9 -11  159.13   33.00 
   2   2  20   17.51   33.78 
  -3  -2  20    1.01    7.42 
   3   2 -20   -0.00    4.20 
  -4   9  11  172.33   32.28 
   4  -8  11   21.83   50.08 
   2  -2  20   15.21   29.03 
  -2  -2 -20   23.71   16.49 
  -3   2  20    1.71    7.77 
   4  -9 -11  163.76   48.94 
   3  -2 -20    0.98    7.84 
   4   9 -11  195.97   39.91 
  -4   9  -9    7.71   20.97 
  -4  -9  -9    5.99   15.69 
   4  -9   9   10.31   18.44 
   4   9   9    7.21   18.76 
  -2 -12   8    0.20    3.45 
   2  12  -8    0.74    4.96 
  -2  12   8    1.01    4.93 
   2 -12  -8    0.04    6.10 
   2 -12   7  144.40   28.92 
   2  12  -8   -0.05    8.79 
  -2  12   8    0.76    5.29 
  -2 -12  -7  112.62   25.12 
  -2 -12  -7  116.60   22.78 
   2  12   7  140.38   31.32 
  -2  12  -7  124.48   32.16 
   5   9   2   62.76   51.44 
  -5  -9  -2   42.24   13.82 
  -5   9  -2   41.45   14.30 
   5  -9   2   46.18   15.37 
  -1  -2 -21    3.72   11.57 
  -1  -2 -21    2.43    7.38 
  -1   2 -21    3.48   10.69 
   1   2  21    5.13    7.33 
  -1   2 -21    4.47   10.73 
   1  -2  21    4.67   19.03 
  -4   3  18    3.76    7.50 
   4  -3 -18    4.79   10.22 
   4   3 -18    3.72    9.67 
   1  13  -5    3.09    6.51 
  -1  13   5    3.07   12.56 
  -1 -13   5    3.24    7.66 
  -1  13   5    3.00    7.26 
   1  13  -5    3.66   10.55 
   1 -13  -5    2.59    4.49 
   3  12   2    4.83   12.54 
  -3 -12  -2    3.66   14.27 
   3 -12   2    3.42    6.80 
  -4   3 -16   17.87   29.24 
  -4  -3 -16   11.19   22.04 
  -5   7  11   17.43   44.26 
  -5   7  11   20.37    9.36 
   5   7 -11   27.30   29.39 
   5  -7 -11   19.95   33.01 
  -4   3 -16   16.64   10.12 
  -4  -3 -16   13.43   17.30 
   4   3  16   10.11   16.45 
   6   1 -12    1.86   10.04 
   6   1 -12    3.30    9.32 
   6  -1 -12    1.91   10.05 
   6  -1 -12    0.96    6.18 
  -3  11   9   12.33   23.65 
  -3  11   9   12.14   25.82 
   3  11  -9   10.70   22.21 
   3 -11  -9   16.63   17.58 
   3  11  -9   12.14   30.90 
  -6   1  -9   35.31    9.52 
  -6  -1  -9   38.80   15.45 
  -6   1  -9   38.24   15.60 
  -1  10 -14   61.79   15.23 
  -1  10 -14   55.37   17.59 
  -1 -10 -14   61.60   18.60 
  -1 -10 -14   55.30   14.10 
   1  10  14   57.02   16.58 
   1 -10  14   60.05   13.22 
   2   7 -18   33.89   41.14 
  -6   3  11   43.97   12.99 
   2  -7 -18   33.73   54.56 
   2   7 -18   34.76   50.97 
   6   3 -11   47.70   16.25 
   2  -7 -18   26.63   41.09 
   6  -3 -11   52.68   14.68 
   6  -3 -11   39.78   10.02 
  -2   7  18   34.99   15.55 
  -2  -7 -17   31.35   10.31 
   2   7  17   34.41   26.54 
  -2  -7 -17   37.44   46.58 
  -2   7 -17   29.53   11.42 
  -2   7 -17   37.67   15.86 
   2  -7  17   29.91   10.59 
  -6  -6   6    1.34    5.98 
   6  -4 -10   73.03   14.68 
   6   6  -6    2.45    6.42 
  -6   3  -8    2.65    5.77 
   6   4 -10   74.81   50.03 
  -6   6   6    0.48    7.29 
   6  -4 -10   78.25   14.87 
  -6  -3  -8    2.72    7.65 
   6  -6  -6    1.68    9.51 
  -6   4  10   63.70   14.05 
  -6   3  -8    1.58    5.75 
   6   3   8    0.99    6.44 
  -6  -6  -3  125.22   27.18 
  -6   6  -3  109.20   25.96 
   3  -8  14   49.59   14.42 
  -1   6 -19    1.28    6.96 
  -3  -8 -14   39.38    9.79 
  -1  -8 -17   77.71   17.20 
  -3   8 -14   50.29   17.22 
   1  -6  19    1.06    4.46 
  -3  -8 -14   37.45   15.95 
  -1   6 -19    1.09    8.37 
   3   8  14   34.50   43.50 
   6   6   3  103.93   26.16 
  -1  -6 -19    1.60    5.87 
   1   6  19    3.33    7.69 
  -1  -6 -19    1.95    5.05 
  -6  -4  -7    1.60    5.34 
   6  -6   3  111.13   29.83 
  -1   8 -17   96.55   25.03 
  -1  -8 -17  101.08   21.91 
   1  -8  17  100.21   19.72 
   1   8  17   97.58   24.69 
   6   4   7    0.65    5.65 
  -6   4  -7    2.05    6.20 
  -1   8 -17   87.54   17.40 
  -6   4  -7    0.34    7.89 
   0  12  10   33.76   52.92 
   0  12  10   33.15   13.31 
   0 -12 -10   41.74   13.98 
   0  12 -10   29.64   37.23 
   0  12 -10   29.75   39.45 
   0 -12  10   30.13   11.45 
  -4  11   1  110.93   26.77 
  -4 -11   1   85.22   18.45 
  -1  11 -12    1.04    5.02 
   4 -11  -1   95.20   22.62 
   1  11  12    2.10   10.96 
   5   9  -5    8.17   13.97 
   4  11  -1  106.87   27.15 
   5  -9  -5    8.77   11.82 
  -1  11 -12    3.93    6.86 
  -5  -9   5    7.31   12.47 
  -1 -11 -12    2.33    4.52 
   1 -11  12    1.79    7.16 
  -5   9   5    6.33   16.17 
  -1 -11 -12    2.51    7.31 
  -3  12   4   21.66    8.12 
   3 -12  -4   29.99   36.19 
  -3  12   4   26.54   42.24 
  -3 -12   4   32.74   11.90 
   3  12  -4   28.67   49.89 
   2   6 -19   33.80   13.08 
   2  -6 -19   43.12   15.73 
  -2   6  19   47.08   16.68 
   2   6 -19   37.14   15.39 
   2  -6 -19   47.16   22.00 
   0 -13  -6   17.63   37.39 
  -2  -6 -18   32.76   11.34 
   4 -11  -2    0.64    9.23 
  -2  -6 -18   32.54   36.17 
   0  13   6   16.49   31.90 
  -4  11   2    2.64    7.10 
  -2   6 -18   37.98   36.59 
   0  13  -6   18.40   29.18 
  -2   6 -18   33.31   11.69 
   2   6  18   34.68   46.89 
   2  -6  18   34.89   11.73 
   0 -13   6   19.89   26.39 
   0  13  -6   21.97   11.30 
   0  13   6   18.70   30.90 
  -4 -11   2    1.78    4.75 
   4 -11   0   14.31   31.31 
  -4  11   0   25.49   41.51 
   4  11   0   12.80   29.88 
  -4 -11   0   11.95   20.91 
   3   9 -14   18.65   39.11 
   3   9 -14   23.75   10.71 
   3  -9 -14   23.42   25.16 
  -3   9  14   24.83   37.63 
   3  -9 -14   26.11   34.21 
  -5   8   9    1.13    3.30 
  -5  -3 -13   36.70   22.93 
  -3  10  12   14.64   31.39 
  -5   3 -13   33.04   13.30 
  -5   3 -13   32.20   18.54 
   3 -10 -12   15.98   24.46 
  -5   8   9    1.78    6.50 
   5  -8  -9    0.57    5.76 
  -3  10  12    9.83   21.95 
   3  10 -12   18.00   38.98 
   3  10 -12   21.54    8.67 
   5   8  -9    1.02    8.71 
   5   3  13   20.36   32.86 
   1 -13   5    6.01    9.88 
   5   5 -14  109.92   27.59 
  -5   5  14  116.25   26.30 
   5  -5 -14  117.97   24.82 
   1  13   5    8.08   11.30 
  -1  13  -5    7.54   14.74 
  -1 -13  -5    6.84   15.09 
   5   5 -14   95.84   19.42 
  -1  13  -5    4.34   11.79 
   1  13   5    7.11   24.65 
   5   2 -16    2.13    9.96 
   5  -2 -16    0.79    4.85 
   5   2 -16    1.61    5.91 
   2  -8 -17   68.09   18.10 
  -4   6  16  277.10   48.40 
   4  -6 -16  300.81   45.24 
   4  -6 -16  302.09   48.74 
   4   6 -16  323.60   56.11 
   4   6 -16  299.53   47.83 
   2   8 -17   65.21   17.29 
  -2   8  17   61.38   68.52 
   2  -8 -17   65.76   14.78 
   2   8 -17   62.69   18.90 
   2  -8  16   95.60   24.02 
   4   6  14    6.01   10.66 
  -2   8 -16   95.16   25.08 
  -4  -6 -14    7.53   14.03 
  -4   6 -14    7.12   13.01 
  -4   6 -14    6.04    8.84 
  -2  -8 -16   96.54   23.40 
   2   8  16   83.67   21.54 
  -2  -8 -16   93.10   20.04 
   5   9   3   24.44   29.95 
   4  11   1  210.18   55.28 
  -4 -11  -1  229.43   39.34 
   4  11  -3   54.44   62.90 
   3  12   3  115.79   27.26 
  -4  11  -1  248.47   47.04 
   4 -11   1  238.80   40.84 
  -5  -9  -3   30.53   11.67 
  -3 -12  -3  133.66   28.21 
  -4 -11   3   47.19   13.16 
  -3  12  -3  136.69   30.85 
   3 -12   3  119.52   26.53 
  -4  11   3   39.83   15.20 
   4 -11  -3   63.76   18.14 
  -5   9  -3   30.03   49.12 
   5  -9   3   43.02   19.14 
  -1 -12  10  187.98   30.22 
   1  12 -10  197.09   39.40 
  -1  12  10  200.00   35.21 
  -1  12  10  210.18   45.64 
   1  12 -10  210.74   38.35 
   1 -12 -10  252.44   43.99 
   3   0  19  403.64   35.87 
  -2 -13   1    0.35    4.73 
   2 -13   0   57.43   15.98 
  -2  13   1    0.11    3.95 
  -2 -13   0   55.45   16.93 
   2 -13  -1    0.87    3.20 
   2  13   0   61.78   20.10 
  -3   0 -19  386.17   47.17 
  -3   0 -19  366.75   57.71 
  -2  13   0   65.42   18.10 
   2  13  -1    0.98    6.58 
  -2  13   0   49.40   12.27 
   2  13   0   64.34   12.75 
   6  -2 -12  217.68   36.51 
  -5   4  15  123.51   26.98 
   6   2 -12  133.39   32.06 
   5  -4 -15  122.73   26.56 
   6   2 -12  178.17   28.67 
   6  -2 -12  214.95   38.29 
   5   4 -15  103.16   21.29 
   5   4 -15   91.09   23.50 
   4   5 -17   24.73   54.68 
  -6   2  -9   71.30   13.99 
  -4   5  17   32.86   14.31 
  -6  -2  -9   74.56   20.00 
   4  -5 -17   32.51   28.23 
   4  -5 -17   23.41   22.13 
  -6   2  -9   65.04   18.80 
   4   5 -17   16.58   30.66 
  -3   6  18   71.39   18.76 
   3   6 -18   67.92   20.13 
   3  -6 -18   73.55   18.71 
   3   6 -18   63.03   16.94 
   3  -6 -18   85.12   19.47 
   4   5  15  236.55   41.30 
  -4   5 -15  294.99   50.55 
  -4  -5 -15  283.86   48.64 
  -6   5   9  143.39   28.93 
  -4   5 -15  268.63   47.85 
   6  -5  -9  151.27   26.93 
   6  -5  -9  153.95   28.44 
   6   5  -9  216.00   43.57 
   3 -11   8    1.72    5.90 
   3  -7 -17    9.90   12.50 
   3  11   8    1.97    7.75 
  -3 -11  -8    1.16    4.17 
  -3  11  -8    3.05    6.29 
  -3   7  17    8.96   15.95 
   3  -7 -17   10.28   15.34 
   3   7 -17    9.74    8.18 
   3   7 -17    9.75   21.85 
   5   6 -13  180.53   39.84 
  -6  -5  -6   68.30   18.74 
  -6   5  -6   65.56   15.65 
   6   5   6   57.78   13.52 
   5  -6 -13  130.39   31.70 
  -6   5  -6   66.15   19.15 
   5  -6 -13  137.24   27.16 
  -5   6  13  137.14   27.24 
  -2 -13   2  139.50   27.73 
  -2 -13  -1    1.28    3.40 
  -2  13  -1    2.94    6.19 
   2  13   1    1.45    6.53 
  -2  13  -1    3.14    9.32 
   2 -13   1    1.82   11.91 
  -2  13   2  131.14   27.65 
   2  13  -2  126.45   29.10 
   1   4 -21   13.06   28.59 
  -2  13   2  141.52   27.09 
   2  13   1    1.10    2.04 
  -1   4  21   14.37   24.75 
   1  -4 -21   12.11   25.93 
   2 -13  -2  129.36   27.72 
   1  -4 -21   11.10   20.66 
  -1  -4  21   20.41   47.71 
   0  -4 -21   13.20   29.24 
   2  10 -14   15.87   23.31 
   0  -4  21   24.07   39.90 
  -2  10  14   27.83   12.42 
   0  -4 -21   18.57   32.48 
   2  10 -14   15.64   27.99 
   0   4  21   24.01   17.87 
   0   4 -21   21.48   30.59 
   2 -10 -14   26.29   11.59 
   2 -10 -14   22.31   31.59 
   2 -10  13  116.89   24.45 
  -2  10 -13  129.07   32.52 
   2  10  13   98.39   25.09 
  -2 -10 -13  121.64   31.80 
  -2 -10 -13  102.15   20.19 
  -1  13   6    7.29   10.96 
  -1 -13   6   10.08   21.02 
   1  13  -6    7.49   11.99 
  -3  -1 -19   13.92   23.47 
   5  -7   9  102.10   42.55 
  -1  13   6    6.21    8.90 
  -5  -7  -9  101.03   25.01 
  -3  -1 -19   15.90   24.72 
   3 -12  -5    0.98    6.09 
  -3 -12   5    0.95    3.08 
  -3   1 -19    9.42   17.36 
  -1   0  22    1.14    7.21 
   3  -1  19    7.09   20.14 
  -5   7  -9  105.22   25.64 
   1   0 -22    1.52   10.80 
   3  12  -5    0.85    5.55 
   3   1  19   11.89   22.72 
   1 -13  -6    6.70   12.76 
  -3  12   5    0.38    2.94 
  -5   0 -14    0.59    5.40 
   5   7   9  111.96   24.40 
  -3   1 -19   10.85   25.27 
   1  13  -6    6.97   20.23 
  -5   0 -14    0.56    3.36 
  -3   4 -18   34.73   23.33 
  -3  -4 -18   40.54   22.63 
   3   4  18   41.39   53.00 
  -3  -4 -18   35.12   11.20 
  -3   4 -18   30.65   13.96 
  -2   3  21  167.46   34.72 
  -4   7  15    9.73   15.77 
   4  -7 -15   10.97   13.46 
  -2  -3  21  129.80   30.29 
   4   7 -15    4.09   12.16 
   2   3 -21  115.74   26.61 
   4  -7 -15    8.80   17.13 
   2  -3 -21  150.04   30.53 
   5  -9  -6   12.52   29.69 
  -5  -9   6   15.90    6.89 
   4   7 -15    5.75   11.99 
   5   9  -6   13.95   26.54 
  -5   9   6   18.29   26.23 
  -4   7 -13  141.87   34.71 
  -2  -3 -20    1.90    7.07 
   4  -7  13  120.16   32.01 
   2   3  20   -0.05   11.25 
  -4  -7 -13  115.20   26.45 
   2  -3  20    1.50    3.70 
  -2  -3 -20    1.52    5.01 
  -2   3 -20    1.30    5.19 
  -2   3 -20    0.86    7.20 
   4   7  13  111.70   26.23 
   0  11 -13   11.57   17.99 
   0 -11  13    6.26   11.75 
   0   0  22  155.91   32.02 
   0 -11 -13    3.20   10.72 
   3   3 -20    9.03   31.80 
  -3  -3  20   13.43   22.96 
   3  -3 -20   15.37   25.48 
   0 -11 -13    6.08   19.19 
   0  11 -13    6.48   15.82 
   0  11  13    7.68   12.30 
  -4   0  19    2.30    8.11 
   4   0 -19    1.46    7.53 
   0   0 -22  148.47   32.24 
  -3   3  20   18.08   34.82 
   4 -11  -4    8.93   23.22 
  -4 -11  -2   55.31   14.67 
  -6   6   7   16.02   23.45 
  -4 -11   4    8.26   14.10 
   4 -11   2   58.56   18.76 
   4  11  -4   13.64   16.19 
   6   6  -7    6.63   24.53 
  -4  11   4    6.45   20.67 
   4  11   2   47.16   16.70 
  -4  11  -2   62.13   19.17 
   6  -6  -7    9.08   30.88 
   4  10  -9   20.09   34.21 
  -4   0 -17    0.95    5.99 
   6  -6   4    3.64   11.46 
   4 -10  -9   17.22   23.78 
  -6  -6  -4    0.45    6.67 
  -6   6  -4    1.51   12.42 
   4   0  17    0.41    3.71 
   6   6   4    0.55    5.72 
  -4  10   9   15.39   28.25 
  -4  10   9   12.82   33.38 
  -4   0 -17    1.11    5.93 
   4 -10   7   42.97   31.14 
  -4  10  -7   42.32   18.38 
  -4 -10  -7   25.49   11.93 
   4  10   7   24.59   45.43 
  -1   9 -16   13.59   21.61 
   5   8   7    5.09   10.70 
   1  -9  16    6.79   22.04 
  -5   8  -7    4.18   12.57 
  -1   9 -16    7.82   20.83 
   5  -8   7    5.69   12.55 
  -1  -9 -16   13.19   21.83 
   1   9  16    6.74   14.59 
  -5  -8  -7    4.97   16.74 
  -1  -9 -16   11.43   13.62 
  -1   3 -21   24.67   12.93 
   1   3  21   28.69   46.37 
  -1  -3 -21   25.69   19.07 
  -1  -3 -21   23.48   46.73 
   1  -3  21   26.50   12.05 
  -1   3 -21   23.60    8.71 
  -1  -5 -20   82.43   16.87 
  -1   5 -20   81.62   20.56 
  -1  -5 -20  112.57   24.48 
   2  -5 -20   35.71   48.30 
   2   5 -20   28.70   46.17 
   0  10 -15   79.42   19.55 
   1  -5  20   98.88   23.66 
   0  10 -15   73.04   18.25 
   0 -10 -15  107.73   23.30 
   0  10  15  103.40   25.96 
   1   5  20  104.78   26.78 
   0 -10 -15  105.20   23.85 
   2   5 -20   29.71   14.15 
  -2   5  20   28.11   55.71 
   2  -5 -20   26.61    8.69 
  -5  -1 -14    6.77   20.00 
  -5   1 -14    3.44   10.64 
  -2  -5 -19   85.83   18.91 
  -5   1 -14    4.79   17.17 
  -2   5 -19   97.16   25.46 
  -5  -1 -14   12.77   27.55 
  -2   5 -19   94.15   20.78 
  -2  -5 -19   89.63   18.95 
   2  -5  19   99.34   20.61 
   2   5  19  108.03   26.73 
   1  -1 -22  118.92   29.84 
   1   1 -22  119.34   29.99 
  -1   1  22  118.81   27.54 
  -1  -1  22  117.36   26.82 
   2  13  -3    3.96   15.70 
   2  13   2   45.00   16.45 
  -2 -13  -2   82.60   18.39 
  -2  13  -2   69.72   18.08 
   2 -13  -3    5.24   17.73 
   2  13   2   71.08   13.64 
  -2  13  -2   66.11   13.62 
   2  13  -3    8.30   20.77 
   2 -13   2   69.66   16.76 
  -2  13   3    6.25   10.99 
  -2 -13   3    7.94   17.17 
   4   1 -19  164.52   32.63 
   4  -1 -19  189.56   35.99 
  -4  -1  19  177.45   54.57 
  -4   1  19  185.68   39.04 
   0   1  22  103.18   25.66 
   0  -1 -22  102.10   35.42 
   0   1 -22   83.33   25.92 
   0  -1  22   93.83   23.56 
   0  -1 -22  101.91   20.59 
  -4   1 -17  164.31   32.98 
  -4  -1 -17  200.21   39.78 
   4   1  17  173.17   31.06 
  -4  -1 -17  156.67   33.20 
  -4   1 -17  174.79   35.06 
   2  12  -9  177.53   36.38 
  -2 -12   9  195.17   31.89 
   2  12  -9  174.56   31.73 
   2 -12  -9  173.66   33.13 
  -2  12   9  167.12   31.09 
  -2  12   9  176.43   37.24 
   2  12   8   11.89   18.02 
  -2  11  12  234.21   40.37 
   2 -12   8    8.46   22.60 
   2  11 -12  235.98   43.90 
  -2  12  -8    8.31   17.90 
   2 -11 -12  318.62   50.63 
  -2  11  12  241.78   41.20 
  -2 -12  -8    8.27   16.59 
   2  11 -12  252.38   46.15 
  -2 -12  -8    9.24   18.17 
  -2 -11 -11   24.58   47.62 
  -2  11 -11   31.16   45.02 
  -2 -11 -11   26.56    8.49 
   2 -11  11   28.60   43.30 
   2  11  11   26.49   22.46 
   1 -11 -13  202.01   35.19 
  -3 -12  -4  373.87   57.69 
   1  11 -13  200.31   39.91 
   1 -11 -13  183.45   34.19 
  -3  12  -4  487.00   48.06 
   1  11 -13  207.02   40.07 
   3 -12   4  517.90   45.53 
  -1  11  13  182.96   35.45 
   3  12   4  365.54   60.50 
   1 -10 -15   56.86   53.56 
   1 -10 -15   64.60   15.36 
   1  10 -15   45.94   15.47 
  -1  10  15   52.67   16.95 
   1  10 -15   54.22   19.68 
  -6  -7   2  134.81   28.06 
   3   5 -19    4.07   11.16 
  -6   7   2  131.51   26.49 
   3  -5 -19    3.61    8.74 
   6  -7  -2   92.80   22.10 
   6  -7  -1    1.48    9.84 
  -3   5  19    3.99   11.23 
  -6   7   1    0.45    6.25 
   6   7  -1    0.42    6.10 
   6   7  -2  112.17   27.40 
   3   5 -19    2.18   10.46 
   3  -5 -19    5.34   13.24 
   0   7 -19  271.99   45.68 
   0   7  19  297.22   49.31 
   0   7 -19  248.93   43.91 
  -5   9  -4   52.65   15.58 
  -3 -10 -11   61.61   17.68 
   3  10  11   63.80   17.97 
  -5  -9  -4   52.57   15.27 
   3 -10  11   44.90   15.67 
   0  -7 -19  276.61   42.25 
   0  -7 -19  272.40   45.50 
  -3  10 -11   56.44   19.83 
   5   9   4   69.80   20.87 
   5  -9   4   73.86   20.40 
   1  13   6   41.84   30.82 
   1   7 -19    6.70   12.84 
   0  13   7    3.01    4.01 
   0  13   7    1.74   10.19 
   1   7 -19    7.03   16.57 
  -1   7  19    5.21    8.40 
  -1  13  -6   25.88    9.82 
   0  13  -7    1.13    8.71 
   1  -7 -19    6.57   15.58 
   1  -7 -19    5.62    8.41 
   0 -13   7    2.52    9.95 
   0 -13  -7    4.00   11.53 
  -1  13  -6   35.67   51.40 
  -1 -13  -6   38.35   13.47 
   0  13  -7    0.05    3.48 
   1 -13   6   32.32   43.66 
   1  13   6   40.11   10.95 
   3   8 -16   36.32   56.46 
  -3   8  16   53.29   16.43 
   3   8 -16   43.26   13.17 
   3  -8 -16   51.66   14.36 
   3  -8 -16   48.39   14.53 
  -6   7   3  247.92   40.59 
  -1  12 -10   14.33    8.15 
   6   7  -3  272.57   46.92 
  -1  12 -10   12.23   16.37 
  -1 -12 -10   10.52   22.68 
   1  12  10    7.96   14.62 
   6  -7  -3  218.48   36.61 
   1 -12  10   13.70   30.46 
  -6  -7   3  258.54   47.48 
  -1 -12 -10    8.43   16.77 
  -6   7   0    0.56    6.33 
   6  -7   0    0.55    4.52 
  -6  -7   0    0.31    5.25 
   6   7   0    2.49    6.88 
  -3   9 -13  233.78   43.40 
  -3  -9 -13  289.26   48.77 
   3   9  13  271.30   43.63 
   3  -9  13  260.69   42.91 
  -7   0   2    1.07    6.27 
   4   4 -18  146.12   28.47 
  -3  11  10    2.47    6.10 
   4   4 -18  154.09   33.76 
  -4   4  18  160.51   32.02 
   0  -8 -18    0.75    5.49 
   4  -4 -18  170.27   30.12 
   0   8  18    1.67    7.55 
  -3  11  10    3.18    9.48 
   3  11 -10    4.04   15.32 
   0   8 -18    1.40    8.37 
   0   8 -18    1.05    5.64 
   3 -11 -10    3.38    8.01 
   0  -8 -18    1.89    4.52 
  -3  -2 -19  275.67   47.48 
  -3   2 -19  243.48   44.08 
   3   2  19  272.55   43.75 
  -3  -2 -19  257.39   42.18 
  -3   2 -19  282.58   44.54 
  -5   5 -12   56.82   64.32 
   5  -3 -16   51.13   14.90 
  -4  -4 -16    1.79    6.42 
   5   5  12   48.55   54.75 
  -4  -4 -16    3.75    8.26 
   4   4  16    2.87    5.33 
  -4   4 -16    4.97   12.69 
  -5  -5 -12   59.97   18.32 
  -7   0   1   54.74   17.96 
  -5   5 -12   63.32   16.92 
  -5   3  16   53.83   16.56 
  -4   4 -16    3.54   13.13 
   5   3 -16   47.87   17.15 
   5   3 -16   47.10   13.19 
   2  -9 -16  134.98   27.38 
  -4  11  -3  124.38   32.97 
   2   9 -16  111.89   30.01 
  -4 -11   5    8.13   15.63 
   4  11   3  128.30   28.57 
   4 -11  -5    4.94   15.82 
  -4  11   5    9.50   19.71 
   4  11  -5   16.36   26.23 
   2  -9 -16  130.99   24.96 
   2   9 -16  130.83   27.49 
  -2   9  16  166.77   33.92 
  -4 -11  -3  152.93   30.71 
   4 -11   3  107.38   27.60 
   2   9  15   13.72   17.95 
   2  -9  15    7.22   25.42 
  -2  -9 -15    9.43   19.28 
  -2   9 -15   11.48   28.71 
  -2  -9 -15   14.65   27.50 
   1  -8 -18   15.55   30.68 
   1   8 -18   18.40   31.66 
   1   8 -18   15.72   22.62 
   1  -8 -18   17.65   31.84 
  -1   8  18   15.13   35.38 
   4   9 -12    3.22    9.36 
   6  -4 -11    6.35   21.59 
   4   9 -12    1.03    9.39 
  -7   0   3   12.43   28.86 
   6   4 -11   10.68   33.13 
   4  -9 -12    4.20    7.58 
  -4   9  12    3.81   10.49 
   6  -4 -11    8.19   16.93 
  -4   9  12    3.75    6.76 
  -6   4  11    8.90   22.67 
   4  -9  10    3.72   11.36 
  -4  -9 -10    0.99    5.94 
   4   9  10    2.14    5.90 
  -4   9 -10    3.96   11.36 
   6   4   8    4.50   13.91 
  -6   4  -8    8.98   19.81 
  -6   4  -8    4.32   15.09 
  -2 -13  -3   -0.37    6.13 
  -2  13  -3    0.90    6.30 
   2  13   3   -0.97    8.28 
  -6  -4  -8    8.45   27.48 
   6   0 -13    0.81    4.73 
   2  13  -4   21.63   11.57 
  -2  13   4   21.06   43.44 
  -2 -13   4   15.85   37.00 
   2 -13   3    1.26    5.69 
   2  13   3    0.30    3.15 
   2  13  -4   19.75    7.96 
   2 -13  -4   21.12   28.93 
  -3  12   6  166.09   33.16 
  -3  12   6  137.41   35.01 
   3 -12  -6  148.37   28.86 
   3  12  -6  110.83   27.11 
  -6   0 -10   38.45   15.74 
  -7   1   2   73.40   19.58 
   5  -7 -12    0.75    5.02 
  -5   7  12    0.29    3.95 
   5   7 -12    1.64    8.12 
  -7  -1   2   79.03   21.05 
   5  -7 -12    1.16    5.77 
   5   2  14    4.65    5.00 
   5   8 -10   51.94   17.74 
   5  -8 -10   65.73   15.71 
  -5   2 -14    4.03    9.72 
  -5  -2 -14    4.94   14.77 
  -5   2 -14    4.61   11.10 
  -5   8  10   49.86   14.95 
  -5   8  10   49.75   12.30 
  -7   1   1    7.47   15.05 
  -7   0   0    0.99    5.39 
   1  -2 -22  343.89   54.36 
   1   2 -22  297.42   50.12 
  -1   2  22  331.58   54.72 
  -7  -1   1    5.86   13.72 
  -1  -2  22  314.06   50.04 
   1   6 -20  133.16   29.36 
   0  -6 -20    2.01    7.01 
   1  -6 -20  112.57   22.03 
   1  -6 -20  122.39   27.57 
  -6   3  12   12.51   31.02 
   6  -3 -12   11.05   17.75 
   0  -6 -20    1.92    7.94 
   0   6 -20    1.83   11.83 
   0   6  20    3.33   11.87 
  -1   6  20  141.28   33.29 
   0   6 -20    4.33   12.69 
   6  -3 -12   10.78   10.89 
   6   3 -12    9.37   42.69 
   1   6 -20  121.02   51.69 
   6   3   9   95.44   20.18 
  -5  -6 -11  114.74   40.71 
  -6   3  -9   96.70   20.91 
  -6  -7   4   43.00   12.27 
   5   6  11  123.78   25.87 
  -6  -3  -9  114.29   27.58 
   5   9  -7   76.94   22.51 
  -5   9   7   75.74   20.27 
   5  -9  -7   86.60   21.08 
   6  -7  -4   43.83   14.56 
  -5   6 -11  131.74   29.49 
  -6   7   4   41.36   14.40 
   6   7   1   40.91   14.88 
  -6   3  -9  108.19   26.66 
   6  -7   1   45.06   17.95 
  -5   6 -11  128.24   29.13 
  -6  -7  -1   43.25   14.89 
   6   7  -4   46.43   46.53 
  -6   7  -1   48.96   16.19 
   4   2 -19    0.99    5.03 
  -4  -2  19    1.81   12.11 
  -4   2  19    2.76   10.25 
   4  -2 -19    1.05    6.63 
   0   2 -22  165.81   35.35 
  -7   1   3    4.10    8.16 
  -7  -1   3    5.81   19.66 
   0  -2 -22  191.31   37.04 
   0  -2  22  192.00   36.18 
   0  -2 -22  177.04   29.18 
   0   2  22  196.95   37.13 
   7   1  -3    4.30   20.10 
  -4  -2 -17   17.58   39.18 
  -4   2 -17    8.86   25.52 
  -4   2 -17    9.59   34.06 
  -4  -2 -17   20.95    9.59 
   4   2  17   17.13   33.17 
   6  -1 -13    3.07   12.82 
   6   1 -13    3.60    7.57 
   6  -1 -13    6.17   24.39 
   6   1 -13    4.48    9.82 
  -5   4 -13  198.26   39.50 
  -5  -4 -13  207.42   43.56 
  -5   4 -13  191.25   36.18 
   5   4  13  173.60   29.68 
  -6  -1 -10    1.20    5.40 
  -6   1 -10    0.41    3.08 
  -6   1 -10    1.98   10.13 
   1  13  -7   44.47   16.51 
  -1 -13   7   49.38   13.02 
   1 -13  -7   39.97   51.43 
  -1  13   7   47.11   15.10 
  -7   0   4    0.21    5.29 
  -1  13   7   27.30   50.32 
   1  13  -7   42.23   50.37 
   4   8 -14  114.35   27.88 
   4  -8 -14   87.04   20.93 
   4   8 -14   90.30   18.55 
   4  -8 -14   89.77   19.64 
  -4   8  14   74.34   19.60 
   4  -8  12   74.32   19.90 
   0 -12  11  137.51   24.45 
  -4   8 -12   75.09   34.75 
   0 -12 -11  124.13   27.35 
   0  12 -11  122.18   28.48 
   4   8  12   85.42   21.94 
  -4  -8 -12   82.21   20.84 
   0  12  11  106.22   24.62 
   0  12 -11  107.67   26.01 
   0 -12 -11   93.81   23.10 
   6  -6  -8    5.77   12.50 
   6   6  -8    6.84   15.91 
  -7   1   0    1.45    4.00 
  -6   6   8    8.11   12.55 
  -7  -1   0    0.93    4.56 
  -6   6  -5   18.02   39.75 
  -6  -6  -5   28.40   12.04 
   6  -6   5   16.93   40.05 
   6   6   5   18.23   42.67 
   6  -5 -10    5.47   20.33 
  -6   5  10   11.97   23.38 
   6   5 -10   15.02   26.24 
   6  -5 -10   13.11   24.48 
   6   5   7  174.72   30.66 
  -6   5  -7  141.43   34.73 
  -6  -5  -7  195.89   36.68 
  -6   5  -7  166.11   32.53 
  -7  -1   4  102.10   22.56 
  -3 -12  -5   48.42   15.88 
   3  12   5   55.43   18.04 
   7   1  -4  106.31   21.17 
  -5   0  17  155.85   41.28 
   5   0 -17  161.40   29.60 
  -7   1   4   89.67   23.03 
   3 -12   5   41.73   14.05 
  -3  12  -5   38.45   75.91 
  -7   0  -1   62.86   16.77 
   3  -7  16   69.10   19.61 
  -3  -7 -16   63.91   17.05 
  -3  -7 -16   66.35   13.56 
  -3   7 -16   66.22   34.76 
   3   7  16   61.78   17.30 
  -3  -6 -17   30.45   51.56 
  -3   6 -17   35.79   12.33 
  -3  -6 -17   33.85   11.06 
  -3   6 -17   35.55   15.04 
   3   6  17   26.17   37.51 
  -6  -7   5    0.96    4.67 
  -3   0  21   21.78   12.28 
   0  -9 -17  182.67   32.34 
   0   9 -17  179.03   35.27 
   0   9 -17  168.17   32.53 
   0  -9 -17  183.30   33.36 
   3   0 -21   17.26   39.31 
  -6   7   5    0.69    5.28 
   0   9  17  152.53   32.35 
   6   7  -5    1.76    6.81 
   6  -7  -5    1.99    6.04 
  -4 -11   6   78.80   17.06 
  -4 -11  -4  213.84   37.13 
   2  13  -5    1.27    6.18 
  -2  13   5    2.43    5.92 
   4 -11  -6   75.83   22.06 
  -4  11   6   68.72   21.32 
   4  11   4  211.81   38.70 
  -5   9  -5   57.76   16.57 
  -3  11  -9   17.95   44.19 
   4  11  -6   56.74   17.97 
   3 -11   9   27.29   37.88 
   6   7   2   14.86   31.58 
   5  -9   5   42.64   13.92 
   3  11   9   17.73   30.07 
  -2 -13   5    0.65    5.21 
   2 -13  -5    1.25    4.59 
   5   9   5   48.23   43.98 
   4 -11   4  218.13   38.78 
  -4  11  -4  215.84   39.61 
  -3 -11  -9   15.01   32.13 
   2  13  -5    2.28    5.46 
   6  -7   2   20.32   56.01 
  -6  -7  -2   22.43   11.36 
  -5  -9  -5   46.93   15.34 
  -6   7  -2   24.95   42.53 
   3  10 -13    1.43    5.50 
  -3  10  13    1.20    7.42 
   2 -13   4   42.59   14.32 
   3 -10 -13    0.95    6.93 
   1  12 -11   37.52   57.26 
   2  13   4   32.82    9.62 
   3  10 -13    0.31    3.57 
  -2  13  -4   41.05   16.63 
  -1 -12  11   38.38   10.00 
   3 -10 -13    0.99    4.85 
  -2 -13  -4   28.93   12.48 
  -2  13  -4   27.84   16.89 
   1  12 -11   40.06   14.22 
  -1  12  11   24.26   43.93 
   2  13   4   27.16   12.87 
   1 -12 -11   29.47   44.50 
  -1  12  11   31.91   47.80 
  -5  -1  17   31.82   17.83 
   5   1 -17   26.32   40.65 
   1  11  13   30.04   13.14 
  -7   1  -1    2.80    5.46 
  -1 -11 -13   29.57   43.50 
  -1  11 -13   23.18   23.59 
   5  -1 -17   31.17   22.30 
  -1 -11 -13   24.44   38.72 
  -7  -1  -1    4.29   10.76 
   1 -11  13   25.51   10.18 
  -5   1  17   39.19   14.41 
  -1  11 -13   25.31   34.78 
  -7  -2   2   35.22   12.73 
   7   2  -2   27.14    9.66 
  -7   2   2   40.17   14.60 
  -7   0   5   87.75   21.08 
   1  -9 -17   23.02   41.65 
   1   9 -17   21.30   38.89 
  -1   9  17   25.94   45.12 
  -4  10  10    2.32    9.16 
  -7  -2   1    0.88    6.41 
   4  10 -10    1.90   11.50 
   1  -9 -17   26.32   37.98 
   7   2  -1    0.11    2.34 
  -7   2   1    0.80    5.54 
   1   9 -17   18.85   36.53 
   4 -10 -10    0.79    3.74 
  -4 -10  -8   34.41   16.93 
   4  10   8   34.88   47.42 
   4 -10   8   17.81   47.34 
  -4  10  -8   30.47   15.08 
  -2  -4  21   24.22   57.75 
   2   4 -21   24.09   40.59 
   2  -4 -21   20.22   44.17 
  -2   4  21   25.16   37.27 
   3  -4 -20    1.25    9.64 
   3   4 -20    6.16   16.00 
  -2   4 -20   35.72   18.26 
  -2  -4 -20   25.13   44.93 
  -2   0  22  143.49   31.07 
  -2  -4 -20   24.21   11.78 
  -2   4 -20   27.91   10.22 
   2   4  20   22.45   38.91 
   2   0 -22  149.33   30.75 
  -3   4  20    1.78    7.10 
   2  -4  20   25.54   11.29 
  -3  -4  20    1.19   12.00 
   7   2  -3    7.15   17.20 
  -2   0 -21    0.54    5.95 
  -7  -2   3    6.44   12.56 
  -2   0 -21    0.37    2.92 
   7  -2  -3    5.54   15.37 
  -3   1  21   47.08   18.70 
   1 -13   7    7.56   13.94 
  -1  13  -7    4.70   11.32 
   5   8   8    2.03    5.91 
   3   1 -21   28.50   44.52 
  -1  13  -7    6.53   16.00 
  -5  -8  -8    2.00   10.07 
   1  13   7    4.84   10.40 
  -5   8  -8    1.71    6.71 
   5  -8   8    0.23    8.57 
  -1 -13  -7    6.11   14.98 
   3  -1 -21   29.14   52.91 
   1  13   7    4.57    9.45 
  -3  -1  21   36.97   52.26 
   6  -2 -13   20.88    9.38 
  -6   2  13   23.53   11.76 
   6   2 -13   23.80    8.47 
   6   2 -13   28.34   14.31 
   1 -10  15   56.90   13.00 
  -1 -10 -15   71.61   19.41 
   1  10  15   48.14   22.45 
  -1 -10 -15   51.70   13.58 
  -1  10 -15   61.41   15.79 
  -1  10 -15   56.14   19.01 
  -6   2 -10  272.43   41.40 
  -6   2 -10  265.44   45.54 
  -6  -2 -10  299.86   49.50 
   1   4  21    1.57    9.69 
  -1  -4 -21    2.78    5.39 
  -1   4 -21    1.90    7.21 
   1  -4  21    1.44    8.64 
  -1  -4 -21    0.98    8.04 
  -7  -1   5    1.81    4.06 
   7  -1  -5    1.48    2.52 
   7   1  -5    0.48    5.05 
  -3  -3 -19   32.09   13.77 
  -3   3 -19   32.55   12.48 
  -3  -3 -19   35.43   12.76 
   3   3  19   39.17   13.35 
  -3   3 -19   41.21   15.87 
   3  -3  19   30.70   10.26 
   3   9 -15   45.00   14.38 
   3  -9 -15   65.70   17.53 
   3   9 -15   41.48   21.06 
   0  13  -8   97.39   25.38 
  -7   2   0   11.82   28.05 
   0 -13  -8  110.93   25.78 
  -7  -2   0   11.31   22.91 
  -3   9  15   52.25   65.34 
   3 -12  -7   71.72   20.35 
   0  13   8  107.65   25.15 
  -3  12   7   61.70   18.19 
   0  13  -8  105.77   24.64 
  -3  12   7   87.33   25.58 
   0 -13   8  109.08   23.10 
   3  -9 -15   49.84   12.86 
   0  13   8  109.68   22.26 
   3  12  -7   88.75   26.07 
   5   5 -15    4.97    7.25 
  -5   5  15    7.99   21.78 
   5   5 -15    7.17   18.96 
   5  -5 -15    8.94   14.72 
   5  -5 -15    5.41   17.33 
   5  -7  10   38.58   15.50 
  -5  -7 -10   37.29   15.97 
  -5   7 -10   37.56   14.21 
   5   7  10   30.44   42.82 
  -7   0  -2    1.00    5.05 
   2  -1 -22    5.50   10.84 
   2   1 -22    4.76   13.30 
  -2  -1  22    5.37   12.37 
  -2   1  22    6.52   10.49 
   3   8  15    0.71    7.06 
   3  -8  15    1.13    6.27 
  -3  -8 -15    1.46    8.87 
  -3   8 -15    2.54    8.98 
  -3  -8 -15    1.66    4.17 
   2  -1  21    2.78    8.26 
  -2  -1 -21    3.68    7.81 
  -2  -1 -21    4.42    6.18 
  -2   1 -21    4.48   14.01 
  -2   1 -21    4.67   13.89 
   1   0  22    0.17    7.29 
   2 -12 -10   35.90   52.61 
   2  12 -10   14.40   34.88 
  -2  12  10   22.34   42.66 
   2  12 -10   24.71   34.92 
   2   1  21    5.81    5.42 
  -1   0 -22    0.09    4.97 
  -1   0 -22    2.66   13.25 
  -2  12  10   30.21   11.97 
   2 -12   9   66.63   16.24 
  -2 -12  -9   48.17   15.94 
   2  12   9   80.60   21.42 
  -2  12  -9   66.12   19.03 
  -2 -12  -9   73.45   14.86 
  -1  -5  21    5.38   16.41 
   1  -5 -21    4.21    6.95 
   1  -5 -21    6.45   14.18 
   1   5 -21    5.95   14.88 
  -1   5  21    5.05   13.50 
   7  -2  -4    6.13   11.19 
   7   2  -4    8.58   17.04 
  -7  -2   4   10.71   16.66 
   0  -5 -21   25.05   38.89 
   0  -5  21   29.47   12.55 
   0   5  21   36.33   43.38 
   0   5 -21   31.67   15.24 
   0  -5 -21   27.88   46.97 
   5   6 -14  144.73   24.37 
  -5   6  14  213.20   36.45 
   5  -6 -14  195.51   30.89 
   5   6 -14  196.67   39.62 
   5  -6 -14  208.84   35.71 
   5  -9  -8    1.03    7.70 
  -5   3 -14  173.91   32.30 
  -5   3 -14  186.55   51.70 
   1   3 -22   67.61   20.21 
  -5  -3 -14  169.55   35.94 
  -1   3  22   65.58   18.77 
  -1  -3  22   76.35   21.77 
  -5   9   8    2.06    6.98 
   1  -3 -22   65.80   20.34 
   5   9  -8   -0.94   10.23 
   5   3  14  150.00   26.35 
  -3   5 -18  104.13   26.34 
  -3  -5 -18   77.47   17.63 
   3   5  18  101.22   27.60 
  -3   5 -18  111.01   26.16 
  -3  -5 -18  100.92   24.18 
  -7   1  -2    0.65    6.45 
  -7  -1  -2    1.74    5.16 
   0  -3 -22   39.51   20.34 
   4   3 -19   52.73   15.31 
   4  -3 -19   55.61   17.54 
   0  -3 -22   37.73   11.41 
  -4   3  19   48.99   16.15 
   0   3 -22   36.61   16.81 
   0  -3  22   47.44   26.99 
   0   3  22   40.37   15.82 
  -4  -3  19   55.32   18.96 
  -4   3 -17  106.98   25.98 
  -1  -1 -22  143.13   29.84 
  -1   1 -22  145.24   25.55 
  -4  -3 -17   76.44   18.16 
  -1  -1 -22  153.80   27.15 
   1  -1  22  168.84   31.52 
  -1   1 -22  146.97   31.42 
  -4  -3 -17   84.39   25.12 
  -4   3 -17   86.74   22.40 
   4   3  17   85.37   19.82 
   1   1  22  161.19   42.21 
   6  -7  -6  155.53   29.17 
   6   7  -6  119.98   27.94 
  -6   7   6  139.49   26.86 
  -1   7 -19   75.68   23.64 
   7   0  -6   -0.61    4.12 
   1   7  19   72.64   21.69 
  -1   7 -19   65.60   16.06 
  -1  -7 -19   77.08   19.70 
  -6  -7  -3   39.06   14.30 
  -6   7  -3   33.66   12.66 
   6  -7   3   28.27   49.92 
   6   7   3   23.02   39.83 
  -1  -7 -19   77.30   19.91 
  -5   2  17    3.48    5.04 
   5  -2 -17    1.46    6.02 
  -7   2  -1    1.71    4.38 
   5   2 -17    0.66    4.01 
   5   2 -17    1.42    5.70 
  -7  -2  -1    0.68    4.65 
   5  -4 -16   55.39   16.66 
  -5   4  16   57.16   16.72 
   5   4 -16   40.97   16.43 
   5   4 -16   36.47   11.16 
   4  -6 -17   34.94   50.73 
   4   6 -17   28.87   10.83 
  -4   6  17   35.35   52.29 
   4  -6 -17   33.73   13.94 
   4   6 -17   28.95   14.47 
  -2   7  19   17.94   36.57 
   2   7 -19   16.40   20.22 
  -1   8 -18    2.08    7.96 
   2   7 -19   16.63   18.83 
  -1  -8 -18    3.56    9.68 
   2  -7 -19   13.39   17.74 
   2  -7 -19   12.40   27.11 
   1   8  18    5.56   12.51 
  -1   8 -18    1.23    8.98 
  -1  -8 -18    3.45    9.35 
   3 -11 -11    5.81   12.42 
  -4   6 -15   11.43   20.91 
   6  -6  -9   18.68    8.52 
  -6   6   9   18.28   10.09 
   6   6  -9   16.54   24.60 
  -3  11  11    6.42   10.31 
   2  -7  18   50.55   13.47 
  -2  -7 -18   48.13   62.01 
  -2  -7 -18   47.70   12.58 
   3  11 -11    3.92    4.83 
   3  11 -11    8.09   15.90 
   1  13  -8   46.70   13.82 
  -3  11  11    5.98   12.27 
   1  13  -8   49.68   16.45 
  -1 -13   8   41.59   11.46 
   4   6  15   11.71   34.21 
  -4   6 -15   11.32   23.41 
   2   7  18   49.95   15.56 
  -4  -6 -15   20.32   27.40 
   1 -13  -8   40.54   48.83 
  -1  13   8   43.16   13.53 
  -2   7 -18   58.39   23.57 
  -1  13   8   36.36   44.74 
   2  13  -6   93.38   19.94 
   0  14   0   26.56   41.99 
   2 -13  -6   98.05   23.17 
   0 -14   0   31.74   42.80 
   0  14   0   40.46   13.47 
   2  13   5   60.83   11.92 
   2  13   5   70.54   20.85 
  -2 -13   6  101.10   22.66 
   2  13  -6  106.95   27.65 
  -2  13  -5   66.48   19.41 
   2 -13   5   64.73   16.97 
  -2 -13  -5   65.69   18.32 
  -2  13   6   97.27   22.51 
   3   2 -21  126.92   31.59 
   3  -2 -21  134.21   30.31 
   6   6   6   -0.08    6.11 
  -3   2  21  141.86   30.68 
  -3  -2  21  133.77   32.13 
  -6  -6  -6    1.51    9.66 
  -6   6  -6    0.31    6.66 
   6  -6   6    1.37   11.04 
  -2 -10 -14   -0.21    5.61 
   2 -10  14    1.24    3.59 
   2  10 -15   20.26   40.17 
   5  10  -1  124.77   28.68 
   2  10 -15   22.03   44.03 
  -2 -10 -14    0.40    4.35 
  -5 -10   1  139.04   27.72 
  -3 -12  -6  120.47   27.09 
   2 -10 -15   19.46   31.80 
   2  10  14    0.84    6.52 
  -3  12  -6  143.04   31.45 
  -5  10   1  116.42   26.69 
   5 -10  -1  122.38   26.00 
  -2  10  15   20.27   42.69 
   2 -10 -15   19.53   27.02 
   3  12   6  127.04   29.48 
   3 -12   6  151.29   29.91 
   7   1  -6   12.25   33.61 
   7  -1  -6   24.10    9.29 
  -7  -1   6   21.14    9.42 
   0  11 -14    1.55    6.51 
   0 -11 -14    1.95    5.92 
   0  11  14    2.21    8.18 
   0 -11 -14   -0.46    7.37 
   0  11 -14    1.20    5.57 
   5 -10  -2   59.54   16.48 
  -4  11   7   60.35   17.95 
   4 -11  -7   47.27   50.21 
   0 -11  14    0.50    2.92 
   5  10  -2   69.62   24.34 
  -5 -10   2   62.96   15.10 
   4  11  -7   71.41   22.80 
  -4  11   7   54.21   13.61 
   0  14   1   33.35   12.79 
   0  14  -1   29.97   13.06 
   0 -14   1   30.74   11.77 
   0  14  -1   28.76   11.92 
   4 -11   5   21.11   34.37 
  -7  -2   5    4.08   13.54 
  -4  11  -5   19.76   22.42 
   7  -2  -5    4.92    8.54 
   0  14   1   28.93   11.43 
   7   2  -5    4.82   11.57 
   4  11   5   17.66   24.16 
   2 -11 -13    1.19    4.57 
   2 -11 -13    1.38    8.39 
   0 -14  -1   19.97   43.39 
   2  11 -13    3.98    8.03 
  -2  11  13   -0.31    8.61 
   2  11 -13    2.10    6.24 
  -4 -11  -5   22.86   41.47 
   1  12  11   17.32   31.07 
   2  11  12  283.68   47.22 
  -1  12 -11   16.61   35.61 
  -2 -11 -12  261.10   37.04 
  -2  11 -12  276.91   48.16 
   2 -11  12  271.78   42.31 
   1 -12  11   18.56    9.54 
  -1 -12 -11   17.15   29.26 
  -2 -11 -12  239.60   40.47 
  -1  12 -11   25.63   13.18 
  -1 -12 -11   12.37   39.45 
   5   8 -11   18.33   45.11 
  -5   8  11   13.17   28.31 
  -5   8  11   17.59   10.52 
   5  -8 -11   23.38    9.61 
   6  -4 -12  102.98   19.28 
   6  -4 -12   98.09   19.76 
  -6   4  12  106.97   23.00 
   6   4 -12   89.91   23.93 
  -5 -10   0  262.45   42.25 
  -5  10   0  233.67   43.49 
   5  10   0  208.28   38.43 
   5 -10   0  209.58   38.11 
  -6  -4  -9   23.64   57.78 
  -6   4  -9   16.86   37.13 
  -6   4  -9   24.63   35.53 
   6   4   9   15.41   32.88 
  -2  -2  22  102.34   30.11 
  -4   7  16    4.86   10.17 
   4  -7 -16    2.93    4.00 
   2   2 -22   91.29   23.39 
   4   7 -16    4.50    6.70 
   2  -2 -22   97.25   24.19 
   4  -7 -16    2.62    5.84 
  -2   2  22   91.90   24.49 
   4   7 -16    3.43    8.47 
  -2  -2 -21  221.15   37.56 
  -2   2 -21  241.54   44.63 
   2   8 -18   26.12   49.18 
  -2   2 -21  252.27   40.26 
   2  -8 -18   28.98   13.07 
  -2   8  18   35.99   43.77 
   4  -7  14  186.23   36.13 
   2   8 -18   28.84   22.06 
  -4  -7 -14  162.86   32.45 
  -2  -2 -21  295.21   47.16 
   2   2  21  263.56   64.12 
   2  -8 -18   29.62   10.48 
   4   7  14  133.28   29.51 
  -4   7 -14  159.72   34.22 
   2  -2  21  274.45   43.73 
   2  -8  17    9.28   16.75 
  -2  -8 -17    7.05    8.39 
   2   8  17    6.46   20.45 
  -3 -10 -12  147.31   31.24 
  -2   8 -17    8.23   22.28 
  -7   0  -3   72.09   20.14 
   3 -10  12  125.94   34.18 
   3  10  12  130.96   28.27 
  -3  10 -12  121.85   29.12 
  -2  -8 -17    5.60   17.86 
   5  10  -3   15.67   48.58 
   5 -10  -3   13.73   32.77 
  -5 -10   3   15.29   35.81 
   7  -3  -2   51.98   18.82 
   7   3  -2   56.73   14.05 
  -7   3   2   48.58   11.96 
   5   9   6    4.38   12.02 
  -7  -3   2   46.69   14.08 
  -1  -6 -20    0.57    3.91 
  -1  -6 -20    1.42    4.01 
  -1   6 -20    0.64    7.41 
  -1   6 -20    1.84    4.96 
   1   6  20    1.39    7.73 
  -5   9  -6    2.29    7.10 
   5  -9   6    5.39   14.32 
  -5  -9  -6    4.89   11.48 
   2  -6 -20    7.91   10.55 
   1 -11 -14   26.89   42.48 
   1 -11 -14   34.00   54.85 
   2   6 -20    9.97   29.15 
   4  -5 -18    6.49   17.85 
   1  11 -14   26.15   33.20 
  -1  11  14   28.68   44.17 
   4   5 -18    6.24   17.42 
   4   5 -18    8.72    7.57 
   2   6 -20    8.85   25.01 
  -2   6  20    6.88   17.50 
   1  11 -14   22.47   32.88 
  -4   5  18    4.00   13.66 
   2   6  19   22.06   48.06 
   0 -14  -2    1.25    5.82 
   0 -14   2    2.00    7.38 
  -2  -6 -19   24.60   13.41 
   0  14  -2    0.15    3.64 
   0  14   2    0.93    2.75 
   2  -6  19   17.08    8.11 
  -2   6 -19   22.54    8.90 
   0  14  -2    0.37    5.60 
  -2   6 -19   18.57   45.49 
   0  14   2    1.60    4.99 
  -2  -6 -19   25.82   39.27 
  -4   5 -16  268.13   45.36 
   7  -3  -1    3.32    4.52 
  -5   0 -15    3.02    7.38 
  -5   0 -15    5.80   12.92 
  -7  -3   1    1.79   12.61 
   7   3  -1    2.30   10.09 
  -7   3   1    2.40    6.67 
  -4   5 -16  322.06   52.29 
   4   5  16  279.18   45.23 
  -4  -5 -16  284.91   53.96 
   4  -9 -13  189.54   32.53 
   4   9 -13  216.40   41.97 
   4  -9 -13  199.54   34.98 
   4   9 -13  198.85   31.60 
  -4   9  13  178.15   47.61 
  -7   2  -2   29.78   13.09 
   3   7 -18    0.46    6.88 
   3  -7 -18    0.64    7.63 
   3  -7 -18    1.25    6.53 
  -7  -2  -2   38.79   15.78 
  -3   7  18    1.44    4.55 
   3   7 -18    1.73    7.44 
  -4  -9 -11    2.58    7.88 
  -4   9 -11    2.31   14.70 
   4  -9  11    2.05   12.02 
   4   9  11    2.67   12.44 
   7  -3  -3    5.16   15.97 
  -7   3   3    6.93   17.23 
  -6   5  11    6.59   19.12 
   6  -5 -11    7.95   16.66 
   6   5 -11   10.52   10.05 
   7   3  -3    8.49   19.83 
  -7  -3   3    8.37   22.59 
   6  -5 -11    6.02   16.93 
   5  -7 -13   38.29   17.44 
  -7  -1  -3   14.32   37.19 
   5  -7 -13   31.54   42.07 
  -5   7  13   36.44   12.89 
   5 -10   1   75.50   20.61 
  -1   2 -22    5.04   12.25 
  -7   1  -3   14.93   30.58 
   5   7 -13   51.94   61.95 
  -1  -2 -22    3.24   10.28 
   1  -2  22    5.02   12.07 
  -1  -2 -22    5.59   11.99 
   1   2  22    4.62   13.07 
   5  10   1   94.54   23.39 
  -5 -10  -1   84.61   21.00 
  -6   5  -8   16.38   43.98 
   6   3 -13    7.23   24.02 
  -6   3  13   20.64   40.44 
  -6   5  -8   11.14   31.61 
  -6  -5  -8   18.60   38.99 
   6   5   8   13.44   30.75 
   6  -3 -13   16.37   30.91 
  -6   3 -10   24.07   28.46 
  -6  -3 -10   19.83   37.56 
  -6   3 -10   27.14   10.97 
   6   0 -14   11.87   28.84 
   0  10 -16    7.34   11.39 
   0  10  16    7.05    8.22 
   0  10 -16    6.00   14.01 
   0 -10 -16    9.05   15.02 
   0 -10 -16   10.85   12.84 
   6   0 -14   15.22   30.00 
   3   6 -19    9.39   18.52 
  -6   0 -11    0.91    6.38 
   3  -6 -19   10.59    7.45 
   3   6 -19   10.04   25.82 
  -3   6  19    9.45   36.33 
   3  -6 -19   11.32   20.87 
   7   3   0    6.72   19.79 
  -7  -3   0    9.12   24.77 
  -7   3   0    8.04   21.73 
  -5   1 -15   35.01   15.08 
  -5  -1 -15   32.68   10.67 
  -5   1 -15   32.49   12.01 
  -5  -1 -15   36.07   47.67 
  -3  12   8  415.87   35.41 
  -3  12   8  415.61   60.40 
   3 -12  -8  451.02   40.45 
   3  12  -8  359.03   57.77 
   7   0  -7    1.81    4.20 
   7   0  -7    1.55    5.52 
   5 -10  -4   22.06   35.84 
  -5  10   4   15.80   30.59 
   6   7  -7    1.06    9.48 
  -5 -10   4   11.55   30.23 
  -6   7   7    0.81    8.44 
   5  10  -4   19.76   48.67 
   6  -7   4  109.13   28.31 
   1  13   8   69.94   15.55 
  -1  13  -8   72.02   17.41 
   1 -13   8   81.88   20.44 
  -1  13  -8   68.01   22.68 
   1  13   8   85.30   22.65 
  -1 -13  -8   88.02   22.40 
  -6  -7  -4  100.49   23.91 
   6   7   4  118.64   25.18 
  -6   7  -4  121.66   26.03 
  -1  10  16   67.66   19.47 
   1 -10 -16   65.18   16.22 
   1  10 -16   61.42   19.00 
   1  10 -16   51.58   59.87 
   1 -10 -16   53.27   14.11 
  -1   9 -17    1.85    9.62 
   5   5  13   55.07   18.36 
  -3  -9 -14    1.72   10.01 
   3   9  14    1.78    3.95 
   1  -9  17    0.85    3.06 
  -5  -5 -13   52.50   18.21 
   3  -9  14    0.51    4.97 
  -5   5 -13   57.49   17.83 
  -5   5 -13   63.70   19.94 
  -1  -9 -17    0.96    7.91 
   1   9  17    2.05    8.42 
  -1  -9 -17    0.94    6.85 
  -7  -3   4   78.86   19.32 
  -7   3   4   65.85   12.74 
   7  -3  -4   54.92   14.58 
   7   3  -4   51.98   23.60 
   7  -2  -6    1.41    3.10 
   7  -2  -6    1.79    6.81 
   7   2  -6    0.62    3.76 
  -7  -2   6    1.02    4.85 
   6   1 -14    7.05   24.75 
   0  12 -12    0.90   10.99 
   0 -12 -12    3.81    8.79 
   0  12  12    3.71   10.29 
   6  -1 -14    6.81   15.60 
   0 -12 -12    2.96    6.10 
   0  12 -12    1.84    7.58 
   6   1 -14    6.16   16.32 
   6  -1 -14    5.58   32.40 
   0 -12  12    1.81    4.49 
   0  14   3    1.01    3.93 
  -6  -1 -11    1.89    4.69 
  -6   1 -11    1.98    6.28 
   0  14  -3    0.93    4.70 
   0 -14   3    2.20    5.20 
   0 -14  -3    1.96    9.80 
   0  14   3   -0.10    7.32 
   0  14  -3    1.26    7.17 
  -5   6 -12  194.76   37.73 
   5   6  12  242.34   41.76 
  -5  -6 -12  202.98   38.40 
  -5   6 -12  212.28   40.26 
   7  -1  -7   -0.05    4.13 
   4 -10 -11    7.19   12.78 
   1  14   0  145.25   25.84 
   1  14   0  114.36   26.47 
  -7  -1   7    0.37    2.81 
   1 -14   0  173.97   32.61 
  -1  14   0  170.20   31.79 
  -4  10  11    5.57   11.49 
  -1 -14   0  174.23   40.70 
   7   1  -7    0.42    3.03 
  -4  10  11    4.90    9.52 
   4  10 -11    4.36    9.86 
  -4 -10  -9    8.48   22.80 
   3   8 -17   66.43   20.56 
   3   8 -17   72.28   17.18 
  -4  10  -9    9.88   20.58 
   3  -8 -17   65.15   14.75 
  -3   8  17   78.71   38.86 
   4 -10   9   10.81   29.43 
   3  -8 -17   75.45   17.02 
   4  10   9   15.29   19.91 
   1 -14  -1   31.25   13.36 
  -3 -11 -10    1.30    5.90 
  -3  11 -10    1.22    6.82 
  -3   0 -20    1.39    4.28 
  -1 -14   1   24.02   46.80 
   1  14  -1   34.73   11.56 
   1  14  -1   26.80   12.58 
   3  11  10    0.72    3.67 
  -3   0 -20    1.28    6.05 
   3   0  20    0.17    3.14 
  -1  14   1   20.91   40.47 
   0 -13   9    5.60   15.84 
   0  13  -9    4.83   10.22 
  -4   0  20   69.42   21.36 
   0  13   9   10.46   22.42 
   0  13   9    6.84   10.85 
   5   9  -9   11.38   26.28 
   5  -9  -9   20.96   36.31 
   4   0 -20   56.63   16.17 
  -5   9   9   22.46   47.25 
   0 -13  -9    7.96   27.23 
   0  13  -9    3.97   14.37 
  -5 -10  -2    1.32    5.47 
   5 -10   2    1.79    4.66 
   5  10   2    1.59    9.13 
  -5  10  -2    1.89    4.56 
  -7  -3  -1    4.77   10.61 
   5   3 -17    0.35    4.10 
   5   3 -17    2.51    7.84 
   7   3   1    5.41   11.62 
  -7   3  -1    4.66   12.07 
  -5   3  17   -1.01    9.33 
  -4   0 -18   74.12   19.44 
  -4   0 -18   88.36   26.84 
   1 -14   1    4.17    7.78 
  -1  14  -1    3.00    5.94 
  -1 -14  -1    5.27    7.63 
   1  14   1    3.31    6.24 
   3   4  19   81.03   22.67 
  -5   8  -9  123.67   28.93 
  -5  -8  -9  177.28   38.78 
  -3  -4 -19   76.51   19.96 
  -3   4 -19   74.28   17.75 
  -3  -4 -19   70.52   27.42 
   5   8   9  128.44   30.71 
  -3   4 -19   82.12   26.16 
   5  -8   9  155.71   34.98 
  -2  13   7   63.88   17.23 
  -2 -13   7   73.24   14.39 
   2  13  -7   66.58   14.50 
   2  13  -7   80.18   24.52 
   2 -13  -7   82.94   24.30 
   2 -13   6   90.81   23.55 
  -2  13  -6   73.68   20.42 
  -2 -13  -6   78.17   21.49 
   2  13   6   73.83   21.53 
   4  -8 -15  157.19   32.33 
  -4   8  15  136.28   33.12 
   4   8 -15  124.20   25.43 
   4  -8 -15  142.94   29.92 
   4   8 -15  127.99   31.99 
   1 -12 -12   47.85   13.50 
  -1  12  12   41.33   14.76 
   1 -12 -12   45.25   16.42 
   4   8  13    1.70    5.24 
  -4   8 -13    2.01    7.20 
   1  12 -12   29.34   49.20 
   4  -8  13    0.84    5.09 
   1  12 -12   20.00   53.79 
  -4  -8 -13    1.61    7.79 
   2   9  16    4.66    8.00 
  -2  -9 -16    4.87    9.58 
  -2   9 -16   -0.16    8.24 
   2   9 -17   43.05   16.36 
  -2  -9 -16    1.83    4.55 
  -2   9  17   50.33   18.05 
   2  -9  16    2.52    6.44 
   2  -9 -17   41.76   16.97 
   2   9 -17   52.84   15.63 
   2  -9 -17   44.42   50.91 
   3   1  20    5.34   13.23 
  -3   1 -20    6.46   23.93 
  -3   3  21    1.47    9.59 
  -1  14   2   20.46   33.65 
  -3  -1 -20    8.77   20.46 
  -7   2  -3  158.96   54.45 
   3   3 -21    2.90    7.06 
  -7  -2  -3  155.09   35.58 
   1  14  -2   17.62   18.37 
  -3   1 -20    5.69   15.50 
  -3  -1 -20    3.92   10.12 
   1 -14  -2   25.55   12.14 
  -1 -14   2   20.25   25.76 
   3  -3 -21    0.57    6.96 
  -1  14   2   18.05   47.05 
  -3  -3  21    0.46    7.55 
   3  -1  20    8.43   18.58 
   1  14  -2   17.21   26.00 
   4   1 -20    1.29    4.70 
  -4  -1  20    2.12    9.78 
   4  -1 -20    1.62   12.27 
  -4   1  20   -0.54   11.65 
  -7   0  -4    2.13    4.74 
  -4  11   8   31.07   48.93 
  -4  -1 -18   10.41   31.52 
  -4   1 -18   12.68   37.34 
  -4  -1 -18   11.75   21.44 
  -4  11   8   38.01   11.29 
  -4   1 -18   16.46   17.82 
   4 -11  -8   43.28   16.87 
   4   1  18   10.35   28.56 
   4  11  -8   42.80   21.59 
  -4  11  -6    1.89    8.34 
   4 -11   6    2.91    6.99 
   4  11   6    3.09   11.11 
  -4 -11  -6    3.97   13.93 
  -7  -3   5    2.64    7.30 
  -7   3   5    3.71   12.93 
   7  -3  -5    5.64   14.77 
   7   3  -5    2.15   11.20 
  -5 -10   5   84.86   19.19 
   5   4  14   67.32   15.76 
  -5  -4 -14   81.82   24.42 
  -5   4 -14   78.22   22.80 
  -5  10   5   78.26   22.05 
  -5   4 -14   75.31   32.56 
   5  10  -5   83.12   24.53 
   5 -10  -5   81.41   20.81 
  -1   4  22   80.97   23.86 
   1  -4 -22   80.77   23.26 
   1  -4 -22   76.65   17.27 
   1   4 -22   60.57   27.23 
  -1  -4  22   74.10   19.76 
  -5   2 -15   65.23   20.62 
  -5  -2 -15   70.01   20.17 
  -5   2 -15   69.27   56.82 
  -3 -12  -7    1.02    8.54 
   2 -12  10    5.77   16.57 
   3  12   7    1.45    8.41 
  -2 -12 -10    9.58   18.75 
   2  12  10    6.27   12.04 
   2   5 -21   78.26   22.23 
   2  12 -11    2.11    8.73 
  -2 -12 -10    5.06   12.27 
  -2  12  11    4.48    9.12 
  -2  12  11    2.03    5.44 
  -2  12 -10   10.02   16.12 
   3 -12   7    1.01    5.36 
  -2   5  21  105.69   28.98 
  -3  12  -7    3.00   13.55 
   2 -12 -11    1.88    4.63 
   2  -5 -21   84.12   24.02 
   1 -14   2   79.98   21.63 
  -1  14  -2   89.36   23.67 
   1  14   2   87.72   20.94 
   1  14   2   76.77   21.08 
  -1  14  -2   90.89   23.40 
  -1 -14  -2   96.15   23.89 
   3   5 -20    7.52   23.94 
   3   5 -20    8.69   28.29 
   4  -4 -19    3.86   13.65 
   2  -5  20   35.33   11.05 
   4   4 -19    6.56   15.71 
  -3   5  20   14.47   24.78 
  -2   5 -20   33.40   12.17 
   4   4 -19    8.52   23.65 
   2  -3 -22   64.18   18.01 
   2   3 -22   96.98   26.04 
  -2   3  22   99.46   26.94 
  -2   5 -20   38.52   16.15 
  -2  -5 -20   29.65   12.42 
   2   5  20   41.93   16.18 
  -2  -3  22   98.68   26.28 
  -2  -5 -20   35.16   16.51 
  -4   4  19    4.67    8.67 
   3  -5 -20    9.57   15.85 
  -2  -3 -21  107.73   25.57 
   0  -4  22   52.79   16.49 
  -2   3 -21  113.72   29.07 
   0  -4 -22   44.85   15.97 
   0   4  22   54.56   19.34 
   2   3  21  124.36   31.44 
   0   4 -22   48.18   16.71 
   0  -4 -22   46.55   13.24 
  -2   3 -21  122.54   26.31 
   2  -3  21  131.34   28.10 
  -2  -3 -21   94.88   23.75 
  -4   4 -17   76.58   23.44 
   3  10 -14   47.22   17.59 
   3 -10 -14   38.78   13.75 
  -4  -4 -17   75.10   14.92 
   4   4  17   69.84   28.72 
   3  10 -14   35.65   40.05 
  -3  10  14   50.10   17.83 
   3 -10 -14   39.85   13.04 
  -4   4 -17   82.77   25.59 
  -4  -4 -17   85.12   24.35 
  -7  -1  -4    1.79    4.44 
  -7   1  -4    1.09    3.13 
   6  -6 -10   15.04    7.92 
   6  -6 -10   14.98   22.11 
   6   6 -10   22.58   48.08 
   0 -14   4    2.16    4.31 
   0  14  -4    1.28    6.53 
   0 -14  -4    1.30    8.62 
  -6   6  -7    3.06   10.12 
   0  14   4    2.68    7.31 
   6  -6   7    2.32    5.54 
   0  14  -4    0.33   10.21 
   6   6   7    1.33    5.11 
  -6  -6  -7    1.95    9.12 
   0  14   4    1.60    5.44 
  -1  13   9   74.96   18.14 
   1  13  -9   69.19   32.80 
  -1 -13   9   75.91   18.36 
   1 -13  -9   82.18   21.89 
  -1  13   9   70.37   17.10 
   1  13  -9   72.08   18.64 
   1   5  21   28.70   13.84 
  -6   2  14  302.73   57.52 
   6   2 -14  278.48   52.22 
  -1   5 -21   20.80   13.08 
   1  -5  21   16.58   23.47 
  -1  -5 -21   20.06   37.81 
   6   2 -14  331.13   33.14 
  -1  -5 -21   20.74   10.05 
   6  -2 -14  310.45   53.29 
   6   8  -1   24.02   36.35 
  -6   8   1   40.58   13.35 
   6  -8  -2  100.48   24.34 
  -6  -8   2  104.97   24.29 
  -6  -2 -11   20.67   12.09 
   6  -8  -1   37.63   13.51 
  -6   8   2  114.70   26.98 
  -6   2 -11   29.17   44.23 
  -6   2 -11   29.10   10.96 
  -6  -8   1   34.49   13.79 
   6   8  -2  125.56   30.12 
   1   7 -20  193.13   41.08 
   0   8  19    8.07   22.84 
   1   7 -20  188.28   42.95 
  -1   7  20  219.82   48.70 
   0   7  20   80.31   25.07 
   1  -7 -20  170.80   33.56 
   1  -7 -20  176.36   37.36 
   0  -8 -19    8.41   18.09 
   0   8 -19    4.89   13.50 
   1   0 -23    3.83   15.45 
  -1   0  23    6.60   11.61 
   0   8 -19   11.11   20.14 
   0  -7 -20   69.11   16.32 
   0   7 -20   70.99   19.23 
   0   7 -20   67.77   20.00 
   0  -8 -19    4.87    8.75 
   0  -7 -20   67.22   17.16 
   1 -14  -3   37.44   19.58 
  -1 -14   3   35.94   12.55 
   1  14  -3   36.59   12.29 
   1  14  -3   23.62   46.72 
  -1  14   3   36.01   13.35 
  -1  14   3   38.36   48.74 
   5  -7  11    5.01   13.86 
  -5  -7 -11    2.71    8.57 
  -7   3  -2    5.80   13.62 
   5   7  11    1.34    5.65 
  -5   7 -11    2.20    8.39 
  -7  -3  -2    4.79   11.44 
  -1  11 -14   21.11   35.61 
   7  -2  -7   12.04   21.80 
   7   2  -7    8.55   33.30 
  -1  11 -14   21.72   10.01 
  -1 -11 -14   18.64   31.37 
   1   8 -19   55.07   57.87 
   1 -11  14   21.74   10.00 
  -1   8  19   49.95   45.07 
   1  11  14   17.14   45.76 
   7  -2  -7   13.95    6.82 
   1  -8 -19   45.20   13.00 
   1   8 -19   46.00   16.22 
   1  -8 -19   44.91   16.23 
  -1 -11 -14   22.05   31.14 
  -5  10  -3    2.47   10.93 
   5 -10   3    2.98   13.69 
  -1  -3 -22   49.24   13.92 
   5  10   3    5.56    9.72 
  -1   3 -22   47.15   17.43 
  -1  -3 -22   49.84   15.46 
   1   3  22   54.08   20.14 
   1  -3  22   46.41   36.96 
  -5 -10  -3    2.75    8.77 
   0   0 -23    0.41    5.59 
   0   0  23    1.08    8.67 
  -6   8   3    1.91    8.01 
   6   8  -3    1.01    3.05 
   5   9   7   13.26   30.84 
   6   8   0    3.39   10.74 
  -6  -8   0    2.82    7.84 
   6  -8  -3    0.92    5.41 
   6  -8   0    1.21    7.60 
  -5  -9  -7   15.28   31.54 
  -6  -8   3    0.76    4.93 
  -5   9  -7   17.54   29.60 
   5  -9   7   19.03   36.98 
  -6   8   0    0.51    4.05 
   7   0  -8    0.24    2.92 
   7   0  -8    0.39    3.08 
  -6   7   8   91.20   22.03 
   6   7  -8   82.92   24.63 
   6  -7  -8   89.75   21.49 
   3 -13  -1   71.85   19.02 
  -3  13   1   67.18   19.14 
   1  -1 -23    0.27    6.16 
  -1   1  23    1.94    8.38 
  -3 -13   1   65.25   16.64 
   1   1 -23    0.50    4.77 
   6  -7   5    0.90    5.20 
   3  13  -1   53.16   17.15 
  -6   7  -5    1.01    6.60 
  -1  -1  23    1.21    5.99 
   5   0 -18    0.16    7.15 
   3  13   0    0.62   10.12 
  -3 -13   0   -0.40    7.36 
  -5   0  18    0.17    6.37 
   3 -13   0    1.34   11.53 
  -3  13   0    1.31   10.75 
  -1  14  -3    4.26    8.59 
  -1 -14  -3    4.20    8.57 
   1  14   3    2.91    8.32 
  -1  14  -3    2.91    7.04 
   1  14   3    4.13    7.42 
   1 -14   3    4.52    9.08 
   3  -2  20    0.54    3.90 
  -3  -2 -20    1.35    9.46 
  -3   2 -20    0.74    6.85 
   3   2  20    1.10    4.12 
  -3  -2 -20   -0.35    7.31 
  -4  -2  20  115.25   32.74 
   4  -2 -20  120.16   28.36 
   4   2 -20  102.95   24.97 
  -4   2  20  108.62   31.13 
   3 -13  -2   35.26   12.95 
   0  -1  23    1.78   12.49 
   3 -11 -12   39.78   23.23 
   3  11 -12   38.40   16.86 
   0   1 -23    2.42    7.07 
   0   1  23    1.77    8.22 
  -3  13   2   37.38   14.62 
  -3  11  12   34.63   13.76 
  -3  11  12   41.19   20.94 
  -3 -13   2   37.35   21.36 
   3  11 -12   35.75   11.79 
   3  13  -2   19.65   51.53 
   0  -1 -23    3.33   15.10 
  -7  -3   6   46.44   12.33 
   4   2  18   40.86   13.05 
  -4   2 -18   35.20   30.32 
   7   3  -6   65.01   16.85 
   7  -3  -6   48.89   14.39 
   7  -3  -6   48.58   10.89 
  -4  -2 -18   42.21   16.56 
  -4   2 -18   39.88   15.19 
  -4  -2 -18   29.13   11.69 
   7   1  -8    0.18    4.71 
   7   4  -2    1.15    4.04 
   7  -1  -8    0.47    3.79 
  -7  -4   2    0.80    7.85 
   7  -1  -8    0.57    3.34 
   7  -4  -2    2.28    4.56 
  -5   8  12  135.49   28.74 
   5  -8 -12  149.25   29.89 
   5  -8 -12  143.76   30.16 
   5   8 -12  152.66   35.44 
   5   5 -16    6.13   14.10 
   7  -4  -1   24.34   11.49 
  -7  -4   1   15.14   38.66 
   7   4  -1   17.26   29.74 
   5   5 -16    7.88   20.80 
  -5   5  16    6.66   13.65 
   5  -5 -16    7.78    9.93 
  -7   4   1   17.88   34.63 
   3   7  17    8.10   11.93 
   5  -6 -15  176.04   32.07 
  -3  -7 -17    4.53   17.39 
  -3   7 -17    6.32   18.65 
   3  -7  17    9.23   28.21 
  -5   6  15  174.30   35.90 
   5   6 -15  189.04   42.02 
   5   6 -15  177.27   34.64 
   5  -6 -15  163.61   43.89 
  -3  -7 -17    7.61   20.65 
  -6   8   4    6.30   26.16 
   3 -12  -9    1.17    5.83 
   3  12  -9    1.45    9.20 
   6  -8  -4    9.02   28.99 
  -3  12   9    1.39    7.15 
   6   8  -4    7.56   11.35 
   5 -10  -6    0.94    6.10 
  -5  10   6    2.10    7.04 
   5  10  -6    2.62   11.60 
  -6  -8   4    4.40   14.63 
  -3  12   9    1.47    8.07 
   5   1 -18   99.72   23.55 
  -6   8  -1  102.43   25.40 
  -6  -8  -1   95.78   26.31 
   5  -1 -18  112.11   26.53 
   6  -8   1   81.09   22.67 
  -5  -1  18   99.92   48.44 
  -3 -13  -1   46.10   15.36 
  -3  13  -1   40.81   16.10 
  -5   1  18  104.11   29.96 
   6   8   1   69.36   17.07 
   3  13   1   25.76   57.68 
   3 -13   1   34.90   15.83 
   3   9 -16   11.63   23.92 
   3   9 -16   10.92   24.16 
   3  -9 -16    6.73   26.94 
  -3   9  16   14.40   19.69 
   3  -9 -16   15.75   28.77 
   7   4  -3   26.02   11.17 
   7  -4  -3   22.44   46.24 
  -7  -4   3   24.76   10.72 
  -6   4  13    6.98   14.09 
   6   4 -13   13.76   34.21 
  -7   2  -4    5.91   12.21 
  -7  -2  -4    7.52   16.25 
   6  -4 -13    9.23   18.65 
   1  -6 -21  155.09   29.29 
   1  -6 -21  171.22   36.37 
  -1   6  21  214.11   46.40 
   1   6 -21  164.04   38.46 
   1   6 -21  169.31   38.29 
  -1  10 -16  223.56   46.56 
   1 -14  -4    5.05   10.43 
   1 -10  16  184.58   33.72 
  -1 -10 -16  223.26   43.42 
  -1 -10 -16  225.30   45.34 
   1  14  -4    2.63    9.64 
  -1  10 -16  196.33   37.96 
  -1  14   4    4.78    9.90 
   1  10  16  192.87   39.32 
  -6   4 -10  139.98   31.37 
  -1  14   4    3.21   16.04 
   6   4  10  131.96   26.23 
   1  14  -4    3.58    8.35 
  -1 -14   4    2.26    7.90 
  -6  -4 -10  148.26   34.74 
  -6   4 -10  142.85   36.77 
   0   9  18  232.99   46.88 
   0  -9 -18  255.58   46.16 
   0  -9 -18  251.93   46.88 
   0   9 -18  260.55   50.38 
   0   9 -18  260.64   61.44 
   0  -6 -21    0.96    6.44 
   0   6 -21    4.09    7.96 
   0   6  21    0.98    9.63 
   0  -6 -21    0.35    3.10 
   0   6 -21    0.94   11.73 
   7  -4   0    0.97   10.19 
  -3 -13   3   31.11   41.07 
  -4 -12   1    7.58   12.63 
  -7  -4   0    0.30    7.46 
  -1  12 -12   17.23   39.85 
   1  12  12   14.49   28.58 
   1 -12  12   14.60   33.87 
   4 -12  -1    5.43   16.55 
  -7   4   0    0.95    6.40 
  -4  12   1    5.40    8.66 
  -1 -12 -12   14.98   28.62 
   3  13  -3   27.80   45.13 
   7   4   0    0.55    2.93 
   3 -13  -3   24.68   11.41 
  -3  13   3   25.62   23.03 
  -1 -12 -12   18.88   26.32 
  -1  12 -12   12.80   25.75 
   4  12  -1    2.01    6.06 
   0 -14   5    1.34    6.22 
   0  14  -5    1.46    7.84 
   0  14   5    2.12    6.67 
   0  14   5    0.31    5.06 
   0 -14  -5    0.38    4.54 
  -3   6 -18  143.19   30.90 
   6   5 -12    5.81   11.25 
   3   6  18  157.76   32.94 
  -6   5  12    2.86    7.81 
   6  -5 -12    2.41   11.06 
  -3  -6 -18  171.51   36.61 
  -3  -6 -18  133.99   27.85 
  -3   6 -18  154.58   37.69 
   6  -5 -12    2.33    4.72 
  -1  13  -9  166.58   33.97 
  -1 -13  -9  184.38   37.67 
  -1  13  -9  143.05   51.77 
   1  13   9  168.04   61.75 
   1 -13   9  152.80   31.25 
  -1 -13  -9  143.11   28.05 
  -1   9  18  173.66   38.54 
  -6   5  -9    8.25   20.21 
   1   9 -18  181.61   38.74 
  -6  -5  -9    7.16   30.23 
   1  -9 -18  190.80   37.70 
   1  -9 -18  198.17   40.23 
   1   9 -18  180.15   40.74 
  -6   5  -9   11.13   21.21 
   6   5   9    6.45   15.31 
   4 -12  -2   48.46   22.68 
  -7   0  -5    3.06   10.12 
   4  12  -2   63.68   23.69 
  -4  12   2   40.20   16.17 
   4  12   0    4.04   13.59 
  -4  12   0    1.86   13.93 
  -4 -12   0    1.75   11.12 
  -4 -12   2   50.91   14.01 
   4 -12   0    2.33   10.74 
   2 -13  -8  165.78   34.20 
   2  13   7    3.31    7.93 
  -2  13   8  163.81   35.09 
  -2  13  -7    3.34   14.66 
  -2 -13  -7    1.93    7.99 
   2  13  -8  165.93   32.77 
   2 -13   7    3.10   12.47 
  -2 -13   8  160.10   30.70 
   2  13  -8  132.12   32.30 
  -2  13   8  144.42   31.63 
  -7   3  -3    3.30    6.55 
  -7  -3  -3    6.52   15.57 
  -7   4   4   47.03   12.91 
   7  -4  -4   39.14   13.94 
   7   4  -4   47.50   16.60 
  -7  -4   4   56.32   14.76 
   2 -11 -14  230.06   44.49 
  -2  11  14  173.17   36.56 
   2  11 -14  169.11   34.59 
   2 -11 -14  215.55   42.31 
   2  11 -14  170.07   37.97 
  -3   8 -16  406.15   45.16 
  -2 -11 -13   23.04    8.59 
   5  -9 -10   33.86   12.16 
  -5   9  10   39.86   14.11 
   3  -8  16  347.76   35.22 
   5   9 -10   44.06   38.46 
   2  11  13   22.74   30.02 
  -3  -8 -16  306.07   56.27 
  -2 -11 -13   22.73   14.89 
  -2  11 -13   21.87   47.80 
   2 -11  13   20.64   28.88 
   3   8  16  257.28   49.93 
  -3  13  -2    0.60    8.79 
  -3 -13  -2    1.07    8.45 
   3 -13   2    1.30    8.07 
   3  13   2    0.60    6.38 
  -5   3 -15   12.76   19.44 
   1  -2 -23   25.11   48.00 
   1   2 -23   18.19   28.61 
  -1  -2  23   25.27   47.62 
  -1   2  23   22.92   53.60 
  -5  -3 -15    9.69   27.22 
   5   3  15    6.31   20.15 
  -5   3 -15   11.51   25.48 
  -5  10  -4    1.59    6.27 
   5  10   4    0.72    6.67 
  -5 -10  -4    0.39    7.22 
  -1  14  -4  108.85   27.83 
  -1  14  -4  109.95   25.90 
   1  14   4  113.70   24.36 
   1  14   4  113.51   27.37 
  -1 -14  -4  125.54   28.63 
   1 -14   4   98.12   23.43 
  -7   1  -5    4.93   20.92 
  -7  -1  -5    4.15   16.35 
  -4 -12  -1   18.23   34.26 
  -4  11   9    9.99   23.20 
   6   8  -5    8.81   10.09 
   4  12  -3  147.67   37.22 
   6  -8  -5    5.09   19.39 
  -4  11   9   10.87   14.52 
  -4 -12   3  112.61   42.18 
   4 -11  -9    8.25   20.72 
   4 -12   1   18.27   20.38 
   4  11  -9   15.39   38.26 
   4 -12  -3  134.87   31.56 
  -6   8   5    5.96   19.87 
  -4  12  -1   20.30   37.79 
   4  12   1   24.66   45.61 
   6   8   2    0.88    7.14 
   4  11   7   47.98   15.90 
   6  -8   2    1.64    6.33 
  -6   8  -2    2.85    6.39 
  -4 -11  -7   44.69   14.98 
   4 -11   7   48.26   18.35 
  -4  11  -7   42.34   16.54 
  -6  -8  -2    3.54   12.98 
   0   2 -23    9.17   18.29 
   0  -2  23    8.46   18.64 
   0  -2 -23   11.22   27.22 
   0   2  23   11.57   17.12 
  -7   4  -1  212.94   38.45 
   3 -10  13   44.96   16.57 
   6   3 -14   35.97   14.33 
  -6   3  14   40.96   15.06 
   5   4 -17  217.27   45.94 
   3  10  13   51.40   31.58 
   7   4   1  192.39   35.76 
  -5   4  17  224.22   44.13 
  -3 -10 -13   40.11   20.46 
   5   4 -17  192.73   35.90 
  -3  10 -13   55.13   19.11 
   6  -3 -14   42.59   13.05 
   5  -4 -17  206.08   40.43 
  -7  -4  -1  204.58   41.58 
   7  -4   1  181.74   38.00 
   7  -2  -8    1.15    3.73 
   7   2  -8    0.44    4.66 
   7  -2  -8    1.51    7.38 
   4   9 -14   15.62   28.39 
   4  -9 -14   15.51   23.20 
  -4   9  14    7.08   30.26 
   4  -9 -14   15.72   28.77 
   4   9 -14   11.33   30.03 
  -6   3 -11    3.59    8.67 
   0 -11 -15   89.04   39.10 
  -6   3 -11    5.91   10.65 
   5  -7 -14    1.46    8.61 
   0  13 -10    1.07    6.43 
   0  13  10    3.07    8.40 
   0  11 -15   92.99   26.11 
   0 -13  10    2.60    9.92 
   4  -9  12    5.91   14.93 
  -6  -3 -11    7.90   22.17 
  -5   7  14   -0.15    7.12 
   0  13 -10    3.24   10.68 
   0  11  15   82.76   24.47 
  -4  -9 -12    3.29    6.85 
   0  13  10    2.62    7.58 
   0 -13 -10    3.50    7.79 
   0 -11 -15  108.06   25.02 
  -4   9 -12    2.89   11.65 
   4   9  12    2.01    4.13 
   5  -7 -14    0.74    6.83 
   0  11 -15   87.40   23.71 
   2  10 -16   10.38   19.37 
   2 -10 -16   12.91   21.17 
   2  10 -16    9.05   16.64 
   2 -10 -16    8.22   21.24 
  -2  10  16    7.93   25.91 
   2 -10  15   38.08   12.24 
  -3  13   4    7.84   16.30 
  -3  13   4    8.67   27.52 
   3 -13  -4    9.63   20.06 
  -2 -10 -15   42.40   12.17 
   3  13  -4   10.04   21.29 
  -2 -10 -15   33.32   25.50 
  -2  10 -15   39.91   58.71 
   2  10  15   33.04   29.80 
  -3 -13   4   13.64   27.60 
   5  -2 -18   39.39   13.44 
   5   2 -18   50.58   13.84 
   5   2 -18   58.10   24.81 
  -5   2  18   42.07   15.89 
  -4  10  12   35.65   13.84 
   4  10 -12   32.27   15.05 
   7   3  -7   13.55   34.17 
   7  -3  -7   20.21    7.51 
   7  -3  -7   21.53    9.72 
   4 -10 -12   35.39   14.95 
  -4  10  12   35.41   13.40 
   4 -10  10   49.18   15.23 
  -4  10 -10   48.37   18.10 
   3   0 -22    0.31    5.41 
  -4 -10 -10   43.23   16.79 
   4  10  10   45.97   41.76 
  -3   0  22    1.26    7.69 
  -3   4  21  171.87   39.20 
   3 -12   8   10.54   24.01 
  -3 -12  -8   17.91   11.12 
   3  12   8   13.80   24.98 
  -3  -4  21  217.26   45.23 
   3  -4 -21  199.04   39.93 
   3   4 -21  215.30   44.21 
  -3  12  -8   11.52   31.71 
   6   0 -15    0.66    5.22 
   6   0 -15    0.96    6.97 
   7  -4  -5   45.14   14.63 
   1  11 -15  291.75   53.38 
   1  11 -15  328.97   39.61 
   7   4  -5   54.10   17.12 
  -7  -4   5   45.14   13.20 
  -1  11  15  278.18   53.85 
   1 -11 -15  309.43   57.27 
   1 -11 -15  313.81   31.93 
  -7   4   5   48.90   12.50 
   4   6 -18  185.24   36.48 
  -4   6  18  207.74   41.79 
   4  -6 -18  236.38   45.33 
  -6   0 -12   48.01   17.03 
   7   0  -9   10.05    7.57 
   4   6 -18  227.88   47.71 
   1  14  -5   33.18   12.13 
  -1  14   5   38.27   14.34 
   1 -14  -5   42.67   34.63 
  -1 -14   5   36.63   11.68 
   1  14  -5   36.09   13.47 
  -1  14   5   36.69   13.76 
  -4  -6 -16    6.40    9.70 
  -4   6 -16    7.89    9.31 
  -4   6 -16    9.17   12.40 
   4   6  16    5.89    7.40 
   3 -11  11   48.00   15.14 
   3  11  11   44.90   15.36 
  -3  11 -11   50.50   18.23 
  -3 -11 -11   44.08   15.67 
   4   7 -17   14.93   33.73 
   5 -10  -7    1.13    7.05 
   5  -8  10   43.67   16.71 
  -4   7  17   11.87   19.61 
   4  -7 -17    8.84   23.08 
   5   8  10   43.64   15.60 
  -5  10   7    1.33    3.43 
  -5  -8 -10   33.49   48.55 
  -5   8 -10   51.20   16.75 
   5  10  -7    1.90    5.44 
   4  -7 -17   16.75   33.23 
   4   7 -17   14.08   21.56 
   2   4 -22   24.69   25.11 
  -2  -4  22   27.31   13.19 
  -2   4  22   28.52   14.19 
   2  -4 -22   21.76   36.21 
  -6   7   9   40.46   13.16 
   0 -12 -13  127.46   28.49 
  -4  12   4  165.40   39.57 
   4  12  -4  131.39   33.21 
   0 -12  13  121.61   24.48 
   0  12 -13  123.15   29.17 
   6   7  -9   36.19   17.60 
   4   7  15  215.70   43.85 
   0 -12 -13  134.84   29.87 
   0  12 -13  144.18   41.86 
   4  -7  15  254.11   50.06 
  -4  -7 -15  216.36   44.73 
  -4 -12   4  176.15   34.52 
   0  12  13  138.48   33.13 
  -4   7 -15  224.64   47.82 
   4 -12  -4  164.45   34.18 
   6  -7  -9   35.28   12.26 
   6  -6 -11   77.98   19.27 
  -3   1  22  140.97   32.86 
   4 -12   2   20.98   27.40 
  -3  13  -3   10.37   22.40 
   4  12   2   14.84   25.90 
   6  -6 -11   75.78   19.34 
   3   1 -22  157.50   34.65 
  -6   7  -6   87.47   23.00 
  -3 -13  -3   21.13   11.97 
  -2  -4 -21   26.07   11.41 
  -3  -1  22  182.46   40.61 
  -6  -7  -6   93.14   24.33 
   6   7   6   86.67   25.49 
  -4  12  -2   16.11   38.44 
   3  -1 -22  153.82   33.26 
   6  -7   6   87.82   30.02 
   6   6 -11   88.95   28.33 
  -4 -12  -2   15.43   27.39 
   3  13   3   12.84   49.46 
   2  -4  21   30.22   12.02 
   2   4  21   27.98   30.92 
   3 -13   3   12.75   38.46 
  -2   4 -21   39.46   17.23 
  -2  -4 -21   23.71   11.61 
  -2   4 -21   30.48   11.34 
   4   3 -20   31.50   43.80 
  -6  -6  -8   58.70   18.34 
   4  -3 -20   34.36   61.09 
  -4   3  20   37.42   57.95 
   3   3  20   38.86   15.79 
  -3  -3 -20   26.73   10.84 
  -6   6  -8   65.63   18.21 
  -4  -3  20   40.01   17.46 
  -3   3 -20   29.89   11.66 
  -3   3 -20   33.49   17.04 
  -3  -3 -20   32.96   19.34 
   6   6   8   64.24   17.95 
  -4   3 -18    3.16   13.05 
  -4  -3 -18    3.42    8.07 
   4   3  18    2.26    9.76 
  -4   3 -18    2.07    5.98 
  -4  -3 -18    0.93    8.32 
  -1 -13  10    1.36    4.51 
  -1  13  10    1.77    3.17 
   1  13 -10    1.51    7.74 
   1 -13 -10    1.66    5.18 
   1  13 -10    1.81    5.18 
   6  -1 -15    0.73    4.91 
   6  -1 -15    0.50    4.18 
  -1  13  10    1.74    3.50 
   6   1 -15    0.38    6.80 
  -3   5 -19    3.83    9.06 
   7  -1  -9    1.56    8.11 
  -6   1 -12   16.06   36.90 
   7   1  -9    2.58    4.37 
  -6  -1 -12   19.17   11.69 
   3   5  19    3.05   12.05 
  -3  -5 -19    2.18   13.51 
  -3  -5 -19    1.59    8.97 
  -3   5 -19    4.66    9.70 
  -7  -4  -2   35.42   14.01 
  -2   0  23    3.59    7.66 
   2   0 -23    0.57    4.53 
  -7   4  -2   43.26   16.18 
   7   4   2   29.83   10.11 
  -7   4  -2   47.63   13.47 
   2   0  22    5.58   13.86 
  -2   0 -22    4.10   11.45 
  -7  -2  -5  114.52   28.91 
   0 -14   6   -0.00    6.11 
  -2   0 -22    2.65   15.53 
   0  14   6    0.78    5.34 
  -7   2  -5  111.83   32.52 
   0 -14  -6    0.60    5.14 
   0  14   6   -0.11    5.21 
   0  14  -6    1.69    8.68 
   0  14  -6    0.83    6.00 
  -1   4 -22    2.81    8.39 
  -5  -9  -8   52.30   16.84 
   1  -4  22    1.91    9.70 
  -5   9  -8   48.61   17.34 
   5  -9   8   39.18   15.53 
  -1  -4 -22    3.08   11.86 
   1   4  22    3.17   13.29 
   5   9   8   53.95   56.32 
  -1  -4 -22    4.72   10.12 
  -7   3  -4    1.67    7.95 
  -7  -3  -4    2.04    7.38 
   6  -8  -6    7.42   17.19 
   6   8  -6    9.29   28.43 
  -6   8   6    7.59   14.15 
  -6   8  -3   57.40   17.05 
   2  12 -12   18.31   49.04 
  -2 -12 -11   21.75   29.92 
  -1   8 -19   77.94   20.30 
   2 -12 -12   20.06   27.62 
  -2  12  12   17.02   33.33 
  -2  12 -11   19.82   41.11 
   2 -12  11   24.09   11.36 
   1   8  19   69.81   19.64 
   2  12 -12   23.25   32.99 
   6   8   3   53.75   16.92 
  -5  -6 -13  271.97   52.32 
   2  12  11   14.87   39.06 
   6  -8   3   67.60   20.32 
  -5   6 -13  261.94   51.56 
  -6  -8  -3   59.82   20.63 
   5   6  13  234.89   43.26 
  -1  -8 -19   67.53   17.67 
  -2  12  12   17.16   23.86 
  -1  -8 -19   79.37   21.35 
  -1   8 -19   89.16   26.53 
   1 -12 -13  125.43   23.79 
   1  12 -13  132.73   28.02 
  -1  12  13  101.60   26.33 
   1 -12 -13  124.21   25.94 
   1  12 -13   97.42   35.96 
   2   7 -20   53.96   18.55 
   2  -7 -20   53.66   26.36 
   1  14   5   30.34   51.60 
  -1 -14  -5   33.39   52.34 
  -2   7  20   55.98   36.00 
  -1   7 -20   65.34   21.15 
   1 -14   5   32.52   11.77 
  -1  -7 -20   65.55   19.98 
  -1  14  -5   37.07   14.41 
  -1  -7 -20   62.96   18.19 
   1   7  20   70.76   22.33 
  -1  14  -5   33.80   14.71 
   2  -7 -20   65.73   19.91 
   2   7 -20   47.16   54.16 
  -1   7 -20   67.61   21.95 
   3 -13  -5   10.13   19.39 
   2   7  19    3.44    8.92 
  -5   0 -16   -0.29    8.18 
  -5   5 -14  205.41   38.45 
   5   5  14  207.13   33.14 
   2  -7  19    2.49    6.85 
  -3  13   5   11.70   18.52 
  -5   0 -16    0.64    5.11 
  -5   5 -14  201.12   36.69 
  -2  -7 -19    1.64    8.53 
  -5  -5 -14  189.40   35.03 
  -3 -13   5    9.38   24.37 
  -2   7 -19    3.04    8.35 
   3  13  -5    9.95   22.12 
  -3  13   5    6.09   16.32 
  -2  -7 -19    1.09    6.97 
  -1  -5  22    6.04   23.15 
   1   5 -22    5.42   17.13 
  -1   5  22    4.67   18.12 
   1  -5 -22    8.29   17.73 
   1  -5 -22    3.42   13.85 
   2  -8 -19   44.05   12.55 
   2   8 -19   40.02   15.17 
  -2   8  19   42.56   75.81 
   2   8 -19   25.87   46.01 
   2  -8 -19   51.26   17.56 
   2  -1 -23    0.67   10.13 
  -2  -1  23    1.48    6.24 
  -2   1  23    0.74    9.93 
   2   1 -23    1.46    9.87 
  -2  -1 -22   77.31   18.73 
  -2   1 -22   69.70   17.88 
   4  -5 -19    9.11   25.34 
   2  -1  22   69.20   17.84 
   0  -5 -22    0.53    5.71 
   0   5  22   -0.09    8.95 
   0  -5 -22   -0.23    7.42 
  -4   5  19   13.00   33.13 
   4   5 -19   15.84   19.68 
   2   8  18   30.89   37.03 
  -2   1 -22   61.07   18.17 
   0   5 -22   -0.21    8.34 
  -2  -8 -18   30.51   53.38 
  -2  -1 -22   74.40   23.95 
  -2   8 -18   32.53   15.02 
   2  -8  18   31.53   12.66 
   2   1  22   79.78   20.28 
   4   5 -19   15.59   43.25 
  -2  -8 -18   24.97    9.82 
   0  -5  22   -0.04    6.48 
   3  -9  15    9.59   22.97 
  -3  -9 -15    8.40   16.69 
   3   9  15   12.15   25.48 
  -3   9 -15    7.63   19.38 
   0  10 -17    4.54   11.05 
  -4   5 -17  112.49   25.22 
   0  10  17    4.51   17.35 
   0  10 -17    4.41    8.25 
   0 -10 -17    3.42    8.24 
  -4   5 -17   94.94   23.76 
   0 -10 -17    3.89    9.09 
  -4  -5 -17  117.91   26.42 
   4   5  17  132.85   25.89 
  -5 -10  -5    4.55   20.39 
   5 -10   5    3.98   10.29 
   5  10   5    8.67   22.26 
  -5  10  -5    5.05   13.15 
   7  -4  -6    2.18    8.92 
   7   4  -6    1.36    6.94 
  -7   4   6    0.82    4.81 
  -3  12  10   69.47   23.27 
   3 -12 -10   83.47   20.25 
  -3  12  10   71.92   19.77 
   3  12 -10   74.77   22.30 
  -1   0 -23    7.64   24.73 
  -2  14   0   25.47    9.95 
   2  14   0   22.13   47.00 
  -5   1 -16   83.70   20.69 
  -2 -14   0   16.10   36.93 
  -5  -1 -16  100.15   25.25 
  -2  14   1   10.18   22.69 
  -5   1 -16   95.43   23.63 
  -7   0  -6    1.24    7.77 
   2 -14   0   27.23   13.34 
  -2 -14   1   12.13   36.45 
   3  -7 -19    2.05   10.61 
   1   0  23   13.81   33.74 
   3   7 -19    3.52   10.19 
   3  -7 -19    2.01    8.09 
   2  14  -1   14.36   31.31 
  -2  14   1    6.82   17.46 
   2 -14  -1    7.68   22.62 
   3   7 -19    3.19   15.66 
  -3   7  19    2.86   11.29 
  -2  14   0   30.14   19.82 
   1  10 -17    1.34    7.99 
  -1  10  17    5.10    9.39 
   1 -10 -17    5.03   11.02 
  -1  -3  23    5.89   16.80 
   1   3 -23    3.70    8.59 
   1  10 -17    1.00    6.55 
   1  -3 -23    6.16   11.11 
   1 -10 -17    3.78   12.80 
  -1   3  23    2.68   10.96 
   4  12  -5   28.01   57.75 
  -4  12   5   24.45   46.19 
  -4 -12   5   20.53   33.53 
  -4 -12  -3   21.22   29.90 
  -4  12  -3   23.47   54.48 
   4 -12   3   21.01   36.36 
   4 -12  -5   25.61   12.22 
   4  12   3   21.29   40.45 
   4   8 -16   25.23   10.16 
   4  -8 -16   23.73   41.42 
   4   8 -16   28.31   17.97 
  -4   8  16   20.13   51.17 
   4  -8 -16   23.64    9.73 
   4  -8  14   11.75   16.94 
  -3   2  22    4.44   11.69 
   3   2 -22    8.15   24.69 
  -3  -2  22    7.67   13.24 
   4   8  14    9.41   19.19 
  -4   8 -14   15.37   24.08 
   3  -2 -22    1.48    8.66 
  -4  -8 -14   11.48   21.07 
   2  13  -9   19.43   41.56 
  -2  13   9   17.99   47.92 
  -2  13   9   19.32   33.26 
   2 -13  -9   20.26   24.78 
  -2 -13  -8   39.83   58.92 
   2  13   8   38.10   16.59 
   2  13  -9   20.32   40.98 
   2 -13   8   55.99   16.52 
  -2  13  -8   45.96   18.97 
   2 -14  -2   10.26   18.01 
   0  -3  23   49.28   16.71 
   2  14  -2    8.94   22.14 
  -2 -14  -1  219.86   41.63 
   0  -3 -23   40.46   16.59 
  -2  14   2    4.98   21.95 
   2 -14   1  238.71   37.84 
  -2  14  -1  187.63   29.53 
   2  14   1  290.48   46.65 
  -2  14  -1  223.51   37.72 
  -2 -14   2   11.66   21.43 
  -2  14   2    5.14   14.94 
   0  -3 -23   42.44   12.31 
   0   3 -23   34.49   15.87 
   0   3  23   40.35   16.52 
   2  14  -2    6.87   27.61 
  -3 -13  -4   28.32   12.37 
  -3  13  -4   18.16   48.57 
   3  13   4   18.33   51.94 
   3 -13   4   23.04   48.42 
   6   2 -15   14.30   14.58 
   7  -3  -8   10.23   17.66 
   7   3  -8    6.73   21.11 
  -6   2  15    9.61   29.12 
   6   2 -15   19.87   29.13 
   7  -3  -8    4.57   22.93 
   6  -2 -15   18.23    9.39 
   7  -2  -9  212.27   28.36 
  -7  -1  -6   -0.22    7.48 
  -6   2 -12   53.78   50.01 
  -6  -2 -12   69.20   21.29 
   7  -2  -9  251.46   35.30 
  -6   2 -12   50.58   14.28 
   7   2  -9  232.21   37.92 
  -7   1  -6    1.63    6.80 
  -1  -1 -23   23.29   11.33 
   3 -10 -15    6.83   11.42 
  -1  14   6    1.34    4.93 
   3  10 -15    5.99   17.49 
   3  10 -15   11.62   16.84 
  -3  10  15   10.71   23.94 
   3 -10 -15    7.31   15.32 
   1  14  -6    0.73    4.53 
  -1  -1 -23   24.57   12.47 
  -1 -14   6    0.74    4.85 
  -1   1 -23   15.08   44.01 
   1  -1  23   23.12   28.25 
   1   1  23   23.75   11.32 
   1  14  -6    0.65    4.35 
  -1  14   6    0.56    5.12 
   5  -7  12   10.34   20.52 
  -5  -7 -12   11.15   33.50 
  -5   7 -12   10.92   27.34 
   5   7  12   12.12   19.96 
  -1  -9 -18   26.05   11.41 
   5  -3 -18  276.08   39.79 
   5   3 -18  293.37   48.29 
  -1  -9 -18   26.36   39.76 
  -2   6  21    6.24    9.43 
  -1   9 -18   23.63   53.91 
   2   6 -21    6.69   17.87 
   1   9  18   19.81   48.28 
   5   3 -18  274.07   41.11 
   2  -6 -21    5.46   15.54 
  -1   9 -18   33.24   22.70 
   2   6 -21    4.83   23.63 
  -5   3  18  296.88   46.46 
  -3   6  20   13.52   28.31 
  -3   8  18   13.92   21.37 
   2  -6  20    0.77    4.33 
  -2  -6 -20    0.04    7.97 
   2   6  20    3.97   11.33 
   3   6 -20   16.33   29.46 
   3   6 -20   11.21   23.24 
   3  -8 -18   10.48   34.78 
  -2  -6 -20    2.36    5.38 
  -2   6 -20    2.66   13.10 
   3  -8 -18    8.64   23.10 
   3  -6 -20   12.80   40.54 
   3   8 -18    9.52   21.92 
   3   8 -18    7.42   24.78 
  -7  -4  -3  284.59   46.60 
  -5   8  13  195.78   32.54 
  -7   4  -3  228.21   33.86 
   5  -8 -13  207.90   32.99 
   5  -8 -13  219.63   51.38 
  -7   4  -3  251.80   43.36 
   5   8 -13  211.34   40.39 
  -3  11  13   56.69   19.42 
   3  11 -13   50.94   14.87 
   3  11 -13   53.01   40.48 
   3 -11 -13   56.93   68.13 
   3 -11 -13   67.52   18.88 
  -1 -13 -10   23.24   36.86 
   1 -13  10   21.85    9.67 
  -1 -13 -10   28.86   10.50 
  -1  13 -10   22.03   10.06 
  -1  13 -10   18.37   40.00 
   1  13  10   20.22   44.38 
  -1   6 -21    5.47   12.86 
   1   6  21    2.89   10.60 
  -1  -6 -21    2.85   10.53 
  -1  -6 -21    4.99   11.44 
  -1   6 -21    6.33   18.69 
   7  -5  -2  104.52   22.92 
  -7  -5   2  146.59   28.24 
   7   5  -2  139.59   28.20 
  -7   5   2  123.80   25.96 
   4  11 -10  205.09   38.49 
   5  10  -8    0.67    5.76 
   5 -10  -8    0.53    6.38 
  -5  10   8    1.50    5.87 
   7   5  -1  205.53   34.93 
   4 -11 -10  209.19   34.08 
  -7  -5   1  223.89   36.04 
  -4  11  10  242.42   37.97 
   5  -9 -11    7.03    6.83 
  -4  11  10  217.35   37.05 
  -5   9  11    4.04    8.75 
  -5   9  11    2.90    8.43 
   7  -5  -1  164.59   35.02 
   5   9 -11    3.01    9.10 
   4 -11   8    6.09    9.37 
  -4  11  -8    7.72   19.12 
   4  11   8   12.66   24.63 
  -5   4 -15    5.68   11.32 
  -5  -4 -15    5.80   13.40 
  -4 -11  -8    7.40   29.72 
   5   4  15    3.98    7.33 
  -5   4 -15    4.66    8.95 
   2  14  -3   18.83   32.71 
  -2  14   3   14.15   28.16 
  -2  14   3   15.71   35.84 
  -2 -14  -2   15.55   34.69 
  -2  14  -2   16.76   30.74 
  -2   2  23   12.78   41.08 
   2  14   2   14.64   37.00 
   2   2 -23   16.16   30.89 
   2  14  -3   19.55    8.59 
  -2  -2  23   11.40   28.93 
   2 -14   2   12.06   26.04 
   2 -14  -3   21.01   34.87 
  -2 -14   3   14.26   36.66 
   2  -2 -23   12.06   36.23 
  -2  -2 -22    0.40    5.46 
  -2  -2 -22    0.34    4.46 
   2  -2  22    0.16    5.00 
  -2   2 -22    0.66    6.68 
   2   2  22   -1.27    6.94 
  -2   2 -22   -0.23    9.25 
   7  -5  -3  305.15   52.41 
  -7  -5   3  300.98   42.81 
   2   9 -18   21.73   51.82 
   2  -9 -18   34.82   37.99 
   6   8  -7    8.50   29.48 
  -7   5   3  272.83   37.30 
   2   9 -18   17.77   36.76 
  -6   8   7    5.26   20.31 
   7   5  -3  214.78   34.75 
  -2   9  18   32.90   63.60 
   6  -8  -7    3.82   13.33 
   2  -9 -18   36.33   53.61 
  -6   8  -4   39.08   14.36 
   2  -9  17   91.59   19.53 
   6  -8   4   44.68   30.60 
  -2  -9 -17  107.32   24.79 
  -2  -9 -17   91.55   18.93 
  -2   9 -17   98.75   27.23 
   6   8   4   46.56   16.43 
  -6  -8  -4   47.46   16.92 
   2   9  17   91.64   22.26 
  -6   5  13    9.81   31.98 
   6   5 -13   10.03   42.77 
   6  -5 -13    9.84   15.25 
   6  -5 -13    4.72   22.23 
  -1 -11 -15   25.24   50.43 
   1  11  15   20.55   40.55 
   3 -13  -6    6.38   10.47 
  -3  13   6    8.41   16.80 
  -3 -13   6    6.15   17.10 
  -1 -11 -15   17.08   36.77 
  -1  11 -15   20.12   43.08 
  -1  11 -15   17.50   37.10 
   3  13  -6    6.14   16.96 
  -3  13   6    6.03   11.77 
   1 -11  15   22.16    9.10 
  -6   5 -10    4.73   16.68 
  -6   5 -10    5.85   12.77 
  -6  -5 -10    5.52   15.12 
   6   5  10    4.26   11.44 
   6  -4 -14  177.49   29.58 
   6   4 -14  155.37   38.31 
  -6   4  14  191.50   33.90 
   7   0 -10    0.33    4.74 
  -6   4 -11    5.98    9.35 
   6   4  11    3.71   12.24 
  -5   2 -16   41.90   20.31 
  -5   2 -16   29.11   12.13 
  -6  -4 -11    5.37   11.39 
  -6   4 -11    5.49   12.42 
  -5  -2 -16   43.08   16.75 
  -7  -5   0  175.29   33.19 
   7  -5   0  112.67   26.78 
   7   5   0  156.35   28.21 
   0  14  -7    5.78   25.52 
   0  14   7   16.97   28.98 
   0  14   7   12.45   24.31 
   0  14  -7    8.75   28.66 
   0 -14  -7   11.42   29.24 
   0 -14   7    9.56   26.24 
   1  14   6    4.49    7.12 
   7   4  -7  167.76   30.71 
   7  -4  -7  139.69   23.25 
   1 -14   6    3.20   11.10 
  -1  14  -6    3.44    8.60 
   7  -4  -7  149.69   26.62 
  -7   3  -5    0.77    8.44 
  -1 -14  -6    5.67   16.75 
  -1  14  -6    3.28   10.69 
   4   0 -21    1.12    6.75 
  -6   7  10   32.42   12.34 
  -4   0  21    0.12    6.36 
   4 -12  -6    2.62   11.47 
   4  12  -6    2.36   15.26 
   6   7 -10   20.17   16.71 
   6  -7 -10   33.86   12.85 
  -4  12   6    4.90   15.51 
  -4 -12  -4    1.04    7.02 
  -3 -12  -9    1.89    7.02 
   4 -12   4    1.56    8.56 
   4  12   4    1.28    9.18 
  -4  12  -4    2.87    6.28 
  -3  12  -9    2.82    5.35 
   3 -12   9    1.45   10.10 
   3  12   9    1.17    7.01 
  -4   0 -19   -0.78    6.35 
  -6  -7  -7   -0.11    7.68 
   6  -7   7    0.68    5.01 
  -4   0 -19    0.93    5.20 
  -6   7  -7    2.27    9.96 
  -1  12 -13   26.34   51.56 
   7   5  -4   72.26   18.94 
  -7   5   4   89.70   19.53 
  -1 -12 -13   25.44   23.73 
  -1 -12 -13   16.84   38.01 
   1  12  13   17.13   36.22 
  -1  12 -13   26.52   10.67 
  -7  -5   4   79.55   20.65 
   7  -5  -4   77.60   19.34 
   1 -12  13   23.98   10.41 
   0 -13  11    4.44   10.71 
   7  -1 -10    5.44   25.54 
   7   1 -10   12.19    8.85 
  -7   2  -6    1.94    9.14 
   0  13 -11    4.18   11.83 
   0  13 -11    3.36   10.46 
  -7  -2  -6    3.96   18.28 
   0 -13 -11    5.36   12.93 
   0  13  11    8.04   13.90 
   0 -13 -11   11.93   18.18 
  -1   2 -23    6.62   19.56 
   1   2  23    6.75   14.94 
   1  -2  23    6.44   20.64 
  -1  -2 -23    6.78   19.57 
  -1  -2 -23    5.64   13.76 
   5   6 -16   24.47   47.97 
  -5   6  16   45.13   15.61 
   5  -6 -16   36.37   39.78 
   5   6 -16   16.12   15.44 
  -3   4 -20    4.47    8.93 
   4   1 -21  216.61   36.93 
   4  -1 -21  183.81   37.60 
   2  14   3   14.64   30.98 
  -3   4 -20    0.85    6.77 
  -3  -4 -20    3.20   11.70 
  -4  -1  21  240.48   43.90 
   4   4 -20   23.60   14.32 
   2  14  -4    3.73    9.99 
   3   4  20    1.77    9.19 
  -2  14   4    1.92    5.78 
   4  -4 -20   15.42   32.23 
   2 -14   3   19.52   36.34 
  -2  14  -3   18.98   24.80 
  -2  14   4    2.86    9.24 
  -4   1  21  216.41   40.60 
   4   4 -20   17.60   34.43 
  -2 -14  -3   16.61   44.54 
  -2 -14   4    2.24    4.25 
  -3  -4 -20    2.73   11.50 
   2 -14  -4    4.17    8.79 
  -4   4  20   15.41   41.83 
   2  14  -4    0.32    3.39 
  -4  -1 -19   30.05   13.36 
  -4   4 -18   55.52   18.30 
   4   4  18   47.52   14.49 
  -4   4 -18   50.59   17.88 
  -4   1 -19   23.37   11.95 
   4   1  19   29.09   10.85 
  -4  -4 -18   41.01   15.25 
  -4  -1 -19   31.68   13.43 
  -4   1 -19   24.82   12.63 
   5  10   6    4.06   13.20 
   5   5 -17   45.26   21.47 
  -5   5  17   49.56   18.21 
   5  -5 -17   50.96   18.91 
   5   5 -17   34.51   11.66 
   3 -13   5    1.24    7.07 
  -3  13  -5    2.38   10.31 
  -3 -13  -5   -0.18    6.88 
   3  13   5    3.26   10.60 
   5 -10   6    3.12    6.25 
   7  -5   1   40.49   16.21 
  -7  -5  -1   27.14   13.44 
   7   5   1   19.09   42.37 
  -5  10  -6    3.11   10.60 
  -5 -10  -6    2.31    8.17 
  -3   0 -21    1.48    7.95 
   3   0  21    0.62    5.96 
  -3   0 -21    1.34    5.70 
   6  -6 -12   27.25   29.96 
   6  -6 -12   32.25   11.20 
  -6   6  12   25.95   11.29 
   6   6 -12   21.94   18.03 
   4 -10 -13   73.03   19.18 
  -6   6  -9    2.04    5.93 
  -6   6  -9    1.19    8.65 
   4 -10 -13   66.43   16.74 
   4  10 -13   66.74   22.56 
  -6  -6  -9    3.51    8.26 
   6   6   9    2.30    9.36 
  -4  10  13   74.85   19.95 
   4 -10  11   10.22   22.16 
  -4 -10 -11   17.65   32.71 
   4  10  11   15.72   34.32 
  -4  10 -11   10.84   33.05 
   3   3 -22  151.80   30.79 
  -3   3  22  163.15   34.36 
   3   9 -17    7.10    9.77 
  -3   9  17    5.16   12.68 
   3   9 -17    2.56   15.48 
   3  -3 -22  152.03   30.65 
   3  -9 -17    4.86   15.14 
   3  -9 -17    5.23    9.47 
  -3  -3  22  169.01   36.16 
   5   0 -19   46.13   16.19 
   3   5 -21   19.14   55.83 
   3   5 -21   18.28   42.82 
   3  -5 -21   28.88   61.47 
  -3   5  21   29.48   15.18 
  -5   0  19   48.45   17.91 
  -5 -11   1   30.12   11.78 
   2  11 -15   62.29   19.67 
  -7   4  -4    0.71    4.81 
   2 -11 -15   73.37   19.43 
   5  11  -1   30.83   48.84 
   2 -11 -15   70.28   19.02 
  -5  11   1   35.86   43.69 
  -7   4  -4    2.30    5.56 
  -2  11  15   69.66   21.91 
   5 -11  -1   19.39   48.65 
   2  11 -15   74.61   20.07 
  -7  -4  -4    1.28    7.21 
  -1  13  11   10.01   20.28 
   1  13 -11    8.40   13.36 
  -2  11 -14   58.29   20.86 
  -2 -11 -14   45.52   11.12 
   1  13 -11    8.73   19.00 
  -1  13  11   12.17   19.13 
   1 -13 -11   15.14   22.91 
  -2 -11 -14   46.92   16.44 
   2  11  14   47.31   51.06 
   2 -11  14   55.84   15.95 
  -6   3  15    1.36    5.87 
   6  -3 -15    0.82    7.27 
   6   3 -15    2.10    8.99 
  -3  -1 -21  180.95   32.39 
   5 -11  -2    6.32    9.60 
  -1  14   7   34.94   32.31 
  -3   1 -21  184.51   32.76 
  -3   1 -21  163.02   31.54 
   3  -1  21  166.87   27.83 
  -1 -14   7   28.57   36.54 
   3   1  21  194.21   33.28 
   1  14  -7   30.84   17.40 
  -1  14   7   32.36   13.67 
   5  11  -2    3.92   12.34 
  -5 -11   2    2.67   11.05 
   1 -14  -7   32.10   48.25 
  -5  11   2    6.17   14.39 
  -3  -1 -21  194.78   34.19 
   1  14  -7   40.68   13.75 
   7   5  -5   13.75   46.00 
   7  -5  -5   15.81   32.63 
  -7   5   5   18.17   35.75 
  -6  -3 -12    1.20    8.04 
   5  -9   9   10.63   23.00 
   7  -3  -9    3.24    6.37 
  -5   9  -9    8.04   24.79 
  -6   3 -12    1.99    5.74 
   7  -3  -9    1.67    6.11 
   7   3  -9    1.73    7.26 
   5   9   9    7.35   13.83 
  -5  -9  -9    8.40   27.06 
  -6   3 -12    2.28    8.42 
   0   8  20    7.89   17.47 
   1   8 -20   45.74   17.14 
   5  -7 -15    1.04    5.43 
   5   7 -15    2.23    6.52 
   1  -8 -20   58.03   16.10 
   5  -7 -15    0.51    4.32 
   1  -8 -20   50.62   26.88 
   0   8 -20    8.67   20.72 
   0  -8 -20    5.50   18.46 
  -5   7  15    0.86    6.66 
   1   8 -20   43.68   40.66 
  -1   8  20   53.05   20.33 
   0   8 -20   11.90   29.50 
   0  -8 -20    8.26    9.94 
   4  -9 -15    1.13    6.01 
   4  -9 -15    0.58    3.71 
  -5 -11   0   67.93   18.22 
   5  11   0   64.14   19.93 
  -5  11   0   85.52   27.04 
  -4   9  15    1.24    4.67 
   5 -11   0   76.63   21.82 
   4   9 -15   -0.01    9.86 
   4   9 -15    0.88    6.30 
   5  -8  11   13.40   40.04 
  -4  -9 -13   76.21   23.41 
  -5   8 -11   18.37   48.46 
  -4   9 -13   85.63   23.98 
   4   9  13   88.46   40.60 
   4  -9  13   95.72   24.24 
  -7   0  -7   42.81   17.26 
  -5  -8 -11   19.53   43.49 
   5   8  11   19.00   33.46 
   2  -5 -22   77.27   40.87 
   2   5 -22   75.39   22.35 
  -2   5  22   87.92   25.22 
   2   5 -22   76.36   22.13 
   2   5  21    4.00   13.99 
  -2   5 -21    3.26   15.81 
  -2   5 -21    2.91   17.31 
  -2  -5 -21    4.01   13.64 
  -2  -5 -21    6.20   11.74 
   2  -5  21    2.83   14.98 
  -3 -11 -12   36.21   14.37 
  -3  11 -12   53.58   19.95 
   3  11  12   46.81   16.66 
   5  -1 -19   36.04   13.14 
  -5   1  19   30.40   55.26 
  -5  -1  19   19.51   52.83 
   5   1 -19   29.82   12.57 
   3 -11  12   49.82   16.27 
  -1 -10 -17    9.21   16.83 
  -1  10 -17    9.57   17.67 
  -1 -10 -17   10.52   18.47 
  -1  10 -17    6.77   13.69 
   1  10  17    6.89   23.44 
   3  10  14    1.65    5.79 
  -3  10 -14    3.72   12.86 
   1  -7 -21    3.65    9.68 
   1   7 -21    1.15    5.58 
   1   7 -21   -0.27    9.91 
   1  -7 -21    3.81    6.22 
  -3 -10 -14    2.45   10.16 
  -1   7  21    4.18   13.65 
   3 -10  14    2.08    7.26 
   5  11  -3   13.06   24.64 
  -5  11   3    6.99   29.10 
  -5 -11   3    8.64   27.45 
   5 -11  -3    8.10   11.72 
   0   7 -21  285.23   44.87 
   0  -7 -21  340.87   48.17 
   0   7  21  387.14   46.06 
   0   7 -21  314.00   50.92 
   0  -7 -21  327.90   47.33 
   7  -2 -10    2.22    9.12 
   7   2 -10    6.66   13.54 
   6  -8  -8   15.06    8.89 
  -6   8   8   19.44   40.37 
   6   8  -8   11.18   44.59 
  -6  -8  -5    1.75    4.79 
   6  -8   5    0.70    5.41 
  -1  -4  23  104.59   26.15 
  -3  13   7   30.33   11.28 
   1  -4 -23   88.45   22.39 
  -1   4  23   98.64   25.43 
  -6   8  -5    0.91    5.85 
   1   4 -23   89.12   24.07 
   3  13  -7   16.80   35.28 
   6   8   5    0.57    6.91 
   3 -13  -7   26.04   37.60 
  -3  13   7   25.93   41.26 
   3  -7  18   12.76   25.65 
  -3   7 -18    8.30   21.90 
  -3  -7 -18   13.19   22.19 
   3   7  18   13.28   29.22 
  -3  -7 -18   15.84    8.06 
  -7   5  -2    6.51   10.50 
   2  -3 -23    1.11    7.47 
  -2   3  23    2.92   17.96 
   2   3 -23    2.00    5.74 
   7  -5   2    4.90   16.05 
  -7  -5  -2    3.51   16.30 
   7   5   2    1.98   10.67 
  -2  -3  23    3.73   14.12 
  -7   1  -7    1.81    7.77 
  -2  -3 -22  142.79   28.99 
   2   3  22  153.22   30.38 
  -2  -3 -22  144.05   28.19 
  -7  -1  -7    2.11    5.87 
  -2   3 -22  131.94   24.38 
   2  -3  22  145.18   26.98 
  -2   3 -22  145.94   31.11 
  -3  12  11    6.52   19.19 
   3  12 -11    2.45    8.39 
  -3  12  11    7.35   10.72 
   3  12 -11    3.27   10.89 
   3 -12 -11    6.91   13.75 
   2 -13 -10   59.20   17.57 
  -1  -5 -22   83.04   27.09 
   6   0 -16    7.50   21.28 
  -1   5 -22   75.12   22.32 
   2  13 -10   68.17   21.85 
  -2  13  10   59.75   16.92 
   2  13 -10   60.42   17.08 
   1  -5  22   87.99   21.05 
   1   5  22   83.18   44.08 
   6   0 -16    9.90   31.72 
  -2  13  10   53.18   16.15 
  -1  -5 -22   88.46   23.33 
  -4  -2  21   11.30   42.24 
  -2  13  -9    1.23    8.71 
   2  13   9    1.02    6.97 
   2 -13   9    1.71    9.93 
  -5 -11  -1    1.96    5.81 
   5 -11   1    1.00    7.38 
   4   2 -21   11.96   16.70 
   5  11   1    0.88    5.88 
   4  -2 -21   14.35   34.19 
  -2 -13  -9   -0.48    8.27 
  -4   2  21   14.18   39.81 
   5 -10  -9    4.70   14.05 
  -5  11  -1    2.73    6.73 
  -5  10   9    3.78    6.07 
   5  10  -9    6.04   17.85 
  -2  14   5    2.67   13.95 
   2  14   4    5.94   13.29 
   2  14  -5    5.10    9.32 
  -2  14  -4    1.95    9.64 
   2 -14  -5    4.09    9.45 
   2  14  -5    5.40   10.35 
   0   4 -23   39.78   16.48 
  -2 -14   5    3.88   11.67 
   2 -14   4    3.73    6.42 
   0  -4  23   45.35   16.16 
  -2  14   5    2.14    5.99 
   0  -4 -23   41.21   23.68 
   0   4  23   40.95   78.77 
  -2 -14  -4    3.07    9.64 
   0  -4 -23   57.08   19.87 
   4   2  19    2.23    6.36 
  -4   2 -19    2.79   10.23 
  -4   2 -19    3.08   11.27 
  -4  -2 -19    1.41    5.26 
  -4  -2 -19    2.45    7.10 
  -6   0 -13   -0.66    9.79 
   0 -12 -14    7.50   19.25 
   0 -12 -14    7.98   20.85 
   0  11 -16   75.95   22.40 
   0  12 -14    5.94   17.11 
   0  12 -14   12.53   21.56 
   0  12  14   10.72   16.47 
   4 -12  -7    1.02    4.33 
   7  -4  -8   12.50   32.84 
   4  12  -7    1.02    8.01 
  -4 -12  -5    2.04    5.34 
   0  11 -16   65.10   21.43 
  -4  12   7    1.05    4.45 
   7  -4  -8   12.92   35.94 
  -4  12  -5    0.24    6.01 
   7   4  -8    9.05   41.10 
   0  11  16   58.88   19.94 
   0 -11 -16   69.97   18.95 
   0 -11 -16   56.32   17.02 
   4 -12   5    1.50    6.57 
   4  12   5    0.26    8.44 
   2 -12  12  105.34   22.38 
  -2  12 -12  127.04   30.64 
   2 -12 -13   46.31   30.75 
  -2 -12 -12  101.29   24.84 
   2  12  12   97.63   23.49 
   2 -12 -13   43.58   38.80 
   2  12 -13   30.05   14.91 
  -2  12  13   43.73   15.21 
   2  12 -13   34.80   21.45 
  -6  -9   1   44.07   19.17 
  -5   3 -16  374.49   52.89 
   6  -9  -1   29.55   13.63 
  -5   3 -16  396.09   44.78 
   6   9  -2   14.69   26.25 
   6  -9  -2    8.35   16.60 
   5   3  16  293.69   40.83 
  -5  -3 -16  327.26   51.27 
  -6  -9   2    6.92   17.60 
   6   9  -1   42.20   53.94 
   3  -8  17   74.19   19.39 
   0  -9 -19  278.07   41.13 
   3   8  17   63.59   20.21 
  -3   8 -17   70.48   23.17 
   0   9 -19  291.54   43.78 
   0   9 -19  285.30   69.60 
   0   9  19  326.39   52.62 
  -3  -8 -17   65.86   19.11 
   0  -9 -19  272.05   43.95 
   5   4 -18   39.98   17.27 
   5  -4 -18   39.55   15.01 
  -5   4  18   38.62   16.27 
   5   4 -18   36.96   13.49 
   2 -10 -17   26.18   29.88 
   1  -9 -19   10.35   19.38 
  -1   9  19    7.52   18.30 
   1   9 -19   14.75   23.97 
   2  10 -17   25.24   30.63 
   2 -10 -17   28.43   25.11 
   2  10 -17   17.60   45.20 
   1   9 -19   12.82   28.30 
  -2  10  17   14.82   37.45 
   1  -9 -19   10.78   16.48 
   5 -11  -4    2.03    7.45 
  -5  11   4    2.43    8.60 
   5  11  -4    1.85    4.87 
  -2 -10 -16    1.49    3.80 
  -2 -10 -16    1.71    5.77 
   2 -10  16    0.41    4.91 
   2  10  16    1.23    8.92 
  -2  10 -16    1.07    7.84 
  -5 -11   4    1.77    6.94 
  -6   1  16    1.18    5.45 
   1  14   7   53.89   13.25 
   1 -14   7   50.12   15.59 
   6  -1 -16    1.72    7.67 
  -1 -14  -7   57.54   17.75 
  -1  14  -7   41.83   13.14 
   6   1 -16    0.61    3.68 
  -1  14  -7   47.24   17.88 
   1  14   7   48.36   17.10 
   1 -11 -16    3.96   17.42 
   1 -11 -16    4.88   15.50 
  -1  11  16    3.63    7.01 
   1  11 -16    0.61    5.98 
   1  11 -16    2.49    5.91 
   6  -9  -3    2.27    6.37 
  -6  -9   3    0.59    5.34 
  -6  -1 -13   -0.33    8.70 
  -6   1 -13    1.34    6.82 
   6   9  -3   -0.13    9.88 
   6   9   0   63.70   19.26 
  -7   5   6   42.69   13.95 
  -6  -9   0   68.09   19.38 
   6  -9   0   61.32   19.32 
   7  -5  -6   37.14   14.27 
   7   5  -6   34.02   13.91 
  -3  -2 -21   48.46   18.40 
  -3   2 -21   46.14   14.91 
  -3   2 -21   48.08   16.67 
   3   2  21   50.43   48.05 
  -3  -2 -21   52.32   17.30 
   1 -12 -14    9.78   18.49 
  -7  -3  -6    8.66   29.48 
  -1  12  14   11.82   19.84 
   1  12 -14    9.49   18.92 
  -7   3  -6   10.45   17.48 
   1 -12 -14    9.26   21.06 
   1  12 -14    8.16   20.14 
  -3   6 -19  154.48   32.91 
  -1  -3 -23   31.24   11.70 
  -3  -6 -19  137.59   29.80 
   3   6  19  144.83   31.06 
   1  -3  23   31.03   12.95 
  -3  -6 -19  107.40   21.75 
  -1  -3 -23   19.65   41.29 
  -1   0  24    0.49    5.17 
  -3   6 -19  126.88   26.98 
   1   3  23   25.66   56.65 
   1   0 -24   -0.11    9.51 
  -1   3 -23   24.47   13.38 
   0 -14  -8    0.99    8.02 
   0  14  -8    1.17    4.17 
   0  14   8    1.45    7.81 
   0  14  -8    1.97    9.93 
   0  14   8    1.12    5.57 
   0 -14   8    1.26    4.40 
   4  11 -11   31.66   16.22 
  -4  11  11   23.41   43.23 
  -4  11  11   32.79   12.78 
   4 -11 -11   27.98   27.80 
  -4 -11  -9    2.42    7.39 
   4  11   9    2.20    7.40 
   4 -11   9    1.90    9.18 
  -4  11  -9    0.02    5.72 
   5   2 -19   95.23   26.88 
   5  -2 -19  102.04   24.11 
   5   2 -19   78.18   19.43 
  -5   2  19   83.74   23.13 
  -3 -13  -6   11.47   37.68 
   5  11   2   94.33   24.29 
   7   0 -11  133.64   26.17 
   3 -13   6   12.05   28.36 
  -3  13  -6   12.74   20.50 
   3  13   6    7.60   32.09 
  -5 -11  -2  105.74   26.46 
   5 -11   2  101.83   24.76 
  -5  11  -2  106.60   26.15 
   0   0  24  380.48   54.70 
   0   0 -24  393.27   43.75 
   5  -9 -12   68.90   18.02 
  -5   9  12   65.63   17.75 
   5   9 -12   66.83   26.08 
   4  -7 -18    4.78   11.52 
   5   6  14   44.89   14.54 
   4   7 -18    7.29   15.73 
  -5  -6 -14   47.23   16.51 
  -1  13 -11    1.25   10.56 
   1  13  11    0.86    8.63 
   4   7 -18    7.77   15.22 
   4  -7 -18    9.55   21.46 
   1 -13  11    0.95    6.41 
  -1  -1  24    1.49    9.55 
  -1 -13 -11    0.84    3.59 
  -1   1  24    0.75    5.24 
  -5   6 -14   46.86   37.58 
  -4   7  18    7.33   11.71 
  -5   6 -14   63.58   21.32 
  -1 -13 -11    1.82    8.84 
   1  -1 -24    1.19   10.74 
   1   6 -22  176.66   39.05 
   1  -6 -22  207.21   35.96 
   4  -7  16  205.63   37.83 
   1   6 -22  171.69   33.38 
   1  -6 -22  181.05   27.97 
   4   7  16  173.73   31.71 
  -4   7 -16  187.84   38.70 
  -1   6  22  205.29   39.37 
  -4  -7 -16  162.19   31.63 
  -7   2  -7   29.42   45.55 
   6  -9   1   17.14   34.76 
  -6  -9  -1   26.63   15.63 
  -6   9   4   10.99   35.46 
  -6   9  -1   19.85   36.21 
   6   9   1   13.39   28.75 
   6   9  -4   10.83   27.07 
   6  -9  -4    9.54   28.02 
  -7  -2  -7   32.19   33.81 
   0   6 -22  121.62   32.24 
   4   6 -19    1.66    6.70 
   4  -6 -19   -0.05    8.59 
  -4   6  19    0.66    8.81 
   0   6 -22   97.67   27.95 
  -7  -4  -5  118.31   30.49 
   0   6  22  147.13   36.53 
   0  -6 -22  103.72   25.75 
  -7   4  -5  129.66   33.45 
   4   6 -19   -0.71    6.52 
   0  -6 -22  101.73   25.82 
   6   7 -11   52.35   20.91 
   6  -7 -11   61.06   17.89 
   6  -7 -11   51.50   16.48 
   7  -5   3   27.04   16.69 
  -7  -5  -3   27.13   32.40 
   7   5   3   24.55   14.49 
  -4  -6 -17   -1.30    8.88 
   4   6  17    1.62    5.90 
  -4   6 -17    0.76    8.97 
  -4   6 -17    0.63    4.61 
  -7   5  -3   19.20   27.62 
   7  -1 -11    1.65    9.94 
  -6  -7  -8    9.95   26.46 
  -6   7  -8    7.55   23.71 
   6  -7   8   13.39   26.36 
   6   7   8    7.98   35.51 
   7   1 -11    4.17   15.02 
   5  10   7    1.72    6.39 
   5 -10   7    3.08   10.72 
  -5  10  -7    1.90    8.87 
   0   1 -24    1.85    8.35 
  -5 -10  -7    0.83    4.21 
   0  -1 -24    1.59    5.57 
   0   1  24    1.56    6.21 
   5  -8 -14  110.59   25.75 
   5  -8 -14  124.74   29.70 
  -5   8  14  113.22   41.25 
   5   8 -14   87.07   29.51 
  -5  11   5   20.46   38.64 
   5 -11  -5   17.30   41.46 
   5  11  -5   17.03   33.75 
  -5   5 -15    1.07    5.04 
  -5   5 -15    0.33    6.93 
   5   5  15    1.09    6.54 
  -5  -5 -15    0.21    5.02 
  -1 -14   8    9.00   24.85 
   1 -14  -8    8.08   18.98 
  -1  14   8    9.83   19.05 
   1  14  -8   11.38   32.34 
   1  14  -8   12.62   18.43 
  -1  14   8    8.13   25.10 
   3 -11 -14  121.66   30.31 
   3  11 -14  123.91   33.34 
   3 -11 -14  123.70   34.52 
  -3  12 -10    5.22   21.05 
   2 -14  -6   73.32   35.35 
   3  12  10    8.66   16.66 
   3 -12  10    6.47   17.77 
   3  11 -14  107.47   31.40 
  -2 -14  -5    2.71    9.06 
  -2 -14   6   85.30   21.62 
   2  14  -6   68.58   22.03 
  -2  14   6   80.67   23.40 
   2  14   5    1.83    9.23 
  -3  11  14  120.51   31.01 
  -2  14   6   74.52   22.14 
   2  14  -6   89.44   26.88 
   2 -14   5    4.30   17.09 
  -2  14  -5    5.96   14.67 
  -3 -12 -10    6.13   19.27 
   6   2 -16   40.04   13.54 
  -6   2  16   50.02   30.94 
   6  -2 -16   39.74   13.79 
   6   2 -16   54.96   20.90 
  -5   7 -13   11.66   44.14 
  -5  -7 -13   12.51   25.81 
   5   7  13    9.64   18.01 
   5  -7  13   14.92   37.26 
  -6  -2 -13    3.42   12.38 
  -6   2 -13    2.47   15.17 
   6  -5 -14   96.72   23.67 
  -6   5  14   96.00   25.96 
   6   5 -14  115.95   32.21 
   3  -9  16  132.92   31.38 
  -3  -9 -16  133.54   32.24 
  -3   9 -16  137.54   37.32 
   7   3 -10   47.18   17.24 
   7  -3 -10   36.64   10.58 
   3   9  16  140.91   34.38 
   6   5  11   30.55   41.14 
  -6   5 -11   27.79   59.04 
  -6  -5 -11   24.07   13.48 
  -6   5 -11   30.44   12.22 
   4   8 -17   11.49   38.27 
   3 -13  -8   28.14   37.52 
   4   8 -17   19.25    9.33 
  -3  13   8   32.69   12.09 
   4  -8 -17   19.12   38.05 
  -3  13   8   34.55   41.18 
  -4   8  17   26.83   35.48 
   4  -8 -17   22.17   10.40 
   3  13  -8   31.50   44.76 
   3  10 -16   97.21   24.35 
  -4   8 -15    2.56   12.03 
   4   8  15    1.27    5.79 
  -7   5   7    3.95   13.36 
   7  -5  -7    2.27    6.29 
  -3  10  16   89.02   25.63 
   7   5  -7    1.99   13.56 
   4  -8  15    1.69   10.47 
  -4  -8 -15    1.72    5.02 
   3 -10 -16  121.57   27.93 
   3 -10 -16  123.08   30.42 
   3  10 -16   91.85   38.12 
  -3   4  22   -0.49    9.25 
   3  -4 -22    1.23    5.64 
  -3  -4  22    1.15    8.05 
   6  -8  -9    5.55    8.55 
   3   4 -22    1.30    6.30 
   6   8  -9    7.55   21.45 
  -6   8   9    4.35   16.12 
   5  11   3   38.27   18.91 
   4   3 -21  185.48   39.14 
  -5 -11  -3   33.91   14.14 
   6  -9  -5    0.47    8.70 
   6   9  -5    0.87    6.19 
  -6  -8  -6   14.34   41.23 
   4  -3 -21  204.56   44.12 
  -5  11  -3   28.62   49.23 
  -4   3  21  208.75   46.22 
   6  -8   6    8.41   20.42 
  -6   9   5    1.01    6.31 
   6   8   6    9.04   28.24 
  -6   8  -6    8.46   30.70 
   5 -11   3   41.20   15.53 
  -4  -3  21  209.28   47.84 
  -5   0 -17    2.62   12.84 
  -6   9  -2   33.61   54.59 
  -6  -9  -2   31.56   28.82 
   6  -9   2   28.06   48.78 
   6   9   2   24.12   10.99 
  -5   0 -17    4.63   15.58 
  -4  -3 -19   22.91   47.83 
  -4   3 -19   27.83   14.80 
  -4   3 -19   22.99   44.43 
   4   3  19   21.24   24.32 
  -4  -3 -19   17.86   36.63 
   6   4 -15   10.23   23.47 
  -4  12   8    8.32   27.02 
   0 -13 -12    3.77    8.14 
   0  13 -12    3.28   10.61 
   4 -12  -8   11.27   16.70 
   0 -13  12    2.33    8.08 
  -6   4  15   10.42   35.12 
   0  13 -12    2.94   10.70 
   0 -13 -12    2.44   11.89 
   6  -4 -15    9.49   25.11 
   0  13  12    5.29   10.27 
   4  12  -8   10.66   14.68 
  -7  -6   2    0.03    4.17 
  -4  12  -6    1.32    9.94 
   7  -6  -2    1.59    4.38 
   4 -12   6    2.59    7.80 
  -4 -12  -6   -0.05    7.87 
   7   6  -2    0.83   10.41 
   0 -10 -18   11.69   26.94 
  -6  -4 -12  121.40   32.72 
   0 -10 -18   16.30   17.72 
  -6   4 -12  113.25   35.29 
  -6   4 -12  125.27   29.95 
   0  10 -18   10.20   22.42 
   0  10  18   10.49   16.58 
   0  10 -18   10.25   22.72 
  -1   2  24    1.54    7.62 
  -1  -2  24    2.32   12.52 
   1  -2 -24    1.55    8.13 
   1   2 -24    2.94   12.14 
   7   4  -9  198.27   42.72 
   7  -4  -9  230.66   27.97 
   7  -4  -9  210.52   39.30 
   7  -6  -1    3.14    9.75 
  -7   6   1    2.43    6.75 
   7   6  -1    0.67    8.44 
  -7  -6   1    1.93    7.72 
   3   0 -23   29.23   61.44 
  -3   0  23   38.72   34.05 
   1 -10 -18   44.06   14.09 
   1  10 -18   51.39   19.29 
   1  10 -18   49.19   19.25 
   1 -10 -18   51.30   17.78 
  -1  10  18   55.21   20.89 
  -7   6   3    7.72   16.18 
   7   6  -3   10.88   22.81 
  -7  -6   3    9.42   22.47 
   7  -6  -3   10.27   27.12 
   0  15   0    1.16    8.01 
   0  15   0    1.68    8.21 
   0 -15   0    0.87    5.16 
   6  -6 -13    4.78   22.88 
  -4   5  20    0.98    6.58 
  -3  -5 -20    0.62    3.96 
  -3   5 -20    0.65    5.64 
   4  -5 -20    1.20    8.78 
  -3  -5 -20    0.17    6.93 
   3   5  20    1.02    3.58 
   6  -6 -13    5.45   27.52 
   4   5 -20    0.72   10.81 
   6   6 -13   12.08   16.08 
  -6   6  13    6.36   21.32 
   4   5 -20    0.73    6.36 
  -3   5 -20   -0.26    6.29 
   7  -2 -11   18.26   22.95 
  -5   1 -17    1.55    8.06 
   7   2 -11    8.83   22.32 
   7  -2 -11   13.93   15.30 
  -5   1 -17    0.60    5.41 
  -5  -1 -17    0.69    6.60 
  -4  -5 -18    2.00    8.39 
  -4   5 -18    3.47    4.92 
  -4   5 -18    1.73    8.11 
   0   2 -24   74.12   23.22 
  -6   6 -10   80.48   25.88 
   6   6  10   90.00   22.87 
  -6   6 -10   80.04   22.85 
   4   5  18    2.03    4.89 
   0   2  24   78.42   24.91 
   0  -2  24   87.35   24.85 
   0  -2 -24   62.06   28.70 
  -6  -6 -10   89.74   25.77 
   0 -15   1   16.01   24.48 
   2  -8 -20   73.59   21.83 
   0  15  -1   14.35   12.15 
   0  15   1    7.81   23.13 
  -1  -8 -20    9.45   24.54 
  -3  -3 -21   73.84   36.27 
   2   8 -20   61.99   20.02 
   0  15   1    9.32   27.16 
   3   3  21   76.19   22.53 
  -1   8 -20   14.55   28.01 
   1   8  20   18.94   50.33 
  -1  -8 -20   15.72   32.39 
   0  15  -1    8.04   26.94 
   2  -8 -20   64.12   17.63 
  -1   8 -20    9.29   29.60 
  -3   3 -21   84.81   35.35 
  -2   8  20   86.60   28.26 
  -3   3 -21   80.99   23.41 
   2   8 -20   63.93   23.44 
   0 -15  -1    6.75   20.83 
  -3  -3 -21   71.75   21.10 
  -2  -8 -19  111.57   28.18 
  -2   8 -19  100.24   29.18 
   2  -8  19   91.09   21.68 
  -5  10  10    5.94   15.33 
  -2  -8 -19   74.23   19.69 
   5 -10 -10    4.50   11.23 
   5  10 -10    9.23   32.73 
   2   8  19   99.59   38.17 
  -7  -6   0   36.19   13.90 
   7  -6   0   31.47   13.49 
  -7   6   0   41.25   13.71 
   7   6   0   38.04   13.13 
   2   7 -21  194.46   44.08 
   2   7 -21  227.22   49.55 
   3  -1 -23   15.10   32.11 
   5  11  -6    7.62   17.10 
  -3  -1  23   11.62   26.20 
  -5  11   6    8.65   20.44 
   2  -7 -21  169.09   37.56 
  -3   1  23   13.49   38.45 
   5 -11  -6    5.88   16.74 
   3   1 -23   11.34   20.85 
  -2   7  21  219.07   49.76 
  -5   9 -10    4.19   15.73 
   5  -9  10   10.64   25.61 
   5   9  10   13.40   19.82 
  -2  -4  23   -0.44    7.78 
  -5  -9 -10    8.49   32.51 
   2   4 -23    1.73    7.10 
  -2   4  23    0.91    8.85 
   2  -4 -23    2.72    7.94 
  -2  -4 -22    4.74    7.93 
  -2   4 -22    2.89    9.47 
  -1  13  12    3.39   10.20 
  -2   7 -20   20.57   54.22 
   2   4  22    3.36    8.52 
  -2  -4 -22    2.86   11.30 
   2  -4  22    3.06    6.70 
   3   7 -20    1.66    6.49 
  -2  -7 -20   27.00   10.86 
  -1 -12 -14   20.02   41.75 
   1 -13 -12    2.19    9.24 
  -3   7  20    2.01   11.37 
  -1 -12 -14   19.04   46.46 
  -2  -7 -20   37.93   37.21 
   1 -13 -12    3.48    5.41 
   1 -12  14   25.33    9.60 
   1  13 -12    1.41    9.30 
   3  -7 -20    0.52    6.20 
  -1  12 -14   23.95   55.06 
   3  -7 -20    1.18    3.31 
   1  13 -12    2.44    8.80 
   1  12  14   14.67   42.37 
   3   7 -20    1.54    6.82 
   2   7  20   17.06   44.31 
  -1  14  -8    0.72    6.94 
   1 -14   8   -0.01    6.04 
  -1 -14  -8    0.43    7.64 
   1  14   8   -0.01    3.94 
   1  14   8    1.58   11.41 
  -1  14  -8    0.49    3.67 
  -7   1  -8  187.78   43.11 
  -7  -1  -8  217.25   48.20 
   5   3 -19    0.77    5.44 
   5   3 -19    1.48    5.16 
   5  -3 -19    0.46    3.74 
  -5   3  19    1.56   10.86 
   7   5   4    0.30    5.77 
   7  -5   4   -0.46    8.33 
  -7  -5  -4    1.60    5.98 
  -7   5  -4    0.74    4.73 
  -1   7 -21   72.07   23.63 
   1   7  21  119.39   32.45 
   1  11  16   10.79   18.08 
  -1   7 -21   96.71   25.24 
  -1 -11 -16    8.64   18.14 
   7  -6  -4    4.08   13.91 
  -1 -11 -16    6.96   21.15 
  -1  -7 -21  105.78   26.76 
  -7   6   4    5.01    9.76 
   7   6  -4    2.30    9.00 
  -1  11 -16    9.92   17.58 
  -1  -7 -21  110.92   26.77 
   4 -10 -14   88.43   22.00 
   4  10 -14   79.25   26.16 
  -4  10  14   81.76   23.12 
   4 -10 -14   85.68   23.12 
   3  -8 -19   52.04   18.95 
   3  -8 -19   41.78   15.82 
   4 -10  12  120.34   32.71 
  -4 -10 -12  128.77   32.99 
   3   8 -19   50.40   23.66 
  -4  10 -12  125.17   32.98 
  -3   8  19   47.23   19.24 
   3   8 -19   54.61   22.49 
   4  10  12  114.24   29.15 
  -5   4 -16    2.90   11.00 
   0  15  -2   15.38   35.13 
   0  15   2   23.68   13.12 
   0 -15  -2   13.87   22.59 
   0  15   2   13.84   36.07 
   0 -15   2   16.65   26.64 
  -5  -4 -16    1.67    6.31 
   0  15  -2   10.56   39.28 
   2  13 -11    2.37    7.26 
   3 -13   7    8.06   29.19 
  -2  13  11    2.92    6.20 
   2 -13 -11    1.94    9.20 
   3  13   7   10.87   25.96 
  -2  13  11    2.71    4.35 
  -3  13  -7    7.74   17.30 
   2  13 -11    1.49    9.80 
  -3 -13  -7    9.70   35.17 
  -2  13 -10  178.28   44.60 
   2 -13  10  186.41   40.11 
  -2 -13 -10  204.14   43.13 
   2  13  10  193.31   42.91 
  -7  -3  -7   10.40   32.73 
  -7   3  -7   14.45   25.25 
   0  14  -9    1.79   10.20 
   0 -14  -9    0.79    3.87 
  -6   9   6   72.96   22.05 
   6  -9  -6   70.52   20.73 
   0  14  -9    1.54    5.01 
   0 -14   9    1.48    7.88 
   0  14   9    1.17    3.34 
   0  14   9    2.18    9.08 
   6   9  -6   77.82   41.83 
  -1   9 -19    1.41    6.47 
   6  -9   3    9.11   36.00 
  -1  -9 -19    0.81    5.69 
   3  12 -12    5.54   18.51 
  -6  -9  -3   14.15   46.11 
  -1   9 -19    0.71    4.44 
  -6   9  -3   12.72   30.46 
  -3  12  12    3.86   15.60 
   3  12 -12    3.30   12.58 
   6   9   3   13.37   43.17 
   3 -12 -12    3.30   12.64 
   1   9  19    2.65    5.19 
  -3  12  12    3.26    9.46 
  -1  -9 -19    0.57    5.74 
   7  -6   1   32.64   14.28 
   7   6   1   30.04   11.83 
  -7  -6  -1   29.77   58.37 
  -7   6  -1   30.30   11.68 
   5  -6 -17  168.69   38.63 
   5   6 -17  217.20   49.78 
  -5   6  17  172.34   38.95 
  -2   0  24   85.41   25.46 
   2   0 -24   97.89   27.62 
   1   4  23   10.98   40.39 
   1  -4  23    8.38   29.16 
  -1   4 -23    8.93   27.78 
  -7  -4  -6    4.62    9.00 
  -7   4  -6    8.03   17.90 
  -1  -4 -23    8.71   28.40 
  -1  -4 -23    9.48   27.55 
  -2   0 -23    0.07    6.31 
  -2 -14   7   10.84   31.07 
  -5   8 -12    9.15   28.64 
  -2   0 -23    0.45    5.90 
   2  14  -7   11.61   33.01 
  -2  14   7   13.87   33.63 
  -2  14   7   18.86   28.13 
   2  14  -7   14.41    8.23 
   5  -8  12   10.37   26.64 
  -5  -8 -12    6.95   13.49 
   2 -14  -7   14.41   38.92 
   5   8  12   10.88   20.70 
   2   0  23   -0.24    5.59 
   1  -5 -23    6.71   15.70 
   2  14   6    7.07   16.13 
  -1  -5  23    5.95   21.50 
   2 -14   6    4.65   14.15 
  -2 -14  -6    4.09   22.33 
  -2  14  -6    8.73   13.79 
  -1   5  23    8.01   24.65 
   1   5 -23    8.71   20.05 
   5 -11   4   75.66   22.80 
   5  11   4   73.69   22.26 
  -5  11  -4   68.93   22.95 
  -5 -11  -4   71.52   23.47 
  -2   9  19    5.27   10.96 
   2  -9 -19    1.95    5.30 
   2   9 -19    3.76    5.30 
   2  -9 -19    1.69    7.76 
  -2  -9 -18    2.30    7.96 
   2  -9  18    0.53    2.77 
  -2  -9 -18    5.43   13.93 
  -2   9 -18    3.74   12.85 
   2   9  18    3.94    8.25 
  -3   6  21   24.85   49.44 
   3   6 -21   22.63   56.55 
   6   3 -16  213.44   55.79 
   3  -6 -21   24.49   45.61 
   3   6 -21   20.05   46.85 
  -6   3  16  274.66   37.80 
   6  -3 -16  246.02   29.40 
  -5   2 -17    0.92    5.09 
  -5  -2 -17    1.97    9.19 
  -6   3 -13    1.13    7.62 
   0  -5 -23   49.32   17.62 
  -6   3 -13    0.75    4.41 
   0   5 -23   47.64   19.82 
   0  -5  23   62.27   20.11 
  -6  -3 -13    1.15    8.90 
   0   5  23   66.95   23.00 
   0  -5 -23   51.20   16.22 
  -3 -11 -13  146.53   35.93 
  -3  11 -13  173.30   41.81 
   3 -11  13  162.05   35.62 
   3  11  13  247.45   36.45 
   7  -5  -8    0.71    2.79 
   7   5  -8   -0.19    7.55 
   7  -5  -8    0.58    3.79 
   7   6  -5    7.94   38.50 
   7  -6  -5   16.77   20.21 
  -7   6   5   10.23   28.14 
  -2   1  24   10.66   18.83 
   0  15  -3  103.99   26.34 
   0 -15  -3  114.44   28.82 
   0  15   3  103.74   29.10 
   2  -1 -24    7.55   19.53 
   2   1 -24    6.27   14.78 
   0  15  -3  111.37   29.13 
  -2  -1  24    8.42   17.46 
   0 -15   3  106.52   27.53 
   2  -1  23    1.18    5.49 
  -2   1 -23    0.76    4.16 
  -2  -1 -23    0.49    5.35 
  -2  -1 -23    0.95    4.41 
  -2   1 -23    2.28    9.96 
   2   1  23    0.38    2.60 
   7   0 -12    0.75    4.13 
   5   7 -16   10.91   38.94 
   5  -7 -16    5.20   14.19 
   2 -11 -16   57.89   17.80 
   2 -11 -16   56.70   18.25 
   5  -7 -16    5.96   12.55 
  -2  11  16   58.49   21.06 
   2  11 -16   39.27   14.90 
   2  11 -16   41.84   17.74 
  -5   7  16    5.61   19.41 
   2  11  15   17.44   25.52 
  -2  11 -15   19.58   55.10 
   3   2 -23   54.11   19.29 
  -3   2  23   61.30   22.74 
   3  -2 -23   48.78   17.80 
  -2 -11 -15   16.65   48.95 
  -3  -2  23   55.28   20.94 
   2 -11  15   14.67   36.11 
   5  -5 -18  401.35   40.98 
  -5   5  18  395.97   44.77 
   5   5 -18  326.98   52.93 
   5   5 -18  293.71   30.68 
   4  -9 -16    0.13    5.60 
   4  -9 -16   -0.11    5.76 
   1  15   0    1.33   11.09 
   4   9 -16    2.46    6.42 
  -4   9  16    1.18    6.68 
  -1 -15   0   -0.08    7.60 
   2   6 -22    1.11    7.32 
  -1  15   0    1.06    4.34 
   1 -15   0    2.14    8.89 
   2   6 -22   -0.42    8.12 
  -1  15   0    1.77    4.26 
   2  -6 -22    0.67   10.39 
   1  15   0    1.64    6.96 
  -2   6  22    1.13   10.61 
  -2  -6 -21    7.91   21.09 
  -2  -6 -21    7.73   22.59 
  -4  11  12   66.28   19.54 
  -7  -2  -8    8.12   31.11 
  -2   6 -21    5.63   24.93 
   2   6  21    7.01   26.21 
   4  11 -12   38.84   18.43 
  -4  11  12   66.97   21.15 
   4 -11 -12   78.64   21.51 
  -7   2  -8    7.44   13.72 
   4  -9  14   77.90   23.92 
   5 -10   8    0.72    6.03 
   4 -11  10    4.93   14.94 
   1 -15  -1  219.99   50.21 
   5  10   8    1.74   12.45 
  -1  15   1  270.07   33.82 
  -4  -9 -14   74.98   23.85 
  -5  10  -8    2.13   10.65 
  -1 -15   1  220.50   45.60 
   1  15  -1  243.51   29.01 
  -4   9 -14   78.12   62.20 
  -4 -11 -10    7.28   17.13 
   4  11  10    6.86   19.24 
   1  15  -1  170.71   38.66 
  -1  15   1  238.19   31.01 
   4   9  14   70.67   22.02 
  -4  11 -10    4.27   16.37 
  -1  14   9   38.54   15.61 
   1  14  -9   38.72   16.19 
  -1 -14   9   43.70   11.79 
   1 -14  -9   51.48   18.44 
  -1  14   9   41.87   15.83 
   1  14  -9   36.29   13.59 
   2 -12 -14  146.75   33.22 
   2  12 -14  126.94   29.96 
   2 -12 -14  143.83   32.46 
   2  12 -14  125.46   32.73 
  -2  12  14  136.93   32.78 
   1  15   1    1.25    4.66 
  -2 -12 -13   31.15   33.11 
   1  15   1    0.62    8.65 
   2 -12  13   53.87   17.23 
   2  12  13   41.74   16.43 
  -1 -15  -1    2.89   10.69 
   1 -15   1    2.11    6.97 
  -1  15  -1    2.21    6.68 
  -2  12 -13   55.82   22.76 
  -1  15  -1    2.24   10.37 
  -1   3  24    6.73   19.29 
   1  -3 -24    6.72   20.15 
  -1  -3  24    6.75   12.71 
   1   3 -24    8.26   13.71 
   7   1 -12   48.19   17.11 
   7  -1 -12   51.08   16.31 
   3 -13  -9   25.62   12.51 
  -3  13   9   17.32   38.87 
   6  -7 -12    1.26    3.71 
   6   7 -12    1.26    3.81 
   3  13  -9   29.60   66.02 
  -3  13   9   19.62   34.92 
   6  -7 -12    0.60    4.84 
   1   0  24    1.87    7.66 
  -6  -7  -9   18.07   44.09 
  -7  -6  -2   47.07   20.60 
   7  -6   2   44.47   17.62 
   6  -7   9   18.64   39.83 
  -1   0 -24    0.42    5.69 
   6   7   9   15.00   36.59 
   5 -11  -7   10.70   28.00 
  -7   6  -2   42.91   13.31 
   7   6   2   34.42   17.46 
   5  11  -7    8.33   23.63 
  -6   7  -9   19.05   10.42 
  -5  11   7   10.52   26.16 
   3   9 -18   55.74   18.30 
   3  -9 -18   54.01   19.17 
  -3   9  18   50.38   21.82 
   3   9 -18   57.89   22.81 
   3  -9 -18   51.99   16.26 
   3  10  15   92.62   26.09 
   3 -10  15   85.85   23.55 
  -3 -10 -15  102.32   27.56 
  -3  10 -15  106.17   30.42 
   1   6  22   12.32   34.52 
  -1   6 -22    8.61   27.17 
  -1  -6 -22   12.36   33.46 
  -1  -6 -22   12.62   33.85 
  -1   6 -22   12.78   27.73 
  -1 -15   2    9.99   24.97 
   1 -15  -2    7.85   16.69 
   1  15  -2    3.71   24.54 
  -1  15   2   10.49   26.96 
  -1  15   2    6.31   16.42 
   1  15  -2    6.40   17.69 
  -6   8  10    0.96    8.56 
   4 -12  -9    1.39    5.07 
   6  -8 -10    0.65    4.51 
  -5   9  13    3.86   11.60 
   6   8 -10    2.84    8.10 
  -4  12   9    3.53    9.83 
   4  12  -9    0.85    8.60 
   5  -9 -13    6.53   13.66 
  -4 -12  -7   35.29   22.01 
  -4  12  -7   39.70   16.89 
   4  12   7   20.75   46.81 
   5  -9 -13    3.87    9.02 
   4 -12   7   33.61   13.93 
   5   9 -13    3.05   11.65 
   7   3 -11    6.74   18.90 
  -6   8  -7    4.57   18.42 
  -6  -8  -7    6.90   26.00 
   7  -3 -11    3.85   11.96 
   6  -8   7    8.66   23.34 
   6   8   7    6.09   23.05 
   0   3  24    2.21    9.27 
   0  -3  24    2.18    7.71 
   0   3 -24    1.51   13.91 
   0  -3 -24    1.68   13.75 
   0  12  15  187.83   41.58 
   7  -4 -10    0.22    4.94 
   7   4 -10    1.61    8.11 
   0 -12 -15  247.49   31.47 
   0  12 -15  211.60   46.46 
   0 -12 -15  240.07   28.32 
   7  -4 -10    0.63    3.32 
   0  12 -15  191.14   40.52 
   4 -13  -1  180.51   39.85 
  -1 -13 -12   10.35   29.15 
  -1 -13 -12    9.88   18.24 
  -4 -13   1  170.57   36.35 
   4  13  -1  160.81   38.43 
   1  13  12    6.72   29.62 
   1 -13  12   10.34   24.58 
  -1  13 -12   11.53   25.10 
  -4  13   1  162.05   38.06 
   6   0 -17    0.13    3.19 
   3 -14  -1    5.90   14.60 
  -3  14   1    4.39   11.21 
  -3 -14   1    6.65   19.26 
   3  14  -1    5.49   25.22 
  -1  -1 -24   21.82   12.15 
   1  -1  24   25.79   13.02 
  -1   1 -24   22.73   13.25 
  -6   0 -14    1.20    5.97 
   1   1  24   23.96   12.41 
  -4   0  22    5.65   26.05 
  -1 -15  -2   34.81   56.14 
   1  15   2   44.69   18.22 
   3 -14   0   22.31   11.46 
  -1  15  -2   41.80   26.82 
  -3 -14   0   33.56   14.94 
  -3  14   0   21.69   59.32 
  -1  15  -2   37.41   15.42 
   1 -15   2   46.37   17.58 
   1  15   2   39.28   12.23 
   4   0 -22    7.52   16.80 
   3  14   0   30.55   41.65 
  -7  -5  -5    8.22   27.44 
   4 -13   0    9.76   26.68 
  -7   5  -5    5.95   14.23 
   4 -13  -2   33.08   14.89 
  -4 -13   0    6.77   14.28 
  -4 -13   2   27.04   10.85 
  -4  13   0    7.77   21.40 
   4  13   0    8.21   18.97 
   4  13  -2   14.82   51.40 
  -6   9   7   17.30   27.70 
  -4   0 -20  136.27   31.80 
  -4   0 -20  147.66   35.64 
   6  -9  -7   24.30   11.07 
   6   9  -7   24.41   13.94 
  -5   0  20    0.62    8.89 
   4   4 -21   12.38   11.12 
   6   9   4   16.14   46.59 
  -6  -9  -4   27.70   13.89 
  -4   4  21    9.97   35.84 
   4  -4 -21    7.31   24.81 
   5   0 -20    0.74    4.16 
   4   4 -21    8.82   40.53 
  -6   9  -4   22.40   11.74 
   6  -9   4   26.33   12.63 
   0  15  -4   31.48   13.19 
   0 -15   4   46.26   16.00 
   0  15  -4   36.26   36.66 
   0  15   4   38.42   15.45 
   0 -15  -4   32.93   13.42 
   4   4  19    0.44    5.89 
  -3 -14   2    0.18    6.81 
  -4   4 -19    1.18    3.67 
   3 -14  -2    0.37    6.34 
  -3  14   2   -0.53    9.55 
  -7   6   6    3.28    8.98 
   7   6  -6    3.15   10.58 
   7  -6  -6    1.62    7.81 
  -4  -4 -19    1.68   10.44 
  -4   4 -19    0.80    5.82 
   3  14  -2    0.56    5.39 
   1  12 -15    9.26   39.42 
   1 -12 -15   15.01   40.67 
  -1  12  15   16.36   40.94 
   1  12 -15   12.13   19.44 
   1 -12 -15   21.81   18.03 
   2  -2 -24   29.49   17.07 
   2   2 -24   30.32   23.28 
  -2   2  24   23.50   60.52 
  -2  -2  24   36.36   15.87 
  -6   1  17    1.57    7.76 
  -2   2 -23   43.21   20.99 
  -2  -2 -23   50.26   16.90 
   2   2  23   52.29   18.89 
  -2  -2 -23   43.62   15.60 
   2  -2  23   46.26   16.12 
   6  -1 -17    0.55    4.06 
   6   1 -17    0.80    4.77 
  -2   2 -23   47.12   15.86 
   6   1 -17    1.05    4.94 
   3  12  11    5.83   11.54 
  -3  12 -11    6.90   22.55 
   3 -12  11    6.26   16.45 
  -3 -12 -11    7.67   15.20 
  -3 -14  -1   15.74   35.87 
  -4   1  22    5.92   14.95 
  -4  -1  22    7.76   21.61 
   3  14   1   12.75   29.87 
  -1 -15   3   32.66   12.97 
  -1 -10 -18  188.43   37.75 
   4  -1 -22    2.29   15.18 
   1  10  18  175.98   40.32 
   3 -14   1   17.95   22.81 
   1  15  -3   27.36   17.70 
  -1  10 -18  197.21   46.22 
  -6  -1 -14    4.41   20.06 
   4   1 -22    5.73   15.60 
  -1  15   3   34.71   15.42 
   1 -15  -3   50.47   18.23 
  -6   1 -14    3.74    9.66 
   1  15  -3   23.39   38.15 
  -1 -10 -18  188.63   40.36 
  -1  15   3   37.25   14.73 
  -4 -13   3   45.76   15.20 
  -4 -13  -1  196.44   40.62 
   5   1 -20  224.77   50.45 
  -5   1  20  234.21   36.86 
   4 -13   1  165.19   36.86 
   0  11  17    9.78   27.22 
  -4  -1 -20    2.36    6.24 
  -5  -1  20  251.13   36.28 
  -4  13  -1  207.47   49.57 
   4  13  -3   54.89   22.28 
   0  11 -17   21.23   33.42 
   4 -13  -3   71.54   21.85 
   5  -1 -20  210.90   43.87 
   0 -11 -17   13.77   35.87 
  -4   1 -20    2.09    7.94 
  -4   1 -20    1.19    8.05 
  -4  -1 -20    3.20    6.95 
   0 -11 -17   17.03   25.58 
   4  13   1  258.40   37.09 
   0  11 -17   16.88   10.24 
   5 -11   5    2.84    9.93 
  -5  11  -5    2.21    8.57 
  -5 -11  -5    2.10    9.61 
   5  11   5    2.32    8.30 
  -3  -4 -21   16.00   35.96 
   3   4  21   30.08   21.26 
  -3  -4 -21   25.85   13.83 
  -3   4 -21   28.46   11.91 
  -3   4 -21   16.13   60.14 
   3 -14  -3   23.53   11.79 
   3  14  -3   16.69   46.25 
   5  10 -11   -0.16   10.95 
   7   2 -12    3.40   17.20 
   1 -11 -17   72.56   22.99 
   1  11 -17   44.10   22.07 
   7  -2 -12    5.13   17.76 
   1  11 -17   41.70   14.72 
   5 -10 -11    1.27    5.16 
   1 -11 -17   62.15   22.06 
  -5  10  11    0.53    6.42 
  -1  11  17   48.08   76.70 
   7  -2 -12    3.56   12.05 
   5  -8 -15  187.34   27.42 
   5  -8 -15  202.73   29.80 
   5   8 -15  199.09   35.53 
  -5   8  15  221.90   29.77 
   1 -14   9   29.87   12.00 
  -1 -14  -9    9.92   41.73 
  -1  14  -9   29.20   36.12 
  -1 -14  -9   17.81   32.75 
   1  14   9   17.55   29.40 
  -7   0  -9   54.20   22.19 
   1  15   3    8.03    8.66 
  -1  15  -3    4.92   24.38 
   1  15   3    9.05   21.34 
   1 -15   3    7.75   27.83 
  -1 -15  -3   10.27   16.46 
  -1  15  -3    8.72   15.22 
   2 -14   7   22.17   11.30 
  -5   4  19    7.93   23.17 
  -2 -14  -7   21.85   11.13 
   2  14   7   16.66   41.99 
  -2  14   8    1.20    8.25 
   3   5 -22    4.87    9.98 
   2  14  -8    4.38   10.94 
   2  14  -8    3.71   17.42 
   2  10 -18   31.93   14.79 
   2 -14  -8    3.88   12.21 
  -2  14  -7   20.88   40.57 
   2 -10 -18   27.72   11.00 
  -3 -13  -8    1.47    3.93 
   2 -10 -18   34.77   13.84 
  -2  10  18   31.62   19.47 
  -2  14   8    2.01    5.00 
   2  10 -18   33.09   30.91 
   3  13   8    2.88    9.00 
   5  -4 -19    5.40   20.42 
  -3  13  -8    0.81    9.74 
   3 -13   8   -0.11    5.52 
   5   4 -19    4.98   23.62 
   3  -5 -22    4.77   14.87 
   5   4 -19    5.57   16.48 
   3   5 -22    6.62   24.57 
  -3   5  22    4.68   18.02 
  -7   6  -3    5.79   12.21 
  -7  -6  -3   10.46   22.48 
   7  -6   3    7.22   18.55 
   2  10  17    5.71   21.77 
  -2 -10 -17   12.48   22.67 
  -2  10 -17    6.65   19.69 
  -2 -10 -17    5.56   22.38 
   7   6   3    4.03   18.87 
   2 -10  17    4.99   16.36 
  -5   3 -17    0.17    9.77 
  -5  -3 -17    1.00    7.81 
  -5   3 -17    2.61    4.96 
   1   8 -21  331.34   47.22 
   1  -8 -21  415.76   43.78 
   1   8 -21  418.78   44.46 
  -1   8  21  426.20   51.55 
   1  -8 -21  401.37   41.03 
  -6   5  15   24.17   15.34 
   6   5 -15   29.20   15.67 
   6  -5 -15   13.14   20.38 
   0   8 -21    6.98   12.30 
   0  -8 -21    9.38   18.21 
   0   8 -21    6.88   15.23 
   0  -8 -21    9.16   24.31 
   0   8  21   11.99   25.25 
  -3 -14  -2   13.78   36.01 
  -6  -5 -12   60.31   20.92 
   3   0  22   -0.04    4.92 
  -6   5 -12   72.14   18.58 
   7  -5  -9   10.69    7.33 
   7   5  -9    8.80   23.54 
  -3   7 -19   19.92   60.69 
  -3   0 -22    0.81    4.37 
   6   5  12   62.82   14.17 
  -6   5 -12   79.21   21.81 
   3   7  19   34.90   14.69 
  -3   0 -22    2.73    6.99 
  -3  -7 -19   25.31   31.34 
   7  -5  -9    7.41   16.79 
   3  -7  19   26.07   11.65 
   3 -14   2   35.78   13.88 
   3  14   2   20.90   42.25 
  -3  11  15   13.33   48.59 
   3  11 -15   10.90   29.55 
   3  11 -15   11.75   42.47 
   3 -11 -15   16.86   28.34 
   3 -11 -15   17.23   34.81 
   3   3 -23    2.10    6.82 
   5   6  15  106.47   19.81 
  -5   6 -15  103.57   25.24 
  -5   6 -15  108.03   24.21 
  -3  -3  23    0.85    7.03 
   3  -3 -23    2.41   11.54 
  -5  -6 -15   95.26   23.84 
  -3   3  23    4.37    5.74 
  -1  -2 -24   10.94   38.76 
   3  -8  18   87.17   18.86 
   3   8  18   81.79   33.91 
  -3  -8 -18   83.18   20.51 
  -3   8 -18  100.04   26.23 
  -1   2 -24    6.43   31.29 
   1  -2  24   11.81   31.08 
   1   2  24   13.57   30.47 
  -7   1  -9   11.93   25.10 
  -7  -1  -9   14.63   43.49 
  -7   4  -7   74.87   21.87 
  -7  -4  -7   79.03   22.39 
   0  13 -13    2.45   14.39 
  -7   3  -8   63.72   20.64 
   0 -13 -13    0.78    3.27 
   0 -13 -13    1.46    3.82 
   0  13 -13    0.89    5.23 
  -7  -3  -8   50.79   18.45 
   0  13  13    1.60    6.95 
   4 -13   2   57.47   19.99 
   4 -13  -4   31.57   46.15 
  -4  13   4   34.95   50.34 
   4  13   2   47.26   59.35 
   4  13  -4   22.51   67.61 
  -4 -13   4   32.93   41.34 
  -4 -13  -2   54.55   16.98 
  -1  15   4   12.78   24.21 
  -1  15   4   13.96   24.84 
   1 -15  -4   14.71   41.49 
   1  15  -4    9.02   28.32 
   1  15  -4    7.46   28.38 
  -1 -15   4   13.50   28.84 
   6  -6 -14   99.97   18.70 
   6   6 -14  125.45   28.22 
  -6   6  14   91.48   23.73 
   0 -14 -10    2.10    8.41 
   0  14  10    1.99    8.59 
   0  14 -10    2.96   11.17 
   0 -14  10    0.81    4.53 
   0  14 -10    0.47    5.03 
   0  14  10    1.09    3.17 
  -3  -1 -22  103.13   22.05 
  -3   1 -22  131.68   27.65 
  -6  -6 -11   35.69   15.27 
   3   1  22  108.54   20.43 
  -6   6 -11   50.11   24.97 
  -3  -1 -22  109.69   22.00 
  -6   6 -11   49.00   17.36 
   6   6  11   38.08   12.21 
  -3   1 -22  105.15   21.25 
  -6   2  17    0.50    4.09 
  -5  -7 -14    5.46   13.47 
  -1   7  22    0.46    6.84 
   5 -11  -8    8.56   28.67 
   1  -7 -22    0.47    4.49 
   6   2 -17    0.55    5.99 
  -5  11   8   14.97   28.07 
   5   7  14    1.70    4.92 
   1  -7 -22    1.05    7.54 
  -5   7 -14    3.97   17.94 
   5  11  -8   16.35   40.88 
   1   7 -22    1.27    7.84 
   1   7 -22    0.85   12.94 
   6  -2 -17    0.89    4.30 
   6   2 -17    0.70    3.43 
   5  -7  14    5.83   13.59 
   1   9 -20   16.06   46.06 
   3 -14  -4   47.65   15.07 
   3  14  -4   47.06   64.38 
   0  15   5  168.83   29.07 
  -1   9  20   19.49   43.61 
   0  -9 -20  119.94   21.09 
   0  -9 -20  129.90   23.57 
   1   9 -20   19.92   48.13 
   0   9 -20  115.75   29.66 
   0   9 -20  105.54   25.11 
   1  -9 -20   15.97   39.32 
   0 -15   5  168.05   24.86 
   0  15  -5  185.98   28.00 
   0  15  -5  145.27   24.59 
   0   9  20  162.65   32.53 
   0 -15  -5  173.48   27.19 
   4  -2 -22    4.19   11.11 
  -5   9 -11    4.20   12.70 
  -4   2  22    6.72   10.42 
  -4  -2  22    6.60   12.42 
   4   2 -22    7.62   11.56 
   5  -9  11    3.18   11.66 
  -6  -2 -14   11.21   44.52 
   2  -5 -23    2.61    9.66 
  -5  -9 -11    2.25    9.95 
   5   9  11    2.87   14.24 
   2   5 -23    3.70    6.68 
  -6   2 -14   15.52   41.18 
   2   5 -23    2.50   11.61 
  -2   5  23    1.90    9.37 
   0  -7 -22    3.32   12.97 
   4  -7 -19   30.66   52.98 
   4   7 -19   32.56   64.79 
  -2   5 -22   38.11   16.47 
   0   7 -22    3.90   14.00 
   7  -6  -7    0.36    4.53 
  -2  -5 -22   41.09   13.67 
   2   5  22   36.07   16.39 
   0   7 -22    5.57    8.71 
   4   7 -19   28.99   42.00 
  -4   7  19   29.96   14.12 
   0  -7 -22    3.57   11.44 
   0   7  22    4.46   15.97 
  -2  -5 -22   38.12   13.52 
   7   6  -7    0.30    3.12 
  -7   6   7    0.90    3.46 
  -4   2 -20  171.24   29.33 
  -4  -2 -20  147.96   33.68 
   4   2  20  164.87   25.49 
  -4  -2 -20  157.86   33.87 
  -4   2 -20  169.10   28.18 
   5   2 -20   35.69   12.88 
  -4   7 -17   42.09   17.35 
  -4  -7 -17   49.44   16.98 
   6  -4 -16  161.12   25.67 
   4  -7  17   49.47   17.67 
  -6   4  16  173.48   29.75 
   6   4 -16  155.69   30.65 
  -5   2  20   43.35   18.63 
   5  -2 -20   39.03   14.78 
   4   7  17   36.76   15.35 
   5   2 -20   39.23   18.06 
   2  13 -12   76.89   18.25 
   2  13 -12   76.97   47.01 
   2 -13 -12   80.08   19.00 
  -2  13  12   87.16   19.39 
  -2  13  12   72.28   18.56 
  -6   4 -13  131.96   24.12 
  -2 -13 -11    1.96    8.32 
  -6  -4 -13  169.74   32.72 
  -6   4 -13  145.00   31.28 
   2  13  11    2.06    6.41 
  -2  13 -11    3.13   20.22 
   2 -13  11    1.90    7.73 
  -1  13  13   11.55   34.65 
   1  13 -13   23.44   12.93 
   1 -13 -13   10.46   29.97 
   1 -13 -13   13.02   37.22 
   1  13 -13   12.65   34.02 
  -5   5 -16   81.33   24.10 
  -5   5 -16   62.07   19.20 
  -5  -5 -16   66.27   21.23 
   5   5  16   60.89   16.33 
   6  -9  -8    0.56    6.56 
   6   9  -8    1.47    5.39 
  -6   9  -5   36.84   14.47 
   6   9   5   27.73   48.89 
  -6  -9  -5   54.41   17.99 
   6  -9   5   28.34   13.30 
  -1 -15  -4   26.84   55.58 
   1 -15   4   33.44   13.56 
  -1  15  -4   29.08   14.28 
   1  15   4   28.34    9.71 
  -1  15  -4   25.64   10.40 
   1  15   4   21.26   52.49 
  -3  10  17    4.29   15.90 
   3  10 -17    6.59   13.19 
   3 -10 -17    3.97   10.90 
   3  10 -17    3.71   23.31 
   3 -10 -17    6.34   11.98 
   3  14   3    4.14    8.74 
  -3  -6 -20    2.60    8.86 
  -3  14  -3    2.05    6.55 
  -3  -6 -20    1.33    8.04 
  -3   6 -20    2.09    7.16 
   3 -14   3    3.01    8.58 
   3   6  20    3.68    5.65 
  -3   6 -20    1.84   11.34 
  -4   6  20   17.35   54.03 
   4   6 -20   16.66    9.39 
   4  -6 -20   28.00   23.46 
   4   6 -20   19.55   54.14 
   3 -12 -13    9.09   22.35 
   3  12 -13    8.66   29.68 
   3  12 -13    9.33   35.03 
  -3  12  13    8.90   27.03 
  -4  -6 -18    1.20    7.76 
  -4   6 -18    0.03    4.53 
  -4   6 -18    0.96    8.68 
   4   6  18    1.83    6.20 
   1  14 -10   50.54   31.11 
  -1  14  10   69.16   18.20 
   1  14 -10   73.83   19.90 
   1 -14 -10   65.45   18.10 
  -1  14  10   56.26   18.73 
  -4   8  18   38.74   15.36 
  -3  13  10   32.41   43.91 
   3  13 -10   31.03   55.34 
   2  -3 -24   27.12   38.20 
  -3  13  10   38.24   13.65 
   4  -8 -18   34.46   35.85 
   2   3 -24   28.62   14.09 
  -2  -3  24   26.61   45.32 
   4   8 -18   40.08   38.38 
  -2   3  24   30.51   14.96 
   4   8 -18   34.33   13.05 
   3 -13 -10   36.78   13.35 
   4  -8 -18   43.49   15.49 
   1  -5  23    5.32   28.84 
  -1  -5 -23   10.36   20.55 
   1   5  23    9.49   17.32 
  -1  -4  24    1.41    8.12 
  -5 -10  -9    2.29   10.35 
  -7   5  -6    0.34    4.79 
  -1  -5 -23    6.61   20.54 
  -1   5 -23   11.16   29.97 
  -7   5  -6    1.18    7.33 
   5  10   9    6.62   15.96 
  -7  -5  -6    2.14   10.53 
   5 -10   9    7.06   17.46 
  -5  10  -9    4.97   18.59 
   1  -4 -24    0.42    5.20 
  -1   4  24    0.12    6.22 
   1   4 -24    1.23    4.19 
  -4  -8 -16    1.62    8.27 
   4  -8  16    1.80   10.88 
   4 -13  -5    1.40    7.02 
  -4  12  10    0.90    8.20 
   2  -3  23    3.75   16.92 
  -2  -3 -23    4.34   13.72 
   2   3  23    6.48   16.02 
  -2   3 -23    6.92   11.80 
  -4  13   5    0.43    7.70 
   4  12 -10    1.23    8.13 
  -4   8 -16    2.07    9.57 
   4   8  16    2.50    5.90 
   4 -12 -10    0.88    7.27 
   4  13  -5    0.93   11.15 
  -2  -3 -23    6.54   15.87 
  -4 -12  -8    2.90   13.04 
  -4 -13  -3  170.50   28.03 
   3  -9  17    0.92    2.81 
  -4  12  -8    3.88   13.23 
   4  12   8    2.26   13.56 
   4 -13   3  187.49   28.40 
  -3  -9 -17    1.01    5.47 
   3   9  17   -0.25    7.49 
  -4  13  -3  193.77   33.99 
   4  13   3  207.10   33.17 
  -3   9 -17    1.87    8.16 
   4 -12   8    3.15    5.69 
   4 -10 -15   42.10   12.75 
   4 -10 -15   47.68   28.61 
   4  10 -15   34.88   16.34 
  -4  10  15   47.22   16.16 
   4 -10  13   26.13   12.76 
  -4 -10 -13   26.84   54.50 
  -4  10 -13   21.69   57.88 
  -7   2  -9  148.90   41.12 
  -7  -2  -9  166.86   30.54 
   4  10  13   25.00   43.33 
   7   0 -13    0.08    3.91 
   6   8 -11    9.44   32.97 
   6  -8 -11   10.78   36.81 
   6  -8   8    2.91   15.85 
  -6  -8  -8    1.44    7.26 
   6   8   8    1.31    5.18 
   7   6   4   42.51   13.23 
  -7  -6  -4   40.68   16.20 
  -6   8  -8    2.36   13.22 
   7  -6   4   54.85   21.28 
  -7   6  -4   36.52   23.75 
   1  12  15   17.36   53.06 
   7  -4 -11   74.60   15.25 
  -1 -12 -15   22.33   42.21 
  -1  12 -15   34.29   16.64 
  -1 -12 -15   27.35   57.50 
   7   4 -11   72.21   20.88 
   0  -4  24  205.13   32.61 
   0  -4 -24  196.91   34.51 
   0   4  24  222.17   37.00 
   0   4 -24  153.88   28.43 
   5 -11   6    1.43    8.23 
  -5  11  -6    2.92   15.53 
   5  11   6    1.73   11.46 
  -5 -11  -6    0.62    5.01 
   7   7  -2   86.63   20.65 
   7  -7  -2   69.77   18.62 
  -7  -7   2  103.37   20.26 
  -3  14   5   60.28   18.86 
   1  15  -5   30.63   64.64 
   3 -14  -5   68.51   18.65 
   1 -15  -5   40.74   14.83 
  -3   2 -22   92.43   20.67 
  -1  15   5   46.18   14.86 
  -1 -15   5   35.83   14.53 
  -3  -2 -22   83.63   19.44 
   1  15  -5   35.56   12.91 
  -3  -2 -22   90.29   22.55 
  -3   2 -22   93.60   23.78 
  -1  15   5   48.93   15.27 
   3   2  22   75.76   18.24 
   3  14  -5   54.77   20.07 
  -7   7   1    9.05   18.23 
  -7  -7   1    8.06   20.44 
   7   7  -1    4.98   11.60 
   7  -7  -1    6.29   24.82 
   7   3 -12    1.79    9.99 
   7  -3 -12    2.21    7.09 
  -4  11  13  116.53   23.09 
   4 -11 -13  109.81   20.78 
   4  11 -13   98.35   25.12 
   7   1 -13    5.95   20.34 
   7   7  -3   61.00   17.84 
  -4 -11 -11   45.94   16.59 
   7  -7  -3   54.82   16.73 
   7  -1 -13    3.44    8.45 
  -4  11 -11   34.19   50.51 
   4  11  11   44.35   24.29 
   4 -11  11   52.94   17.86 
   6  -7 -13   10.59   28.32 
   6  -7 -13   15.74   31.21 
   6   7 -13   12.87   31.39 
   5  -8  13   13.94   30.06 
  -5  -8 -13   10.89   48.73 
   5   8  13    7.11   32.53 
  -5   8 -13   14.89   52.69 
  -6  -7 -10   10.71   24.72 
  -6   7 -10    7.32   20.99 
   6   7  10    7.15   21.41 
   6  -7  10    9.35   24.80 
   6 -10  -2   59.71   17.44 
  -6  10   2   53.97   19.75 
   6 -10  -1   35.78   14.04 
  -6 -10   2   60.04   15.05 
   6  10  -1   51.46   17.40 
   6  10  -2   53.84   18.53 
  -6 -10   1   56.98   15.79 
  -5   0 -18    1.30    6.59 
  -5   0 -18   -0.10    7.87 
  -7   7   0   20.21   36.92 
   7  -7   0   18.48   43.73 
   7   7   0   14.43   37.54 
  -7  -7   0   14.53   51.97 
   0  10 -19    6.55   13.00 
   0 -10 -19    5.21   12.49 
  -1   6  23    6.68   28.36 
   0 -10 -19    4.20   15.39 
   1   6 -23    7.81   19.39 
   1   6 -23    6.10   15.48 
   0  10  19    4.24   12.98 
   1  -6 -23   11.24   27.91 
   0  10 -19    5.12   11.82 
   1   3  24    4.24   17.79 
  -1  -3 -24    2.86   14.86 
  -1   3 -24    4.40   12.75 
  -1  -3 -24    2.39   11.11 
   1  -3  24    3.60   11.40 
   0  15   6    6.64   20.68 
   0 -15  -6    5.17   20.54 
   0  15  -6    4.93   21.44 
   0  15  -6    6.77   18.48 
   0 -15   6    6.81   15.17 
   1 -10 -19   76.19   20.07 
   1 -10 -19   78.12   19.26 
   1  10 -19   74.77   19.65 
   1  10 -19   95.73   24.24 
  -1  10  19   75.82   22.82 
   1   0 -25   50.44   22.29 
  -2  14   9   61.89   17.85 
  -1 -11 -17    6.48   22.28 
   2  14   8    2.08    8.49 
  -1 -11 -17    6.77   19.77 
  -1  11 -17    8.03   19.80 
   2 -14   8    1.05    9.50 
  -1   0  25   51.21   55.32 
   2 -14  -9   65.14   17.38 
   2  14  -9   49.62   14.09 
   1  11  17    9.02   18.22 
  -2  14   9   52.53   29.00 
   2  14  -9   49.41   19.07 
  -2 -14  -8    1.21   10.35 
   0  -6 -23    1.03    7.42 
   6 -10   0   79.00   19.46 
   3  11  14   20.16   45.45 
  -6 -10   0   83.24   19.46 
  -3 -11 -14   22.97   42.53 
   6  10   0   83.01   33.77 
  -6  10   0   78.03   20.16 
   3 -11  14   24.78   11.39 
   0   6 -23    0.47    6.66 
  -3  11 -14   17.32   40.56 
   6 -10  -3   13.85   32.50 
   6  10  -3   16.74   35.60 
   0  -6 -23    2.32    6.16 
   0   6  23    0.50    5.43 
   0   6 -23   -0.06    9.54 
   3  14   4  207.46   33.16 
   7   7  -4   29.62   21.04 
   7  -7  -4   19.42   43.28 
  -7   6   8    7.49   23.70 
   3 -14   4  238.94   33.67 
  -3 -14  -4  183.07   27.41 
  -7   7   4   19.61   38.10 
   7  -6  -8   10.28   32.32 
  -3  14  -4  205.20   32.62 
   7   6  -8    5.88   31.59 
   7   5 -10    2.21   12.29 
   7  -5 -10    2.26    7.07 
   1  15   5    3.01   10.71 
   7  -5 -10    1.46    7.83 
   1  15   5    2.19    9.01 
   5   9 -14    4.25   10.93 
  -5   9  14    4.50   10.99 
   1 -15   5    1.57   10.78 
   5  -9 -14    4.40   11.26 
   5  -9 -14    3.82    8.39 
  -1  15  -5    1.74   10.65 
  -1  15  -5    2.58   14.76 
  -1 -15  -5    4.56   11.06 
  -5   1 -18   91.61   24.54 
   6   3 -17    1.62    8.24 
  -5   1 -18  109.69   25.33 
  -6   3  17    1.14    4.93 
  -5  -1 -18  107.20   27.83 
   6  -3 -17    0.56    5.08 
   5  -6 -18   78.06   20.59 
  -6   3 -14   12.65   41.91 
  -6  -3 -14   14.26   33.49 
  -5   6  18   70.17   19.63 
   4  -3 -22    1.19   10.63 
  -6   3 -14    8.21   35.67 
   4   3 -22    0.61    5.72 
   5   6 -18   49.72   24.04 
  -4  -3  22    1.48    8.43 
  -4   3  22   -0.24   10.07 
  -4  -3 -20   10.49   31.46 
   4   3  20    5.01   27.61 
  -4   3 -20    8.47   35.18 
  -4  -3 -20    5.58   21.78 
  -4   3 -20   13.79   29.33 
   0   0  25    4.36    8.04 
  -4   5  21   83.71   23.75 
   0   0 -25    0.43    6.51 
   5   3 -20  241.74   29.43 
  -5   3  20  265.13   38.53 
   4   5 -21   88.51   24.97 
   4   5 -21   73.78   18.01 
   4  -5 -21   83.09   21.61 
   5   3 -20  296.03   43.19 
   5  -3 -20  268.65   47.82 
  -4 -13  -4  163.94   26.82 
   1  -1 -25    0.70    6.48 
   4  13  -6    2.45   14.93 
   2 -12 -15   21.28   49.52 
   2  12 -15   25.77   14.07 
   4 -13  -6    5.43    8.50 
  -5   4 -17   21.44   52.92 
  -1   1  25    0.02    8.71 
   2 -12 -15   20.96   43.67 
   5   4  17   16.39   38.28 
   4 -13   4  145.17   46.09 
  -5 -12   1  223.24   28.76 
  -3  13  -9  118.66   27.45 
   4  13   4  132.57   28.01 
   5  11  -9    6.23   28.16 
  -4  13  -4  167.26   46.10 
   5 -12  -1  177.43   28.96 
   1   1 -25   -0.34   10.86 
  -2  12  15   13.31   32.94 
  -5   4 -17   14.64   43.55 
  -5  -4 -17   14.58   38.24 
  -5  12   1  190.71   31.25 
  -3 -13  -9   91.02   22.42 
  -5  11   9    1.67    9.51 
   3 -13   9  120.04   23.49 
  -1  -1  25    0.51    6.10 
   5  12  -1  199.31   33.09 
   3  13   9  108.86   29.33 
   2  12 -15   25.94   11.79 
   5 -11  -9   -0.75    7.13 
   2  12  14   28.61   51.30 
  -4   5 -19   21.60   28.19 
   4   5  19   28.93   12.42 
  -4  -5 -19   18.24   45.41 
  -1  14 -10   64.09   32.12 
  -4   5 -19   20.03   34.87 
   1 -14  10   56.85   14.79 
  -1 -14 -10   65.69   13.99 
  -2 -12 -14   40.90   17.79 
   1  14  10   55.21   27.11 
  -2  12 -14   22.10   56.55 
  -1 -14 -10   61.06   18.75 
   2 -12  14   16.16   42.02 
   5  12  -2  109.46   53.02 
   5   7 -17    1.30    9.70 
  -7  -7  -1    0.50    5.84 
   1 -13  13   41.72   12.56 
  -5 -12   2  110.50   21.15 
  -7   7  -1    0.33    3.41 
   1  13  13   23.42   47.37 
  -5   7  17    1.29    9.25 
   7   7   1    1.82   10.73 
  -1  13 -13   38.98   15.47 
   5 -12  -2  111.14   30.69 
   5  -7 -17   -0.39    7.73 
  -1 -13 -13   41.25   11.55 
  -1 -13 -13   20.97   49.84 
   7  -7   1    0.99    7.31 
   2 -15  -1   30.00   51.01 
   5  10 -12   59.04   20.75 
   2  15  -1   30.18   16.00 
   2  15   0  373.16   44.88 
   5 -10 -12   63.58   15.30 
  -5  10  12   63.34   17.31 
  -2 -15   1   38.72   13.40 
   2 -15   0  329.28   38.62 
  -2  15   0  310.93   39.46 
  -2 -15   0  341.98   37.15 
   5  12   0   89.63   55.38 
  -5 -12   0   80.79   19.36 
   5 -12   0   86.50   22.18 
  -3  -4  23   98.26   25.33 
  -5  12   0   89.16   23.20 
   3  -4 -23   98.06   21.97 
  -3   4  23  120.85   26.66 
   3   4 -23   91.07   22.31 
   2   8 -21   67.28   19.66 
   2  -8 -21   75.32   19.40 
  -6  10  -1  131.02   27.86 
   6  10   1   97.38   22.73 
   6 -10   1  125.82   26.76 
   4  -9 -17    1.91    5.85 
   2   8 -21   77.87   23.87 
   4   9 -17    1.77    8.95 
   6 -10  -4   49.55   15.59 
   6  10  -4   66.38   20.37 
  -6 -10  -1  116.69   23.32 
  -2   8  21   72.10   23.15 
  -2  -8 -20  123.28   24.46 
   3  -8 -20  125.78   19.85 
   7  -2 -13    0.52    6.36 
  -3   8  20  122.51   28.88 
   3   8 -20  103.11   21.76 
   3  -8 -20  116.01   23.47 
  -2  -8 -20  125.57   20.77 
   2   8  20  126.85   25.11 
   7   2 -13    0.63    7.53 
  -2   8 -20  127.78   30.64 
   3   8 -20   97.81   25.68 
   7  -2 -13    0.86    3.29 
  -4   9 -15   90.17   24.81 
   2 -11 -17   14.82   38.62 
  -7   4  -8   90.16   26.15 
   6  -9  -9   34.38   13.35 
   6   9  -9   37.34   15.94 
   2 -11 -17   13.82   32.08 
   2  11 -17   13.98   20.09 
   4   9  15   97.70   22.19 
  -4  -9 -15   98.59   22.87 
  -7  -4  -8   92.28   24.99 
  -6   9   9   41.84   16.03 
   2  11 -17   12.16   28.33 
   4  -9  15   95.24   23.61 
  -2  11  17   10.44   47.83 
   6   9   6    0.66    5.66 
  -6   9  -6    0.52    9.43 
  -2  11 -16  156.34   30.67 
  -6  -9  -6    1.34   10.42 
  -2 -11 -16  142.40   24.95 
   3   7 -21   34.85   14.36 
   2 -11  16  126.14   21.62 
   3  -7 -21   43.17   48.38 
   3   7 -21   38.35   16.53 
   2  11  16  122.29   24.60 
   6  -9   6    1.51    8.25 
  -3   7  21   51.93   20.09 
   3  12  12   32.34   59.75 
  -3 -12 -12   34.25   14.81 
  -3  12 -12   48.85   19.90 
   0  -1  25   42.47   16.66 
   0   1  25   43.65   16.46 
   3 -12  12   35.61   12.85 
   0   1 -25   40.47   24.40 
   0  -1 -25   36.91   15.66 
   3 -14  -6   64.09   18.21 
   3  14  -6   53.86   21.74 
   2  15   1    1.56   12.19 
  -2  15  -1    1.36    6.30 
   2  15  -2    4.55   20.42 
  -2 -15   2    4.16   14.30 
   2 -15  -2    7.02   15.31 
   5 -12  -3  206.59   30.99 
   2 -15   1    0.45    5.49 
   5  12  -3  170.94   32.44 
  -5 -12   3  181.60   24.40 
  -2  15   2    4.51   10.00 
  -2 -15  -1    0.95    4.28 
  -3   5 -21    1.76   10.50 
  -3  -5 -21    0.69    3.92 
  -1   8 -21    2.90   11.13 
  -3  -5 -21    1.37    7.51 
  -3   5 -21    0.51    4.93 
   1   8  21    2.43   11.58 
   7  -7  -5    2.97   11.57 
  -7   7   5    3.04    8.27 
   7   7  -5    1.57    7.13 
  -1  -8 -21    1.22    5.69 
  -1  -8 -21    1.44    5.70 
  -7   0 -10    0.54    7.50 
   1  15  -6    0.93    4.67 
  -1 -15   6    0.68    4.35 
  -1  15   6    0.60    3.02 
  -1  15   6    0.73    3.45 
   2  -7 -22  142.36   26.99 
  -7   3  -9    1.59    9.26 
  -2   7  22  140.05   29.08 
  -7  -3  -9    2.36    6.52 
   2   7 -22  118.95   29.01 
   2   7 -22  136.01   27.15 
  -7  -6  -5    5.30   13.51 
   7  -6   5    2.34    8.66 
  -7   6  -5    1.79    9.40 
   7   6   5    3.82    6.54 
   5   5 -19    4.81   11.78 
  -5 -12  -1  201.64   29.41 
  -5  12  -1  198.60   32.96 
   5  12   1  191.95   33.71 
  -2  -7 -21   53.47   15.61 
  -5   5  19    6.87   14.15 
   5   5 -19    5.57   19.09 
   5  -5 -19    8.81   30.81 
   2   7  21   73.93   36.18 
  -2   7 -21   66.79   20.67 
   5 -12   1  233.78   33.02 
  -2  -7 -21   77.63   20.32 
   3   0 -24   -0.03    9.53 
  -3   0  24    1.11    8.59 
   0 -12 -16   14.29   26.40 
  -1  -9 -20  157.58   26.48 
  -1  -9 -20  162.47   23.97 
   0  12 -16   13.18   48.88 
  -1   9 -20  154.32   30.92 
   0 -12 -16   15.39   43.52 
   0  12 -16   15.53   41.51 
   1   9  20  132.72   40.26 
   0  12  16   18.59   30.60 
   2  -9 -20   10.29   27.41 
  -3 -10 -16    0.87    4.04 
   2   9 -20    6.52   28.88 
  -2   9  20    8.31   30.26 
  -3  10 -16   -0.01    9.71 
  -7  -1 -10   89.01   23.26 
   3 -10  16    0.60    3.60 
   2   9 -20    7.87   20.81 
   2  -9 -20    5.77   19.57 
   3  10  16    1.25    6.78 
  -7   1 -10   95.24   27.71 
   3   3  22  206.22   30.13 
   0  14 -11    4.88   11.52 
  -5  -2 -18   20.35   49.55 
   0 -14  11    3.54    7.59 
  -3  -3 -22  225.34   33.76 
  -3   3 -22  190.62   28.36 
  -3   3 -22  211.32   34.63 
   0 -14 -11    3.11    7.23 
  -2  -9 -19    7.48   25.40 
  -2  -9 -19   13.64   24.71 
  -3  -3 -22  183.51   27.49 
   0  14 -11    6.71   15.59 
   0 -14 -11    2.50    9.42 
  -5   2 -18   32.10   13.69 
   0  14  11    5.86   17.99 
  -2   9 -19    8.83   35.27 
  -5   2 -18   21.93   54.64 
   2   9  19   10.01   23.95 
   7  -7   2   82.40   21.70 
   7   7   2   71.53   17.42 
   2 -15  -3    4.65   10.03 
  -2 -15   3    4.71   15.69 
  -2  15   3    3.46    8.33 
  -7   7  -2   75.42   17.64 
   2  15   2   10.62   34.25 
  -2 -15  -2   20.54   27.53 
   2 -15   2   11.03   37.15 
   2  15  -3    3.83   21.30 
  -2  15  -2   16.05   37.38 
  -7  -7  -2   88.32   21.24 
  -7   5  -7   36.21   20.63 
   6   0 -18   65.67   18.62 
  -7  -5  -7   32.29   16.94 
   6   0 -18   91.13   29.23 
   5 -12  -4   14.66   33.25 
  -5  12   4   14.16   25.72 
  -1   7 -22   48.99   15.47 
   1   7  22   62.54   31.60 
  -1   7 -22   50.62   19.59 
  -1  -7 -22   54.17   22.65 
   5  12  -4   11.73   13.64 
  -1  -7 -22   56.57   28.42 
  -1  12  16    8.50   23.23 
   1  12 -16    7.50   25.43 
   1   2 -25   95.64   24.15 
   1  12 -16   10.33   34.92 
  -6  10   5  109.58   22.83 
   1  -2 -25  102.36   25.28 
   6  10   2    7.74   20.56 
   6 -10   2    7.17   14.24 
   1 -12 -16   11.21   21.37 
  -6  10  -2    7.78   17.41 
  -1   2  25  112.42   26.63 
  -1  -2  25  107.16   25.90 
   6 -10  -5   93.95   21.39 
   1 -12 -16   10.85   21.05 
   6  10  -5   88.31   26.46 
  -6   0 -15    2.17    7.77 
  -6 -10  -2    7.37   30.59 
   3  -1 -24  124.06   33.03 
  -3  -1  24  117.79   32.55 
   3   1 -24  130.48   33.83 
  -3   1  24  140.31   39.88 
   5 -11   7   22.85   11.56 
   5  11   7   31.17   17.99 
  -5 -11  -7   32.12   14.10 
  -5  11  -7   15.01   53.41 
   3 -14   5    9.83   23.25 
  -3 -14  -5    6.56   22.85 
  -3  14  -5    7.42   27.75 
   3  14   5    5.35   20.84 
  -2   4  24   45.65   18.59 
   2   4 -24   56.69   23.96 
  -2  -4  24   49.31   19.37 
   2  -4 -24   47.79   18.78 
   3   9 -19    5.59   20.85 
   3  -9 -19    7.50   20.91 
   3  -9 -19    4.38   16.49 
  -3   9  19    3.75   15.07 
   3   9 -19    7.17   12.58 
   5  -8 -16    3.80   11.54 
   5   8 -16    6.29   10.75 
   2   4  23   18.99   46.12 
  -2   4 -23   10.23   48.80 
  -2  -4 -23   11.71   30.71 
  -2  -4 -23   15.31    9.51 
   5  -8 -16    3.19   10.17 
  -5   8  16    3.50   11.41 
   1 -15   6    7.70   15.95 
   1  15   6    8.59   21.71 
   0 -15   7  287.45   30.93 
  -1 -15  -6    9.75   19.68 
  -1  15  -6    6.17   26.70 
   0  15   7  288.03   60.17 
   0 -15  -7  297.42   34.32 
   0  15   7  236.86   56.59 
   6   1 -18   25.99   15.62 
   4  12 -11    9.57   28.13 
   4 -12 -11    9.67   23.08 
  -6   1  18   32.72   18.84 
   0  15  -7  270.84   33.94 
   1  15   6    5.93   19.00 
   6  -1 -18   23.70   13.75 
  -4  12  11    8.16   25.54 
   0  15  -7  251.36   31.29 
   6   1 -18   28.98   52.13 
   3 -13 -11    5.42   19.56 
  -4 -12  -9  252.60   54.86 
  -4  12  -9  227.34   52.71 
  -3  13  11    5.04   11.62 
  -3  13  11    4.60   16.42 
   4 -12   9  207.17   46.44 
   4  12   9  237.91   53.91 
   3  13 -11    3.42   22.56 
   3   6 -22    2.34    7.45 
   3   6 -22    4.77   15.73 
   3  -6 -22    1.28    5.10 
  -3   6  22    0.83   10.07 
   6  -5 -16   96.39   27.10 
   0   2 -25   10.39   27.46 
   0  -2  25    9.17   26.20 
  -6   1 -15    0.57    6.95 
   6   5 -16   70.56   24.78 
   0   2  25   12.55   40.09 
   0  -2 -25   11.38   36.78 
  -6   5  16   90.54   26.92 
  -6  -1 -15    0.88    8.89 
  -5 -12  -2   38.75   15.25 
  -5  12  -2   38.73   42.69 
   5 -12   2   33.19   14.27 
   5  12   2   32.82   16.02 
  -6   5 -13    1.88    5.80 
  -6   5 -13    4.59   13.53 
  -6  -5 -13    2.56   10.01 
   7  -7  -6   69.72   20.15 
   1 -14 -11   22.07   45.17 
   1  14 -11   19.07   10.42 
  -1  14  11   20.79   48.59 
  -7   7   6   70.97   19.75 
   1  14 -11   13.19   38.97 
   7   7  -6   62.11   21.16 
   0  13 -14    4.39   12.91 
   0 -13 -14    5.81   11.71 
  -1  14  11   18.45   32.95 
   0 -13 -14    3.79   17.03 
   0  13  14    3.36   12.54 
   0  13 -14    3.14    9.72 
   6  -6 -15    3.21    7.10 
   2  13 -13    1.47    4.73 
  -6   6  15    2.75   11.10 
   2 -13 -13    0.50    9.14 
   2  13 -13    2.54   10.37 
   2 -13 -13    1.43    4.75 
  -4 -13  -5   47.19   17.94 
   4  13   5   51.01   19.43 
   4  13  -7   18.39   55.54 
   6   6 -15    3.10   12.62 
   4 -13   5   34.65   13.93 
  -4  13  -5   39.57   17.23 
   4 -13  -7   17.25   51.88 
  -2  13  13    1.31    7.22 
   2  13  12   44.55   28.75 
  -2  13 -12   28.98   14.74 
  -2 -13 -12   33.14   16.92 
   2 -13  12   36.87   13.32 
  -6   6 -12  117.79   30.46 
   7   6  -9    1.54    6.96 
   7  -6  -9    0.79    4.47 
  -6  -6 -12  114.29   32.94 
  -6   6 -12  107.33   32.39 
   6   6  12   94.25   24.63 
   7  -6  -9    0.35    4.96 
  -5  -9 -12   37.47   63.40 
   5   9  12   31.88   29.54 
   5  -9  12   36.33   16.98 
  -5   9 -12   39.11   16.77 
   6  -8 -12    0.94    5.39 
   7   4 -12   19.30   11.81 
   7  -4 -12   25.12    9.82 
   6   8 -12    0.47    8.20 
   6  -8 -12    0.69    2.65 
  -5  10 -10   59.04   22.10 
   5  10  10   72.43   24.79 
   5 -10  10   50.18   19.19 
  -5 -10 -10   61.24   36.19 
  -6   8  -9   24.59   12.45 
  -6  -8  -9   12.40   49.51 
   6   8   9   16.54   36.96 
   6  -8   9   23.89   49.56 
   3 -11 -16   69.81   23.28 
   3  11 -16   73.46   25.50 
   3  11 -16   62.12   30.78 
  -3  11  16   88.56   26.83 
   3 -11 -16   87.07   24.03 
   2  15   3    4.58   17.91 
  -2 -15   4  101.19   25.28 
  -2  15   4   90.75   26.69 
   2 -15   3    5.76   10.08 
  -2  15  -3    3.69   17.14 
   2 -15  -4   88.14   25.17 
  -2  15   4   82.69   27.02 
   2  15  -4   90.53   27.61 
  -2 -15  -3    4.84   18.47 
   0  11 -18   90.55   27.09 
   0 -11 -18   88.01   24.76 
  -7   2 -10   16.19   42.84 
   5 -12  -5  313.45   64.44 
  -7  -2 -10   16.49   12.70 
   0  11 -18   81.53   23.64 
   5  12  -5  320.61   69.61 
   1  13 -14   25.14   13.22 
  -5  12   5  285.32   60.02 
   0 -11 -18   97.56   28.36 
  -1   5  24    3.60    9.20 
   1 -13 -14   33.15   22.63 
   1  13 -14   17.45   41.29 
   1   5 -24    4.55   14.85 
   1  -5 -24    3.06   11.10 
  -1  -5  24    3.55   10.19 
   1 -13 -14   21.62   48.50 
  -1  13  14   26.37   13.96 
   0  11  18   92.60   27.50 
   3 -14  -7   50.41   25.78 
   3  14  -7   55.34   23.13 
   1  -4  24    0.73    8.99 
   1   4  24    2.07    8.79 
  -1  -4 -24    1.72    9.63 
  -1   4 -24    0.84    6.45 
  -1  -4 -24    0.91    7.07 
   1 -11 -18   22.80   44.35 
   5   0 -21    0.63    5.69 
   1 -11 -18   31.61   33.23 
   1  11 -18   26.40   21.37 
   1  11 -18   24.14   46.90 
   2   6 -23    1.97   13.57 
  -2   6  23    2.35    6.06 
  -1  11  18   19.92   53.65 
  -5   0  21    1.81    8.69 
   2  -6 -23    1.17    6.32 
   2   6 -23    1.76    7.34 
   7   0 -14    0.96    3.62 
   7   3 -13    3.12   19.25 
  -2  -6 -22    0.13    4.96 
  -2   6 -22    0.72    7.27 
   7  -3 -13    2.27   10.70 
  -2   0  25    0.51    4.32 
   2   0 -25    0.65    4.68 
   2   6  22    2.15    9.48 
  -2  -6 -22   -0.03    5.55 
   3 -12 -14   64.61   20.59 
   3 -12 -14   53.17   19.81 
  -3  12  14   48.46   17.60 
   2   0  24    0.78    3.51 
   2  14 -10   38.19   21.05 
  -2  14  10   37.21   14.48 
  -2   0 -24    1.29    7.75 
   3  12 -14   57.67   22.24 
   2  14 -10   36.16   18.41 
  -2  14  10   40.71   16.34 
   2 -14 -10   35.55   13.95 
  -8   0   2   28.34   12.83 
  -2   0 -24    0.89    4.73 
   7   7   3   34.94   12.69 
   2 -14   9    3.20   15.35 
  -7  -7  -3   37.75   15.94 
  -2  14  -9    2.83   17.90 
  -7   7  -3   41.60   15.10 
  -2 -14  -9    4.00   16.44 
   7  -7   3   40.31   16.20 
   2  14   9    7.48   20.80 
   3  -2 -24   -0.94    7.07 
   3   2 -24    1.44    2.97 
  -6  10  -3   22.46   56.58 
   7   5 -11    0.35    6.14 
   7  -5 -11    0.58    3.37 
   6 -10   3   31.49   14.41 
   6 -10  -6    1.43    7.33 
  -6  10   6    1.44    8.29 
   6  10  -6    0.34    8.58 
   6  10   3   22.11   49.69 
  -6 -10  -3   27.42   13.12 
  -3   2  24    0.75    8.09 
  -3  -2  24    0.87    7.92 
   0   5  24    9.20   28.61 
   1  10  19   21.19   46.37 
  -1 -10 -19   16.87   28.40 
   0  -5  24    6.16   24.81 
   0  -5 -24    8.39   30.21 
   0   5 -24   10.44   24.71 
  -1 -10 -19   16.18   36.47 
  -1  10 -19   13.77   38.86 
   1 -15  -7    8.55   24.62 
   1  15  -7    9.00   19.42 
   1  15  -7    7.07   31.65 
  -1 -15   7    4.95   24.60 
  -1  15   7    8.91   30.59 
  -8   0   1    1.14    4.70 
  -8   0   3    0.53    6.20 
   5 -11 -10   41.57   13.83 
  -5   6 -16    4.39   13.95 
   5   6  16    2.14   16.99 
   5  11 -10   56.20   36.87 
  -5  11  10   47.41   17.36 
  -5   6 -16    7.28   16.52 
  -5  -6 -16    8.05    8.38 
   6   4 -17    0.92    6.80 
   6  -4 -17    2.01    8.75 
  -6   4  17    1.07    4.03 
  -5   7 -15   20.65   50.35 
   5  -7  15   18.94   53.40 
   5   7  15   32.50   15.24 
  -5  -7 -15   33.78   14.55 
  -6   4 -14    1.99   13.75 
  -6   4 -14    4.39   11.32 
  -6  -4 -14    4.26   17.82 
  -4   4  22   12.71   32.16 
   5  -1 -21    2.74    7.45 
   5   1 -21    3.56   11.79 
   4   4 -22   11.50   39.21 
   4   4 -22   11.26   28.76 
  -2  10  19    1.85    5.92 
   4  -4 -22    6.43   19.56 
  -5   1  21    3.34    9.10 
  -6   2  18    3.44   10.13 
   2 -10 -19    1.89    4.39 
   2  10 -19    4.16    7.68 
   6   2 -18    2.73   17.74 
  -5  -1  21    6.43    9.95 
   2 -10 -19    1.72   10.84 
   2  10 -19    2.43   11.87 
   6  -2 -18    5.29    9.07 
   6   2 -18    1.44    8.99 
  -2  10 -18   33.55   17.00 
  -2  -1  25   59.22   23.69 
   2  10  18   34.35   14.88 
   7  -1 -14   12.06   39.04 
   2  -1 -25   66.03   24.86 
  -2   1  25   67.67   24.14 
   2   1 -25   50.72   19.43 
  -2 -10 -18   26.39    9.96 
   7   1 -14   16.19   52.66 
  -2 -10 -18   19.07   52.54 
  -4   4 -20  297.13   63.91 
  -2  -1 -24    1.35    4.99 
   2  -1  24    2.27   14.26 
   2   1  24    2.48   19.13 
  -4   4 -20  282.10   64.25 
  -4  -4 -20  295.48   61.33 
  -2  -1 -24    2.37    4.81 
  -8   1   2    2.22    8.20 
  -2   1 -24    4.21   21.60 
   4   4  20  322.40   69.44 
  -8  -1   2    2.67   20.60 
   6  -9 -10    2.96   11.04 
  -6   9  10    4.00   14.06 
  -5 -12  -3   10.40   34.66 
  -6   2 -15    9.77   23.65 
  -5   4  20   51.92   19.97 
   5  -4 -20   55.34   18.31 
   5   4 -20   39.28   27.19 
  -6  -2 -15    6.29   27.21 
   5   4 -20   44.43   24.20 
   5 -12   3    5.55   19.11 
   5  12   3    7.48   29.38 
   6   9 -10    4.31   25.10 
   6   9   7    0.94    4.77 
   6  -9   7    0.52    4.77 
  -6   9  -7    0.70    8.17 
  -6  -9  -7    1.52    4.67 
   6  -7 -14  102.81   27.52 
   4   0 -23   -0.24    8.12 
  -4  11  14    0.44    6.66 
   4 -11 -14   -0.41    9.28 
   6   7 -14   99.39   30.42 
  -4   0  23    3.29    9.57 
   4  11 -14   -0.20    5.94 
   4 -11 -14    0.84    3.89 
  -8  -1   3   25.77   11.66 
  -8   1   1  194.22   43.91 
  -8  -1   1  194.19   44.13 
  -8   1   3   12.85   34.55 
   7  -6   6    0.72    6.16 
   7   6   6    0.66    5.48 
   6  -7  11    4.06   16.09 
  -7  -6  -6    0.75    5.36 
  -7   6  -6    0.32    3.37 
   4  11  12   11.37   33.66 
   6   7  11    3.52    5.42 
  -1   6 -23   18.66   13.56 
  -8   0   4    1.23    5.77 
  -6  -7 -11    4.71    8.87 
  -1   6 -23   14.44   56.93 
  -1  -6 -23   25.28   13.79 
  -4   0 -21    2.00    7.63 
  -4  11 -12   11.54   27.15 
  -1  -6 -23   22.54   21.20 
   1   6  23   22.16   45.81 
   4 -11  12   10.92   31.49 
  -4   0 -21    0.65    5.41 
  -6   7 -11    4.20   15.95 
  -4 -11 -12    7.27   25.79 
  -5   3 -18  145.87   36.47 
  -5  -3 -18  164.12   40.43 
  -8   0   0   13.52   44.42 
  -5   3 -18  134.68   33.86 
   7  -7  -7    0.62    3.95 
   7   7  -7    1.97    7.54 
   4  10 -16  135.61   36.15 
   4 -10 -16   97.07   26.00 
  -7   7   7    0.64    6.28 
   4 -10 -16  123.67   31.37 
  -4  10  16  126.50   32.11 
  -4  10 -14    7.56   32.40 
   4 -10  14    7.67    9.79 
   3 -13  10   15.72   46.87 
  -4 -10 -14    6.68   19.74 
  -3 -13 -10   18.01   42.91 
   3  13  10   20.67   36.06 
  -3  13 -10   19.85   35.80 
   4  10  14    8.42   15.98 
  -2  15  -4   15.25   42.31 
   1   3 -25    5.01   19.01 
  -3 -14  -6  252.26   52.52 
   2  15  -5    3.02   23.13 
   3 -14   6  240.01   51.84 
   2 -15  -5    2.45   12.54 
   2 -15   4   14.64   49.55 
  -2 -15   5    3.11   13.94 
   3  14   6  218.92   49.37 
  -2  15   5    3.06   13.76 
  -2  15   5    6.40   17.25 
  -3  14  -6  226.26   50.76 
  -1   3  25    5.80   18.44 
  -1  -3  25    4.39   13.30 
   1  -3 -25   10.52   25.62 
   2  15   4    8.89   38.87 
  -2 -15  -4   14.24   29.65 
  -4   1  23  164.48   46.05 
   4   1 -23  163.35   39.48 
   4  -1 -23  157.31   37.28 
  -4  -1  23  184.11   44.16 
  -1 -14 -11   91.42   22.84 
  -3  -8 -19   17.97   44.29 
  -4   1 -21    1.44   11.97 
   8  -1  -4    0.70    3.20 
   3  -8  19   31.36   14.35 
  -1  14 -11   83.00   25.81 
  -3   8 -19   28.71   15.65 
  -4   1 -21    2.52   11.42 
  -8  -1   4    0.39    3.33 
   1  14  11   87.50   26.18 
  -4  -1 -21    2.36   11.46 
   3   8  19   22.50   41.49 
   1 -14  11   86.54   23.06 
  -1 -14 -11   96.83   27.39 
  -4  -1 -21    5.32   13.38 
  -8  -1   0    0.97    4.75 
  -8   1   0    0.31    4.36 
   1   0  25   41.33   39.67 
  -1   0 -25   34.35   42.55 
   5 -12  -6   77.76   23.58 
   5  12  -6   86.43   30.97 
  -5  12   6   78.86   24.52 
  -3  10  18  316.67   66.67 
  -7   4  -9  115.95   34.38 
   3 -10 -18  294.75   57.37 
   3 -10 -18  308.37   61.20 
  -7  -4  -9  118.27   34.03 
   3  10 -18  272.85   60.99 
   3  10 -18  293.08   59.84 
   0  -3  25    0.97    6.76 
  -3   7 -20    2.61    7.65 
   0   3  25    1.06    6.74 
  -1 -15  -7   39.59   14.41 
  -3  -7 -20    0.55    6.87 
   5 -10 -13   74.60   20.91 
   5  10 -13   94.39   45.50 
   3   7  20    1.07    5.67 
   3  -7  20    1.98    6.94 
   0  -3 -25    1.51   10.01 
   1 -15   7   46.46   14.79 
   4  -7 -20   42.79   15.96 
   4   7 -20   31.94   53.90 
  -1  15  -7   43.19   16.38 
   1  15   7   36.63   11.49 
   4   7 -20   34.72   17.18 
   1  15   7   49.36   36.14 
  -4   7  20   45.07   17.09 
   5   5  17    3.99   12.09 
  -5   5 -17    5.51   14.80 
  -5  -5 -17    6.29   25.80 
  -5   5 -17    9.15   17.04 
  -4  -7 -18    2.46    9.79 
  -4   7 -18   -0.47    9.51 
   4  -7  18    1.64    3.54 
   4   7  18    0.48    4.48 
  -1  12 -16  161.19   41.08 
   1  12  16  131.19   34.38 
   4 -13  -8   77.08   24.41 
  -4 -13  -6   26.84   52.51 
  -4  13  -6   28.22   14.43 
   4  13   6   35.93   15.42 
   4  13  -8   85.69   29.62 
  -1 -12 -16  176.24   41.52 
   4 -13   6   25.31   12.65 
  -4  13   8   90.85   26.71 
  -1 -12 -16  154.35   33.68 
   8   0  -5    0.54    4.54 
   5   8  14    9.99   20.76 
  -3  -4 -22    1.01    4.64 
   3   4  22    1.39    6.19 
  -3  -4 -22    0.28    5.86 
  -3   4 -22    0.29    4.85 
  -5   8 -14    9.10   25.84 
  -5  -8 -14   13.37   33.82 
  -3   4 -22    1.43    5.35 
   5  -8  14   12.72   34.61 
  -8   0  -1    0.31    4.74 
   0 -15  -8    0.91    5.93 
   0  15  -8    0.89    5.47 
   0 -15   8    0.57    4.95 
  -1   8  22  205.84   49.29 
   0  15   8    0.23    5.81 
   1   8 -22  185.99   44.81 
   0  15   8    0.78    4.34 
   1  -8 -22  202.06   45.69 
   1   8 -22  148.51   49.94 
   0  15  -8    1.68   13.56 
   1  -8 -22  163.42   35.44 
   5  -9 -15    1.38    6.57 
   5   9 -15    1.24    8.16 
   3  -5 -23    2.27   14.31 
   3   5 -23    4.18   15.57 
   5  -9 -15    1.39    4.34 
  -5   9  15    1.55    4.68 
   3   5 -23    4.17   18.17 
  -3   5  23    2.10   10.74 
   1  -1  25    2.97    7.12 
   1   1  25    1.83    8.06 
  -1  -1 -25    2.59   13.54 
  -1   1 -25    3.06   13.51 
   5  -2 -21    0.60    8.01 
   5   2 -21    1.87   13.27 
   5   2 -21    1.31    6.33 
  -5   2  21    1.44    6.20 
   0   8 -22   95.31   28.16 
   4  -8 -19    1.63    7.02 
   2  -2 -25    8.43   28.66 
   0  -8 -22  122.29   30.32 
   0  -8 -22  117.58   36.64 
   0   8 -22  129.78   33.12 
   7  -2 -14    2.67   17.40 
  -2  -2  25    9.51   22.38 
   4   8 -19    0.21    4.66 
   2   2 -25    8.28   34.67 
  -2   2  25   12.90   23.79 
   0   8  22  133.66   38.44 
  -7   5  -8   75.49   27.58 
  -7  -5  -8   85.31   27.22 
   7  -2 -14    5.38   22.64 
   7   2 -14    5.95   21.23 
   4   8 -19    0.73    7.18 
  -2   2 -24    0.28    6.72 
   2  -2  24    1.49    4.88 
   6  10  -7   12.13   29.53 
  -2  -2 -24    2.17   10.97 
  -5 -11  -8    1.60    5.38 
   8  -2  -2    1.21    4.60 
   6 -10  -7   12.53   17.26 
  -6  10   7    6.87   25.63 
   2   2  24    2.34    6.83 
  -5  11  -8    0.60   11.13 
  -8  -2   2    3.62    7.42 
  -2  -2 -24    1.00    7.74 
   5 -11   8    0.78    5.31 
   5  11   8   -0.15    4.43 
  -4   8 -17    5.49   13.61 
  -6  10  -4   11.59   31.11 
   7   7   4    6.17   15.94 
   6 -10   4   10.04   18.16 
   4  -8  17    4.04   12.23 
   4   8  17    2.92   12.59 
  -7  -7  -4    5.52   28.61 
  -4  -8 -17    5.57   19.94 
  -6 -10  -4    8.43   28.21 
  -7   7  -4    6.88   16.00 
   7  -7   4    4.93   18.82 
   1   9 -21   50.72   19.45 
  -1   9  21   41.81   17.77 
   1   9 -21   48.89   19.90 
   1  -9 -21   47.26   18.14 
   7  -6 -10    9.05   30.92 
   7  -6 -10   16.48    9.04 
   0  -9 -21  208.25   44.85 
   8  -1  -5    2.50    5.09 
  -8   2   1    5.09   17.45 
  -8  -2   3   35.41   15.28 
   0  -9 -21  197.80   43.39 
   8  -2  -3   26.24   39.42 
   7   6 -10    4.86   24.89 
  -8  -2   1    4.83   14.38 
   0   9 -21  205.68   49.10 
   0   9 -21  181.38   44.43 
   0   9  21  218.49   53.03 
  -8   1  -1   62.23   21.34 
  -7  -3 -10  174.50   43.46 
  -7   3 -10  210.07   51.09 
  -8  -1  -1   59.80   22.32 
   3   9  18   89.32   25.67 
   3  -9  18   98.07   26.30 
  -3  -9 -18   88.20   25.94 
  -3   9 -18  101.75   45.42 
   3  14  -8  278.65   77.36 
   5  12   4    0.78    8.81 
  -3  14   8  280.20   59.11 
   3 -14  -8  291.25   59.03 
  -5 -12  -4   -0.53    6.36 
  -1 -13 -14    2.68   10.97 
  -1 -13 -14    3.39   12.36 
   1  13  14    5.48   11.08 
  -1  13 -14    4.31   13.20 
  -3  11 -15   27.67   22.08 
  -7   0 -11    0.17    3.96 
   3 -11  15   16.64   35.56 
  -3 -11 -15   33.53   19.48 
   3  11  15   30.73   15.31 
   4   6 -21    6.04   26.51 
   4   6 -21    4.17   13.80 
   4  -6 -21    8.57   23.33 
  -4   6  21    7.07   22.84 
  -3  -3  24   56.07   21.57 
   3  -3 -24   54.86   19.61 
  -3   3  24   56.41   21.23 
   3   3 -24   48.29   61.50 
   4   6  19   37.65   14.08 
  -4   6 -19   50.38   20.22 
  -4   6 -19   40.90   15.22 
   3  12  13    4.60   13.60 
  -3  12 -13    2.77   10.83 
  -4  -6 -19   47.04   17.48 
   3 -12  13    1.09    7.29 
  -3 -12 -13    3.04   12.57 
  -3   0 -23   18.01   11.08 
  -4  -2  23    4.31   15.69 
  -4   2  23    1.59   10.38 
   0 -14 -12    3.04    8.81 
   0  14  12    4.33   12.22 
  -3   0 -23    9.93   31.73 
   4   2 -23    2.46   14.90 
   0 -14 -12    4.60   16.42 
   3   0  23    7.92   36.41 
   0  14 -12    2.99   16.85 
   4  -2 -23    6.74   18.89 
  -4   2 -21    5.38   21.37 
   8  -2  -4   40.30   14.04 
  -4  -2 -21    3.47   11.07 
  -4   2 -21    6.65   23.90 
  -8   2   0   49.71   21.76 
  -8  -2   0   58.78   20.08 
   2  12 -16   18.14   45.60 
  -2  12 -15   61.63   23.18 
  -2  12  16   24.65   60.35 
   2 -12 -16   20.32   48.22 
   2  12 -16   24.74   15.65 
   1  -7 -23    3.94   13.84 
  -2 -12 -15   52.36   22.79 
   2  12  15   56.65   20.74 
   1  -7 -23    4.64   15.54 
   2 -12  15   50.95   16.74 
   2 -12 -16   34.92   13.79 
   1   7 -23    4.47   12.66 
  -1   7  23    2.73   12.32 
   1   7 -23    5.41   16.59 
  -6   3  18    4.50    8.10 
   6  -3 -18    3.30    8.69 
   6   3 -18    2.59    5.39 
   1 -15  -8   54.02   19.61 
  -1 -15   8   56.51   17.38 
   1  15  -8   53.48   17.95 
  -7  -1 -11   13.39   41.94 
  -4  12  12    0.66    4.28 
   1  15  -8   50.51   19.05 
  -1  15   8   55.60   19.69 
  -4  12  12   -0.31    8.08 
  -7   1 -11   12.69   29.76 
   4  12 -12    1.77    6.70 
   4  12  10  168.31   40.31 
   2  15   5    0.85    8.07 
  -4 -12 -10  171.39   40.22 
  -2  15   6  160.94   37.40 
   2 -15  -6  165.93   38.82 
  -2 -15   6  146.39   32.25 
   2 -15   5    1.40    8.32 
  -4  12 -10  161.25   40.61 
  -2 -15  -5    2.67    7.24 
   2  15  -6  139.00   40.06 
  -2  15   6  150.23   34.13 
   4 -12  10  178.97   41.88 
  -2  15  -5    2.40    9.07 
  -6   3 -15    0.11    3.21 
  -6   3 -15   -0.27    7.57 
  -6  -3 -15   -0.12    9.20 
   0  -7 -23   11.87   28.39 
   3 -13 -12    0.83    4.80 
  -8   0  -2   -0.87    6.53 
   0   7 -23   11.61   34.02 
   0   7 -23   16.42   26.00 
   0  -7 -23   17.66   11.31 
  -3  13  12   -0.04    6.39 
   3  13 -12    0.41    5.93 
   0   7  23   13.27   45.43 
  -3   1 -23    3.54    9.87 
  -3   1 -23    3.48    9.35 
  -3  -1 -23    2.29    6.36 
  -7   7   8    4.46   15.27 
  -3  -1 -23    3.96    5.92 
   7   7  -8    4.57   15.21 
   7  -7  -8    2.97   14.08 
   3   1  23    2.57    8.83 
   2   5 -24  142.23   36.09 
   7   8  -2    7.07   27.90 
  -2   5  24  203.06   52.13 
   2  -5 -24  167.10   39.14 
  -3   6 -21   21.65   57.32 
   3   6  21   21.67   43.13 
  -7   8   2    4.49   25.38 
  -3  -6 -21   30.04   13.35 
  -3   6 -21   24.36   11.52 
   2   5 -24  169.80   43.65 
   7  -8  -2    5.08   11.90 
  -3  -6 -21   14.29   35.42 
   7  -8  -1    7.84   34.03 
  -2  -5 -23    6.84   18.63 
  -7   8   1   13.91   34.65 
   7   8  -1   12.10   29.48 
  -2  -5 -23    6.30   22.82 
  -7  -8   1   11.34   39.41 
   2   5  23    6.79   18.66 
  -2   5 -23    5.34   22.89 
  -1  -2 -25   62.22   22.78 
   5 -12  -7  162.48   39.26 
   5  -7 -18    8.28   25.04 
  -5  12   7  160.16   38.45 
  -1   2 -25   66.23   24.35 
  -5   7  18    9.63   27.18 
   1  -2  25   61.10   20.64 
   5   7 -18   13.68   27.13 
   5  12  -7  135.86   37.82 
  -1  14  12   92.86   26.23 
   1  14 -12   88.03   26.32 
   1 -14 -12  110.76   27.39 
   1  11  18    1.01   10.85 
  -1 -11 -18    0.83    5.46 
   1 -14 -12  110.59   30.58 
  -1  11 -18    0.78    5.85 
   1  14 -12   74.77   23.37 
  -1 -11 -18   -0.37    6.21 
  -7   8   3   36.48   37.58 
   7   8  -3   21.63   55.79 
   7  -8  -3   35.70   13.50 
   7   4 -13    3.79   15.39 
   5  -6 -19   68.90   22.20 
  -5   6  19   77.50   24.37 
   5   6 -19   83.40   47.99 
   6  -8 -13    6.28   18.97 
   8  -1  -6    3.98   11.32 
   6  -8 -13    6.89   13.16 
   6   8 -13    3.71   15.64 
  -8  -1  -2   -0.23    7.72 
  -8   1  -2    1.22    8.91 
  -6   8 -10    5.53   34.38 
   6   8  10    5.09   17.26 
  -6  -8 -10    4.38   25.09 
   6  -8  10    8.99   30.11 
  -4   9  18   49.15   18.71 
   4   9 -18   40.92   17.07 
   4  -9 -18   57.16   21.32 
   4   9 -18   52.62   22.31 
   4  -9 -18   40.34   37.29 
   8  -2  -5    4.34   11.69 
  -7  -8   0    3.33   12.73 
   7  -8   0    4.90    9.24 
  -8  -2  -1   10.47   29.33 
  -8   2  -1    6.41   27.34 
  -7   8   0    4.62   17.13 
   7   8   0    3.89   16.14 
  -5  11  11   11.32   45.38 
   5 -11 -11   17.16   34.51 
   5  11 -11   13.50   39.12 
   7   5 -12   37.35   16.86 
  -4  -9 -16   11.06   39.63 
  -4   9 -16   12.59   40.28 
   4  -9  16    9.53   23.90 
   7  -5 -12   29.54   10.63 
   4   9  16   11.49   28.07 
   0 -10 -20   44.04   15.42 
  -2  14  11  107.40   27.42 
   3  14   7   49.69   21.57 
   2  14 -11   86.96   23.42 
   3 -14   7   59.72   22.03 
   2  14 -11   98.86   29.77 
  -3  14  -7   59.04   24.76 
  -2  14  11   96.28   26.54 
   1 -10 -20  115.08   30.04 
   0 -10 -20   44.93   18.43 
   0  10 -20   47.01   18.70 
  -3 -14  -7   56.83   20.82 
   0  10 -20   45.65   15.87 
   2 -14 -11  117.54   31.12 
   0  10  20   39.21   17.29 
   1  10 -20   96.94   27.88 
  -1  10  20   95.97   29.43 
   1 -10 -20  113.04   30.62 
   1  10 -20  103.09   36.44 
   2 -14  10    8.56   33.30 
  -2 -14 -10   10.25   23.71 
  -5   0 -19  150.67   39.27 
   2  14  10   12.83   20.29 
  -2  14 -10   10.17   21.25 
   7  -6   7    1.89   14.70 
  -5  10 -11    3.23   16.14 
   5  10  11    8.44   14.35 
  -5 -10 -11    5.80   27.72 
  -7  -6  -7    7.09   18.47 
   5 -10  11    5.07   16.80 
  -7   6  -7    2.51   10.97 
   6   9 -11   11.61   43.32 
   2  11 -18   42.65   16.83 
  -2  11  18   55.62   22.91 
  -6   9  11    9.19   39.32 
   2 -11 -18   54.02   19.97 
   2  11 -18   47.09   16.87 
   6  -9 -11   12.15   35.62 
   2 -11 -18   51.66   18.10 
  -2  11 -17   23.83   57.03 
   2  11  17   21.27   45.61 
  -2 -11 -17   14.56   47.95 
   6   9   8    3.94   19.33 
  -6   9  -8    3.62   22.65 
   6  -9   8    6.02   12.95 
  -6  -9  -8    4.60   13.69 
   7   8  -4    0.80    8.11 
  -7   8   4    0.84    4.43 
   7  -8  -4    1.46    5.23 
   2 -13 -14    1.29    4.88 
   2  13 -14    1.63    7.00 
  -2  13  14    2.39    7.66 
  -2 -13 -13    1.19   10.33 
   2  13  13    3.02   10.86 
  -2  13 -13    4.58    7.15 
  -5  -4 -18    2.39   17.70 
  -5   4 -18    2.03    6.05 
  -5   4 -18    2.01    8.56 
  -6  10   8   12.70   22.57 
  -6  10  -5    1.96    6.49 
   6  10   5    1.82    7.04 
  -5  -1 -19   -0.09    3.53 
  -5   1 -19    1.81    3.88 
  -5   1 -19    0.74    9.43 
   6 -10   5    1.23    9.00 
  -6 -10  -5    0.61    7.50 
  -1   5 -24   39.59   20.31 
   1  -5  24   39.94   15.91 
   1   5  24   48.54   19.96 
  -7  -2 -11    2.98    7.85 
  -2   3  25    2.65   15.93 
   2   3 -25    2.49    8.57 
  -7   2 -11   -0.37   11.38 
  -2  -3  25    2.28   19.89 
  -7  -7  -5    0.52    9.80 
  -7   7  -5   -0.72    7.54 
   7   7   5    0.47    5.09 
   7  -7   5    0.54    6.45 
   2  -3  24    1.66    9.22 
   0  12 -17    1.24    4.89 
  -2  -3 -24    1.67    8.52 
   1  15   8    0.40    3.58 
  -1 -15  -8    1.49    8.89 
  -2   3 -24    1.31    8.38 
  -8  -3   2    9.15   27.59 
   2   3  24    4.57   10.11 
  -1  -4  25   15.43   40.63 
  -6   6 -13  117.44   32.99 
  -3   2 -23   -0.04    7.52 
;
_shelx_hkl_checksum              93739
#END Tags that were not found in dictionaries
loop_
_space_group_symop_operation_xyz
'x, y, z'
'-x+1/2, y+1/2, -z+1/2'
'-x, -y, -z'
'x-1/2, -y-1/2, z-1/2'
loop_
_atom_site_label
_atom_site_type_symbol
_atom_site_fract_x
_atom_site_fract_y
_atom_site_fract_z
_atom_site_U_iso_or_equiv
_atom_site_adp_type
_atom_site_occupancy
_atom_site_site_symmetry_order
_atom_site_calc_flag
_atom_site_refinement_flags_posn
_atom_site_refinement_flags_adp
S1 S 0.33693(7) 0.51337(3) 0.21054(2) 0.01303(12) Uani 1 1 d . .
F1 F 0.60132(18) 0.21958(10) 0.36347(6) 0.0345(3) Uani 1 1 d . .
O1 O 0.42273(19) 0.62317(9) 0.21335(6) 0.0173(3) Uani 1 1 d . .
O2 O 0.10747(18) 0.49600(10) 0.20913(6) 0.0184(3) Uani 1 1 d . .
N1 N 0.4426(2) 0.44879(11) 0.27826(7) 0.0118(3) Uani 1 1 d . .
C1 C 0.6794(3) 0.46340(14) 0.29817(9) 0.0125(4) Uani 1 1 d . .
H1 H 0.7415 0.5121 0.2636 0.015 Uiso 1 1 calc R U
C2 C 0.7683(3) 0.34588(14) 0.28971(9) 0.0162(4) Uani 1 1 d . .
H2A H 0.8268 0.3382 0.2445 0.019 Uiso 1 1 calc R U
H2B H 0.8867 0.3310 0.3254 0.019 Uiso 1 1 calc R U
C3 C 0.5873(3) 0.26638(15) 0.29589(9) 0.0190(4) Uani 1 1 d . .
H3 H 0.5911 0.2070 0.2607 0.023 Uiso 1 1 calc R U
C4 C 0.3781(3) 0.33180(14) 0.28563(9) 0.0171(4) Uani 1 1 d . .
H4A H 0.2910 0.3065 0.2441 0.020 Uiso 1 1 calc R U
H4B H 0.2909 0.3228 0.3254 0.020 Uiso 1 1 calc R U
C5 C 0.7230(3) 0.51755(15) 0.36920(9) 0.0152(4) Uani 1 1 d . .
C6 C 0.6064(3) 0.62951(15) 0.36978(10) 0.0219(4) Uani 1 1 d . .
H6A H 0.6377 0.6648 0.4143 0.026 Uiso 1 1 calc R U
H6B H 0.4498 0.6182 0.3614 0.026 Uiso 1 1 calc R U
H6C H 0.6576 0.6768 0.3339 0.026 Uiso 1 1 calc R U
C7 C 0.9678(3) 0.53774(17) 0.38123(10) 0.0245(5) Uani 1 1 d . .
H7A H 1.0161 0.5841 0.3445 0.029 Uiso 1 1 calc R U
H7B H 1.0445 0.4671 0.3817 0.029 Uiso 1 1 calc R U
H7C H 0.9991 0.5750 0.4252 0.029 Uiso 1 1 calc R U
C8 C 0.6459(3) 0.44640(17) 0.42709(9) 0.0236(4) Uani 1 1 d . .
H8A H 0.7188 0.3747 0.4273 0.028 Uiso 1 1 calc R U
H8B H 0.4888 0.4356 0.4200 0.028 Uiso 1 1 calc R U
H8C H 0.6809 0.4834 0.4709 0.028 Uiso 1 1 calc R U
C9 C 0.4281(3) 0.44796(14) 0.13746(8) 0.0134(4) Uani 1 1 d . .
C10 C 0.6291(3) 0.47562(15) 0.11492(9) 0.0156(4) Uani 1 1 d . .
H10 H 0.7172 0.5299 0.1382 0.019 Uiso 1 1 calc R U
C11 C 0.6985(3) 0.42267(15) 0.05790(9) 0.0185(4) Uani 1 1 d . .
H11 H 0.8354 0.4415 0.0425 0.022 Uiso 1 1 calc R U
C12 C 0.5729(3) 0.34284(15) 0.02279(9) 0.0195(4) Uani 1 1 d . .
C13 C 0.3730(3) 0.31718(16) 0.04595(9) 0.0211(4) Uani 1 1 d . .
H13 H 0.2846 0.2631 0.0224 0.025 Uiso 1 1 calc R U
C14 C 0.2994(3) 0.36879(15) 0.10278(9) 0.0184(4) Uani 1 1 d . .
H14 H 0.1620 0.3502 0.1179 0.022 Uiso 1 1 calc R U
C15 C 0.6514(3) 0.28627(17) -0.03899(9) 0.0273(5) Uani 1 1 d . .
H15A H 0.6604 0.2067 -0.0307 0.033 Uiso 1 1 calc R U
H15B H 0.7951 0.3146 -0.0476 0.033 Uiso 1 1 calc R U
H15C H 0.5499 0.3008 -0.0788 0.033 Uiso 1 1 calc R U
loop_
_atom_site_aniso_label
_atom_site_aniso_U_11
_atom_site_aniso_U_22
_atom_site_aniso_U_33
_atom_site_aniso_U_23
_atom_site_aniso_U_13
_atom_site_aniso_U_12
S1 0.0132(2) 0.0120(2) 0.0140(2) -0.00005(17) 0.00123(17) 0.00156(18)
F1 0.0364(7) 0.0296(7) 0.0376(7) 0.0124(6) 0.0031(6) 0.0024(5)
O1 0.0230(7) 0.0099(7) 0.0190(7) 0.0004(5) 0.0014(5) 0.0019(5)
O2 0.0125(6) 0.0227(7) 0.0200(7) 0.0000(5) 0.0017(5) 0.0037(5)
N1 0.0102(7) 0.0115(7) 0.0137(7) 0.0011(6) 0.0008(6) -0.0008(6)
C1 0.0108(9) 0.0131(9) 0.0139(9) 0.0007(7) 0.0026(7) 0.0002(7)
C2 0.0175(10) 0.0151(9) 0.0163(9) -0.0006(7) 0.0035(7) 0.0033(8)
C3 0.0208(10) 0.0154(10) 0.0211(10) -0.0001(8) 0.0043(8) 0.0007(8)
C4 0.0168(9) 0.0129(9) 0.0217(10) 0.0029(7) 0.0033(8) -0.0028(7)
C5 0.0148(9) 0.0165(9) 0.0141(9) -0.0018(7) 0.0002(7) 0.0011(7)
C6 0.0259(11) 0.0190(10) 0.0207(10) -0.0066(8) -0.0001(8) 0.0014(8)
C7 0.0183(10) 0.0338(12) 0.0206(10) -0.0053(9) -0.0027(8) -0.0006(9)
C8 0.0289(11) 0.0275(11) 0.0151(10) -0.0011(8) 0.0063(8) 0.0025(9)
C9 0.0158(9) 0.0129(9) 0.0114(9) 0.0011(7) 0.0000(7) 0.0030(7)
C10 0.0146(9) 0.0164(9) 0.0153(9) 0.0010(7) -0.0015(7) -0.0005(7)
C11 0.0162(9) 0.0233(10) 0.0163(9) 0.0035(8) 0.0025(7) 0.0047(8)
C12 0.0272(11) 0.0183(10) 0.0128(9) 0.0008(7) 0.0004(8) 0.0084(8)
C13 0.0269(11) 0.0172(10) 0.0184(10) -0.0031(8) -0.0036(8) -0.0018(8)
C14 0.0177(10) 0.0184(10) 0.0190(10) -0.0002(8) 0.0011(8) -0.0018(8)
C15 0.0386(12) 0.0269(11) 0.0165(10) -0.0031(8) 0.0024(9) 0.0089(9)
loop_
_atom_type_symbol
_atom_type_description
_atom_type_scat_dispersion_real
_atom_type_scat_dispersion_imag
_atom_type_scat_source
C C 0.0033 0.0016 'International Tables Vol C Tables 4.2.6.8 and 6.1.1.4'
H H 0.0000 0.0000 'International Tables Vol C Tables 4.2.6.8 and 6.1.1.4'
N N 0.0061 0.0033 'International Tables Vol C Tables 4.2.6.8 and 6.1.1.4'
O O 0.0106 0.0060 'International Tables Vol C Tables 4.2.6.8 and 6.1.1.4'
F F 0.0171 0.0103 'International Tables Vol C Tables 4.2.6.8 and 6.1.1.4'
S S 0.1246 0.1234 'International Tables Vol C Tables 4.2.6.8 and 6.1.1.4'
loop_
_geom_angle_atom_site_label_1
_geom_angle_atom_site_label_2
_geom_angle_atom_site_label_3
_geom_angle
O1 S1 O2 120.04(7)
O1 S1 N1 106.92(7)
O2 S1 N1 106.09(7)
O1 S1 C9 107.86(8)
O2 S1 C9 107.29(8)
N1 S1 C9 108.16(8)
C4 N1 C1 110.67(12)
C4 N1 S1 116.37(11)
C1 N1 S1 118.43(11)
N1 C1 C2 102.27(13)
N1 C1 C5 112.53(13)
C2 C1 C5 116.87(14)
N1 C1 H1 108.3
C2 C1 H1 108.3
C5 C1 H1 108.3
C3 C2 C1 108.24(13)
C3 C2 H2A 110.1
C1 C2 H2A 110.1
C3 C2 H2B 110.1
C1 C2 H2B 110.1
H2A C2 H2B 108.4
F1 C3 C2 109.86(14)
F1 C3 C4 108.47(13)
C2 C3 C4 106.81(15)
F1 C3 H3 110.5
C2 C3 H3 110.5
C4 C3 H3 110.5
N1 C4 C3 106.23(13)
N1 C4 H4A 110.5
C3 C4 H4A 110.5
N1 C4 H4B 110.5
C3 C4 H4B 110.5
H4A C4 H4B 108.7
C8 C5 C7 109.69(15)
C8 C5 C6 108.55(14)
C7 C5 C6 108.40(15)
C8 C5 C1 112.80(15)
C7 C5 C1 107.84(14)
C6 C5 C1 109.48(14)
C5 C6 H6A 109.5
C5 C6 H6B 109.5
H6A C6 H6B 109.5
C5 C6 H6C 109.5
H6A C6 H6C 109.5
H6B C6 H6C 109.5
C5 C7 H7A 109.5
C5 C7 H7B 109.5
H7A C7 H7B 109.5
C5 C7 H7C 109.5
H7A C7 H7C 109.5
H7B C7 H7C 109.5
C5 C8 H8A 109.5
C5 C8 H8B 109.5
H8A C8 H8B 109.5
C5 C8 H8C 109.5
H8A C8 H8C 109.5
H8B C8 H8C 109.5
C14 C9 C10 120.09(16)
C14 C9 S1 119.97(13)
C10 C9 S1 119.94(13)
C11 C10 C9 119.07(16)
C11 C10 H10 120.5
C9 C10 H10 120.5
C10 C11 C12 121.71(17)
C10 C11 H11 119.1
C12 C11 H11 119.1
C13 C12 C11 118.16(16)
C13 C12 C15 120.97(17)
C11 C12 C15 120.86(17)
C12 C13 C14 121.37(17)
C12 C13 H13 119.3
C14 C13 H13 119.3
C13 C14 C9 119.60(17)
C13 C14 H14 120.2
C9 C14 H14 120.2
C12 C15 H15A 109.5
C12 C15 H15B 109.5
H15A C15 H15B 109.5
C12 C15 H15C 109.5
H15A C15 H15C 109.5
H15B C15 H15C 109.5
loop_
_geom_bond_atom_site_label_1
_geom_bond_atom_site_label_2
_geom_bond_distance
S1 O1 1.4336(12)
S1 O2 1.4338(13)
S1 N1 1.6349(15)
S1 C9 1.7711(18)
F1 C3 1.440(2)
N1 C4 1.485(2)
N1 C1 1.497(2)
C1 C2 1.542(2)
C1 C5 1.546(2)
C1 H1 1.0000
C2 C3 1.490(2)
C2 H2A 0.9900
C2 H2B 0.9900
C3 C4 1.519(2)
C3 H3 1.0000
C4 H4A 0.9900
C4 H4B 0.9900
C5 C8 1.534(2)
C5 C7 1.535(2)
C5 C6 1.539(2)
C6 H6A 0.9800
C6 H6B 0.9800
C6 H6C 0.9800
C7 H7A 0.9800
C7 H7B 0.9800
C7 H7C 0.9800
C8 H8A 0.9800
C8 H8B 0.9800
C8 H8C 0.9800
C9 C14 1.391(2)
C9 C10 1.394(2)
C10 C11 1.388(2)
C10 H10 0.9500
C11 C12 1.390(3)
C11 H11 0.9500
C12 C13 1.387(2)
C12 C15 1.508(2)
C13 C14 1.388(2)
C13 H13 0.9500
C14 H14 0.9500
C15 H15A 0.9800
C15 H15B 0.9800
C15 H15C 0.9800
loop_
_geom_hbond_atom_site_label_D
_geom_hbond_atom_site_label_H
_geom_hbond_atom_site_label_A
_geom_hbond_distance_DH
_geom_hbond_distance_HA
_geom_hbond_distance_DA
_geom_hbond_angle_DHA
_geom_hbond_site_symmetry_A
C1 H1 O2 1.00 2.59 3.312(2) 129.2 1_655
C10 H10 F1 0.95 2.56 3.408(2) 148.5 2_655
loop_
_geom_torsion_atom_site_label_1
_geom_torsion_atom_site_label_2
_geom_torsion_atom_site_label_3
_geom_torsion_atom_site_label_4
_geom_torsion
O1 S1 N1 C4 -179.24(11)
O2 S1 N1 C4 51.54(13)
C9 S1 N1 C4 -63.31(13)
O1 S1 N1 C1 -43.47(13)
O2 S1 N1 C1 -172.69(11)
C9 S1 N1 C1 72.46(14)
C4 N1 C1 C2 22.03(17)
S1 N1 C1 C2 -116.06(12)
C4 N1 C1 C5 -104.20(16)
S1 N1 C1 C5 117.71(14)
N1 C1 C2 C3 -23.94(18)
C5 C1 C2 C3 99.41(17)
C1 C2 C3 F1 -99.99(16)
C1 C2 C3 C4 17.47(19)
C1 N1 C4 C3 -12.14(19)
S1 N1 C4 C3 126.89(13)
F1 C3 C4 N1 114.75(15)
C2 C3 C4 N1 -3.61(19)
N1 C1 C5 C8 63.73(18)
C2 C1 C5 C8 -54.18(19)
N1 C1 C5 C7 -174.99(14)
C2 C1 C5 C7 67.09(19)
N1 C1 C5 C6 -57.24(18)
C2 C1 C5 C6 -175.16(14)
O1 S1 C9 C14 -148.52(14)
O2 S1 C9 C14 -17.89(16)
N1 S1 C9 C14 96.16(15)
O1 S1 C9 C10 31.68(16)
O2 S1 C9 C10 162.31(13)
N1 S1 C9 C10 -83.63(15)
C14 C9 C10 C11 -0.4(3)
S1 C9 C10 C11 179.40(13)
C9 C10 C11 C12 0.0(3)
C10 C11 C12 C13 0.4(3)
C10 C11 C12 C15 -179.96(16)
C11 C12 C13 C14 -0.4(3)
C15 C12 C13 C14 179.98(17)
C12 C13 C14 C9 0.0(3)
C10 C9 C14 C13 0.4(3)
S1 C9 C14 C13 -179.38(14)
